data_PCOD9030716
_publ_section_title
;
Structure prediction by ZEFSAII (Michael W. Deem and Ramdas Pophale) SiO2 
 PCOD9030716
Probable space group: P -1
;
_chemical_formula_sum "Si O2"
_cell_formula_units_Z 16
_cell_length_a 7.465621
_cell_length_b 5.666867
_cell_length_c 21.666434
_cell_angle_alpha 58.898595
_cell_angle_beta 105.999184
_cell_angle_gamma 117.254781
_cell_volume 696.815661
_symmetry_space_group_name_H-M "P -1"
_symmetry_group_IT_number 2
_symmetry_cell_setting 'triclinic'
loop_
_space_group_symop_operation_xyz
x,y,z
-x,-y,-z
loop_
_atom_site_type_symbol
_atom_site_label
_atom_site_fract_x
_atom_site_fract_y
_atom_site_fract_z
Si Si1 0.112553 0.554789 0.163349
Si Si2 0.162823 0.724829 0.531073
Si Si3 0.295993 0.717187 0.022485
Si Si4 0.747706 0.101773 0.243736
Si Si5 0.429256 0.368137 0.443228
Si Si6 0.902712 0.574286 0.307922
Si Si7 0.681582 0.271859 0.722948
Si Si8 0.061018 0.119165 0.057948
O O1 0.227467 0.627624 0.099468
O O2 0.235467 0.508793 0.239763
O O3 0.892647 0.295293 0.177381
O O4 0.077198 0.857168 0.134593
O O5 0.380034 0.697722 0.553296
O O6 0.085364 0.620239 0.606065
O O7 0.000000 0.500000 0.500000
O O8 0.227652 0.069994 0.472285
O O9 0.272981 0.397033 0.037775
O O10 0.126296 0.788218 0.957911
O O11 0.500000 0.000000 0.000000
O O12 0.810463 0.327037 0.278404
O O13 0.791397 0.795115 0.287595
O O14 0.507999 0.000635 0.231473
O O15 0.500000 0.500000 0.500000
O O16 0.393854 0.586126 0.360574
O O17 0.128071 0.780052 0.279993
O O18 0.000000 0.000000 0.000000
#
# Coordination Sequence:
#
# PCOD9030716 Si02
#       8
#     2   2   2   2   2   2   2   2
#     4  10  25  42  67 103 140 186 235 291 369 429
#     4  11  25  41  72  99 139 185 249 312 371 437
#     4  10  22  42  73 102 138 184 235 289 353 435
#     4  11  26  48  70 102 151 191 239 304 364 444
#     4  11  24  45  68 103 138 195 250 306 376 438
#     4  11  26  47  70 103 141 192 247 301 374 438
#     4  11  25  45  72 101 148 190 247 304 372 442
#     4   9  21  43  64  97 139 174 224 287 345 424
#
# _framework density 22.961597000000001
#
# number of rings (size 3 to 8) (size 9 to 14) (size 15 to 20)
#    0.000    1.500    1.250    1.500    7.000   10.000 
#    0.000    0.000    0.000    0.000    0.000    0.000 
#    0.000    0.000    0.000    0.000    0.000    0.000 
#
# Total GULP energy -89256.596896 kJ/mol
# GULP energy per Si atom -5578.537306 kJ/mol
# Density = 2.290934 g / cm^3
# Si number density = 22.961597 Si / 1000 Ang^3
#
#
#
# Elastic Constant Matrix: (Units=GPa)
#
#
# Indices 1 2 3 4 5 6 
#
# 1 82.7719 38.5525 13.1436 -4.1178 -20.2831 21.3995
# 2 38.5525 139.3677 31.0033 -5.9266 -18.1108 25.1832
# 3 13.1436 31.0033 101.2117 13.3893 -28.2524 4.8933
# 4 -4.1178 -5.9266 13.3893 34.7270 4.9276 -7.1208
# 5 -20.2831 -18.1108 -28.2524 4.9276 40.8094 -16.6485
# 6 21.3995 25.1832 4.8933 -7.1208 -16.6485 48.4947
#
#
#
# Elastic Compliance Matrix: (Units=1/GPa)
#
#
# Indices 1 2 3 4 5 6 
#
# 1 0.015677 -0.003159 0.000693 -0.000449 0.005483 -0.003531
# 2 -0.003159 0.009183 -0.002721 0.001720 -0.000870 -0.003146
# 3 0.000693 -0.002721 0.014515 -0.007051 0.011011 0.002387
# 4 -0.000449 0.001720 -0.007051 0.033290 -0.007396 0.002366
# 5 0.005483 -0.000870 0.011011 -0.007396 0.039142 0.009273
# 6 -0.003531 -0.003146 0.002387 0.002366 0.009273 0.027102
#
#
# Mechanical properties :
#
#
# Convention : Reuss Voigt Hill
#
# Bulk Modulus (GPa) = 34.48321 54.30557 44.39439
# Shear Modulus (GPa) = 31.45633 40.84967 36.15300
#
# Velocity S-wave (km/s) = 3.70530 4.22245 3.97230
# Velocity P-wave (km/s) = 5.77547 6.89014 6.35728
#
# Compressibility (1/GPa) = 0.02899962
#
# Stress axis : x y z
#
# Youngs Moduli (GPa) = 63.78777 108.89568 68.89553
#
# Poissons Ratio (x) = 0.34403 -0.04772
# Poissons Ratio (y) = 0.20152 0.18746
# Poissons Ratio (z) = -0.04418 0.29629
#
# Static dielectric constant tensor:
#      x y z
#    x 2.041380 -0.110630 0.042970 
#    y -0.110630 1.965780 -0.014670 
#    z 0.042970 -0.014670 1.870910 
# 
# From -- ./inp_files/585552.got.cif
#   From: 2010.05.17/outbox.cif.g08.bks.cpg/sg2_293_cif.got.tgz:585552.got - 2010.06.03 11:33:40.
