data_PCOD9030071
_publ_section_title
;
Structure prediction by ZEFSAII (Michael W. Deem and Ramdas Pophale) SiO2 
 PCOD9030071
Probable space group: P -1
;
_chemical_formula_sum "Si O2"
_cell_formula_units_Z 16
_cell_length_a 12.020806
_cell_length_b 15.677331
_cell_length_c 16.503021
_cell_angle_alpha 39.175597
_cell_angle_beta 119.232850
_cell_angle_gamma 150.527845
_cell_volume 773.138872
_symmetry_space_group_name_H-M "P -1"
_symmetry_group_IT_number 2
_symmetry_cell_setting 'triclinic'
loop_
_space_group_symop_operation_xyz
x,y,z
-x,-y,-z
loop_
_atom_site_type_symbol
_atom_site_label
_atom_site_fract_x
_atom_site_fract_y
_atom_site_fract_z
Si Si1 0.671393 0.790280 0.312292
Si Si2 0.101625 0.684853 0.245626
Si Si3 0.442106 0.764883 0.370632
Si Si4 0.461136 0.808364 0.095745
Si Si5 0.320886 0.645472 0.783842
Si Si6 0.095183 0.844826 0.288689
Si Si7 0.185144 0.221376 0.062318
Si Si8 0.098298 0.625668 0.851124
O O1 0.500000 0.500000 0.500000
O O2 0.677167 0.901010 0.307144
O O3 0.520287 0.740359 0.226726
O O4 0.963771 0.021972 0.204737
O O5 0.262367 0.694003 0.301250
O O6 0.083738 0.728634 0.296750
O O7 0.801830 0.386318 0.312554
O O8 0.316690 0.983473 0.052169
O O9 0.206028 0.449136 0.558505
O O10 0.606145 0.017031 0.304403
O O11 0.140690 0.506389 0.174486
O O12 0.500000 0.000000 0.000000
O O13 0.145709 0.537828 0.877996
O O14 0.644117 0.942169 0.713071
O O15 0.209888 0.391841 0.906980
O O16 0.124277 0.026947 0.135227
O O17 0.500000 0.500000 0.000000
O O18 0.000000 0.500000 0.000000
#
# Coordination Sequence:
#
# PCOD9030071 Si02
#       8
#     2   2   2   2   2   2   2   2
#     4  12  23  44  71  97 141 184 223 293 356 409
#     4  12  23  40  71  99 134 181 232 291 337 416
#     4  12  24  42  68 101 139 178 226 289 361 402
#     4  12  21  41  67 103 131 175 242 279 347 416
#     4  11  22  41  67  97 130 180 233 278 344 409
#     4  11  25  44  61 102 140 182 229 285 351 411
#     4  10  22  42  69  95 131 181 235 269 344 429
#     4  12  21  38  68 101 133 174 231 295 341 415
#
# _framework density 20.694859000000001
#
# number of rings (size 3 to 8) (size 9 to 14) (size 15 to 20)
#    0.000    0.500    7.500    1.125    0.000    2.000 
#    2.250    0.625    0.000    0.000    0.000    0.000 
#    0.000    0.000    0.000    0.000    0.000    0.000 
#
# Total GULP energy -89217.764610 kJ/mol
# GULP energy per Si atom -5576.110288 kJ/mol
# Density = 2.064776 g / cm^3
# Si number density = 20.694859 Si / 1000 Ang^3
#
#
#
# Elastic Constant Matrix: (Units=GPa)
#
#
# Indices 1 2 3 4 5 6 
#
# 1 91.8179 22.6890 -2.0691 -2.0839 -0.1981 7.7613
# 2 22.6890 103.7224 24.7646 -9.5132 -0.8901 15.8025
# 3 -2.0691 24.7646 60.7298 -2.5419 9.4626 8.8140
# 4 -2.0839 -9.5132 -2.5419 22.5433 7.4489 -3.2018
# 5 -0.1981 -0.8901 9.4626 7.4489 33.4123 -5.0977
# 6 7.7613 15.8025 8.8140 -3.2018 -5.0977 35.1194
#
#
#
# Elastic Compliance Matrix: (Units=1/GPa)
#
#
# Indices 1 2 3 4 5 6 
#
# 1 0.011779 -0.002733 0.001949 0.000170 -0.000895 -0.001977
# 2 -0.002733 0.012166 -0.004433 0.003838 0.000192 -0.003380
# 3 0.001949 -0.004433 0.020146 0.002276 -0.006975 -0.004297
# 4 0.000170 0.003838 0.002276 0.050176 -0.011644 0.000549
# 5 -0.000895 0.000192 -0.006975 -0.011644 0.035406 0.005940
# 6 -0.001977 -0.003380 -0.004297 0.000549 0.005940 0.032423
#
#
# Mechanical properties :
#
#
# Convention : Reuss Voigt Hill
#
# Bulk Modulus (GPa) = 29.71038 38.55989 34.13513
# Shear Modulus (GPa) = 27.21096 32.27407 29.74252
#
# Velocity S-wave (km/s) = 3.63004 3.95336 3.79515
# Velocity P-wave (km/s) = 5.65307 6.28584 5.97783
#
# Compressibility (1/GPa) = 0.03365827
#
# Stress axis : x y z
#
# Youngs Moduli (GPa) = 84.89373 82.19658 49.63723
#
# Poissons Ratio (x) = 0.22464 -0.09675
# Poissons Ratio (y) = 0.23201 0.22004
# Poissons Ratio (z) = -0.16548 0.36437
#
# Static dielectric constant tensor:
#      x y z
#    x 1.801840 0.015700 0.018230 
#    y 0.015700 1.787220 0.030190 
#    z 0.018230 0.030190 1.789390 
# 
# From -- ./inp_files/522281.got.cif
#   From: 2010.05.17/outbox.cif.g08.bks.cpg/sg2_262_cif.got.tgz:522281.got - 2010.06.03 11:33:40.
