data_PCOD9030086
_publ_section_title
;
Structure prediction by ZEFSAII (Michael W. Deem and Ramdas Pophale) SiO2 
 PCOD9030086
Probable space group: P -1
;
_chemical_formula_sum "Si O2"
_cell_formula_units_Z 16
_cell_length_a 13.655261
_cell_length_b 13.348606
_cell_length_c 8.857636
_cell_angle_alpha 84.701593
_cell_angle_beta 46.908888
_cell_angle_gamma 47.477448
_cell_volume 632.004485
_symmetry_space_group_name_H-M "P -1"
_symmetry_group_IT_number 2
_symmetry_cell_setting 'triclinic'
loop_
_space_group_symop_operation_xyz
x,y,z
-x,-y,-z
loop_
_atom_site_type_symbol
_atom_site_label
_atom_site_fract_x
_atom_site_fract_y
_atom_site_fract_z
Si Si1 0.663935 0.098044 0.307840
Si Si2 0.714674 0.742770 0.529616
Si Si3 0.946792 0.303865 0.978239
Si Si4 0.419627 0.179668 0.993185
Si Si5 0.917370 0.048828 0.795110
Si Si6 0.029954 0.635466 0.712784
Si Si7 0.492751 0.321932 0.727496
Si Si8 0.036687 0.149802 0.464912
O O1 0.529330 0.103608 0.340273
O O2 0.479777 0.256438 0.605079
O O3 0.898045 0.896293 0.166796
O O4 0.764059 0.124836 0.095440
O O5 0.904269 0.702374 0.264567
O O6 0.662435 0.789795 0.754296
O O7 0.817245 0.564040 0.431089
O O8 0.936828 0.337998 0.161266
O O9 0.675063 0.477307 0.164594
O O10 0.251952 0.220955 0.050767
O O11 0.388695 0.318110 0.971428
O O12 0.713465 0.973781 0.695593
O O13 0.214321 0.845890 0.535948
O O14 0.856275 0.997458 0.750502
O O15 0.875625 0.181550 0.739557
O O16 0.091425 0.679295 0.513638
#
# Coordination Sequence:
#
# PCOD9030086 Si02
#       8
#     2   2   2   2   2   2   2   2
#     4  12  24  45  71  99 133 183 225 273 341 397
#     4  12  24  42  68  99 143 171 222 283 339 398
#     4  12  25  44  67 104 141 175 220 277 339 407
#     4  11  23  43  67  97 138 175 219 283 335 399
#     4  10  22  45  69  93 138 175 230 276 324 397
#     4  12  22  41  68 100 135 174 220 276 341 397
#     4  11  25  45  70  98 140 180 222 279 330 395
#     4  10  22  42  69  96 128 180 224 278 334 391
#
# _framework density 25.316278000000001
#
# number of rings (size 3 to 8) (size 9 to 14) (size 15 to 20)
#    0.000    0.750    5.000    2.625    0.000    3.500 
#    0.000    0.625    2.750    0.000    0.000    0.000 
#    0.000    0.000    0.000    0.000    0.000    0.000 
#
# Total GULP energy -89703.873886 kJ/mol
# GULP energy per Si atom -5606.492118 kJ/mol
# Density = 2.525866 g / cm^3
# Si number density = 25.316278 Si / 1000 Ang^3
#
#
#
# Elastic Constant Matrix: (Units=GPa)
#
#
# Indices 1 2 3 4 5 6 
#
# 1 70.5853 3.7029 6.6366 2.7583 -1.6567 -13.2675
# 2 3.7029 142.5855 38.0004 -13.9792 4.7715 6.0521
# 3 6.6366 38.0004 49.5610 -20.9936 -1.1912 4.9167
# 4 2.7583 -13.9792 -20.9936 40.1878 -0.4610 -1.3721
# 5 -1.6567 4.7715 -1.1912 -0.4610 35.4536 6.1476
# 6 -13.2675 6.0521 4.9167 -1.3721 6.1476 40.8426
#
#
#
# Elastic Compliance Matrix: (Units=1/GPa)
#
#
# Indices 1 2 3 4 5 6 
#
# 1 0.015680 0.000156 -0.004022 -0.002939 -0.000419 0.005519
# 2 0.000156 0.008904 -0.007143 -0.000668 -0.001401 -0.000220
# 3 -0.004022 -0.007143 0.032988 0.014915 0.002793 -0.004139
# 4 -0.002939 -0.000668 0.014915 0.032598 0.001178 -0.001733
# 5 -0.000419 -0.001401 0.002793 0.001178 0.029288 -0.004633
# 6 0.005519 -0.000220 -0.004139 -0.001733 -0.004633 0.027447
#
#
# Mechanical properties :
#
#
# Convention : Reuss Voigt Hill
#
# Bulk Modulus (GPa) = 28.12617 39.93462 34.03039
# Shear Modulus (GPa) = 27.65924 37.58958 32.62441
#
# Velocity S-wave (km/s) = 3.30896 3.85749 3.59370
# Velocity P-wave (km/s) = 5.07277 5.97066 5.53994
#
# Compressibility (1/GPa) = 0.03555407
#
# Stress axis : x y z
#
# Youngs Moduli (GPa) = 63.77723 112.31454 30.31433
#
# Poissons Ratio (x) = -0.01756 0.12193
# Poissons Ratio (y) = -0.00997 0.21652
# Poissons Ratio (z) = 0.25652 0.80222
#
# Static dielectric constant tensor:
#      x y z
#    x 2.010240 -0.023460 -0.006210 
#    y -0.023460 2.013310 0.031150 
#    z -0.006210 0.031150 1.949700 
# 
# From -- ./inp_files/297965.got.cif
#   From: 2010.05.17/outbox.cif.g08.bks.cpg/sg2_149_cif.got.tgz:297965.got - 2010.06.03 11:33:40.
