data_PCOD9030666
_publ_section_title
;
Structure prediction by ZEFSAII (Michael W. Deem and Ramdas Pophale) SiO2 
 PCOD9030666
Probable space group: P -1
;
_chemical_formula_sum "Si O2"
_cell_formula_units_Z 11
_cell_length_a 8.384047
_cell_length_b 13.135126
_cell_length_c 10.366672
_cell_angle_alpha 32.788645
_cell_angle_beta 69.864364
_cell_angle_gamma 92.082098
_cell_volume 445.698774
_symmetry_space_group_name_H-M "P -1"
_symmetry_group_IT_number 2
_symmetry_cell_setting 'triclinic'
loop_
_space_group_symop_operation_xyz
x,y,z
-x,-y,-z
loop_
_atom_site_type_symbol
_atom_site_label
_atom_site_fract_x
_atom_site_fract_y
_atom_site_fract_z
Si Si1 0.019507 0.189150 0.032917
Si Si2 0.917831 0.506566 0.841715
Si Si3 0.017470 0.718761 0.325122
Si Si4 0.500000 0.000000 0.000000
Si Si5 0.446159 0.242707 0.275993
Si Si6 0.268438 0.028503 0.272131
O O1 0.759135 0.962283 0.360675
O O2 0.046912 0.415892 0.847772
O O3 0.070386 0.219152 0.834488
O O4 0.161363 0.140967 0.123059
O O5 0.886007 0.614371 0.607197
O O6 0.067714 0.735410 0.650510
O O7 0.673854 0.296067 0.184875
O O8 0.000000 0.500000 0.500000
O O9 0.269245 0.923626 0.082108
O O10 0.559797 0.937963 0.911779
O O11 0.370513 0.148385 0.252462
O O12 0.500000 0.500000 0.000000
#
# Coordination Sequence:
#
# PCOD9030666 Si02
#       6
#     2   2   2   1   2   2
#     4  11  23  44  74 101 138 185 226 285 348 408
#     4  10  23  44  69  98 140 180 225 291 336 410
#     4   9  20  43  64  99 132 172 225 276 336 396
#     4  10  22  42  72  94 140 178 216 296 328 402
#     4  12  25  47  69 102 145 183 224 289 340 416
#     4  11  24  46  68 103 141 177 237 280 345 403
#
# _framework density 24.680346
#
# number of rings (size 3 to 8) (size 9 to 14) (size 15 to 20)
#    0.000    1.455    1.818    3.273    0.000    3.636 
#   13.091    9.091    0.000    0.000    0.000    0.000 
#    0.000    0.000    0.000    0.000    0.000    0.000 
#
# Total GULP energy -61372.928655 kJ/mol
# GULP energy per Si atom -5579.357150 kJ/mol
# Density = 2.462417 g / cm^3
# Si number density = 24.680346 Si / 1000 Ang^3
#
#
#
# Elastic Constant Matrix: (Units=GPa)
#
#
# Indices 1 2 3 4 5 6 
#
# 1 107.0772 21.4229 46.2264 -8.6267 6.9708 3.0052
# 2 21.4229 149.3382 44.6405 -25.4059 1.8629 13.1461
# 3 46.2264 44.6405 49.6244 -6.6826 5.6001 9.2393
# 4 -8.6267 -25.4059 -6.6826 42.5808 -5.9317 -10.9435
# 5 6.9708 1.8629 5.6001 -5.9317 28.7415 0.1896
# 6 3.0052 13.1461 9.2393 -10.9435 0.1896 48.1637
#
#
#
# Elastic Compliance Matrix: (Units=1/GPa)
#
#
# Indices 1 2 3 4 5 6 
#
# 1 0.017089 0.003623 -0.019184 0.003220 0.000007 0.002356
# 2 0.003623 0.010867 -0.012720 0.005642 0.002056 0.000522
# 3 -0.019184 -0.012720 0.050469 -0.005959 -0.005544 -0.006345
# 4 0.003220 0.005642 -0.005959 0.028926 0.005945 0.005951
# 5 0.000007 0.002056 -0.005544 0.005945 0.036954 0.001707
# 6 0.002356 0.000522 -0.006345 0.005951 0.001707 0.023036
#
#
# Mechanical properties :
#
#
# Convention : Reuss Voigt Hill
#
# Bulk Modulus (GPa) = 45.73953 58.95769 52.34861
# Shear Modulus (GPa) = 21.62716 36.81388 29.22052
#
# Velocity S-wave (km/s) = 2.96343 3.86635 3.44460
# Velocity P-wave (km/s) = 5.50293 6.62359 6.08910
#
# Compressibility (1/GPa) = 0.02186293
#
# Stress axis : x y z
#
# Youngs Moduli (GPa) = 58.51728 92.02077 19.81403
#
# Poissons Ratio (x) = -0.33343 0.38012
# Poissons Ratio (y) = -0.21203 0.25204
# Poissons Ratio (z) = 1.12261 1.17054
#
# Static dielectric constant tensor:
#      x y z
#    x 1.916680 -0.011990 0.053340 
#    y -0.011990 1.920140 0.010210 
#    z 0.053340 0.010210 2.072100 
# 
# From -- ./inp_files/393399.got.cif
#   From: 2010.05.17/outbox.cif.g08.bks.cpg/sg2_197_cif.got.tgz:393399.got - 2010.06.03 11:33:40.
