data_PCOD9030362
_publ_section_title
;
Structure prediction by ZEFSAII (Michael W. Deem and Ramdas Pophale) SiO2 
 PCOD9030362
Probable space group: P -1
;
_chemical_formula_sum "Si O2"
_cell_formula_units_Z 15
_cell_length_a 12.437369
_cell_length_b 8.016404
_cell_length_c 9.622942
_cell_angle_alpha 47.597137
_cell_angle_beta 75.769499
_cell_angle_gamma 95.224325
_cell_volume 640.999490
_symmetry_space_group_name_H-M "P -1"
_symmetry_group_IT_number 2
_symmetry_cell_setting 'triclinic'
loop_
_space_group_symop_operation_xyz
x,y,z
-x,-y,-z
loop_
_atom_site_type_symbol
_atom_site_label
_atom_site_fract_x
_atom_site_fract_y
_atom_site_fract_z
Si Si1 0.023546 0.780366 0.039974
Si Si2 0.614175 0.044821 0.635897
Si Si3 0.733907 0.548420 0.644647
Si Si4 0.859959 0.312349 0.516835
Si Si5 0.701700 0.137663 0.066100
Si Si6 0.500000 0.000000 0.000000
Si Si7 0.552117 0.757855 0.544862
Si Si8 0.026394 0.032910 0.635623
O O1 0.998236 0.801937 0.872468
O O2 0.941821 0.530802 0.273613
O O3 0.161723 0.831303 0.990302
O O4 0.000000 0.000000 0.000000
O O5 0.754576 0.129729 0.561690
O O6 0.574750 0.263033 0.464290
O O7 0.564686 0.829983 0.661334
O O8 0.553061 0.976497 0.842492
O O9 0.792091 0.411566 0.597988
O O10 0.706619 0.408483 0.877752
O O11 0.608364 0.550342 0.625153
O O12 0.834785 0.808634 0.479023
O O13 0.945561 0.185523 0.624862
O O14 0.622809 0.993394 0.042845
O O15 0.639455 0.994293 0.302677
O O16 0.000000 0.000000 0.500000
#
# Coordination Sequence:
#
# PCOD9030362 Si02
#       8
#     2   2   2   2   2   1   2   2
#     4  12  24  42  67  99 136 181 220 275 339 396
#     4  10  23  45  69  97 135 177 221 285 331 399
#     4  12  22  42  68  98 133 177 224 278 331 400
#     4  12  24  42  70 100 139 176 230 275 331 406
#     4  11  22  42  68  95 136 175 220 271 337 390
#     4  10  22  42  70  96 124 176 216 274 330 398
#     4  10  23  45  68  96 138 174 222 280 341 388
#     4  12  26  42  67 101 137 180 224 275 339 399
#
# _framework density 23.400953999999999
#
# number of rings (size 3 to 8) (size 9 to 14) (size 15 to 20)
#    0.000    0.800    5.333    2.000    0.000    2.133 
#    2.400    6.000    0.000    0.000    0.000    0.000 
#    0.000    0.000    0.000    0.000    0.000    0.000 
#
# Total GULP energy -83642.784804 kJ/mol
# GULP energy per Si atom -5576.185654 kJ/mol
# Density = 2.334769 g / cm^3
# Si number density = 23.400954 Si / 1000 Ang^3
#
#
#
# Elastic Constant Matrix: (Units=GPa)
#
#
# Indices 1 2 3 4 5 6 
#
# 1 121.2194 7.1268 34.9850 -0.3557 14.4109 -1.8547
# 2 7.1268 50.8181 20.5061 34.0810 2.9142 -3.9151
# 3 34.9850 20.5061 135.4869 19.4986 5.9356 0.6112
# 4 -0.3557 34.0810 19.4986 38.6514 2.9324 6.7575
# 5 14.4109 2.9142 5.9356 2.9324 39.1292 -6.5550
# 6 -1.8547 -3.9151 0.6112 6.7575 -6.5550 34.2648
#
#
#
# Elastic Compliance Matrix: (Units=1/GPa)
#
#
# Indices 1 2 3 4 5 6 
#
# 1 0.009600 -0.003725 -0.002498 0.005173 -0.003528 -0.001557
# 2 -0.003725 0.058010 -0.000235 -0.054529 0.004187 0.017986
# 3 -0.002498 -0.000235 0.008675 -0.004288 0.000033 0.000535
# 4 0.005173 -0.054529 -0.004288 0.080754 -0.007126 -0.023163
# 5 -0.003528 0.004187 0.000033 -0.007126 0.028262 0.007099
# 6 -0.001557 0.017986 0.000535 -0.023163 0.007099 0.037072
#
#
# Mechanical properties :
#
#
# Convention : Reuss Voigt Hill
#
# Bulk Modulus (GPa) = 15.78073 48.08446 31.93260
# Shear Modulus (GPa) = 19.49982 38.73619 29.11801
#
# Velocity S-wave (km/s) = 2.88981 4.07298 3.53130
# Velocity P-wave (km/s) = 4.23001 6.53541 5.50475
#
# Compressibility (1/GPa) = 0.06336843
#
# Stress axis : x y z
#
# Youngs Moduli (GPa) = 104.16419 17.23832 115.27846
#
# Poissons Ratio (x) = 0.06422 0.28797
# Poissons Ratio (y) = 0.38804 0.02710
# Poissons Ratio (z) = 0.26021 0.00405
#
# Static dielectric constant tensor:
#      x y z
#    x 1.911640 -0.033380 0.019050 
#    y -0.033380 1.973160 -0.040180 
#    z 0.019050 -0.040180 1.882480 
# 
# From -- ./inp_files/236578.got.cif
#   From: 2010.05.17/outbox.cif.g08.bks.cpg/sg2_119_cif.got.tgz:236578.got - 2010.06.03 11:33:40.
