data_PCOD9030655
_publ_section_title
;
Structure prediction by ZEFSAII (Michael W. Deem and Ramdas Pophale) SiO2 
 PCOD9030655
Probable space group: P -1
;
_chemical_formula_sum "Si O2"
_cell_formula_units_Z 14
_cell_length_a 5.219961
_cell_length_b 12.160214
_cell_length_c 19.517640
_cell_angle_alpha 155.464986
_cell_angle_beta 109.938062
_cell_angle_gamma 70.921391
_cell_volume 483.176257
_symmetry_space_group_name_H-M "P -1"
_symmetry_group_IT_number 2
_symmetry_cell_setting 'triclinic'
loop_
_space_group_symop_operation_xyz
x,y,z
-x,-y,-z
loop_
_atom_site_type_symbol
_atom_site_label
_atom_site_fract_x
_atom_site_fract_y
_atom_site_fract_z
Si Si1 0.000000 0.500000 0.000000
Si Si2 0.009473 0.592001 0.744554
Si Si3 0.280191 0.230060 0.462553
Si Si4 0.447483 0.756754 0.718195
Si Si5 0.500000 0.000000 0.000000
Si Si6 0.056804 0.574594 0.890604
Si Si7 0.535962 0.123718 0.826251
Si Si8 0.694275 0.956958 0.429429
O O1 0.918662 0.508837 0.913073
O O2 0.291822 0.336686 0.914333
O O3 0.116301 0.316334 0.563863
O O4 0.264815 0.783647 0.878152
O O5 0.897429 0.605012 0.820584
O O6 0.758953 0.681447 0.724554
O O7 0.278993 0.494403 0.567273
O O8 0.254164 0.954303 0.262242
O O9 0.584163 0.159827 0.477388
O O10 0.383598 0.972000 0.893390
O O11 0.403029 0.864503 0.699050
O O12 0.283781 0.341389 0.762555
O O13 0.245244 0.812980 0.060647
O O14 0.500000 0.000000 0.500000
O O15 0.000000 0.000000 0.500000
#
# Coordination Sequence:
#
# PCOD9030655 Si02
#       8
#     1   2   2   2   1   2   2   2
#     4  12  30  46  76 104 160 206 258 326 406 478
#     4  11  24  46  78 113 149 199 265 322 401 472
#     4  11  26  46  75 112 156 205 261 324 402 480
#     4  11  25  45  76 113 154 199 253 326 398 476
#     4  10  22  42  72 112 148 188 254 314 390 476
#     4  12  27  47  76 111 152 208 263 328 397 474
#     4  12  28  50  73 112 157 200 264 322 407 479
#     4  12  27  48  80 115 160 209 272 336 397 480
#
# _framework density 28.974933
#
# number of rings (size 3 to 8) (size 9 to 14) (size 15 to 20)
#    0.000    0.571    4.286    2.143    4.000    2.857 
#    0.000    0.000    0.000    0.000    0.000    0.000 
#    0.000    0.000    0.000    0.000    0.000    0.000 
#
# Total GULP energy -77946.235195 kJ/mol
# GULP energy per Si atom -5567.588228 kJ/mol
# Density = 2.890898 g / cm^3
# Si number density = 28.974933 Si / 1000 Ang^3
#
#
#
# Elastic Constant Matrix: (Units=GPa)
#
#
# Indices 1 2 3 4 5 6 
#
# 1 125.8838 26.9009 32.9075 -13.8887 -22.3132 0.4120
# 2 26.9009 97.8575 14.0986 -10.5735 -2.0614 7.0736
# 3 32.9075 14.0986 144.3332 -34.5815 -46.0454 1.4294
# 4 -13.8887 -10.5735 -34.5815 47.4782 5.2782 -8.0791
# 5 -22.3132 -2.0614 -46.0454 5.2782 52.1978 -14.9349
# 6 0.4120 7.0736 1.4294 -8.0791 -14.9349 55.0503
#
#
#
# Elastic Compliance Matrix: (Units=1/GPa)
#
#
# Indices 1 2 3 4 5 6 
#
# 1 0.009425 -0.002389 -0.000182 0.001919 0.004044 0.001620
# 2 -0.002389 0.011209 -0.000924 0.001043 -0.002012 -0.001791
# 3 -0.000182 -0.000924 0.012663 0.008399 0.011384 0.004112
# 4 0.001919 0.001043 0.008399 0.028156 0.007048 0.005678
# 5 0.004044 -0.002012 0.011384 0.007048 0.032973 0.009912
# 6 0.001620 -0.001791 0.004112 0.005678 0.009912 0.021799
#
#
# Mechanical properties :
#
#
# Convention : Reuss Voigt Hill
#
# Bulk Modulus (GPa) = 38.01398 57.32093 47.66746
# Shear Modulus (GPa) = 37.88317 50.55643 44.21980
#
# Velocity S-wave (km/s) = 3.61979 4.18165 3.91082
# Velocity P-wave (km/s) = 5.53340 6.56817 6.07287
#
# Compressibility (1/GPa) = 0.02630611
#
# Stress axis : x y z
#
# Youngs Moduli (GPa) = 106.09972 89.21619 78.96711
#
# Poissons Ratio (x) = 0.21317 0.01436
# Poissons Ratio (y) = 0.25351 0.07300
# Poissons Ratio (z) = 0.01929 0.08248
#
# Static dielectric constant tensor:
#      x y z
#    x 1.408290 -0.142830 0.092860 
#    y -0.142830 2.201640 0.055240 
#    z 0.092860 0.055240 2.305190 
# 
# From -- ./inp_files/409504.got.cif
#   From: 2010.05.17/outbox.cif.g08.bks.cpg/sg2_205_cif.got.tgz:409504.got - 2010.06.03 11:33:40.
