data_PCOD9030510
_publ_section_title
;
Structure prediction by ZEFSAII (Michael W. Deem and Ramdas Pophale) SiO2 
 PCOD9030510
Probable space group: P -1
;
_chemical_formula_sum "Si O2"
_cell_formula_units_Z 16
_cell_length_a 16.047847
_cell_length_b 7.962554
_cell_length_c 8.858121
_cell_angle_alpha 138.310516
_cell_angle_beta 81.229594
_cell_angle_gamma 107.136858
_cell_volume 715.325058
_symmetry_space_group_name_H-M "P -1"
_symmetry_group_IT_number 2
_symmetry_cell_setting 'triclinic'
loop_
_space_group_symop_operation_xyz
x,y,z
-x,-y,-z
loop_
_atom_site_type_symbol
_atom_site_label
_atom_site_fract_x
_atom_site_fract_y
_atom_site_fract_z
Si Si1 0.292071 0.142296 0.911240
Si Si2 0.866540 0.277087 0.963412
Si Si3 0.595794 0.076322 0.456151
Si Si4 0.667386 0.612648 0.622045
Si Si5 0.843300 0.786176 0.194843
Si Si6 0.981882 0.905742 0.768931
Si Si7 0.833727 0.420162 0.408750
Si Si8 0.284994 0.048620 0.418035
O O1 0.226155 0.306732 0.985793
O O2 0.378823 0.154943 0.800654
O O3 0.227276 0.855104 0.698052
O O4 0.319630 0.190712 0.108074
O O5 0.928700 0.084622 0.817900
O O6 0.775399 0.131729 0.811426
O O7 0.889919 0.558868 0.065179
O O8 0.857119 0.344969 0.185679
O O9 0.612149 0.332156 0.515327
O O10 0.500000 0.000000 0.500000
O O11 0.663850 0.108069 0.597413
O O12 0.763997 0.587703 0.541156
O O13 0.644591 0.727739 0.547751
O O14 0.781041 0.840352 0.382941
O O15 0.923986 0.036459 0.298986
O O16 0.920356 0.608996 0.584556
O O17 0.000000 0.000000 0.000000
#
# Coordination Sequence:
#
# PCOD9030510 Si02
#       8
#     2   2   2   2   2   2   2   2
#     4  10  22  42  71  90 130 176 217 270 334 395
#     4  12  22  40  63  89 129 172 227 271 323 385
#     4  10  25  44  69 106 136 166 214 272 334 408
#     4  11  20  43  68  95 131 176 219 266 332 398
#     4  11  24  40  60  94 128 177 222 276 328 386
#     4  12  26  40  60  94 134 176 226 279 332 377
#     4  11  21  40  64  89 128 171 227 270 321 391
#     4  11  23  43  69  95 132 177 221 269 333 395
#
# _framework density 22.367452
#
# number of rings (size 3 to 8) (size 9 to 14) (size 15 to 20)
#    0.000    1.000    3.750    2.625    0.000    8.000 
#    0.000    0.625    0.000    0.000    0.000    0.000 
#    0.000    0.000    0.000    0.000    0.000    0.000 
#
# Total GULP energy -89267.361605 kJ/mol
# GULP energy per Si atom -5579.210100 kJ/mol
# Density = 2.231654 g / cm^3
# Si number density = 22.367452 Si / 1000 Ang^3
#
#
#
# Elastic Constant Matrix: (Units=GPa)
#
#
# Indices 1 2 3 4 5 6 
#
# 1 68.4262 19.0940 13.6777 1.6287 -15.8589 11.1415
# 2 19.0940 113.9609 4.5401 0.0830 -1.9750 11.8382
# 3 13.6777 4.5401 58.2132 -6.1882 3.5823 3.9055
# 4 1.6287 0.0830 -6.1882 33.5479 -3.5516 -0.1394
# 5 -15.8589 -1.9750 3.5823 -3.5516 19.7468 -6.6625
# 6 11.1415 11.8382 3.9055 -0.1394 -6.6625 30.9345
#
#
#
# Elastic Compliance Matrix: (Units=1/GPa)
#
#
# Indices 1 2 3 4 5 6 
#
# 1 0.020683 -0.002735 -0.005553 -0.000276 0.016575 -0.002133
# 2 -0.002735 0.009515 0.000251 -0.000111 -0.002391 -0.003203
# 3 -0.005553 0.000251 0.019439 0.002977 -0.008203 -0.002304
# 4 -0.000276 -0.000111 0.002977 0.030918 0.005129 0.001010
# 5 0.016575 -0.002391 -0.008203 0.005129 0.069852 0.011048
# 6 -0.002133 -0.003203 -0.002304 0.001010 0.011048 0.036995
#
#
# Mechanical properties :
#
#
# Convention : Reuss Voigt Hill
#
# Bulk Modulus (GPa) = 29.79484 35.02487 32.40986
# Shear Modulus (GPa) = 23.29227 30.39839 26.84533
#
# Velocity S-wave (km/s) = 3.23049 3.69052 3.46814
# Velocity P-wave (km/s) = 5.22152 5.81832 5.52798
#
# Compressibility (1/GPa) = 0.03356286
#
# Stress axis : x y z
#
# Youngs Moduli (GPa) = 48.34919 105.10159 51.44284
#
# Poissons Ratio (x) = 0.28747 0.28564
# Poissons Ratio (y) = 0.13224 -0.01291
# Poissons Ratio (z) = 0.26846 -0.02637
#
# Static dielectric constant tensor:
#      x y z
#    x 1.818630 -0.062810 -0.017390 
#    y -0.062810 1.975190 0.048110 
#    z -0.017390 0.048110 1.831690 
# 
# From -- ./inp_files/52367.got.cif
#   From: 2010.05.17/outbox.cif.g08.bks.cpg/sg2_27_cif.got.tgz:52367.got - 2010.06.03 11:33:40.
