data_PCOD9030994
_publ_section_title
;
Structure prediction by ZEFSAII (Michael W. Deem and Ramdas Pophale) SiO2 
 PCOD9030994
Probable space group: P -1
;
_chemical_formula_sum "Si O2"
_cell_formula_units_Z 16
_cell_length_a 5.504318
_cell_length_b 12.695945
_cell_length_c 23.410052
_cell_angle_alpha 26.564659
_cell_angle_beta 119.065217
_cell_angle_gamma 111.356698
_cell_volume 629.036428
_symmetry_space_group_name_H-M "P -1"
_symmetry_group_IT_number 2
_symmetry_cell_setting 'triclinic'
loop_
_space_group_symop_operation_xyz
x,y,z
-x,-y,-z
loop_
_atom_site_type_symbol
_atom_site_label
_atom_site_fract_x
_atom_site_fract_y
_atom_site_fract_z
Si Si1 0.499156 0.754904 0.844946
Si Si2 0.290740 0.024362 0.801298
Si Si3 0.831242 0.426652 0.589257
Si Si4 0.263473 0.538620 0.082904
Si Si5 0.266040 0.718650 0.229274
Si Si6 0.940679 0.790016 0.696700
Si Si7 0.166267 0.509996 0.760909
Si Si8 0.276905 0.696682 0.557947
O O1 0.462141 0.938988 0.804089
O O2 0.730048 0.667795 0.864188
O O3 0.227071 0.838653 0.733994
O O4 0.500000 0.500000 0.000000
O O5 0.513670 0.101904 0.834181
O O6 0.165231 0.800486 0.919544
O O7 0.037387 0.251102 0.655329
O O8 0.500000 0.500000 0.500000
O O9 0.848509 0.271435 0.724651
O O10 0.993824 0.638727 0.523743
O O11 0.105482 0.452632 0.160027
O O12 0.575701 0.546413 0.138589
O O13 0.464417 0.457677 0.371202
O O14 0.007662 0.704411 0.164639
O O15 0.967697 0.732819 0.660963
O O16 0.716002 0.023793 0.572723
O O17 0.270718 0.590065 0.673072
#
# Coordination Sequence:
#
# PCOD9030994 Si02
#       8
#     2   2   2   2   2   2   2   2
#     4   9  22  41  62  94 131 168 217 259 318 389
#     4  10  23  43  66  96 132 170 218 264 322 388
#     4  10  24  41  66  95 129 172 218 265 322 383
#     4  10  23  42  66  98 130 172 217 262 326 387
#     4  10  23  41  65  92 129 171 214 275 316 379
#     4  11  23  39  67  95 130 173 211 272 325 375
#     4  10  22  43  63  95 131 167 221 266 325 387
#     4  10  23  42  63  97 130 168 220 267 324 384
#
# _framework density 25.435728999999998
#
# number of rings (size 3 to 8) (size 9 to 14) (size 15 to 20)
#    0.000    2.000    0.000    1.125    3.500   13.500 
#    0.000    8.750    0.000    0.000    0.000    0.000 
#    0.000    0.000    0.000    0.000    0.000    0.000 
#
# Total GULP energy -89416.989130 kJ/mol
# GULP energy per Si atom -5588.561821 kJ/mol
# Density = 2.537784 g / cm^3
# Si number density = 25.435729 Si / 1000 Ang^3
#
#
#
# Elastic Constant Matrix: (Units=GPa)
#
#
# Indices 1 2 3 4 5 6 
#
# 1 58.1033 38.3109 9.6319 2.8248 6.9504 -4.5239
# 2 38.3109 162.6489 48.0913 -4.5419 22.3428 9.8643
# 3 9.6319 48.0913 75.5166 -11.6078 5.0428 3.5933
# 4 2.8248 -4.5419 -11.6078 29.8693 3.9867 6.8132
# 5 6.9504 22.3428 5.0428 3.9867 32.9799 2.9870
# 6 -4.5239 9.8643 3.5933 6.8132 2.9870 54.9209
#
#
#
# Elastic Compliance Matrix: (Units=1/GPa)
#
#
# Indices 1 2 3 4 5 6 
#
# 1 0.021109 -0.005129 -0.000040 -0.003393 -0.000841 0.003129
# 2 -0.005129 0.009570 -0.004890 0.001045 -0.004627 -0.001699
# 3 -0.000040 -0.004890 0.017370 0.006247 0.000004 -0.001037
# 4 -0.003393 0.001045 0.006247 0.038286 -0.005092 -0.005349
# 5 -0.000841 -0.004627 0.000004 -0.005092 0.034291 -0.000472
# 6 0.003129 -0.001699 -0.001037 -0.005349 -0.000472 0.019528
#
#
# Mechanical properties :
#
#
# Convention : Reuss Voigt Hill
#
# Bulk Modulus (GPa) = 35.80293 54.25967 45.03130
# Shear Modulus (GPa) = 29.48407 36.90299 33.19353
#
# Velocity S-wave (km/s) = 3.40834 3.81311 3.61639
# Velocity P-wave (km/s) = 5.44017 6.38473 5.93128
#
# Compressibility (1/GPa) = 0.02793068
#
# Stress axis : x y z
#
# Youngs Moduli (GPa) = 47.37422 104.49303 57.56893
#
# Poissons Ratio (x) = 0.53596 0.00232
# Poissons Ratio (y) = 0.24299 0.28150
# Poissons Ratio (z) = 0.00191 0.51095
#
# Static dielectric constant tensor:
#      x y z
#    x 1.998200 0.027720 0.031670 
#    y 0.027720 1.995880 0.003880 
#    z 0.031670 0.003880 1.983270 
# 
# From -- ./inp_files/365246.got.cif
#   From: 2010.05.17/outbox.cif.g08.bks.cpg/sg2_183_cif.got.tgz:365246.got - 2010.06.03 11:33:40.
