data_PCOD9030865
_publ_section_title
;
Structure prediction by ZEFSAII (Michael W. Deem and Ramdas Pophale) SiO2 
 PCOD9030865
Probable space group: P -1
;
_chemical_formula_sum "Si O2"
_cell_formula_units_Z 16
_cell_length_a 26.936778
_cell_length_b 11.234376
_cell_length_c 8.164124
_cell_angle_alpha 151.425466
_cell_angle_beta 43.222079
_cell_angle_gamma 146.691860
_cell_volume 648.790128
_symmetry_space_group_name_H-M "P -1"
_symmetry_group_IT_number 2
_symmetry_cell_setting 'triclinic'
loop_
_space_group_symop_operation_xyz
x,y,z
-x,-y,-z
loop_
_atom_site_type_symbol
_atom_site_label
_atom_site_fract_x
_atom_site_fract_y
_atom_site_fract_z
Si Si1 0.244251 0.548444 0.335184
Si Si2 0.129978 0.051541 0.529214
Si Si3 0.608862 0.773775 0.250201
Si Si4 0.947849 0.714665 0.648209
Si Si5 0.342698 0.285579 0.608536
Si Si6 0.689728 0.499882 0.538498
Si Si7 0.845869 0.311700 0.688390
Si Si8 0.452952 0.777622 0.686212
O O1 0.138624 0.337339 0.291948
O O2 0.269431 0.563710 0.482941
O O3 0.292521 0.900564 0.593727
O O4 0.293044 0.435021 0.974144
O O5 0.221719 0.186261 0.372768
O O6 0.132492 0.866274 0.453596
O O7 0.139497 0.371768 0.911131
O O8 0.024131 0.801613 0.436981
O O9 0.589264 0.648386 0.331031
O O10 0.535708 0.830338 0.450248
O O11 0.621375 0.564192 0.853845
O O12 0.904136 0.409842 0.499544
O O13 0.000000 0.000000 0.000000
O O14 0.390197 0.436771 0.506865
O O15 0.260870 0.927943 0.365112
O O16 0.621111 0.223945 0.243314
O O17 0.500000 0.000000 0.000000
#
# Coordination Sequence:
#
# PCOD9030865 Si02
#       8
#     2   2   2   2   2   2   2   2
#     4  11  24  46  69 103 152 199 236 306 385 444
#     4  11  25  44  72 110 148 201 247 304 367 449
#     4  11  25  47  68 103 148 195 240 311 382 449
#     4  10  22  42  77 110 147 189 253 310 366 435
#     4  11  22  42  74 103 143 188 252 310 370 441
#     4  11  28  46  70 103 154 198 239 306 389 447
#     4  11  22  42  75 110 149 190 249 314 371 421
#     4  12  25  46  77 107 138 190 264 313 368 447
#
# _framework density 24.661287000000002
#
# number of rings (size 3 to 8) (size 9 to 14) (size 15 to 20)
#    0.000    1.000    3.750    2.625    3.500    2.000 
#    2.250    0.625    0.000    0.000    0.000    0.000 
#    0.000    0.000    0.000    0.000    0.000    0.000 
#
# Total GULP energy -89306.670098 kJ/mol
# GULP energy per Si atom -5581.666881 kJ/mol
# Density = 2.460516 g / cm^3
# Si number density = 24.661287 Si / 1000 Ang^3
#
#
#
# Elastic Constant Matrix: (Units=GPa)
#
#
# Indices 1 2 3 4 5 6 
#
# 1 134.8886 44.7246 29.3414 1.9034 -0.8342 30.1869
# 2 44.7246 117.7435 0.4017 -1.1200 12.1982 14.3688
# 3 29.3414 0.4017 43.1041 6.1572 -10.2527 3.8639
# 4 1.9034 -1.1200 6.1572 30.3846 3.1762 -9.0987
# 5 -0.8342 12.1982 -10.2527 3.1762 19.5887 6.1867
# 6 30.1869 14.3688 3.8639 -9.0987 6.1867 50.0279
#
#
#
# Elastic Compliance Matrix: (Units=1/GPa)
#
#
# Indices 1 2 3 4 5 6 
#
# 1 0.011432 -0.003774 -0.006726 -0.001340 0.001335 -0.005703
# 2 -0.003774 0.010600 0.000679 0.001259 -0.006685 0.000236
# 3 -0.006726 0.000679 0.034006 -0.009346 0.019513 -0.002876
# 4 -0.001340 0.001259 -0.009346 0.039624 -0.015404 0.010280
# 5 0.001335 -0.006685 0.019513 -0.015404 0.071793 -0.012072
# 6 -0.005703 0.000236 -0.002876 0.010280 -0.012072 0.026947
#
#
# Mechanical properties :
#
#
# Convention : Reuss Voigt Hill
#
# Bulk Modulus (GPa) = 27.47616 49.40797 38.44207
# Shear Modulus (GPa) = 22.10673 34.75147 28.42910
#
# Velocity S-wave (km/s) = 2.99727 3.75794 3.39895
# Velocity P-wave (km/s) = 4.81079 6.23759 5.57007
#
# Compressibility (1/GPa) = 0.03639519
#
# Stress axis : x y z
#
# Youngs Moduli (GPa) = 87.47723 94.33875 29.40660
#
# Poissons Ratio (x) = 0.35607 0.19780
# Poissons Ratio (y) = 0.33017 -0.01998
# Poissons Ratio (z) = 0.58840 -0.06410
#
# Static dielectric constant tensor:
#      x y z
#    x 2.022630 0.013990 0.061910 
#    y 0.013990 1.967620 -0.042850 
#    z 0.061910 -0.042850 2.072540 
# 
# From -- ./inp_files/357115.got.cif
#   From: 2010.05.17/outbox.cif.g08.bks.cpg/sg2_179_cif.got.tgz:357115.got - 2010.06.03 11:33:40.
