data_PCOD9030738
_publ_section_title
;
Structure prediction by ZEFSAII (Michael W. Deem and Ramdas Pophale) SiO2 
 PCOD9030738
Probable space group: P -1
;
_chemical_formula_sum "Si O2"
_cell_formula_units_Z 16
_cell_length_a 12.126850
_cell_length_b 8.212922
_cell_length_c 14.272646
_cell_angle_alpha 33.545734
_cell_angle_beta 107.305981
_cell_angle_gamma 94.455511
_cell_volume 709.850873
_symmetry_space_group_name_H-M "P -1"
_symmetry_group_IT_number 2
_symmetry_cell_setting 'triclinic'
loop_
_space_group_symop_operation_xyz
x,y,z
-x,-y,-z
loop_
_atom_site_type_symbol
_atom_site_label
_atom_site_fract_x
_atom_site_fract_y
_atom_site_fract_z
Si Si1 0.752640 0.874607 0.119074
Si Si2 0.471002 0.585722 0.117296
Si Si3 0.719038 0.811195 0.457817
Si Si4 0.912483 0.846412 0.794393
Si Si5 0.441665 0.141248 0.170756
Si Si6 0.710166 0.218562 0.436124
Si Si7 0.771373 0.103196 0.816047
Si Si8 0.911394 0.836101 0.340962
O O1 0.749577 0.528439 0.307483
O O2 0.844523 0.972462 0.162760
O O3 0.621805 0.126273 0.990305
O O4 0.794030 0.894754 0.014311
O O5 0.407135 0.400181 0.120755
O O6 0.562162 0.359042 0.324024
O O7 0.550728 0.703395 0.003637
O O8 0.747775 0.458938 0.667614
O O9 0.807058 0.818099 0.392009
O O10 0.579604 0.936902 0.327770
O O11 0.740552 0.040107 0.431203
O O12 0.782689 0.961109 0.652842
O O13 0.875823 0.001672 0.812842
O O14 0.000335 0.981926 0.689990
O O15 0.000000 0.500000 0.000000
O O16 0.350286 0.945409 0.234746
O O17 0.000000 0.500000 0.500000
#
# Coordination Sequence:
#
# PCOD9030738 Si02
#       8
#     2   2   2   2   2   2   2   2
#     4  12  25  42  77 106 144 188 237 295 351 429
#     4  10  22  42  75 110 142 187 235 289 358 434
#     4  11  25  46  73 106 146 187 236 296 355 424
#     4  12  31  49  72 101 145 193 239 299 350 423
#     4  10  22  42  73 108 147 183 234 292 362 420
#     4  11  25  47  72 107 140 190 239 287 358 430
#     4  12  27  44  70 110 142 187 240 300 353 412
#     4  12  25  50  73  98 143 195 238 287 357 432
#
# _framework density 22.539944999999999
#
# number of rings (size 3 to 8) (size 9 to 14) (size 15 to 20)
#    0.000    0.750    5.000    0.750    5.250    3.000 
#    0.000    2.500    0.000    0.000    0.000    0.000 
#    0.000    0.000    0.000    0.000    0.000    0.000 
#
# Total GULP energy -89413.750548 kJ/mol
# GULP energy per Si atom -5588.359409 kJ/mol
# Density = 2.248864 g / cm^3
# Si number density = 22.539945 Si / 1000 Ang^3
#
#
#
# Elastic Constant Matrix: (Units=GPa)
#
#
# Indices 1 2 3 4 5 6 
#
# 1 72.3060 26.1532 17.1508 -0.0246 1.1318 -1.2563
# 2 26.1532 69.5805 20.1588 -7.1556 14.9397 -9.8591
# 3 17.1508 20.1588 100.1740 -7.3857 30.1238 -12.1780
# 4 -0.0246 -7.1556 -7.3857 42.6962 2.9424 2.5146
# 5 1.1318 14.9397 30.1238 2.9424 34.3237 -2.5370
# 6 -1.2563 -9.8591 -12.1780 2.5146 -2.5370 19.9993
#
#
#
# Elastic Compliance Matrix: (Units=1/GPa)
#
#
# Indices 1 2 3 4 5 6 
#
# 1 0.017272 -0.007415 -0.003887 -0.002085 0.005958 -0.003919
# 2 -0.007415 0.020441 0.001367 0.003799 -0.009530 0.008756
# 3 -0.003887 0.001367 0.015810 0.003469 -0.014060 0.007837
# 4 -0.002085 0.003799 0.003469 0.025135 -0.006796 -0.000168
# 5 0.005958 -0.009530 -0.014060 -0.006796 0.045546 -0.006253
# 6 -0.003919 0.008756 0.007837 -0.000168 -0.006253 0.058072
#
#
# Mechanical properties :
#
#
# Convention : Reuss Voigt Hill
#
# Bulk Modulus (GPa) = 29.71617 40.99845 35.35731
# Shear Modulus (GPa) = 23.43424 31.31036 27.37230
#
# Velocity S-wave (km/s) = 3.22790 3.73111 3.48859
# Velocity P-wave (km/s) = 5.20623 6.06550 5.65222
#
# Compressibility (1/GPa) = 0.03365171
#
# Stress axis : x y z
#
# Youngs Moduli (GPa) = 57.89718 48.92216 63.25295
#
# Poissons Ratio (x) = 0.36276 0.24586
# Poissons Ratio (y) = 0.42930 -0.08644
# Poissons Ratio (z) = 0.22504 -0.06686
#
# Static dielectric constant tensor:
#      x y z
#    x 1.919200 0.049080 -0.023300 
#    y 0.049080 1.830590 0.013530 
#    z -0.023300 0.013530 1.941390 
# 
# From -- ./inp_files/514826.got.cif
#   From: 2010.05.17/outbox.cif.g08.bks.cpg/sg2_258_cif.got.tgz:514826.got - 2010.06.03 11:33:40.
