data_PCOD9030143
_publ_section_title
;
Structure prediction by ZEFSAII (Michael W. Deem and Ramdas Pophale) SiO2 
 PCOD9030143
Probable space group: P -1
;
_chemical_formula_sum "Si O2"
_cell_formula_units_Z 10
_cell_length_a 9.158078
_cell_length_b 8.299889
_cell_length_c 11.552272
_cell_angle_alpha 43.912336
_cell_angle_beta 128.896986
_cell_angle_gamma 102.881794
_cell_volume 429.039366
_symmetry_space_group_name_H-M "P -1"
_symmetry_group_IT_number 2
_symmetry_cell_setting 'triclinic'
loop_
_space_group_symop_operation_xyz
x,y,z
-x,-y,-z
loop_
_atom_site_type_symbol
_atom_site_label
_atom_site_fract_x
_atom_site_fract_y
_atom_site_fract_z
Si Si1 0.562011 0.484033 0.675478
Si Si2 0.814315 0.427028 0.428173
Si Si3 0.032102 0.100790 0.088412
Si Si4 0.230679 0.774898 0.721274
Si Si5 0.608780 0.711179 0.803321
O O1 0.500000 0.500000 0.500000
O O2 0.393638 0.403872 0.693351
O O3 0.544506 0.720467 0.630508
O O4 0.803330 0.306633 0.896123
O O5 0.776203 0.422299 0.276858
O O6 0.000000 0.500000 0.500000
O O7 0.893014 0.137896 0.664149
O O8 0.202990 0.213555 0.118414
O O9 0.000000 0.000000 0.000000
O O10 0.408055 0.849085 0.716317
O O11 0.308426 0.593475 0.965026
O O12 0.000000 0.000000 0.500000
#
# Coordination Sequence:
#
# PCOD9030143 Si02
#       5
#     2   2   2   2   2
#     4  11  24  44  68 101 134 177 222 276 335 395
#     4  11  25  44  66  98 136 173 225 277 339 395
#     4  12  24  42  68 101 134 175 225 278 332 396
#     4  10  22  42  69  99 132 177 220 275 338 393
#     4  10  24  43  68 101 136 173 228 274 329 406
#
# _framework density 23.307884999999999
#
# number of rings (size 3 to 8) (size 9 to 14) (size 15 to 20)
#    0.000    1.200    2.000    3.000    0.000    7.200 
#    0.000    0.000    0.000    0.000    0.000    0.000 
#    0.000    0.000    0.000    0.000    0.000    0.000 
#
# Total GULP energy -55835.637407 kJ/mol
# GULP energy per Si atom -5583.563741 kJ/mol
# Density = 2.325483 g / cm^3
# Si number density = 23.307885 Si / 1000 Ang^3
#
#
#
# Elastic Constant Matrix: (Units=GPa)
#
#
# Indices 1 2 3 4 5 6 
#
# 1 229.5424 84.6693 74.0359 2.2168 57.1369 13.4190
# 2 84.6693 106.3152 28.4309 38.8362 13.1123 -9.2022
# 3 74.0359 28.4309 124.5331 4.5643 31.3409 -4.2769
# 4 2.2168 38.8362 4.5643 50.6040 -9.2178 6.6437
# 5 57.1369 13.1123 31.3409 -9.2178 61.0018 2.7656
# 6 13.4190 -9.2022 -4.2769 6.6437 2.7656 56.1504
#
#
#
# Elastic Compliance Matrix: (Units=1/GPa)
#
#
# Indices 1 2 3 4 5 6 
#
# 1 0.010471 -0.010017 -0.003203 0.007326 -0.004674 -0.005025
# 2 -0.010017 0.025250 0.001290 -0.020275 -0.000181 0.009038
# 3 -0.003203 0.001290 0.010635 -0.002699 -0.003252 0.002266
# 4 0.007326 -0.020275 -0.002699 0.037461 0.004995 -0.009958
# 5 -0.004674 -0.000181 -0.003252 0.004995 0.023276 -0.000898
# 6 -0.005025 0.009038 0.002266 -0.009958 -0.000898 0.021886
#
#
# Mechanical properties :
#
#
# Convention : Reuss Voigt Hill
#
# Bulk Modulus (GPa) = 44.45457 92.74032 68.59744
# Shear Modulus (GPa) = 31.18431 51.76820 41.47625
#
# Velocity S-wave (km/s) = 3.66174 4.71792 4.22298
# Velocity P-wave (km/s) = 6.08210 8.33991 7.29884
#
# Compressibility (1/GPa) = 0.02249488
#
# Stress axis : x y z
#
# Youngs Moduli (GPa) = 95.50285 39.60448 94.03128
#
# Poissons Ratio (x) = 0.39672 0.30118
# Poissons Ratio (y) = 0.95667 -0.12129
# Poissons Ratio (z) = 0.30589 -0.05108
#
# Static dielectric constant tensor:
#      x y z
#    x 1.819490 0.121090 0.196980 
#    y 0.121090 1.658150 -0.419800 
#    z 0.196980 -0.419800 1.395210 
# 
# From -- ./inp_files/420685.got.cif
#   From: 2010.05.17/outbox.cif.g08.bks.cpg/sg2_211_cif.got.tgz:420685.got - 2010.06.03 11:33:40.
