data_PCOD9030612
_publ_section_title
;
Structure prediction by ZEFSAII (Michael W. Deem and Ramdas Pophale) SiO2 
 PCOD9030612
Probable space group: P -1
;
_chemical_formula_sum "Si O2"
_cell_formula_units_Z 14
_cell_length_a 9.849451
_cell_length_b 7.333840
_cell_length_c 11.281803
_cell_angle_alpha 55.331852
_cell_angle_beta 57.597425
_cell_angle_gamma 79.405718
_cell_volume 557.243470
_symmetry_space_group_name_H-M "P -1"
_symmetry_group_IT_number 2
_symmetry_cell_setting 'triclinic'
loop_
_space_group_symop_operation_xyz
x,y,z
-x,-y,-z
loop_
_atom_site_type_symbol
_atom_site_label
_atom_site_fract_x
_atom_site_fract_y
_atom_site_fract_z
Si Si1 0.328151 0.049239 0.130365
Si Si2 0.917321 0.346743 0.968548
Si Si3 0.563479 0.106354 0.227541
Si Si4 0.535058 0.670339 0.563012
Si Si5 0.756439 0.646046 0.122972
Si Si6 0.194654 0.527275 0.376730
Si Si7 0.915073 0.759433 0.677906
O O1 0.269677 0.788340 0.228943
O O2 0.446747 0.092135 0.172433
O O3 0.364037 0.204502 0.940303
O O4 0.173872 0.157425 0.200487
O O5 0.837351 0.463235 0.074449
O O6 0.992847 0.553428 0.769051
O O7 0.747512 0.197349 0.061825
O O8 0.069149 0.218927 0.964974
O O9 0.505616 0.250805 0.311375
O O10 0.557684 0.872047 0.385192
O O11 0.698741 0.567183 0.538704
O O12 0.369948 0.497733 0.675189
O O13 0.203402 0.370891 0.316494
O O14 0.000000 0.500000 0.500000
O O15 0.000000 0.000000 0.500000
#
# Coordination Sequence:
#
# PCOD9030612 Si02
#       7
#     2   2   2   2   2   2   2
#     4  11  24  42  70 100 139 180 223 286 342 402
#     4   9  21  39  69 100 136 179 230 277 343 407
#     4  10  22  42  72 103 137 181 226 284 343 405
#     4  10  23  40  70  99 140 181 233 277 340 408
#     4   9  21  40  67 100 138 179 228 281 338 407
#     4  12  26  41  67 105 139 180 233 279 340 409
#     4  11  23  42  70  97 138 183 232 276 338 404
#
# _framework density 25.123667000000001
#
# number of rings (size 3 to 8) (size 9 to 14) (size 15 to 20)
#    0.000    1.714    2.857    0.000    6.000    4.000 
#    0.000    0.714    0.000    0.000    0.000    0.000 
#    0.000    0.000    0.000    0.000    0.000    0.000 
#
# Total GULP energy -78048.381237 kJ/mol
# GULP energy per Si atom -5574.884374 kJ/mol
# Density = 2.506648 g / cm^3
# Si number density = 25.123667 Si / 1000 Ang^3
#
#
#
# Elastic Constant Matrix: (Units=GPa)
#
#
# Indices 1 2 3 4 5 6 
#
# 1 185.8447 28.6495 91.5546 -18.7289 6.7859 -12.5402
# 2 28.6495 94.1956 21.8014 -13.0336 -5.5235 6.2451
# 3 91.5546 21.8014 120.6140 -20.0525 -0.4568 -10.2417
# 4 -18.7289 -13.0336 -20.0525 25.6062 0.2701 -10.4194
# 5 6.7859 -5.5235 -0.4568 0.2701 38.7075 1.5881
# 6 -12.5402 6.2451 -10.2417 -10.4194 1.5881 41.5385
#
#
#
# Elastic Compliance Matrix: (Units=1/GPa)
#
#
# Indices 1 2 3 4 5 6 
#
# 1 0.008987 -0.001294 -0.006103 0.001956 -0.001927 0.001967
# 2 -0.001294 0.011918 -0.000608 0.004058 0.001949 -0.001389
# 3 -0.006103 -0.000608 0.014769 0.008394 0.000936 0.003960
# 4 0.001956 0.004058 0.008394 0.055656 -0.000711 0.016038
# 5 -0.001927 0.001949 0.000936 -0.000711 0.026542 -0.001837
# 6 0.001967 -0.001389 0.003960 0.016038 -0.001837 0.029946
#
#
# Mechanical properties :
#
#
# Convention : Reuss Voigt Hill
#
# Bulk Modulus (GPa) = 50.85296 76.07391 63.46344
# Shear Modulus (GPa) = 29.34564 38.41369 33.87967
#
# Velocity S-wave (km/s) = 3.42138 3.91447 3.67620
# Velocity P-wave (km/s) = 5.99106 7.12574 6.58289
#
# Compressibility (1/GPa) = 0.01966454
#
# Stress axis : x y z
#
# Youngs Moduli (GPa) = 111.27077 83.90444 67.71069
#
# Poissons Ratio (x) = 0.10854 0.41324
# Poissons Ratio (y) = 0.14394 0.04118
# Poissons Ratio (z) = 0.67909 0.05103
#
# Static dielectric constant tensor:
#      x y z
#    x 2.520370 0.151570 0.424600 
#    y 0.151570 2.170870 0.182610 
#    z 0.424600 0.182610 2.573700 
# 
# From -- ./inp_files/513917.got.cif
#   From: 2010.05.17/outbox.cif.g08.bks.cpg/sg2_257_cif.got.tgz:513917.got - 2010.06.03 11:33:40.
