data_PCOD9030062
_publ_section_title
;
Structure prediction by ZEFSAII (Michael W. Deem and Ramdas Pophale) SiO2 
 PCOD9030062
Probable space group: P -1
;
_chemical_formula_sum "Si O2"
_cell_formula_units_Z 9
_cell_length_a 5.123604
_cell_length_b 5.479812
_cell_length_c 13.399061
_cell_angle_alpha 112.119784
_cell_angle_beta 80.047949
_cell_angle_gamma 94.099139
_cell_volume 343.256036
_symmetry_space_group_name_H-M "P -1"
_symmetry_group_IT_number 2
_symmetry_cell_setting 'triclinic'
loop_
_space_group_symop_operation_xyz
x,y,z
-x,-y,-z
loop_
_atom_site_type_symbol
_atom_site_label
_atom_site_fract_x
_atom_site_fract_y
_atom_site_fract_z
Si Si1 0.600010 0.310863 0.329688
Si Si2 0.921260 0.393030 0.595881
Si Si3 0.776165 0.422162 0.923068
Si Si4 0.500000 0.000000 0.500000
Si Si5 0.967174 0.890799 0.871466
O O1 0.311471 0.400411 0.329932
O O2 0.787740 0.582364 0.366833
O O3 0.760949 0.143730 0.212045
O O4 0.585931 0.169225 0.416060
O O5 0.000000 0.500000 0.500000
O O6 0.760223 0.123220 0.561624
O O7 0.838642 0.605232 0.853918
O O8 0.799723 0.111638 0.859761
O O9 0.500000 0.500000 0.000000
O O10 0.000000 0.500000 0.000000
O O11 0.000000 0.000000 0.000000
#
# Coordination Sequence:
#
# PCOD9030062 Si02
#       5
#     2   2   2   1   2
#     4  11  25  41  69 102 137 183 234 291 352 427
#     4  10  23  43  66 100 135 178 235 291 353 423
#     4  10  22  42  69  94 138 185 233 284 342 413
#     4  10  22  44  70  92 140 172 234 284 366 400
#     4  10  24  46  70 105 146 187 238 290 355 425
#
# _framework density 26.219494999999998
#
# number of rings (size 3 to 8) (size 9 to 14) (size 15 to 20)
#    0.000    1.778    0.000    3.333    3.111   15.111 
#    4.000    0.000    0.000    0.000    0.000    0.000 
#    0.000    0.000    0.000    0.000    0.000    0.000 
#
# Total GULP energy -50109.623687 kJ/mol
# GULP energy per Si atom -5567.735965 kJ/mol
# Density = 2.615982 g / cm^3
# Si number density = 26.219495 Si / 1000 Ang^3
#
#
#
# Elastic Constant Matrix: (Units=GPa)
#
#
# Indices 1 2 3 4 5 6 
#
# 1 169.5764 54.9253 65.6856 -21.4049 -33.7222 11.6079
# 2 54.9253 217.2944 45.9841 -25.6784 -13.2165 18.7227
# 3 65.6856 45.9841 158.4237 -20.9536 -32.8423 -1.3578
# 4 -21.4049 -25.6784 -20.9536 31.6834 0.2453 -4.7620
# 5 -33.7222 -13.2165 -32.8423 0.2453 61.2891 4.6424
# 6 11.6079 18.7227 -1.3578 -4.7620 4.6424 47.7580
#
#
#
# Elastic Compliance Matrix: (Units=1/GPa)
#
#
# Indices 1 2 3 4 5 6 
#
# 1 0.008149 -0.000912 -0.002024 0.003148 0.003318 -0.001689
# 2 -0.000912 0.005529 -0.000745 0.003114 0.000407 -0.001696
# 3 -0.002024 -0.000745 0.008548 0.003821 0.003207 0.001096
# 4 0.003148 0.003114 0.003821 0.038948 0.004174 0.001600
# 5 0.003318 0.000407 0.003207 0.004174 0.020114 -0.002414
# 6 -0.001689 -0.001696 0.001096 0.001600 -0.002414 0.022440
#
#
# Mechanical properties :
#
#
# Convention : Reuss Voigt Hill
#
# Bulk Modulus (GPa) = 67.28083 97.60940 82.44511
# Shear Modulus (GPa) = 43.08628 53.39272 48.23950
#
# Velocity S-wave (km/s) = 4.05815 4.51752 4.29398
# Velocity P-wave (km/s) = 6.90467 8.03239 7.48978
#
# Compressibility (1/GPa) = 0.01486308
#
# Stress axis : x y z
#
# Youngs Moduli (GPa) = 122.70779 180.85812 116.99275
#
# Poissons Ratio (x) = 0.16497 0.23685
# Poissons Ratio (y) = 0.11193 0.08715
# Poissons Ratio (z) = 0.24842 0.13472
#
# Static dielectric constant tensor:
#      x y z
#    x 2.068740 0.047230 0.163680 
#    y 0.047230 1.930670 -0.097310 
#    z 0.163680 -0.097310 1.843810 
# 
# From -- ./inp_files/2966.got.cif
#   From: 2010.05.17/outbox.cif.g08.bks.cpg/sg2_2_cif.got.tgz:2966.got - 2010.06.03 11:33:40.
