data_PCOD9030913
_publ_section_title
;
Structure prediction by ZEFSAII (Michael W. Deem and Ramdas Pophale) SiO2 
 PCOD9030913
Probable space group: P -1
;
_chemical_formula_sum "Si O2"
_cell_formula_units_Z 16
_cell_length_a 10.858879
_cell_length_b 13.315511
_cell_length_c 10.129572
_cell_angle_alpha 76.779645
_cell_angle_beta 50.805271
_cell_angle_gamma 117.380765
_cell_volume 661.336411
_symmetry_space_group_name_H-M "P -1"
_symmetry_group_IT_number 2
_symmetry_cell_setting 'triclinic'
loop_
_space_group_symop_operation_xyz
x,y,z
-x,-y,-z
loop_
_atom_site_type_symbol
_atom_site_label
_atom_site_fract_x
_atom_site_fract_y
_atom_site_fract_z
Si Si1 0.312029 0.682251 0.218559
Si Si2 0.199668 0.485179 0.138230
Si Si3 0.422712 0.517220 0.702784
Si Si4 0.774118 0.802912 0.991214
Si Si5 0.971610 0.158605 0.456456
Si Si6 0.941022 0.521569 0.174212
Si Si7 0.634839 0.118887 0.066246
Si Si8 0.010331 0.880909 0.238769
O O1 0.000000 0.500000 0.500000
O O2 0.386967 0.657249 0.042184
O O3 0.503250 0.728028 0.178937
O O4 0.338242 0.813856 0.117624
O O5 0.128026 0.347664 0.310496
O O6 0.943002 0.421707 0.295911
O O7 0.333677 0.518706 0.903274
O O8 0.305797 0.532278 0.666596
O O9 0.738343 0.683699 0.443244
O O10 0.288875 0.334906 0.847514
O O11 0.887946 0.826980 0.763767
O O12 0.975252 0.992937 0.854200
O O13 0.967030 0.104914 0.619989
O O14 0.674474 0.031683 0.647830
O O15 0.000000 0.500000 0.000000
O O16 0.178856 0.717480 0.010042
O O17 0.754054 0.067145 0.992774
#
# Coordination Sequence:
#
# PCOD9030913 Si02
#       8
#     2   2   2   2   2   2   2   2
#     4  11  21  36  61  91 128 164 204 252 316 378
#     4   9  20  37  64  91 116 168 208 255 312 367
#     4  10  22  43  62  88 124 167 219 254 305 371
#     4  11  24  38  62  97 126 170 208 249 319 374
#     4  11  22  39  62  97 131 158 206 258 312 389
#     4   9  21  43  66  85 120 167 217 262 302 365
#     4  11  24  39  62  94 125 163 210 255 319 368
#     4  12  24  39  65  94 134 165 195 268 318 370
#
# _framework density 24.193435000000001
#
# number of rings (size 3 to 8) (size 9 to 14) (size 15 to 20)
#    0.000    1.500    1.250    3.750    7.000    2.500 
#    2.250    2.500    0.000    0.000    0.000    0.000 
#    0.000    0.000    0.000    0.000    0.000    0.000 
#
# Total GULP energy -89455.964553 kJ/mol
# GULP energy per Si atom -5590.997785 kJ/mol
# Density = 2.413837 g / cm^3
# Si number density = 24.193435 Si / 1000 Ang^3
#
#
#
# Elastic Constant Matrix: (Units=GPa)
#
#
# Indices 1 2 3 4 5 6 
#
# 1 86.9072 24.6584 20.5031 3.4132 -10.3827 -11.0679
# 2 24.6584 122.3571 22.2633 2.9959 9.4740 -23.0665
# 3 20.5031 22.2633 95.6772 18.2533 -28.8631 -1.4530
# 4 3.4132 2.9959 18.2533 37.0286 0.1228 6.0366
# 5 -10.3827 9.4740 -28.8631 0.1228 29.4220 0.4971
# 6 -11.0679 -23.0665 -1.4530 6.0366 0.4971 41.4895
#
#
#
# Elastic Compliance Matrix: (Units=1/GPa)
#
#
# Indices 1 2 3 4 5 6 
#
# 1 0.013262 -0.002516 -0.000507 -0.001149 0.004959 0.002229
# 2 -0.002516 0.011363 -0.005129 0.000986 -0.009675 0.005439
# 3 -0.000507 -0.005129 0.019811 -0.009177 0.020966 -0.001209
# 4 -0.001149 0.000986 -0.009177 0.032350 -0.009781 -0.004669
# 5 0.004959 -0.009675 0.020966 -0.009781 0.059507 -0.002611
# 6 0.002229 0.005439 -0.001209 -0.004669 -0.002611 0.028389
#
#
# Mechanical properties :
#
#
# Convention : Reuss Voigt Hill
#
# Bulk Modulus (GPa) = 35.54746 48.86569 42.20657
# Shear Modulus (GPa) = 26.26547 37.42246 31.84397
#
# Velocity S-wave (km/s) = 3.29849 3.93721 3.63192
# Velocity P-wave (km/s) = 5.40663 6.39614 5.92208
#
# Compressibility (1/GPa) = 0.02813141
#
# Stress axis : x y z
#
# Youngs Moduli (GPa) = 75.40601 88.00134 50.47606
#
# Poissons Ratio (x) = 0.22141 0.02561
# Poissons Ratio (y) = 0.18972 0.25890
# Poissons Ratio (z) = 0.03826 0.45137
#
# Static dielectric constant tensor:
#      x y z
#    x 1.936170 0.014960 0.001830 
#    y 0.014960 1.954480 0.019700 
#    z 0.001830 0.019700 1.923770 
# 
# From -- ./inp_files/181673.got.cif
#   From: 2010.05.17/outbox.cif.g08.bks.cpg/sg2_91_cif.got.tgz:181673.got - 2010.06.03 11:33:40.
