data_PCOD9030196
_publ_section_title
;
Structure prediction by ZEFSAII (Michael W. Deem and Ramdas Pophale) SiO2 
 PCOD9030196
Probable space group: P -1
;
_chemical_formula_sum "Si O2"
_cell_formula_units_Z 15
_cell_length_a 8.984764
_cell_length_b 16.558515
_cell_length_c 12.984085
_cell_angle_alpha 47.150616
_cell_angle_beta 151.972824
_cell_angle_gamma 120.209153
_cell_volume 638.450093
_symmetry_space_group_name_H-M "P -1"
_symmetry_group_IT_number 2
_symmetry_cell_setting 'triclinic'
loop_
_space_group_symop_operation_xyz
x,y,z
-x,-y,-z
loop_
_atom_site_type_symbol
_atom_site_label
_atom_site_fract_x
_atom_site_fract_y
_atom_site_fract_z
Si Si1 0.860230 0.419885 0.758631
Si Si2 0.974044 0.215540 0.611924
Si Si3 0.125388 0.624443 0.776167
Si Si4 0.693423 0.803404 0.475892
Si Si5 0.000000 0.000000 0.500000
Si Si6 0.694492 0.804145 0.707045
Si Si7 0.123916 0.958350 0.857842
Si Si8 0.126090 0.374961 0.737976
O O1 0.500000 0.500000 0.500000
O O2 0.115072 0.496354 0.860796
O O3 0.910491 0.379623 0.705619
O O4 0.984818 0.305801 0.001627
O O5 0.032749 0.293082 0.486932
O O6 0.584459 0.227238 0.369974
O O7 0.087341 0.270966 0.733509
O O8 0.122515 0.079544 0.803212
O O9 0.880715 0.672939 0.679311
O O10 0.489089 0.636696 0.999932
O O11 0.970278 0.870660 0.580668
O O12 0.557145 0.825628 0.488708
O O13 0.417944 0.862720 0.173922
O O14 0.122083 0.971697 0.722061
O O15 0.805568 0.911839 0.722345
O O16 0.000000 0.500000 0.500000
#
# Coordination Sequence:
#
# PCOD9030196 Si02
#       8
#     2   2   2   2   1   2   2   2
#     4  12  27  50  76 106 150 193 248 311 372 438
#     4  12  26  46  77 104 149 196 243 303 372 437
#     4  12  26  48  76 109 146 193 248 307 365 439
#     4  11  26  43  73 108 147 190 248 297 368 438
#     4  10  22  42  70 100 146 180 240 300 352 426
#     4  11  27  47  69 108 152 192 245 309 367 440
#     4  11  25  47  73 109 149 193 249 299 368 436
#     4  12  27  47  75 108 144 194 251 303 371 438
#
# _framework density 23.494398
#
# number of rings (size 3 to 8) (size 9 to 14) (size 15 to 20)
#    0.000    0.533    4.000    2.800    7.467    2.133 
#    0.000    0.000    0.000    0.000    0.000    0.000 
#    0.000    0.000    0.000    0.000    0.000    0.000 
#
# Total GULP energy -83649.392137 kJ/mol
# GULP energy per Si atom -5576.626142 kJ/mol
# Density = 2.344092 g / cm^3
# Si number density = 23.494398 Si / 1000 Ang^3
#
#
#
# Elastic Constant Matrix: (Units=GPa)
#
#
# Indices 1 2 3 4 5 6 
#
# 1 58.6052 34.9837 45.5599 12.5793 0.5392 -14.2442
# 2 34.9837 176.4955 38.1830 17.7468 -2.1446 -12.5490
# 3 45.5599 38.1830 98.0058 -7.7981 0.2028 -19.4661
# 4 12.5793 17.7468 -7.7981 32.4642 4.3197 -5.8428
# 5 0.5392 -2.1446 0.2028 4.3197 38.1289 0.4874
# 6 -14.2442 -12.5490 -19.4661 -5.8428 0.4874 38.4562
#
#
#
# Elastic Compliance Matrix: (Units=1/GPa)
#
#
# Indices 1 2 3 4 5 6 
#
# 1 0.034769 -0.001515 -0.016606 -0.016555 0.001369 0.001446
# 2 -0.001515 0.006852 -0.002287 -0.003835 0.000854 -0.000077
# 3 -0.016606 -0.002287 0.021117 0.014050 -0.001674 0.005948
# 4 -0.016555 -0.003835 0.014050 0.044561 -0.005189 0.006565
# 5 0.001369 0.000854 -0.001674 -0.005189 0.026868 -0.001191
# 6 0.001446 -0.000077 0.005948 0.006565 -0.001191 0.030537
#
#
# Mechanical properties :
#
#
# Convention : Reuss Voigt Hill
#
# Bulk Modulus (GPa) = 45.61714 63.39552 54.50633
# Shear Modulus (GPa) = 23.49319 36.10186 29.79752
#
# Velocity S-wave (km/s) = 3.16563 3.92422 3.56516
# Velocity P-wave (km/s) = 5.72887 6.89743 6.34013
#
# Compressibility (1/GPa) = 0.02192158
#
# Stress axis : x y z
#
# Youngs Moduli (GPa) = 28.76089 145.95187 47.35546
#
# Poissons Ratio (x) = 0.22115 0.78637
# Poissons Ratio (y) = 0.04358 0.10831
# Poissons Ratio (z) = 0.47760 0.33382
#
# Static dielectric constant tensor:
#      x y z
#    x 1.915380 -0.002090 0.025470 
#    y -0.002090 1.871150 0.038950 
#    z 0.025470 0.038950 1.892240 
# 
# From -- ./inp_files/117234.got.cif
#   From: 2010.05.17/outbox.cif.g08.bks.cpg/sg2_59_cif.got.tgz:117234.got - 2010.06.03 11:33:40.
