data_PCOD9030949
_publ_section_title
;
Structure prediction by ZEFSAII (Michael W. Deem and Ramdas Pophale) SiO2 
 PCOD9030949
Probable space group: P -1
;
_chemical_formula_sum "Si O2"
_cell_formula_units_Z 14
_cell_length_a 13.997167
_cell_length_b 5.150139
_cell_length_c 20.937892
_cell_angle_alpha 99.374700
_cell_angle_beta 157.735569
_cell_angle_gamma 74.754876
_cell_volume 538.214335
_symmetry_space_group_name_H-M "P -1"
_symmetry_group_IT_number 2
_symmetry_cell_setting 'triclinic'
loop_
_space_group_symop_operation_xyz
x,y,z
-x,-y,-z
loop_
_atom_site_type_symbol
_atom_site_label
_atom_site_fract_x
_atom_site_fract_y
_atom_site_fract_z
Si Si1 0.249657 0.620310 0.148562
Si Si2 0.866027 0.942809 0.560272
Si Si3 0.470313 0.234430 0.437854
Si Si4 0.667771 0.312196 0.003681
Si Si5 0.044186 0.039584 0.132218
Si Si6 0.697729 0.604140 0.343221
Si Si7 0.800961 0.650593 0.200044
O O1 0.541930 0.469306 0.294765
O O2 0.160854 0.856853 0.048045
O O3 0.259050 0.770595 0.227582
O O4 0.000000 0.500000 0.000000
O O5 0.713342 0.877105 0.401697
O O6 0.027287 0.637849 0.673312
O O7 0.666664 0.111694 0.497122
O O8 0.069326 0.119198 0.688132
O O9 0.500000 0.500000 0.500000
O O10 0.178858 0.279504 0.232371
O O11 0.500000 0.000000 0.500000
O O12 0.469922 0.396183 0.824834
O O13 0.495826 0.251800 0.952213
O O14 0.895129 0.048705 0.106752
O O15 0.780367 0.552107 0.110402
O O16 0.000000 0.500000 0.500000
#
# Coordination Sequence:
#
# PCOD9030949 Si02
#       7
#     2   2   2   2   2   2   2
#     4  10  23  42  70  98 137 189 236 298 364 442
#     4  12  25  48  75 108 145 190 245 307 365 435
#     4  12  26  44  72 103 141 186 235 296 362 430
#     4  10  23  46  69 102 142 195 239 301 364 445
#     4  10  22  43  62  99 136 181 237 290 358 432
#     4  11  23  47  71 110 146 190 248 310 372 430
#     4  11  26  48  72 104 146 196 245 295 367 451
#
# _framework density 26.011942000000001
#
# number of rings (size 3 to 8) (size 9 to 14) (size 15 to 20)
#    0.000    1.143    2.857    2.571    2.000    5.143 
#    5.143    0.000    0.000    0.000    0.000    0.000 
#    0.000    0.000    0.000    0.000    0.000    0.000 
#
# Total GULP energy -78170.986666 kJ/mol
# GULP energy per Si atom -5583.641905 kJ/mol
# Density = 2.595274 g / cm^3
# Si number density = 26.011942 Si / 1000 Ang^3
#
#
#
# Elastic Constant Matrix: (Units=GPa)
#
#
# Indices 1 2 3 4 5 6 
#
# 1 132.7992 68.4572 39.2741 7.5406 20.0163 -47.7086
# 2 68.4572 143.0265 52.4708 35.7486 0.2216 -15.7559
# 3 39.2741 52.4708 132.3486 36.8727 2.1988 -11.3782
# 4 7.5406 35.7486 36.8727 54.9140 -15.8507 2.9671
# 5 20.0163 0.2216 2.1988 -15.8507 69.7417 -3.2000
# 6 -47.7086 -15.7559 -11.3782 2.9671 -3.2000 51.4849
#
#
#
# Elastic Compliance Matrix: (Units=1/GPa)
#
#
# Indices 1 2 3 4 5 6 
#
# 1 0.016028 -0.005982 -0.001526 0.000968 -0.003744 0.012396
# 2 -0.005982 0.011541 -0.001444 -0.005503 0.000384 -0.001990
# 3 -0.001526 -0.001444 0.010404 -0.006242 -0.001271 0.000724
# 4 0.000968 -0.005503 -0.006242 0.027794 0.006098 -0.003390
# 5 -0.003744 0.000384 -0.001271 0.006098 0.016703 -0.002946
# 6 0.012396 -0.001990 0.000724 -0.003390 -0.002946 0.030473
#
#
# Mechanical properties :
#
#
# Convention : Reuss Voigt Hill
#
# Bulk Modulus (GPa) = 49.83431 80.95315 65.39373
# Shear Modulus (GPa) = 36.35392 51.75960 44.05676
#
# Velocity S-wave (km/s) = 3.74249 4.46560 4.11994
# Velocity P-wave (km/s) = 6.15425 7.60118 6.91566
#
# Compressibility (1/GPa) = 0.02006650
#
# Stress axis : x y z
#
# Youngs Moduli (GPa) = 62.39101 86.65102 96.12027
#
# Poissons Ratio (x) = 0.51836 0.14671
# Poissons Ratio (y) = 0.37323 0.13884
# Poissons Ratio (z) = 0.09523 0.12516
#
# Static dielectric constant tensor:
#      x y z
#    x 2.148840 0.041500 -0.042590 
#    y 0.041500 2.087070 -0.094660 
#    z -0.042590 -0.094660 2.279710 
# 
# From -- ./inp_files/611342.got.cif
#   From: 2010.05.17/outbox.cif.g08.bks.cpg/sg2_306_cif.got.tgz:611342.got - 2010.06.03 11:33:40.
