data_PCOD9030255
_publ_section_title
;
Structure prediction by ZEFSAII (Michael W. Deem and Ramdas Pophale) SiO2 
 PCOD9030255
Probable space group: P -1
;
_chemical_formula_sum "Si O2"
_cell_formula_units_Z 16
_cell_length_a 13.912153
_cell_length_b 11.393741
_cell_length_c 25.864235
_cell_angle_alpha 150.212133
_cell_angle_beta 32.371680
_cell_angle_gamma 125.431577
_cell_volume 891.245746
_symmetry_space_group_name_H-M "P -1"
_symmetry_group_IT_number 2
_symmetry_cell_setting 'triclinic'
loop_
_space_group_symop_operation_xyz
x,y,z
-x,-y,-z
loop_
_atom_site_type_symbol
_atom_site_label
_atom_site_fract_x
_atom_site_fract_y
_atom_site_fract_z
Si Si1 0.526509 0.228822 0.912906
Si Si2 0.893383 0.704452 0.915552
Si Si3 0.279868 0.607365 0.261297
Si Si4 0.795490 0.593875 0.567095
Si Si5 0.375990 0.504813 0.491166
Si Si6 0.298340 0.298298 0.230864
Si Si7 0.156719 0.219404 0.535923
Si Si8 0.161156 0.917040 0.831819
O O1 0.742927 0.903578 0.690141
O O2 0.500000 0.500000 0.000000
O O3 0.343283 0.202154 0.959690
O O4 0.467103 0.332468 0.038650
O O5 0.060311 0.377338 0.695214
O O6 0.965497 0.883119 0.919109
O O7 0.893937 0.786760 0.006082
O O8 0.286531 0.537450 0.291247
O O9 0.055286 0.679612 0.364649
O O10 0.289934 0.877925 0.349809
O O11 0.682824 0.498888 0.542404
O O12 0.691926 0.655260 0.694827
O O13 0.057719 0.358383 0.357730
O O14 0.289948 0.334317 0.494977
O O15 0.246022 0.817862 0.697293
O O16 0.631697 0.329335 0.321605
O O17 0.500000 0.000000 0.000000
#
# Coordination Sequence:
#
# PCOD9030255 Si02
#       8
#     2   2   2   2   2   2   2   2
#     4  11  21  32  55  85 118 147 175 222 286 344
#     4   9  18  31  47  79 116 140 176 215 283 343
#     4  10  19  33  50  76 113 148 179 218 282 336
#     4  11  22  36  56  78 114 151 190 226 273 338
#     4  10  17  32  51  79 107 135 183 230 280 331
#     4  11  23  38  51  75 114 157 194 228 266 331
#     4   9  18  30  52  77 109 144 170 225 285 339
#     4   9  18  29  50  77 113 142 171 228 281 333
#
# _framework density 17.952399
#
# number of rings (size 3 to 8) (size 9 to 14) (size 15 to 20)
#    0.000    2.000    3.750    0.750    3.500    0.000 
#    0.000    0.000    0.000    0.000    0.000    8.750 
#    0.000    0.250    0.000    0.000    0.000    0.000 
#
# Total GULP energy -89149.931139 kJ/mol
# GULP energy per Si atom -5571.870696 kJ/mol
# Density = 1.791154 g / cm^3
# Si number density = 17.952399 Si / 1000 Ang^3
#
#
#
# Elastic Constant Matrix: (Units=GPa)
#
#
# Indices 1 2 3 4 5 6 
#
# 1 103.5123 26.8568 41.8364 -1.4813 27.4018 -3.0029
# 2 26.8568 43.3705 16.0472 -3.9747 4.6114 0.6824
# 3 41.8364 16.0472 110.4121 -5.3020 22.3262 2.2378
# 4 -1.4813 -3.9747 -5.3020 23.1625 2.9529 3.5233
# 5 27.4018 4.6114 22.3262 2.9529 32.7949 -5.7649
# 6 -3.0029 0.6824 2.2378 3.5233 -5.7649 27.9408
#
#
#
# Elastic Compliance Matrix: (Units=1/GPa)
#
#
# Indices 1 2 3 4 5 6 
#
# 1 0.015306 -0.007388 -0.002692 0.000374 -0.009962 -0.000061
# 2 -0.007388 0.028328 -0.001664 0.003850 0.002752 -0.001270
# 3 -0.002692 -0.001664 0.011846 0.003524 -0.006420 -0.002966
# 4 0.000374 0.003850 0.003524 0.047034 -0.008913 -0.008106
# 5 -0.009962 0.002752 -0.006420 -0.008913 0.045335 0.009854
# 6 -0.000061 -0.001270 -0.002966 -0.008106 0.009854 0.039107
#
#
# Mechanical properties :
#
#
# Convention : Reuss Voigt Hill
#
# Bulk Modulus (GPa) = 31.25697 47.41951 39.33824
# Shear Modulus (GPa) = 22.61340 28.28329 25.44834
#
# Velocity S-wave (km/s) = 3.55298 3.97351 3.76912
# Velocity P-wave (km/s) = 5.85494 6.89370 6.39545
#
# Compressibility (1/GPa) = 0.03199286
#
# Stress axis : x y z
#
# Youngs Moduli (GPa) = 65.33237 35.30117 84.41327
#
# Poissons Ratio (x) = 0.26079 0.22728
# Poissons Ratio (y) = 0.48265 0.14044
# Poissons Ratio (z) = 0.17590 0.05873
#
# Static dielectric constant tensor:
#      x y z
#    x 1.632630 -0.010870 0.028940 
#    y -0.010870 1.617380 -0.027000 
#    z 0.028940 -0.027000 1.693480 
# 
# From -- ./inp_files/426380.got.cif
#   From: 2010.05.17/outbox.cif.g08.bks.cpg/sg2_214_cif.got.tgz:426380.got - 2010.06.03 11:33:40.
