data_PCOD9030839
_publ_section_title
;
Structure prediction by ZEFSAII (Michael W. Deem and Ramdas Pophale) SiO2 
 PCOD9030839
Probable space group: P -1
;
_chemical_formula_sum "Si O2"
_cell_formula_units_Z 15
_cell_length_a 18.844832
_cell_length_b 8.147784
_cell_length_c 8.771898
_cell_angle_alpha 66.470428
_cell_angle_beta 52.132892
_cell_angle_gamma 38.012019
_cell_volume 644.844646
_symmetry_space_group_name_H-M "P -1"
_symmetry_group_IT_number 2
_symmetry_cell_setting 'triclinic'
loop_
_space_group_symop_operation_xyz
x,y,z
-x,-y,-z
loop_
_atom_site_type_symbol
_atom_site_label
_atom_site_fract_x
_atom_site_fract_y
_atom_site_fract_z
Si Si1 0.302365 0.105392 0.637869
Si Si2 0.231348 0.503865 0.360878
Si Si3 0.361117 0.685229 0.208792
Si Si4 0.022968 0.669355 0.345815
Si Si5 0.263168 0.186458 0.016322
Si Si6 0.572103 0.722868 0.248788
Si Si7 0.257592 0.812130 0.617582
Si Si8 0.500000 0.000000 0.000000
O O1 0.225953 0.390775 0.562292
O O2 0.274880 0.135771 0.841018
O O3 0.461007 0.893061 0.463656
O O4 0.263354 0.981663 0.649275
O O5 0.277476 0.634997 0.285113
O O6 0.096164 0.675213 0.377935
O O7 0.353246 0.233256 0.204100
O O8 0.367044 0.655273 0.394596
O O9 0.500000 0.500000 0.000000
O O10 0.274616 0.988995 0.167628
O O11 0.000000 0.500000 0.500000
O O12 0.129559 0.488194 0.133661
O O13 0.887910 0.965165 0.353467
O O14 0.393603 0.120551 0.906057
O O15 0.699112 0.421607 0.250439
O O16 0.521125 0.755312 0.136309
#
# Coordination Sequence:
#
# PCOD9030839 Si02
#       8
#     2   2   2   2   2   2   2   1
#     4  11  24  43  74 105 145 183 235 318 360 424
#     4  11  24  45  74 104 145 189 238 296 371 417
#     4  12  26  42  75 112 141 189 243 306 361 437
#     4  12  25  50  71 100 149 204 237 298 349 439
#     4  12  25  45  70 106 145 188 246 292 368 424
#     4  11  24  44  72 108 142 182 239 309 367 425
#     4  12  27  47  70 104 152 189 245 293 363 431
#     4  10  22  42  76 102 136 178 234 294 378 414
#
# _framework density 23.261419
#
# number of rings (size 3 to 8) (size 9 to 14) (size 15 to 20)
#    0.000    0.533    4.000    4.000    7.467    1.600 
#    0.000    0.000    0.000    0.000    0.000    0.000 
#    0.000    0.000    0.000    0.000    0.000    0.000 
#
# Total GULP energy -83776.667365 kJ/mol
# GULP energy per Si atom -5585.111158 kJ/mol
# Density = 2.320848 g / cm^3
# Si number density = 23.261419 Si / 1000 Ang^3
#
#
#
# Elastic Constant Matrix: (Units=GPa)
#
#
# Indices 1 2 3 4 5 6 
#
# 1 130.9409 36.4683 31.9019 -17.1732 -8.5522 6.1084
# 2 36.4683 152.6154 39.3816 -31.9479 -6.4372 -24.1067
# 3 31.9019 39.3816 111.5799 -19.0527 17.5853 -8.6209
# 4 -17.1732 -31.9479 -19.0527 47.0984 1.3775 -3.2671
# 5 -8.5522 -6.4372 17.5853 1.3775 31.7742 -2.2024
# 6 6.1084 -24.1067 -8.6209 -3.2671 -2.2024 29.5733
#
#
#
# Elastic Compliance Matrix: (Units=1/GPa)
#
#
# Indices 1 2 3 4 5 6 
#
# 1 0.009304 -0.001860 -0.002718 0.000663 0.003332 -0.003909
# 2 -0.001860 0.010326 -0.001824 0.006137 0.002971 0.009169
# 3 -0.002718 -0.001824 0.012360 0.003172 -0.007910 0.002438
# 4 0.000663 0.006137 0.003172 0.027555 -0.000921 0.008766
# 5 0.003332 0.002971 -0.007910 -0.000921 0.037535 0.002121
# 6 -0.003909 0.009169 0.002438 0.008766 0.002121 0.043933
#
#
# Mechanical properties :
#
#
# Convention : Reuss Voigt Hill
#
# Bulk Modulus (GPa) = 52.12275 67.84886 59.98580
# Shear Modulus (GPa) = 31.20850 40.84813 36.02832
#
# Velocity S-wave (km/s) = 3.66682 4.19507 3.93981
# Velocity P-wave (km/s) = 6.35480 7.25921 6.82201
#
# Compressibility (1/GPa) = 0.01918548
#
# Stress axis : x y z
#
# Youngs Moduli (GPa) = 107.47973 96.84254 80.90775
#
# Poissons Ratio (x) = 0.18015 0.21987
# Poissons Ratio (y) = 0.19993 0.14761
# Poissons Ratio (z) = 0.29208 0.17669
#
# Static dielectric constant tensor:
#      x y z
#    x 2.287850 -0.175870 0.079970 
#    y -0.175870 1.963640 -0.050520 
#    z 0.079970 -0.050520 1.888750 
# 
# From -- ./inp_files/343409.got.cif
#   From: 2010.05.17/outbox.cif.g08.bks.cpg/sg2_172_cif.got.tgz:343409.got - 2010.06.03 11:33:40.
