data_PCOD9030111
_publ_section_title
;
Structure prediction by ZEFSAII (Michael W. Deem and Ramdas Pophale) SiO2 
 PCOD9030111
Probable space group: P -1
;
_chemical_formula_sum "Si O2"
_cell_formula_units_Z 16
_cell_length_a 7.678266
_cell_length_b 16.930554
_cell_length_c 7.971164
_cell_angle_alpha 70.291998
_cell_angle_beta 127.688063
_cell_angle_gamma 79.244301
_cell_volume 655.971898
_symmetry_space_group_name_H-M "P -1"
_symmetry_group_IT_number 2
_symmetry_cell_setting 'triclinic'
loop_
_space_group_symop_operation_xyz
x,y,z
-x,-y,-z
loop_
_atom_site_type_symbol
_atom_site_label
_atom_site_fract_x
_atom_site_fract_y
_atom_site_fract_z
Si Si1 0.364398 0.413197 0.060414
Si Si2 0.701153 0.881074 0.389717
Si Si3 0.145306 0.309884 0.224081
Si Si4 0.399330 0.109657 0.074695
Si Si5 0.387063 0.347979 0.598843
Si Si6 0.107299 0.717978 0.203992
Si Si7 0.315696 0.779299 0.811792
Si Si8 0.714310 0.474550 0.387850
O O1 0.204222 0.378205 0.094730
O O2 0.608335 0.309290 0.210382
O O3 0.460340 0.473690 0.179357
O O4 0.227273 0.475855 0.767873
O O5 0.664282 0.806811 0.537927
O O6 0.007517 0.841652 0.606396
O O7 0.533399 0.993740 0.268109
O O8 0.633309 0.877065 0.156980
O O9 0.136111 0.352076 0.373240
O O10 0.927794 0.307312 0.989648
O O11 0.574443 0.150991 0.217350
O O12 0.119885 0.175599 0.949526
O O13 0.607180 0.301149 0.616883
O O14 0.336945 0.454266 0.538213
O O15 0.516978 0.277682 0.884122
O O16 0.092317 0.638498 0.368380
#
# Coordination Sequence:
#
# PCOD9030111 Si02
#       8
#     2   2   2   2   2   2   2   2
#     4  10  22  42  69  97 132 172 223 267 322 398
#     4  11  25  44  70  99 130 174 218 276 332 391
#     4  12  24  42  66 102 134 168 227 268 325 393
#     4  11  25  45  68 100 131 171 227 265 332 400
#     4  11  24  44  65  98 140 172 215 274 328 387
#     4  12  24  43  68  96 134 178 212 278 324 384
#     4  11  21  46  69  92 138 176 210 276 332 386
#     4  10  23  44  68  95 138 178 216 267 330 393
#
# _framework density 24.391287999999999
#
# number of rings (size 3 to 8) (size 9 to 14) (size 15 to 20)
#    0.000    1.000    5.000    1.500    0.000    1.500 
#    0.000    0.625    0.000    0.000    0.000    0.000 
#    0.000    0.000    0.000    0.000    0.000    0.000 
#
# Total GULP energy -89484.327047 kJ/mol
# GULP energy per Si atom -5592.770440 kJ/mol
# Density = 2.433577 g / cm^3
# Si number density = 24.391288 Si / 1000 Ang^3
#
#
#
# Elastic Constant Matrix: (Units=GPa)
#
#
# Indices 1 2 3 4 5 6 
#
# 1 68.2018 38.9827 16.3065 -20.3009 1.7781 5.3435
# 2 38.9827 146.7275 48.4781 -12.4707 11.3065 -2.9365
# 3 16.3065 48.4781 104.6519 -4.1519 -4.7538 -0.7003
# 4 -20.3009 -12.4707 -4.1519 50.8378 0.3411 3.5562
# 5 1.7781 11.3065 -4.7538 0.3411 40.6200 -13.6753
# 6 5.3435 -2.9365 -0.7003 3.5562 -13.6753 37.6322
#
#
#
# Elastic Compliance Matrix: (Units=1/GPa)
#
#
# Indices 1 2 3 4 5 6 
#
# 1 0.019851 -0.004372 -0.000873 0.007093 -0.001263 -0.004306
# 2 -0.004372 0.009487 -0.003829 0.000271 -0.002819 0.000240
# 3 -0.000873 -0.003829 0.011584 -0.000439 0.002838 0.001114
# 4 0.007093 0.000271 -0.000439 0.022816 -0.001925 -0.003850
# 5 -0.001263 -0.002819 0.002838 -0.001925 0.029479 0.010906
# 6 -0.004306 0.000240 0.001114 -0.003850 0.010906 0.031551
#
#
# Mechanical properties :
#
#
# Convention : Reuss Voigt Hill
#
# Bulk Modulus (GPa) = 43.90736 58.56841 51.23789
# Shear Modulus (GPa) = 33.22098 40.20559 36.71329
#
# Velocity S-wave (km/s) = 3.69453 4.06440 3.88387
# Velocity P-wave (km/s) = 6.01995 6.78896 6.41599
#
# Compressibility (1/GPa) = 0.02277523
#
# Stress axis : x y z
#
# Youngs Moduli (GPa) = 50.37410 105.40693 86.32391
#
# Poissons Ratio (x) = 0.46081 0.07535
# Poissons Ratio (y) = 0.22022 0.33055
# Poissons Ratio (z) = 0.04397 0.40363
#
# Static dielectric constant tensor:
#      x y z
#    x 1.954990 -0.016110 -0.020680 
#    y -0.016110 1.929110 0.052800 
#    z -0.020680 0.052800 1.962270 
# 
# From -- ./inp_files/206548.got.cif
#   From: 2010.05.17/outbox.cif.g08.bks.cpg/sg2_104_cif.got.tgz:206548.got - 2010.06.03 11:33:40.
