data_PCOD9030856
_publ_section_title
;
Structure prediction by ZEFSAII (Michael W. Deem and Ramdas Pophale) SiO2 
 PCOD9030856
Probable space group: P -1
;
_chemical_formula_sum "Si O2"
_cell_formula_units_Z 16
_cell_length_a 8.699214
_cell_length_b 12.597220
_cell_length_c 8.402779
_cell_angle_alpha 133.003032
_cell_angle_beta 64.796821
_cell_angle_gamma 117.061817
_cell_volume 590.175823
_symmetry_space_group_name_H-M "P -1"
_symmetry_group_IT_number 2
_symmetry_cell_setting 'triclinic'
loop_
_space_group_symop_operation_xyz
x,y,z
-x,-y,-z
loop_
_atom_site_type_symbol
_atom_site_label
_atom_site_fract_x
_atom_site_fract_y
_atom_site_fract_z
Si Si1 0.199855 0.376422 0.488834
Si Si2 0.763665 0.464617 0.873870
Si Si3 0.964732 0.735058 0.213148
Si Si4 0.388380 0.867286 0.188312
Si Si5 0.469245 0.480031 0.244982
Si Si6 0.296565 0.097466 0.679113
Si Si7 0.851028 0.199521 0.366877
Si Si8 0.627128 0.278269 0.280085
O O1 0.126122 0.299696 0.608341
O O2 0.383324 0.374801 0.320280
O O3 0.241352 0.558044 0.655805
O O4 0.052073 0.287576 0.341890
O O5 0.665226 0.536549 0.857044
O O6 0.788223 0.315592 0.631082
O O7 0.936701 0.580086 0.971653
O O8 0.644284 0.450416 0.068555
O O9 0.172688 0.802203 0.210219
O O10 0.845586 0.823771 0.255736
O O11 0.389803 0.031308 0.424524
O O12 0.538525 0.828015 0.201056
O O13 0.435571 0.832379 0.952803
O O14 0.493323 0.651532 0.471299
O O15 0.185169 0.959184 0.692970
O O16 0.741654 0.193554 0.250061
#
# Coordination Sequence:
#
# PCOD9030856 Si02
#       8
#     2   2   2   2   2   2   2   2
#     4  10  22  42  76 116 157 196 259 332 396 458
#     4  10  22  43  79 118 148 208 260 324 397 468
#     4  12  26  48  80 115 157 208 266 326 395 476
#     4  11  25  48  80 109 159 216 267 318 398 474
#     4   8  21  42  70 122 158 192 254 336 395 460
#     4  11  28  50  75 117 158 213 269 323 387 484
#     4  11  22  44  83 111 157 208 264 329 394 472
#     4   9  22  43  76 115 153 203 258 332 400 462
#
# _framework density 27.110568000000001
#
# number of rings (size 3 to 8) (size 9 to 14) (size 15 to 20)
#    0.750    1.000    1.250    1.500    3.500    8.000 
#    0.000    1.875    0.000    2.250    0.000    0.000 
#    0.000    0.000    0.000    0.000    0.000    0.000 
#
# Total GULP energy -89355.941846 kJ/mol
# GULP energy per Si atom -5584.746365 kJ/mol
# Density = 2.704886 g / cm^3
# Si number density = 27.110568 Si / 1000 Ang^3
#
#
#
# Elastic Constant Matrix: (Units=GPa)
#
#
# Indices 1 2 3 4 5 6 
#
# 1 179.1473 53.5184 51.2215 -1.8283 24.4312 -1.9320
# 2 53.5184 129.1437 27.6812 0.7482 3.0934 11.4248
# 3 51.2215 27.6812 140.0846 5.1616 30.8080 9.3935
# 4 -1.8283 0.7482 5.1616 37.8113 20.9369 8.6193
# 5 24.4312 3.0934 30.8080 20.9369 54.0432 -4.9329
# 6 -1.9320 11.4248 9.3935 8.6193 -4.9329 57.4871
#
#
#
# Elastic Compliance Matrix: (Units=1/GPa)
#
#
# Indices 1 2 3 4 5 6 
#
# 1 0.007268 -0.002653 -0.001572 0.002211 -0.003054 0.000435
# 2 -0.002653 0.009167 -0.001008 -0.000550 0.001320 -0.001551
# 3 -0.001572 -0.001008 0.009194 0.002253 -0.005543 -0.002168
# 4 0.002211 -0.000550 0.002253 0.037613 -0.017492 -0.007325
# 5 -0.003054 0.001320 -0.005543 -0.017492 0.030271 0.005761
# 6 0.000435 -0.001551 -0.002168 -0.007325 0.005761 0.019665
#
#
# Mechanical properties :
#
#
# Convention : Reuss Voigt Hill
#
# Bulk Modulus (GPa) = 65.94663 79.24641 72.59652
# Shear Modulus (GPa) = 38.85038 50.93195 44.89117
#
# Velocity S-wave (km/s) = 3.78965 4.33907 4.07363
# Velocity P-wave (km/s) = 6.59746 7.37548 6.99729
#
# Compressibility (1/GPa) = 0.01516378
#
# Stress axis : x y z
#
# Youngs Moduli (GPa) = 137.59278 109.08146 108.76640
#
# Poissons Ratio (x) = 0.28939 0.17100
# Poissons Ratio (y) = 0.36503 0.10960
# Poissons Ratio (z) = 0.21631 0.10991
#
# Static dielectric constant tensor:
#      x y z
#    x 2.211340 -0.000570 0.015850 
#    y -0.000570 2.215720 -0.014500 
#    z 0.015850 -0.014500 2.126480 
# 
# From -- ./inp_files/281232.got.cif
#   From: 2010.05.17/outbox.cif.g08.bks.cpg/sg2_141_cif.got.tgz:281232.got - 2010.06.03 11:33:40.
