data_PCOD9030793
_publ_section_title
;
Structure prediction by ZEFSAII (Michael W. Deem and Ramdas Pophale) SiO2 
 PCOD9030793
Probable space group: P -1
;
_chemical_formula_sum "Si O2"
_cell_formula_units_Z 16
_cell_length_a 13.869957
_cell_length_b 15.052306
_cell_length_c 9.540154
_cell_angle_alpha 57.155804
_cell_angle_beta 41.510165
_cell_angle_gamma 32.365839
_cell_volume 683.453476
_symmetry_space_group_name_H-M "P -1"
_symmetry_group_IT_number 2
_symmetry_cell_setting 'triclinic'
loop_
_space_group_symop_operation_xyz
x,y,z
-x,-y,-z
loop_
_atom_site_type_symbol
_atom_site_label
_atom_site_fract_x
_atom_site_fract_y
_atom_site_fract_z
Si Si1 0.239766 0.086167 0.076183
Si Si2 0.278532 0.849125 0.591746
Si Si3 0.389409 0.213262 0.876076
Si Si4 0.472572 0.374324 0.241530
Si Si5 0.125729 0.676777 0.175594
Si Si6 0.181956 0.995541 0.924646
Si Si7 0.306105 0.486740 0.863631
Si Si8 0.778795 0.280851 0.473281
O O1 0.041910 0.153701 0.340471
O O2 0.491577 0.908672 0.013777
O O3 0.218823 0.224644 0.983673
O O4 0.207650 0.049136 0.992792
O O5 0.405165 0.883586 0.379527
O O6 0.492371 0.667735 0.596324
O O7 0.224996 0.821496 0.529030
O O8 0.039486 0.958299 0.843698
O O9 0.296277 0.378304 0.894890
O O10 0.213724 0.554456 0.314409
O O11 0.585372 0.205080 0.191133
O O12 0.667832 0.353081 0.021883
O O13 0.892187 0.880295 0.225164
O O14 0.150086 0.592927 0.079412
O O15 0.570893 0.370713 0.728121
O O16 0.265159 0.598580 0.692659
#
# Coordination Sequence:
#
# PCOD9030793 Si02
#       8
#     2   2   2   2   2   2   2   2
#     4  10  20  38  48  79 104 141 177 216 260 323
#     4   9  17  34  51  79 104 135 172 222 261 313
#     4  10  22  32  56  73 107 141 177 211 269 319
#     4  10  19  31  55  79 106 139 174 220 270 306
#     4  10  18  31  52  83 108 133 173 219 264 321
#     4  10  19  35  56  77 108 137 178 222 265 308
#     4  10  17  32  52  80 102 134 166 216 268 310
#     4   9  18  31  54  75 110 127 169 217 264 316
#
# _framework density 23.410518
#
# number of rings (size 3 to 8) (size 9 to 14) (size 15 to 20)
#    0.000    2.250    3.750    2.250    0.000    6.000 
#    0.000    0.625    0.000    0.750    0.000    0.000 
#    0.000    0.000    0.000    0.000    0.000    0.000 
#
# Total GULP energy -89099.866852 kJ/mol
# GULP energy per Si atom -5568.741678 kJ/mol
# Density = 2.335723 g / cm^3
# Si number density = 23.410518 Si / 1000 Ang^3
#
#
#
# Elastic Constant Matrix: (Units=GPa)
#
#
# Indices 1 2 3 4 5 6 
#
# 1 83.0870 33.5729 23.9427 -2.8925 -12.4092 13.7758
# 2 33.5729 82.8447 12.2836 -11.3391 -0.6782 5.6816
# 3 23.9427 12.2836 37.2589 -6.3796 -14.6719 8.8445
# 4 -2.8925 -11.3391 -6.3796 20.7427 5.0730 6.2628
# 5 -12.4092 -0.6782 -14.6719 5.0730 15.6134 -15.0330
# 6 13.7758 5.6816 8.8445 6.2628 -15.0330 45.4049
#
#
#
# Elastic Compliance Matrix: (Units=1/GPa)
#
#
# Indices 1 2 3 4 5 6 
#
# 1 0.018037 -0.007372 -0.005893 -0.006784 0.012196 0.001572
# 2 -0.007372 0.018713 -0.006466 0.016409 -0.025721 -0.009624
# 3 -0.005893 -0.006466 0.051259 -0.006347 0.057244 0.012440
# 4 -0.006784 0.016409 -0.006347 0.080738 -0.068119 -0.032448
# 5 0.012196 -0.025721 0.057244 -0.068119 0.214901 0.068915
# 6 0.001572 -0.009624 0.012440 -0.032448 0.068915 0.047621
#
#
# Mechanical properties :
#
#
# Convention : Reuss Voigt Hill
#
# Bulk Modulus (GPa) = 20.59830 38.08767 29.34298
# Shear Modulus (GPa) = 10.26876 25.24497 17.75687
#
# Velocity S-wave (km/s) = 2.09664 3.28740 2.75707
# Velocity P-wave (km/s) = 3.83133 5.54203 4.76409
#
# Compressibility (1/GPa) = 0.04854770
#
# Stress axis : x y z
#
# Youngs Moduli (GPa) = 55.44066 53.43989 19.50871
#
# Poissons Ratio (x) = 0.39398 0.11496
# Poissons Ratio (y) = 0.40874 0.12614
# Poissons Ratio (z) = 0.32668 0.34553
#
# Static dielectric constant tensor:
#      x y z
#    x 1.920720 -0.030510 0.026630 
#    y -0.030510 2.058070 0.036730 
#    z 0.026630 0.036730 1.912100 
# 
# From -- ./inp_files/208719.got.cif
#   From: 2010.05.17/outbox.cif.g08.bks.cpg/sg2_105_cif.got.tgz:208719.got - 2010.06.03 11:33:40.
