data_PCOD9030277
_publ_section_title
;
Structure prediction by ZEFSAII (Michael W. Deem and Ramdas Pophale) SiO2 
 PCOD9030277
Probable space group: P -1
;
_chemical_formula_sum "Si O2"
_cell_formula_units_Z 16
_cell_length_a 5.067056
_cell_length_b 5.534144
_cell_length_c 21.942110
_cell_angle_alpha 97.741756
_cell_angle_beta 100.513617
_cell_angle_gamma 83.515619
_cell_volume 596.982582
_symmetry_space_group_name_H-M "P -1"
_symmetry_group_IT_number 2
_symmetry_cell_setting 'triclinic'
loop_
_space_group_symop_operation_xyz
x,y,z
-x,-y,-z
loop_
_atom_site_type_symbol
_atom_site_label
_atom_site_fract_x
_atom_site_fract_y
_atom_site_fract_z
Si Si1 0.522787 0.473827 0.926879
Si Si2 0.998227 0.943757 0.601203
Si Si3 0.923995 0.560261 0.184995
Si Si4 0.707375 0.772894 0.480145
Si Si5 0.280317 0.029454 0.045452
Si Si6 0.411902 0.610697 0.364906
Si Si7 0.042033 0.218671 0.284171
Si Si8 0.463998 0.779100 0.246046
O O1 0.227605 0.489187 0.885296
O O2 0.680605 0.701087 0.918626
O O3 0.663520 0.199075 0.914510
O O4 0.500000 0.500000 0.000000
O O5 0.898531 0.733552 0.545460
O O6 0.134036 0.864379 0.668466
O O7 0.144907 0.111053 0.566564
O O8 0.749355 0.125820 0.620713
O O9 0.725073 0.780375 0.214558
O O10 0.895013 0.338823 0.223409
O O11 0.234654 0.615752 0.202569
O O12 0.566807 0.557138 0.433294
O O13 0.500000 0.000000 0.500000
O O14 0.500000 0.000000 0.000000
O O15 0.000000 0.000000 0.000000
O O16 0.204199 0.420230 0.332253
O O17 0.565270 0.654490 0.310018
O O18 0.275415 0.023686 0.261230
#
# Coordination Sequence:
#
# PCOD9030277 Si02
#       8
#     2   2   2   2   2   2   2   2
#     4  10  24  47  76 111 151 197 245 306 376 446
#     4   9  19  39  61  92 130 176 221 294 352 429
#     4  11  26  47  70 106 144 184 244 299 359 442
#     4   9  18  36  61  91 136 166 223 290 357 420
#     4  10  22  42  70 105 146 190 237 289 360 436
#     4   9  20  38  60  93 126 177 225 290 345 428
#     4  10  23  44  69  97 133 187 239 290 363 425
#     4  10  25  45  68 100 143 185 235 299 359 427
#
# _framework density 26.801456000000002
#
# number of rings (size 3 to 8) (size 9 to 14) (size 15 to 20)
#    0.000    2.250    0.000    0.375    7.000    6.500 
#   11.250    5.625    0.000    0.000    0.000    0.000 
#    0.000    0.000    0.000    0.000    0.000    0.000 
#
# Total GULP energy -89490.798531 kJ/mol
# GULP energy per Si atom -5593.174908 kJ/mol
# Density = 2.674046 g / cm^3
# Si number density = 26.801456 Si / 1000 Ang^3
#
#
#
# Elastic Constant Matrix: (Units=GPa)
#
#
# Indices 1 2 3 4 5 6 
#
# 1 99.0117 12.8683 13.7805 4.1255 10.5737 -7.2299
# 2 12.8683 127.0516 32.0766 -6.9769 19.5171 3.6659
# 3 13.7805 32.0766 153.8222 -1.2066 20.3929 -11.0559
# 4 4.1255 -6.9769 -1.2066 39.4180 1.1388 10.1460
# 5 10.5737 19.5171 20.3929 1.1388 46.3838 -1.1235
# 6 -7.2299 3.6659 -11.0559 10.1460 -1.1235 43.1970
#
#
#
# Elastic Compliance Matrix: (Units=1/GPa)
#
#
# Indices 1 2 3 4 5 6 
#
# 1 0.010690 -0.000864 -0.000399 -0.001781 -0.001802 0.002132
# 2 -0.000864 0.008980 -0.001514 0.002207 -0.003016 -0.001891
# 3 -0.000399 -0.001514 0.007313 -0.000440 -0.002428 0.001974
# 4 -0.001781 0.002207 -0.000440 0.027810 -0.001186 -0.007161
# 5 -0.001802 -0.003016 -0.002428 -0.001186 0.024342 0.000244
# 6 0.002132 -0.001891 0.001974 -0.007161 0.000244 0.025860
#
#
# Mechanical properties :
#
#
# Convention : Reuss Voigt Hill
#
# Bulk Modulus (GPa) = 46.66899 55.25958 50.96429
# Shear Modulus (GPa) = 42.48367 47.21044 44.84706
#
# Velocity S-wave (km/s) = 3.98568 4.20156 4.09504
# Velocity P-wave (km/s) = 6.21543 6.64834 6.43552
#
# Compressibility (1/GPa) = 0.02142750
#
# Stress axis : x y z
#
# Youngs Moduli (GPa) = 93.54496 111.36331 136.74610
#
# Poissons Ratio (x) = 0.09626 0.05460
# Poissons Ratio (y) = 0.08086 0.20702
# Poissons Ratio (z) = 0.03735 0.16859
#
# Static dielectric constant tensor:
#      x y z
#    x 2.132470 0.051760 0.008100 
#    y 0.051760 2.203640 0.007730 
#    z 0.008100 0.007730 2.120740 
# 
# From -- ./inp_files/581179.got.cif
#   From: 2010.05.17/outbox.cif.g08.bks.cpg/sg2_291_cif.got.tgz:581179.got - 2010.06.03 11:33:40.
