data_PCOD9030431
_publ_section_title
;
Structure prediction by ZEFSAII (Michael W. Deem and Ramdas Pophale) SiO2 
 PCOD9030431
Probable space group: P -1
;
_chemical_formula_sum "Si O2"
_cell_formula_units_Z 12
_cell_length_a 11.132138
_cell_length_b 12.354850
_cell_length_c 9.712116
_cell_angle_alpha 131.708152
_cell_angle_beta 64.812427
_cell_angle_gamma 146.125264
_cell_volume 529.378890
_symmetry_space_group_name_H-M "P -1"
_symmetry_group_IT_number 2
_symmetry_cell_setting 'triclinic'
loop_
_space_group_symop_operation_xyz
x,y,z
-x,-y,-z
loop_
_atom_site_type_symbol
_atom_site_label
_atom_site_fract_x
_atom_site_fract_y
_atom_site_fract_z
Si Si1 0.897798 0.432951 0.343120
Si Si2 0.560735 0.905265 0.086498
Si Si3 0.887057 0.908545 0.627230
Si Si4 0.339217 0.935887 0.412762
Si Si5 0.560200 0.346717 0.338898
Si Si6 0.329748 0.214667 0.817112
O O1 0.693653 0.365018 0.394670
O O2 0.000000 0.500000 0.500000
O O3 0.083621 0.666332 0.350943
O O4 0.780781 0.178604 0.145896
O O5 0.405037 0.896392 0.215776
O O6 0.644595 0.866997 0.130780
O O7 0.425842 0.704874 0.864710
O O8 0.710997 0.623516 0.498328
O O9 0.706994 0.879600 0.693142
O O10 0.000000 0.000000 0.500000
O O11 0.085087 0.068942 0.779349
O O12 0.500000 0.000000 0.500000
O O13 0.367587 0.133043 0.602290
O O14 0.500000 0.500000 0.000000
#
# Coordination Sequence:
#
# PCOD9030431 Si02
#       6
#     2   2   2   2   2   2
#     4  12  22  43  71  98 142 181 235 289 346 415
#     4  11  25  44  69 105 140 178 237 291 350 413
#     4  11  25  46  69  98 147 182 230 290 351 419
#     4  10  22  42  70  99 136 179 233 284 346 402
#     4  11  26  43  67 109 137 185 233 287 355 414
#     4  11  23  45  73 103 135 190 236 281 352 415
#
# _framework density 22.668075000000002
#
# number of rings (size 3 to 8) (size 9 to 14) (size 15 to 20)
#    0.000    1.000    5.000    1.500    2.333    5.333 
#    0.000    0.000    0.000    0.000    0.000    0.000 
#    0.000    0.000    0.000    0.000    0.000    0.000 
#
# Total GULP energy -66933.701309 kJ/mol
# GULP energy per Si atom -5577.808442 kJ/mol
# Density = 2.261648 g / cm^3
# Si number density = 22.668075 Si / 1000 Ang^3
#
#
#
# Elastic Constant Matrix: (Units=GPa)
#
#
# Indices 1 2 3 4 5 6 
#
# 1 143.3283 47.2173 47.6088 6.8532 5.1800 31.7140
# 2 47.2173 114.4439 40.8857 15.7643 -2.2964 27.1703
# 3 47.6088 40.8857 113.3912 30.5454 15.4286 18.2291
# 4 6.8532 15.7643 30.5454 42.0998 -9.3738 -0.9037
# 5 5.1800 -2.2964 15.4286 -9.3738 24.8781 11.4387
# 6 31.7140 27.1703 18.2291 -0.9037 11.4387 40.0338
#
#
#
# Elastic Compliance Matrix: (Units=1/GPa)
#
#
# Indices 1 2 3 4 5 6 
#
# 1 0.009823 -0.001515 -0.003790 0.002452 0.003886 -0.006083
# 2 -0.001515 0.012691 -0.003477 -0.000586 0.007033 -0.007853
# 3 -0.003790 -0.003477 0.017552 -0.014499 -0.016716 0.001819
# 4 0.002452 -0.000586 -0.014499 0.039334 0.023617 -0.000804
# 5 0.003886 0.007033 -0.016716 0.023617 0.068115 -0.019170
# 6 -0.006083 -0.007853 0.001819 -0.000804 -0.019170 0.039759
#
#
# Mechanical properties :
#
#
# Convention : Reuss Voigt Hill
#
# Bulk Modulus (GPa) = 44.43765 71.39854 57.91810
# Shear Modulus (GPa) = 23.54750 37.09911 30.32330
#
# Velocity S-wave (km/s) = 3.22653 4.04991 3.66144
# Velocity P-wave (km/s) = 5.79024 7.30991 6.59400
#
# Compressibility (1/GPa) = 0.02250344
#
# Stress axis : x y z
#
# Youngs Moduli (GPa) = 101.80173 78.79525 56.97505
#
# Poissons Ratio (x) = 0.11934 0.21592
# Poissons Ratio (y) = 0.15418 0.19810
# Poissons Ratio (z) = 0.38579 0.27397
#
# Static dielectric constant tensor:
#      x y z
#    x 1.949100 0.004560 -0.052470 
#    y 0.004560 2.058130 -0.062680 
#    z -0.052470 -0.062680 1.844490 
# 
# From -- ./inp_files/230933.got.cif
#   From: 2010.05.17/outbox.cif.g08.bks.cpg/sg2_116_cif.got.tgz:230933.got - 2010.06.03 11:33:40.
