data_PCOD9030156
_publ_section_title
;
Structure prediction by ZEFSAII (Michael W. Deem and Ramdas Pophale) SiO2 
 PCOD9030156
Probable space group: P -1
;
_chemical_formula_sum "Si O2"
_cell_formula_units_Z 12
_cell_length_a 9.038302
_cell_length_b 12.839598
_cell_length_c 17.487999
_cell_angle_alpha 26.970539
_cell_angle_beta 45.196701
_cell_angle_gamma 34.769398
_cell_volume 521.931220
_symmetry_space_group_name_H-M "P -1"
_symmetry_group_IT_number 2
_symmetry_cell_setting 'triclinic'
loop_
_space_group_symop_operation_xyz
x,y,z
-x,-y,-z
loop_
_atom_site_type_symbol
_atom_site_label
_atom_site_fract_x
_atom_site_fract_y
_atom_site_fract_z
Si Si1 0.623231 0.691889 0.247471
Si Si2 0.618024 0.677787 0.831204
Si Si3 0.805462 0.727056 0.485111
Si Si4 0.008588 0.724161 0.169547
Si Si5 0.956020 0.428210 0.147683
Si Si6 0.896654 0.115559 0.617937
O O1 0.747410 0.372288 0.442922
O O2 0.314210 0.865109 0.261119
O O3 0.722048 0.810069 0.199315
O O4 0.730743 0.647760 0.149068
O O5 0.857226 0.459331 0.833791
O O6 0.762829 0.699355 0.834458
O O7 0.428806 0.988250 0.657691
O O8 0.500000 0.500000 0.000000
O O9 0.797679 0.508954 0.684574
O O10 0.000000 0.500000 0.500000
O O11 0.931546 0.834198 0.424319
O O12 0.000000 0.000000 0.000000
O O13 0.932626 0.174822 0.302615
O O14 0.000000 0.500000 0.000000
#
# Coordination Sequence:
#
# PCOD9030156 Si02
#       6
#     2   2   2   2   2   2
#     4   9  22  42  69  98 127 179 225 278 343 406
#     4  11  24  42  67  98 138 179 227 280 342 411
#     4  11  24  43  67 102 135 178 229 277 348 409
#     4  10  22  42  69  99 137 177 225 284 343 411
#     4  11  24  42  67  99 136 175 227 285 344 410
#     4  10  22  43  70  93 135 172 226 282 339 410
#
# _framework density 22.991536
#
# number of rings (size 3 to 8) (size 9 to 14) (size 15 to 20)
#    0.000    1.667    0.000    3.000    9.333    2.000 
#    6.000    0.000    0.000    0.000    0.000    0.000 
#    0.000    0.000    0.000    0.000    0.000    0.000 
#
# Total GULP energy -66858.108327 kJ/mol
# GULP energy per Si atom -5571.509027 kJ/mol
# Density = 2.293921 g / cm^3
# Si number density = 22.991536 Si / 1000 Ang^3
#
#
#
# Elastic Constant Matrix: (Units=GPa)
#
#
# Indices 1 2 3 4 5 6 
#
# 1 81.6979 36.2012 53.6671 -21.9085 19.7458 12.6295
# 2 36.2012 102.9618 31.8795 -11.9807 5.3087 19.1957
# 3 53.6671 31.8795 123.8291 -13.1039 1.9368 8.6592
# 4 -21.9085 -11.9807 -13.1039 44.3311 12.2078 -5.3478
# 5 19.7458 5.3087 1.9368 12.2078 32.4031 -0.6281
# 6 12.6295 19.1957 8.6592 -5.3478 -0.6281 34.3652
#
#
#
# Elastic Compliance Matrix: (Units=1/GPa)
#
#
# Indices 1 2 3 4 5 6 
#
# 1 0.032887 -0.003898 -0.010535 0.018631 -0.025885 -0.004828
# 2 -0.003898 0.012432 -0.001105 0.000446 0.000137 -0.005161
# 3 -0.010535 -0.001105 0.012350 -0.003752 0.007294 0.000927
# 4 0.018631 0.000446 -0.003752 0.037685 -0.025414 -0.000751
# 5 -0.025885 0.000137 0.007294 -0.025414 0.055842 0.004665
# 6 -0.004828 -0.005161 0.000927 -0.000751 0.004665 0.033491
#
#
# Mechanical properties :
#
#
# Convention : Reuss Voigt Hill
#
# Bulk Modulus (GPa) = 37.60559 61.33161 49.46860
# Shear Modulus (GPa) = 22.25887 34.66927 28.46407
#
# Velocity S-wave (km/s) = 3.11486 3.88740 3.52237
# Velocity P-wave (km/s) = 5.41556 6.84710 6.17297
#
# Compressibility (1/GPa) = 0.02659179
#
# Stress axis : x y z
#
# Youngs Moduli (GPa) = 30.40706 80.43542 80.96969
#
# Poissons Ratio (x) = 0.31357 0.85306
# Poissons Ratio (y) = 0.11854 0.08948
# Poissons Ratio (z) = 0.32035 0.08889
#
# Static dielectric constant tensor:
#      x y z
#    x 0.588680 -0.389820 -0.361840 
#    y -0.389820 1.864240 -0.075950 
#    z -0.361840 -0.075950 1.818170 
# 
# From -- ./inp_files/246895.got.cif
#   From: 2010.05.17/outbox.cif.g08.bks.cpg/sg2_124_cif.got.tgz:246895.got - 2010.06.03 11:33:40.
