data_PCOD9030947
_publ_section_title
;
Structure prediction by ZEFSAII (Michael W. Deem and Ramdas Pophale) SiO2 
 PCOD9030947
Probable space group: P -1
;
_chemical_formula_sum "Si O2"
_cell_formula_units_Z 14
_cell_length_a 19.919583
_cell_length_b 5.498476
_cell_length_c 10.840587
_cell_angle_alpha 119.815380
_cell_angle_beta 30.137450
_cell_angle_gamma 117.535668
_cell_volume 515.802007
_symmetry_space_group_name_H-M "P -1"
_symmetry_group_IT_number 2
_symmetry_cell_setting 'triclinic'
loop_
_space_group_symop_operation_xyz
x,y,z
-x,-y,-z
loop_
_atom_site_type_symbol
_atom_site_label
_atom_site_fract_x
_atom_site_fract_y
_atom_site_fract_z
Si Si1 0.619540 0.743678 0.859402
Si Si2 0.035649 0.783122 0.667321
Si Si3 0.424882 0.357493 0.703113
Si Si4 0.777381 0.128289 0.122749
Si Si5 0.429807 0.152510 0.307321
Si Si6 0.797223 0.286531 0.384612
Si Si7 0.834814 0.315661 0.801398
O O1 0.617617 0.895600 0.769159
O O2 0.742421 0.548258 0.612668
O O3 0.500000 0.500000 0.000000
O O4 0.561436 0.989334 0.096800
O O5 0.088099 0.799501 0.727172
O O6 0.138796 0.859286 0.409166
O O7 0.979898 0.465452 0.644952
O O8 0.904481 0.951401 0.906269
O O9 0.500000 0.500000 0.500000
O O10 0.526211 0.516180 0.678266
O O11 0.370201 0.039156 0.684608
O O12 0.281003 0.478651 0.994699
O O13 0.805683 0.364534 0.245127
O O14 0.790360 0.199471 0.975974
O O15 0.304896 0.994539 0.534852
#
# Coordination Sequence:
#
# PCOD9030947 Si02
#       7
#     2   2   2   2   2   2   2
#     4   9  22  38  62  95 133 179 228 270 336 407
#     4  10  24  47  66 100 138 180 231 285 341 400
#     4  11  24  43  67  99 143 178 223 282 345 409
#     4  11  24  44  72 101 135 184 228 282 339 409
#     4  10  22  43  62  98 142 179 219 284 338 407
#     4  11  23  41  71 102 135 177 226 284 346 399
#     4  10  25  45  68  97 136 185 231 277 341 408
#
# _framework density 27.142199000000002
#
# number of rings (size 3 to 8) (size 9 to 14) (size 15 to 20)
#    0.000    1.714    1.429    0.857    8.000    4.571 
#    5.143    0.000    0.000    0.000    0.000    0.000 
#    0.000    0.000    0.000    0.000    0.000    0.000 
#
# Total GULP energy -77989.255740 kJ/mol
# GULP energy per Si atom -5570.661124 kJ/mol
# Density = 2.708042 g / cm^3
# Si number density = 27.142199 Si / 1000 Ang^3
#
#
#
# Elastic Constant Matrix: (Units=GPa)
#
#
# Indices 1 2 3 4 5 6 
#
# 1 148.7501 13.5636 31.9217 -3.0021 4.0058 27.8488
# 2 13.5636 84.9429 -7.3896 -3.1342 18.7853 22.1519
# 3 31.9217 -7.3896 83.0116 6.9698 10.2763 14.1848
# 4 -3.0021 -3.1342 6.9698 39.2283 -16.7384 1.1591
# 5 4.0058 18.7853 10.2763 -16.7384 35.1735 -1.4569
# 6 27.8488 22.1519 14.1848 1.1591 -1.4569 35.5075
#
#
#
# Elastic Compliance Matrix: (Units=1/GPa)
#
#
# Indices 1 2 3 4 5 6 
#
# 1 0.008300 -0.000078 -0.002382 0.001292 0.000177 -0.005545
# 2 -0.000078 0.019776 0.006947 -0.006079 -0.016118 -0.015514
# 3 -0.002382 0.006947 0.017470 -0.007856 -0.012684 -0.009709
# 4 0.001292 -0.006079 -0.007856 0.036057 0.022789 0.005676
# 5 0.000177 -0.016118 -0.012684 0.022789 0.052248 0.016383
# 6 -0.005545 -0.015514 -0.009709 0.005676 0.016383 0.046556
#
#
# Mechanical properties :
#
#
# Convention : Reuss Voigt Hill
#
# Bulk Modulus (GPa) = 18.34181 43.65513 30.99847
# Shear Modulus (GPa) = 26.37058 40.55579 33.46319
#
# Velocity S-wave (km/s) = 3.12039 3.86968 3.51505
# Velocity P-wave (km/s) = 4.44463 6.00705 5.28391
#
# Compressibility (1/GPa) = 0.05452025
#
# Stress axis : x y z
#
# Youngs Moduli (GPa) = 120.47787 50.56725 57.24201
#
# Poissons Ratio (x) = 0.00395 0.13634
# Poissons Ratio (y) = 0.00942 -0.39767
# Poissons Ratio (z) = 0.28695 -0.35130
#
# Static dielectric constant tensor:
#      x y z
#    x 2.373260 0.144340 0.266000 
#    y 0.144340 2.401220 0.188420 
#    z 0.266000 0.188420 2.501860 
# 
# From -- ./inp_files/468452.got.cif
#   From: 2010.05.17/outbox.cif.g08.bks.cpg/sg2_235_cif.got.tgz:468452.got - 2010.06.03 11:33:40.
