data_PCOD9030769
_publ_section_title
;
Structure prediction by ZEFSAII (Michael W. Deem and Ramdas Pophale) SiO2 
 PCOD9030769
Probable space group: P -1
;
_chemical_formula_sum "Si O2"
_cell_formula_units_Z 16
_cell_length_a 11.648118
_cell_length_b 9.060362
_cell_length_c 8.068352
_cell_angle_alpha 116.292108
_cell_angle_beta 122.227415
_cell_angle_gamma 76.722342
_cell_volume 645.775908
_symmetry_space_group_name_H-M "P -1"
_symmetry_group_IT_number 2
_symmetry_cell_setting 'triclinic'
loop_
_space_group_symop_operation_xyz
x,y,z
-x,-y,-z
loop_
_atom_site_type_symbol
_atom_site_label
_atom_site_fract_x
_atom_site_fract_y
_atom_site_fract_z
Si Si1 0.035758 0.256791 0.261096
Si Si2 0.027297 0.695086 0.135040
Si Si3 0.249047 0.147133 0.913738
Si Si4 0.379176 0.453565 0.010350
Si Si5 0.558665 0.229382 0.612974
Si Si6 0.190532 0.575962 0.652017
Si Si7 0.713947 0.927006 0.706221
Si Si8 0.708728 0.196493 0.401348
O O1 0.119438 0.429250 0.423025
O O2 0.145525 0.114140 0.297502
O O3 0.918107 0.282791 0.316729
O O4 0.973845 0.240093 0.022626
O O5 0.900341 0.774177 0.172249
O O6 0.164958 0.740960 0.358062
O O7 0.000000 0.500000 0.000000
O O8 0.355771 0.273999 0.976663
O O9 0.260154 0.975947 0.743424
O O10 0.269485 0.119107 0.111994
O O11 0.245310 0.500392 0.825770
O O12 0.500000 0.500000 0.000000
O O13 0.398574 0.583949 0.236935
O O14 0.403799 0.190077 0.519793
O O15 0.582198 0.179295 0.416889
O O16 0.655620 0.109331 0.732624
O O17 0.307060 0.663808 0.679889
#
# Coordination Sequence:
#
# PCOD9030769 Si02
#       8
#     2   2   2   2   2   2   2   2
#     4  10  22  42  74 101 140 187 237 290 350 421
#     4  11  21  44  68 103 141 186 234 289 352 416
#     4  11  27  44  70 105 142 185 240 291 352 424
#     4  12  28  47  73 104 143 191 239 288 354 423
#     4  11  26  47  72 103 142 186 236 291 358 421
#     4  11  24  42  71 106 146 183 234 290 357 412
#     4  10  25  47  74  99 142 184 240 293 354 415
#     4  12  26  42  72 106 145 185 232 293 355 418
#
# _framework density 24.776398
#
# number of rings (size 3 to 8) (size 9 to 14) (size 15 to 20)
#    0.000    1.000    1.250    4.125   10.500    2.000 
#    0.000    3.125    0.000    0.000    0.000    0.000 
#    0.000    0.000    0.000    0.000    0.000    0.000 
#
# Total GULP energy -89715.060468 kJ/mol
# GULP energy per Si atom -5607.191279 kJ/mol
# Density = 2.472001 g / cm^3
# Si number density = 24.776398 Si / 1000 Ang^3
#
#
#
# Elastic Constant Matrix: (Units=GPa)
#
#
# Indices 1 2 3 4 5 6 
#
# 1 74.7524 19.5496 2.8460 -2.3743 -4.4254 -1.4557
# 2 19.5496 83.4331 32.4511 10.4440 1.8144 8.5970
# 3 2.8460 32.4511 88.2256 24.5042 4.5696 -11.9431
# 4 -2.3743 10.4440 24.5042 39.4788 0.4045 8.9214
# 5 -4.4254 1.8144 4.5696 0.4045 33.3752 2.7692
# 6 -1.4557 8.5970 -11.9431 8.9214 2.7692 35.4158
#
#
#
# Elastic Compliance Matrix: (Units=1/GPa)
#
#
# Indices 1 2 3 4 5 6 
#
# 1 0.014585 -0.004060 0.000810 0.001105 0.001911 0.001430
# 2 -0.004060 0.016267 -0.007213 0.001495 0.000122 -0.006934
# 3 0.000810 -0.007213 0.019173 -0.012544 -0.002939 0.011640
# 4 0.001105 0.001495 -0.012544 0.035875 0.002491 -0.013780
# 5 0.001911 0.000122 -0.002939 0.002491 0.030912 -0.003987
# 6 0.001430 -0.006934 0.011640 -0.013780 -0.003987 0.037686
#
#
# Mechanical properties :
#
#
# Convention : Reuss Voigt Hill
#
# Bulk Modulus (GPa) = 34.36323 39.56719 36.96521
# Shear Modulus (GPa) = 27.00913 34.42491 30.71702
#
# Velocity S-wave (km/s) = 3.30527 3.73154 3.52486
# Velocity P-wave (km/s) = 5.33534 5.87965 5.61409
#
# Compressibility (1/GPa) = 0.02910087
#
# Stress axis : x y z
#
# Youngs Moduli (GPa) = 68.56579 61.47438 52.15591
#
# Poissons Ratio (x) = 0.24958 -0.04227
# Poissons Ratio (y) = 0.27837 0.37617
# Poissons Ratio (z) = -0.05557 0.44338
#
# Static dielectric constant tensor:
#      x y z
#    x 1.981760 -0.018830 0.012080 
#    y -0.018830 1.925440 -0.022360 
#    z 0.012080 -0.022360 1.916470 
# 
# From -- ./inp_files/245666.got.cif
#   From: 2010.05.17/outbox.cif.g08.bks.cpg/sg2_123_cif.got.tgz:245666.got - 2010.06.03 11:33:40.
