data_PCOD9030220
_publ_section_title
;
Structure prediction by ZEFSAII (Michael W. Deem and Ramdas Pophale) SiO2 
 PCOD9030220
Probable space group: P -1
;
_chemical_formula_sum "Si O2"
_cell_formula_units_Z 15
_cell_length_a 11.491580
_cell_length_b 10.355851
_cell_length_c 7.884751
_cell_angle_alpha 137.219622
_cell_angle_beta 102.339054
_cell_angle_gamma 85.696389
_cell_volume 617.829801
_symmetry_space_group_name_H-M "P -1"
_symmetry_group_IT_number 2
_symmetry_cell_setting 'triclinic'
loop_
_space_group_symop_operation_xyz
x,y,z
-x,-y,-z
loop_
_atom_site_type_symbol
_atom_site_label
_atom_site_fract_x
_atom_site_fract_y
_atom_site_fract_z
Si Si1 0.864669 0.981962 0.886165
Si Si2 0.902695 0.585019 0.935337
Si Si3 0.526694 0.833559 0.475666
Si Si4 0.345911 0.119549 0.078458
Si Si5 0.093754 0.614138 0.768069
Si Si6 0.500000 0.500000 0.500000
Si Si7 0.686871 0.287660 0.483728
Si Si8 0.230656 0.296421 0.686932
O O1 0.782966 0.844818 0.856464
O O2 0.835887 0.892151 0.607436
O O3 0.829199 0.196502 0.096204
O O4 0.000000 0.000000 0.000000
O O5 0.816681 0.401412 0.660740
O O6 0.997623 0.694015 0.941866
O O7 0.815542 0.697789 0.129724
O O8 0.000000 0.500000 0.000000
O O9 0.583162 0.910713 0.750067
O O10 0.404856 0.703927 0.374652
O O11 0.628586 0.715436 0.314374
O O12 0.500000 0.000000 0.500000
O O13 0.419654 0.307809 0.210078
O O14 0.324071 0.936725 0.776250
O O15 0.178086 0.474310 0.748318
O O16 0.000000 0.500000 0.500000
O O17 0.621011 0.394739 0.421857
#
# Coordination Sequence:
#
# PCOD9030220 Si02
#       8
#     2   2   2   2   2   1   2   2
#     4  11  23  39  69 105 137 182 233 288 360 419
#     4  10  25  43  65 102 144 189 236 286 359 430
#     4  10  23  44  69 101 140 181 240 292 361 422
#     4  10  24  43  70 105 138 180 239 295 355 423
#     4  11  22  42  70  99 142 183 233 293 351 429
#     4  10  22  42  70 102 132 176 242 294 356 418
#     4  11  24  44  72 101 138 187 239 297 354 426
#     4  10  24  45  64 102 143 187 235 293 358 422
#
# _framework density 24.278531999999998
#
# number of rings (size 3 to 8) (size 9 to 14) (size 15 to 20)
#    0.000    1.600    1.333    2.400    3.733   11.733 
#    0.000    2.667    0.000    0.000    0.000    0.000 
#    0.000    0.000    0.000    0.000    0.000    0.000 
#
# Total GULP energy -83514.144636 kJ/mol
# GULP energy per Si atom -5567.609642 kJ/mol
# Density = 2.422327 g / cm^3
# Si number density = 24.278532 Si / 1000 Ang^3
#
#
#
# Elastic Constant Matrix: (Units=GPa)
#
#
# Indices 1 2 3 4 5 6 
#
# 1 135.2126 32.6154 15.5559 6.2513 5.6934 2.8351
# 2 32.6154 54.8612 -4.0270 9.2483 -3.3674 -10.6130
# 3 15.5559 -4.0270 99.1184 25.5505 -8.7706 7.1084
# 4 6.2513 9.2483 25.5505 33.3434 7.0760 -3.8715
# 5 5.6934 -3.3674 -8.7706 7.0760 48.9058 -1.0920
# 6 2.8351 -10.6130 7.1084 -3.8715 -1.0920 41.6536
#
#
#
# Elastic Compliance Matrix: (Units=1/GPa)
#
#
# Indices 1 2 3 4 5 6 
#
# 1 0.009277 -0.006534 -0.002358 0.002165 -0.002305 -0.001753
# 2 -0.006534 0.025438 0.004631 -0.009793 0.004879 0.005354
# 3 -0.002358 0.004631 0.014747 -0.013500 0.005140 -0.002296
# 4 0.002165 -0.009793 -0.013500 0.045144 -0.009799 0.003600
# 5 -0.002305 0.004879 0.005140 -0.009799 0.023396 0.000226
# 6 -0.001753 0.005354 -0.002296 0.003600 0.000226 0.026223
#
#
# Mechanical properties :
#
#
# Convention : Reuss Voigt Hill
#
# Bulk Modulus (GPa) = 24.42544 41.94233 33.18389
# Shear Modulus (GPa) = 30.04939 41.11708 35.58324
#
# Velocity S-wave (km/s) = 3.52190 4.11975 3.83250
# Velocity P-wave (km/s) = 5.15953 6.32003 5.76904
#
# Compressibility (1/GPa) = 0.04094091
#
# Stress axis : x y z
#
# Youngs Moduli (GPa) = 107.79588 39.31085 67.81206
#
# Poissons Ratio (x) = 0.25685 0.15989
# Poissons Ratio (y) = 0.70432 -0.31406
# Poissons Ratio (z) = 0.25417 -0.18206
#
# Static dielectric constant tensor:
#      x y z
#    x 1.950280 0.031660 -0.049730 
#    y 0.031660 2.055520 -0.061640 
#    z -0.049730 -0.061640 1.948770 
# 
# From -- ./inp_files/255589.got.cif
#   From: 2010.05.17/outbox.cif.g08.bks.cpg/sg2_128_cif.got.tgz:255589.got - 2010.06.03 11:33:40.
