data_PCOD9030874
_publ_section_title
;
Structure prediction by ZEFSAII (Michael W. Deem and Ramdas Pophale) SiO2 
 PCOD9030874
Probable space group: P -1
;
_chemical_formula_sum "Si O2"
_cell_formula_units_Z 14
_cell_length_a 9.547837
_cell_length_b 7.881007
_cell_length_c 11.898842
_cell_angle_alpha 124.928070
_cell_angle_beta 130.192845
_cell_angle_gamma 71.407671
_cell_volume 558.900408
_symmetry_space_group_name_H-M "P -1"
_symmetry_group_IT_number 2
_symmetry_cell_setting 'triclinic'
loop_
_space_group_symop_operation_xyz
x,y,z
-x,-y,-z
loop_
_atom_site_type_symbol
_atom_site_label
_atom_site_fract_x
_atom_site_fract_y
_atom_site_fract_z
Si Si1 0.747562 0.059358 0.612658
Si Si2 0.914325 0.202520 0.983789
Si Si3 0.290576 0.281235 0.115020
Si Si4 0.840458 0.941058 0.252852
Si Si5 0.614276 0.595881 0.366439
Si Si6 0.637780 0.264857 0.417716
Si Si7 0.716777 0.514415 0.148464
O O1 0.786631 0.136198 0.787368
O O2 0.374161 0.158163 0.535950
O O3 0.946836 0.011078 0.647693
O O4 0.586927 0.523844 0.799095
O O5 0.093794 0.335400 0.077368
O O6 0.811541 0.325902 0.070229
O O7 0.000000 0.000000 0.000000
O O8 0.259769 0.108757 0.936970
O O9 0.575788 0.791450 0.746169
O O10 0.810258 0.727581 0.226238
O O11 0.753627 0.117283 0.345776
O O12 0.679705 0.497534 0.479972
O O13 0.324488 0.776469 0.449778
O O14 0.729970 0.522027 0.292757
O O15 0.500000 0.500000 0.000000
#
# Coordination Sequence:
#
# PCOD9030874 Si02
#       7
#     2   2   2   2   2   2   2
#     4  11  25  48  75 119 156 205 254 334 388 457
#     4  11  29  50  80 115 160 206 261 319 397 463
#     4   9  23  46  74 110 154 205 250 317 387 463
#     4  11  22  42  77 112 154 198 266 319 381 461
#     4  10  24  44  83 112 153 199 263 319 392 455
#     4  10  22  42  80 111 156 200 262 317 391 456
#     4  12  25  47  83 116 151 207 271 315 381 478
#
# _framework density 25.049185000000001
#
# number of rings (size 3 to 8) (size 9 to 14) (size 15 to 20)
#    0.857    0.571    2.857    0.857    6.000    4.000 
#    0.000    3.571    6.286    0.000    0.000    0.000 
#    0.000    0.000    0.000    0.000    0.000    0.000 
#
# Total GULP energy -78528.515923 kJ/mol
# GULP energy per Si atom -5609.179709 kJ/mol
# Density = 2.499217 g / cm^3
# Si number density = 25.049185 Si / 1000 Ang^3
#
#
#
# Elastic Constant Matrix: (Units=GPa)
#
#
# Indices 1 2 3 4 5 6 
#
# 1 115.6098 27.4365 40.3878 11.8011 -12.4860 5.2148
# 2 27.4365 144.9867 56.6396 -10.6806 -17.4270 8.8729
# 3 40.3878 56.6396 124.3685 -18.7091 -27.4846 -0.4621
# 4 11.8011 -10.6806 -18.7091 50.5429 -5.0360 -6.5871
# 5 -12.4860 -17.4270 -27.4846 -5.0360 47.5811 6.0779
# 6 5.2148 8.8729 -0.4621 -6.5871 6.0779 42.8007
#
#
#
# Elastic Compliance Matrix: (Units=1/GPa)
#
#
# Indices 1 2 3 4 5 6 
#
# 1 0.010668 -0.000738 -0.003741 -0.004259 0.000155 -0.001865
# 2 -0.000738 0.008654 -0.003303 0.000677 0.001374 -0.001831
# 3 -0.003741 -0.003303 0.012874 0.005682 0.005674 0.001348
# 4 -0.004259 0.000677 0.005682 0.023928 0.004500 0.003484
# 5 0.000155 0.001374 0.005674 0.004500 0.025723 -0.003203
# 6 -0.001865 -0.001831 0.001348 0.003484 -0.003203 0.024976
#
#
# Mechanical properties :
#
#
# Convention : Reuss Voigt Hill
#
# Bulk Modulus (GPa) = 60.13162 70.43254 65.28208
# Shear Modulus (GPa) = 39.08332 45.55167 42.31750
#
# Velocity S-wave (km/s) = 3.95430 4.26900 4.11466
# Velocity P-wave (km/s) = 6.70121 7.24416 6.97797
#
# Compressibility (1/GPa) = 0.01663019
#
# Stress axis : x y z
#
# Youngs Moduli (GPa) = 93.74128 115.55106 77.67873
#
# Poissons Ratio (x) = 0.08528 0.29063
# Poissons Ratio (y) = 0.06919 0.25658
# Poissons Ratio (z) = 0.35073 0.38167
#
# Static dielectric constant tensor:
#      x y z
#    x 1.989310 0.003700 0.007940 
#    y 0.003700 1.993140 -0.031120 
#    z 0.007940 -0.031120 1.930240 
# 
# From -- ./inp_files/380640.got.cif
#   From: 2010.05.17/outbox.cif.g08.bks.cpg/sg2_191_cif.got.tgz:380640.got - 2010.06.03 11:33:40.
