data_PCOD9030752
_publ_section_title
;
Structure prediction by ZEFSAII (Michael W. Deem and Ramdas Pophale) SiO2 
 PCOD9030752
Probable space group: P -1
;
_chemical_formula_sum "Si O2"
_cell_formula_units_Z 14
_cell_length_a 10.143625
_cell_length_b 9.093548
_cell_length_c 9.309843
_cell_angle_alpha 105.679953
_cell_angle_beta 102.128785
_cell_angle_gamma 50.791174
_cell_volume 639.753301
_symmetry_space_group_name_H-M "P -1"
_symmetry_group_IT_number 2
_symmetry_cell_setting 'triclinic'
loop_
_space_group_symop_operation_xyz
x,y,z
-x,-y,-z
loop_
_atom_site_type_symbol
_atom_site_label
_atom_site_fract_x
_atom_site_fract_y
_atom_site_fract_z
Si Si1 0.841547 0.859325 0.627446
Si Si2 0.549987 0.833677 0.322969
Si Si3 0.175211 0.766601 0.665156
Si Si4 0.671948 0.456823 0.079300
Si Si5 0.230937 0.412388 0.410993
Si Si6 0.084929 0.589409 0.118947
Si Si7 0.225973 0.064735 0.689476
O O1 0.888914 0.657662 0.641791
O O2 0.848124 0.832483 0.451885
O O3 0.975520 0.900159 0.693128
O O4 0.653450 0.035595 0.680533
O O5 0.630865 0.645645 0.196413
O O6 0.624780 0.757027 0.484578
O O7 0.604506 0.950093 0.279242
O O8 0.262580 0.693793 0.818203
O O9 0.203082 0.594680 0.531189
O O10 0.244447 0.870512 0.634802
O O11 0.500000 0.500000 0.000000
O O12 0.808024 0.392503 0.969462
O O13 0.214721 0.465755 0.250888
O O14 0.918613 0.794698 0.192465
O O15 0.000000 0.500000 0.000000
#
# Coordination Sequence:
#
# PCOD9030752 Si02
#       7
#     2   2   2   2   2   2   2
#     4  11  22  42  73 104 128 171 229 284 324 389
#     4  10  24  46  69 100 138 173 226 279 332 397
#     4  11  24  44  73  98 132 176 232 274 330 399
#     4  11  27  47  66  97 141 181 219 275 340 401
#     4  10  22  42  73  98 130 181 225 272 334 394
#     4  12  24  44  70 100 137 181 224 271 334 408
#     4  11  23  41  70 105 133 170 227 281 332 390
#
# _framework density 21.883434000000001
#
# number of rings (size 3 to 8) (size 9 to 14) (size 15 to 20)
#    0.000    1.143    2.857    3.429    4.000    2.857 
#    2.571    6.429    0.000    0.000    0.000    0.000 
#    0.000    0.000    0.000    0.000    0.000    0.000 
#
# Total GULP energy -77952.761986 kJ/mol
# GULP energy per Si atom -5568.054428 kJ/mol
# Density = 2.183363 g / cm^3
# Si number density = 21.883434 Si / 1000 Ang^3
#
#
#
# Elastic Constant Matrix: (Units=GPa)
#
#
# Indices 1 2 3 4 5 6 
#
# 1 58.8242 10.4187 -10.5351 22.9715 21.8496 -9.9436
# 2 10.4187 47.1743 5.6522 5.9378 -11.9399 12.3970
# 3 -10.5351 5.6522 77.6676 6.7775 2.6042 -10.4058
# 4 22.9715 5.9378 6.7775 18.1182 -23.7509 -3.2029
# 5 21.8496 -11.9399 2.6042 -23.7509 11.3187 -0.7063
# 6 -9.9436 12.3970 -10.4058 -3.2029 -0.7063 38.2019
#
#
#
# Elastic Compliance Matrix: (Units=1/GPa)
#
#
# Indices 1 2 3 4 5 6 
#
# 1 0.006389 0.000220 -0.000440 0.013136 0.015743 0.002864
# 2 0.000220 0.024811 -0.001767 -0.013726 -0.003253 -0.009686
# 3 -0.000440 -0.001767 0.012965 0.004454 0.005628 0.004468
# 4 0.013136 -0.013726 0.004454 0.005631 -0.028482 0.009032
# 5 0.015743 -0.003253 0.005628 -0.028482 -0.006272 0.004183
# 6 0.002864 -0.009686 0.004468 0.009032 0.004183 0.032117
#
#
# Mechanical properties :
#
#
# Convention : Reuss Voigt Hill
#
# Bulk Modulus (GPa) = 24.88014 21.63752 23.25883
# Shear Modulus (GPa) = 53.75654 25.40311 39.57983
#
# Velocity S-wave (km/s) = 4.96168 3.41080 4.25746
# Velocity P-wave (km/s) = 6.64969 5.04188 5.90080
#
# Compressibility (1/GPa) = 0.04019270
#
# Stress axis : x y z
#
# Youngs Moduli (GPa) = 156.52186 40.30488 77.12789
#
# Poissons Ratio (x) = -0.00888 0.03392
# Poissons Ratio (y) = -0.03447 0.13626
# Poissons Ratio (z) = 0.06884 0.07120
#
# Static dielectric constant tensor:
#      x y z
#    x 1.094800 0.279170 -0.240250 
#    y 0.279170 1.717410 0.147580 
#    z -0.240250 0.147580 1.702030 
# 
# From -- ./inp_files/159235.got.cif
#   From: 2010.05.17/outbox.cif.g08.bks.cpg/sg2_80_cif.got.tgz:159235.got - 2010.06.03 11:33:40.
