data_PCOD9030130
_publ_section_title
;
Structure prediction by ZEFSAII (Michael W. Deem and Ramdas Pophale) SiO2 
 PCOD9030130
Probable space group: P -1
;
_chemical_formula_sum "Si O2"
_cell_formula_units_Z 16
_cell_length_a 9.118454
_cell_length_b 16.889176
_cell_length_c 10.229435
_cell_angle_alpha 56.329456
_cell_angle_beta 122.301739
_cell_angle_gamma 152.523113
_cell_volume 601.203817
_symmetry_space_group_name_H-M "P -1"
_symmetry_group_IT_number 2
_symmetry_cell_setting 'triclinic'
loop_
_space_group_symop_operation_xyz
x,y,z
-x,-y,-z
loop_
_atom_site_type_symbol
_atom_site_label
_atom_site_fract_x
_atom_site_fract_y
_atom_site_fract_z
Si Si1 0.167758 0.009244 0.880047
Si Si2 0.075262 0.694794 0.503687
Si Si3 0.188588 0.501286 0.025657
Si Si4 0.484472 0.387794 0.157317
Si Si5 0.439330 0.336363 0.478516
Si Si6 0.858301 0.193941 0.310874
Si Si7 0.488000 0.148187 0.657766
Si Si8 0.908311 0.823929 0.190266
O O1 0.475374 0.127817 0.828114
O O2 0.100829 0.090776 0.793954
O O3 0.861078 0.819355 0.838912
O O4 0.158037 0.963495 0.064443
O O5 0.749233 0.490388 0.574810
O O6 0.997451 0.762801 0.343883
O O7 0.275194 0.806293 0.630349
O O8 0.232243 0.709561 0.445267
O O9 0.549685 0.658410 0.110664
O O10 0.986588 0.317093 0.141747
O O11 0.248396 0.543564 0.861926
O O12 0.000000 0.500000 0.000000
O O13 0.548374 0.419126 0.310813
O O14 0.500000 0.500000 0.000000
O O15 0.321103 0.174610 0.553589
O O16 0.170359 0.286131 0.435337
O O17 0.664826 0.016686 0.324910
#
# Coordination Sequence:
#
# PCOD9030130 Si02
#       8
#     2   2   2   2   2   2   2   2
#     4  10  22  42  69  98 134 174 234 275 347 399
#     4  12  27  44  68 101 145 178 232 278 346 406
#     4  11  25  43  71 100 132 178 231 281 340 410
#     4  11  21  43  67  96 132 177 234 276 342 407
#     4  12  24  44  71  96 137 188 227 282 345 406
#     4  12  25  46  70 101 138 189 225 283 347 404
#     4  12  27  42  68 106 139 180 233 285 334 406
#     4  10  23  45  70 100 135 184 219 289 346 410
#
# _framework density 26.613271000000001
#
# number of rings (size 3 to 8) (size 9 to 14) (size 15 to 20)
#    0.000    0.750    3.750    3.000    5.250    4.500 
#    0.000    0.000    0.000    0.000    0.000    0.000 
#    0.000    0.000    0.000    0.000    0.000    0.000 
#
# Total GULP energy -89598.914459 kJ/mol
# GULP energy per Si atom -5599.932154 kJ/mol
# Density = 2.655270 g / cm^3
# Si number density = 26.613271 Si / 1000 Ang^3
#
#
#
# Elastic Constant Matrix: (Units=GPa)
#
#
# Indices 1 2 3 4 5 6 
#
# 1 150.2574 13.8102 34.8951 2.5494 -34.1474 -8.9752
# 2 13.8102 78.9842 3.2493 -19.5642 8.7732 -22.9765
# 3 34.8951 3.2493 90.0995 -6.0136 -12.6103 -5.3117
# 4 2.5494 -19.5642 -6.0136 27.0529 -14.0877 0.9372
# 5 -34.1474 8.7732 -12.6103 -14.0877 51.3114 -14.7125
# 6 -8.9752 -22.9765 -5.3117 0.9372 -14.7125 41.8071
#
#
#
# Elastic Compliance Matrix: (Units=1/GPa)
#
#
# Indices 1 2 3 4 5 6 
#
# 1 0.009045 -0.000784 -0.002139 0.001707 0.007164 0.003722
# 2 -0.000784 0.020031 0.002135 0.017127 0.004846 0.012433
# 3 -0.002139 0.002135 0.013145 0.006828 0.004400 0.003780
# 4 0.001707 0.017127 0.006828 0.061354 0.021565 0.016861
# 5 0.007164 0.004846 0.004400 0.021565 0.035209 0.016667
# 6 0.003722 0.012433 0.003780 0.016861 0.016667 0.037519
#
#
# Mechanical properties :
#
#
# Convention : Reuss Voigt Hill
#
# Bulk Modulus (GPa) = 24.60231 47.02782 35.81507
# Shear Modulus (GPa) = 26.11972 41.86005 33.98988
#
# Velocity S-wave (km/s) = 3.13622 3.97028 3.57764
# Velocity P-wave (km/s) = 4.73064 6.22308 5.52746
#
# Compressibility (1/GPa) = 0.04064659
#
# Stress axis : x y z
#
# Youngs Moduli (GPa) = 110.55245 49.92301 76.07613
#
# Poissons Ratio (x) = 0.03912 0.16272
# Poissons Ratio (y) = 0.08664 -0.16246
# Poissons Ratio (z) = 0.23647 -0.10661
#
# Static dielectric constant tensor:
#      x y z
#    x 2.077430 0.039550 -0.043650 
#    y 0.039550 2.134340 -0.022330 
#    z -0.043650 -0.022330 2.106210 
# 
# From -- ./inp_files/403036.got.cif
#   From: 2010.05.17/outbox.cif.g08.bks.cpg/sg2_202_cif.got.tgz:403036.got - 2010.06.03 11:33:40.
