data_PCOD9030852
_publ_section_title
;
Structure prediction by ZEFSAII (Michael W. Deem and Ramdas Pophale) SiO2 
 PCOD9030852
Probable space group: P -1
;
_chemical_formula_sum "Si O2"
_cell_formula_units_Z 12
_cell_length_a 12.276551
_cell_length_b 7.883183
_cell_length_c 5.281316
_cell_angle_alpha 90.232622
_cell_angle_beta 108.866486
_cell_angle_gamma 66.398730
_cell_volume 438.541441
_symmetry_space_group_name_H-M "P -1"
_symmetry_group_IT_number 2
_symmetry_cell_setting 'triclinic'
loop_
_space_group_symop_operation_xyz
x,y,z
-x,-y,-z
loop_
_atom_site_type_symbol
_atom_site_label
_atom_site_fract_x
_atom_site_fract_y
_atom_site_fract_z
Si Si1 0.307305 0.124760 0.501557
Si Si2 0.409549 0.194723 0.095484
Si Si3 0.860823 0.007431 0.346949
Si Si4 0.249624 0.519358 0.282783
Si Si5 0.001349 0.380430 0.755082
Si Si6 0.613217 0.337384 0.232191
O O1 0.377787 0.078450 0.286307
O O2 0.234815 0.350613 0.420131
O O3 0.391523 0.128060 0.807970
O O4 0.206715 0.037910 0.461591
O O5 0.302484 0.411502 0.059797
O O6 0.540734 0.210020 0.254254
O O7 0.745221 0.206491 0.184196
O O8 0.000000 0.000000 0.500000
O O9 0.883055 0.824389 0.193757
O O10 0.113098 0.677217 0.246011
O O11 0.350415 0.574219 0.497540
O O12 0.000000 0.500000 0.500000
O O13 0.000000 0.500000 0.000000
O O14 0.500000 0.500000 0.000000
#
# Coordination Sequence:
#
# PCOD9030852 Si02
#       6
#     2   2   2   2   2   2
#     4  10  23  45  76 109 150 210 265 326 393 483
#     4  10  22  45  76 111 151 207 269 317 403 470
#     4  12  27  49  80 124 165 208 280 339 411 489
#     4  10  22  42  76 107 153 205 264 315 404 470
#     4  12  25  50  81 111 159 214 267 329 410 486
#     4  12  24  47  80 119 167 213 267 342 405 485
#
# _framework density 27.363432
#
# number of rings (size 3 to 8) (size 9 to 14) (size 15 to 20)
#    1.000    0.000    5.000    1.500    0.000    1.333 
#    0.000   10.000    0.000    0.000    0.000    0.000 
#    0.000    0.000    0.000    0.000    0.000    0.000 
#
# Total GULP energy -66975.701810 kJ/mol
# GULP energy per Si atom -5581.308484 kJ/mol
# Density = 2.730115 g / cm^3
# Si number density = 27.363432 Si / 1000 Ang^3
#
#
#
# Elastic Constant Matrix: (Units=GPa)
#
#
# Indices 1 2 3 4 5 6 
#
# 1 225.6797 42.7519 69.7566 10.6541 11.5881 -4.6429
# 2 42.7519 160.5190 50.8047 20.7211 1.5853 -19.8386
# 3 69.7566 50.8047 146.5496 24.3199 2.0361 -2.4732
# 4 10.6541 20.7211 24.3199 39.1318 -9.4344 2.0266
# 5 11.5881 1.5853 2.0361 -9.4344 39.2727 9.6091
# 6 -4.6429 -19.8386 -2.4732 2.0266 9.6091 58.2602
#
#
#
# Elastic Compliance Matrix: (Units=1/GPa)
#
#
# Indices 1 2 3 4 5 6 
#
# 1 0.005348 -0.000627 -0.002284 -0.000097 -0.001549 0.000375
# 2 -0.000627 0.007762 -0.001763 -0.003368 -0.001554 0.002892
# 3 -0.002284 -0.001763 0.009257 -0.004374 -0.000758 -0.000112
# 4 -0.000097 -0.003368 -0.004374 0.032501 0.009174 -0.003984
# 5 -0.001549 -0.001554 -0.000758 0.009174 0.029669 -0.005897
# 6 0.000375 0.002892 -0.000112 -0.003984 -0.005897 0.019285
#
#
# Mechanical properties :
#
#
# Convention : Reuss Voigt Hill
#
# Bulk Modulus (GPa) = 76.81720 95.48606 86.15163
# Shear Modulus (GPa) = 42.54941 51.96196 47.25569
#
# Velocity S-wave (km/s) = 3.94759 4.36243 4.16019
# Velocity P-wave (km/s) = 6.99370 7.76825 7.39113
#
# Compressibility (1/GPa) = 0.01301792
#
# Stress axis : x y z
#
# Youngs Moduli (GPa) = 186.99583 128.82602 108.03089
#
# Poissons Ratio (x) = 0.08080 0.24675
# Poissons Ratio (y) = 0.11729 0.19047
# Poissons Ratio (z) = 0.42711 0.22714
#
# Static dielectric constant tensor:
#      x y z
#    x 2.738020 0.156180 0.170630 
#    y 0.156180 2.774080 -0.198170 
#    z 0.170630 -0.198170 2.224180 
# 
# From -- ./inp_files/59484.got.cif
#   From: 2010.05.17/outbox.cif.g08.bks.cpg/sg2_30_cif.got.tgz:59484.got - 2010.06.03 11:33:40.
