data_PCOD9030508
_publ_section_title
;
Structure prediction by ZEFSAII (Michael W. Deem and Ramdas Pophale) SiO2 
 PCOD9030508
Probable space group: P -1
;
_chemical_formula_sum "Si O2"
_cell_formula_units_Z 12
_cell_length_a 11.860426
_cell_length_b 9.200233
_cell_length_c 9.330904
_cell_angle_alpha 76.490641
_cell_angle_beta 118.944695
_cell_angle_gamma 143.485678
_cell_volume 506.012487
_symmetry_space_group_name_H-M "P -1"
_symmetry_group_IT_number 2
_symmetry_cell_setting 'triclinic'
loop_
_space_group_symop_operation_xyz
x,y,z
-x,-y,-z
loop_
_atom_site_type_symbol
_atom_site_label
_atom_site_fract_x
_atom_site_fract_y
_atom_site_fract_z
Si Si1 0.132400 0.626658 0.699217
Si Si2 0.671616 0.482512 0.074092
Si Si3 0.055019 0.307626 0.211912
Si Si4 0.466031 0.168511 0.742201
Si Si5 0.739277 0.801259 0.591314
Si Si6 0.724124 0.854670 0.901074
O O1 0.151008 0.479715 0.808876
O O2 0.000000 0.500000 0.500000
O O3 0.031223 0.650128 0.741822
O O4 0.381643 0.920600 0.757867
O O5 0.531231 0.361921 0.161129
O O6 0.496982 0.268739 0.894314
O O7 0.765874 0.728152 0.021500
O O8 0.294728 0.586097 0.238485
O O9 0.092818 0.177646 0.332984
O O10 0.885949 0.120872 0.020096
O O11 0.278346 0.081415 0.559182
O O12 0.500000 0.500000 0.500000
O O13 0.751166 0.872175 0.744225
#
# Coordination Sequence:
#
# PCOD9030508 Si02
#       6
#     2   2   2   2   2   2
#     4  12  30  48  69 107 147 192 237 293 367 427
#     4  11  25  47  72 106 148 184 240 294 355 430
#     4  11  25  45  76 105 141 191 237 294 359 421
#     4  11  25  48  72 106 144 186 239 299 348 428
#     4  10  22  42  71 111 139 178 242 292 348 413
#     4  11  23  45  79 106 141 191 236 300 353 420
#
# _framework density 23.714829000000002
#
# number of rings (size 3 to 8) (size 9 to 14) (size 15 to 20)
#    0.000    1.000    5.000    1.000    7.000    2.000 
#    0.000    0.000    0.000    0.000    0.000    0.000 
#    0.000    0.000    0.000    0.000    0.000    0.000 
#
# Total GULP energy -67197.282834 kJ/mol
# GULP energy per Si atom -5599.773570 kJ/mol
# Density = 2.366085 g / cm^3
# Si number density = 23.714829 Si / 1000 Ang^3
#
#
#
# Elastic Constant Matrix: (Units=GPa)
#
#
# Indices 1 2 3 4 5 6 
#
# 1 137.7833 15.7651 93.9022 -11.3291 -19.8878 -16.1551
# 2 15.7651 97.5495 29.4576 11.2079 -12.5421 -4.2352
# 3 93.9022 29.4576 100.1172 11.6725 -7.4554 -8.1698
# 4 -11.3291 11.2079 11.6725 42.0333 -12.3516 0.1660
# 5 -19.8878 -12.5421 -7.4554 -12.3516 24.3789 2.9445
# 6 -16.1551 -4.2352 -8.1698 0.1660 2.9445 30.6961
#
#
#
# Elastic Compliance Matrix: (Units=1/GPa)
#
#
# Indices 1 2 3 4 5 6 
#
# 1 0.063184 0.011556 -0.062855 0.049556 0.061936 0.011909
# 2 0.011556 0.014000 -0.014501 0.008096 0.015985 0.002577
# 3 -0.062855 -0.014501 0.073908 -0.051522 -0.061118 -0.009269
# 4 0.049556 0.008096 -0.051522 0.067543 0.062193 0.007154
# 5 0.061936 0.015985 -0.061118 0.062193 0.111684 0.007486
# 6 0.011909 0.002577 -0.009269 0.007154 0.007486 0.035977
#
#
# Mechanical properties :
#
#
# Convention : Reuss Voigt Hill
#
# Bulk Modulus (GPa) = 51.30738 68.18884 59.74811
# Shear Modulus (GPa) = 9.91291 32.51002 21.21147
#
# Velocity S-wave (km/s) = 2.04673 3.70655 2.99396
# Velocity P-wave (km/s) = 5.22184 6.86543 6.09925
#
# Compressibility (1/GPa) = 0.01949037
#
# Stress axis : x y z
#
# Youngs Moduli (GPa) = 15.82685 71.43076 13.53042
#
# Poissons Ratio (x) = -0.82547 0.85046
# Poissons Ratio (y) = -0.18290 0.19621
# Poissons Ratio (z) = 0.99480 1.03583
#
# Static dielectric constant tensor:
#      x y z
#    x 1.928790 0.021080 0.046980 
#    y 0.021080 1.917670 -0.024240 
#    z 0.046980 -0.024240 1.901320 
# 
# From -- ./inp_files/173552.got.cif
#   From: 2010.05.17/outbox.cif.g08.bks.cpg/sg2_87_cif.got.tgz:173552.got - 2010.06.03 11:33:40.
