data_PCOD9030724
_publ_section_title
;
Structure prediction by ZEFSAII (Michael W. Deem and Ramdas Pophale) SiO2 
 PCOD9030724
Probable space group: P -1
;
_chemical_formula_sum "Si O2"
_cell_formula_units_Z 16
_cell_length_a 8.884343
_cell_length_b 15.150600
_cell_length_c 9.146634
_cell_angle_alpha 76.929307
_cell_angle_beta 145.009398
_cell_angle_gamma 110.563388
_cell_volume 656.653327
_symmetry_space_group_name_H-M "P -1"
_symmetry_group_IT_number 2
_symmetry_cell_setting 'triclinic'
loop_
_space_group_symop_operation_xyz
x,y,z
-x,-y,-z
loop_
_atom_site_type_symbol
_atom_site_label
_atom_site_fract_x
_atom_site_fract_y
_atom_site_fract_z
Si Si1 0.100661 0.938342 0.223097
Si Si2 0.395224 0.123369 0.480813
Si Si3 0.675029 0.479201 0.285573
Si Si4 0.297533 0.894014 0.852316
Si Si5 0.817685 0.818695 0.282065
Si Si6 0.413754 0.361344 0.646995
Si Si7 0.670016 0.692013 0.748338
Si Si8 0.212187 0.745236 0.056153
O O1 0.354189 0.911209 0.366397
O O2 0.924169 0.842929 0.193676
O O3 0.172137 0.023837 0.367585
O O4 0.000000 0.000000 0.000000
O O5 0.349430 0.201214 0.305553
O O6 0.500553 0.185776 0.682693
O O7 0.624337 0.543172 0.356503
O O8 0.533679 0.373431 0.274533
O O9 0.000000 0.500000 0.500000
O O10 0.500000 0.500000 0.000000
O O11 0.068819 0.886219 0.551588
O O12 0.523148 0.838217 0.026350
O O13 0.120200 0.824883 0.864169
O O14 0.500000 0.000000 0.000000
O O15 0.778035 0.718201 0.366901
O O16 0.369771 0.347602 0.440108
O O17 0.710280 0.343108 0.918120
O O18 0.992235 0.703489 0.022346
#
# Coordination Sequence:
#
# PCOD9030724 Si02
#       8
#     2   2   2   2   2   2   2   2
#     4  11  25  41  63 100 150 207 247 304 375 447
#     4  10  24  41  67 103 143 196 254 298 373 447
#     4  12  32  51  80 118 152 193 247 317 395 464
#     4  11  23  39  65 101 140 183 240 309 352 415
#     4  11  25  41  68 100 141 194 242 301 362 432
#     4  10  25  49  76 109 148 196 253 310 379 454
#     4  11  24  48  80 106 148 196 252 316 376 461
#     4  10  22  42  73 104 139 194 249 304 375 436
#
# _framework density 24.365976
#
# number of rings (size 3 to 8) (size 9 to 14) (size 15 to 20)
#    0.000    1.250    1.250    2.250   14.000    1.500 
#    0.000    0.000    0.000    0.000    0.000    0.000 
#    0.000    0.000    0.000    0.000    0.000    0.000 
#
# Total GULP energy -89113.551025 kJ/mol
# GULP energy per Si atom -5569.596939 kJ/mol
# Density = 2.431052 g / cm^3
# Si number density = 24.365976 Si / 1000 Ang^3
#
#
#
# Elastic Constant Matrix: (Units=GPa)
#
#
# Indices 1 2 3 4 5 6 
#
# 1 77.8193 28.7455 34.0513 -11.2980 7.1458 22.1658
# 2 28.7455 92.6800 13.7911 -17.1819 11.2271 16.9098
# 3 34.0513 13.7911 88.2297 -7.7314 6.7986 13.1456
# 4 -11.2980 -17.1819 -7.7314 23.1695 0.6307 -2.1453
# 5 7.1458 11.2271 6.7986 0.6307 36.9899 -4.8590
# 6 22.1658 16.9098 13.1456 -2.1453 -4.8590 60.1301
#
#
#
# Elastic Compliance Matrix: (Units=1/GPa)
#
#
# Indices 1 2 3 4 5 6 
#
# 1 0.018580 -0.002897 -0.005388 0.004728 -0.002442 -0.004885
# 2 -0.002897 0.014456 0.000487 0.009302 -0.004488 -0.003134
# 3 -0.005388 0.000487 0.013868 0.002296 -0.001859 -0.001251
# 4 0.004728 0.009302 0.002296 0.052963 -0.005510 -0.003416
# 5 -0.002442 -0.004488 -0.001859 -0.005510 0.029933 0.004791
# 6 -0.004885 -0.003134 -0.001251 -0.003416 0.004791 0.019852
#
#
# Mechanical properties :
#
#
# Convention : Reuss Voigt Hill
#
# Bulk Modulus (GPa) = 31.94145 45.76719 38.85432
# Shear Modulus (GPa) = 28.45996 36.20063 32.33030
#
# Velocity S-wave (km/s) = 3.42134 3.85866 3.64656
# Velocity P-wave (km/s) = 5.36143 6.21904 5.80609
#
# Compressibility (1/GPa) = 0.03130729
#
# Stress axis : x y z
#
# Youngs Moduli (GPa) = 53.82085 69.17532 72.10774
#
# Poissons Ratio (x) = 0.20043 0.38849
# Poissons Ratio (y) = 0.15594 -0.03508
# Poissons Ratio (z) = 0.28996 -0.03366
#
# Static dielectric constant tensor:
#      x y z
#    x 2.125050 0.012340 -0.094830 
#    y 0.012340 1.960940 0.009550 
#    z -0.094830 0.009550 2.169150 
# 
# From -- ./inp_files/207241.got.cif
#   From: 2010.05.17/outbox.cif.g08.bks.cpg/sg2_104_cif.got.tgz:207241.got - 2010.06.03 11:33:40.
