data_PCOD9030360
_publ_section_title
;
Structure prediction by ZEFSAII (Michael W. Deem and Ramdas Pophale) SiO2 
 PCOD9030360
Probable space group: P -1
;
_chemical_formula_sum "Si O2"
_cell_formula_units_Z 14
_cell_length_a 13.244409
_cell_length_b 11.211021
_cell_length_c 8.750327
_cell_angle_alpha 79.936800
_cell_angle_beta 132.822884
_cell_angle_gamma 133.471331
_cell_volume 577.450269
_symmetry_space_group_name_H-M "P -1"
_symmetry_group_IT_number 2
_symmetry_cell_setting 'triclinic'
loop_
_space_group_symop_operation_xyz
x,y,z
-x,-y,-z
loop_
_atom_site_type_symbol
_atom_site_label
_atom_site_fract_x
_atom_site_fract_y
_atom_site_fract_z
Si Si1 0.143994 0.028617 0.927111
Si Si2 0.950974 0.277006 0.241170
Si Si3 0.400719 0.507550 0.705653
Si Si4 0.314413 0.774847 0.799686
Si Si5 0.304712 0.495277 0.950134
Si Si6 0.492077 0.971885 0.320724
Si Si7 0.878250 0.072109 0.725266
O O1 0.124429 0.916369 0.798705
O O2 0.379928 0.258702 0.113883
O O3 0.128207 0.953298 0.093214
O O4 0.956407 0.002062 0.742360
O O5 0.914470 0.324041 0.351530
O O6 0.208686 0.439553 0.424709
O O7 0.765195 0.211148 0.957264
O O8 0.297517 0.430907 0.786941
O O9 0.494604 0.439991 0.775765
O O10 0.657884 0.337761 0.077455
O O11 0.370726 0.824847 0.668457
O O12 0.500000 0.000000 0.000000
O O13 0.073718 0.304235 0.838812
O O14 0.642418 0.957948 0.449938
O O15 0.500000 0.000000 0.500000
#
# Coordination Sequence:
#
# PCOD9030360 Si02
#       7
#     2   2   2   2   2   2   2
#     4  10  22  45  70  97 141 180 226 285 344 406
#     4  11  23  41  70 106 134 177 234 284 334 414
#     4  10  22  42  71 103 133 179 231 284 343 404
#     4  10  23  41  66 100 136 180 229 278 338 406
#     4  10  22  43  69 100 140 177 229 286 345 405
#     4  11  22  41  66  95 140 181 221 275 345 403
#     4  10  22  42  70  95 134 191 217 276 356 399
#
# _framework density 24.244513999999999
#
# number of rings (size 3 to 8) (size 9 to 14) (size 15 to 20)
#    0.000    1.714    1.429    2.571    0.000    5.714 
#    0.000   23.571    0.000    0.000    0.000    0.000 
#    0.000    0.000    0.000    0.000    0.000    0.000 
#
# Total GULP energy -78243.832792 kJ/mol
# GULP energy per Si atom -5588.845199 kJ/mol
# Density = 2.418933 g / cm^3
# Si number density = 24.244514 Si / 1000 Ang^3
#
#
#
# Elastic Constant Matrix: (Units=GPa)
#
#
# Indices 1 2 3 4 5 6 
#
# 1 130.2556 49.7741 62.5336 -11.8121 38.6756 -23.8224
# 2 49.7741 135.0316 28.3612 -8.5495 -1.5563 -1.3375
# 3 62.5336 28.3612 143.9916 3.9131 47.3782 -5.2253
# 4 -11.8121 -8.5495 3.9131 24.3872 -1.0951 1.6076
# 5 38.6756 -1.5563 47.3782 -1.0951 50.5427 -11.6819
# 6 -23.8224 -1.3375 -5.2253 1.6076 -11.6819 46.9797
#
#
#
# Elastic Compliance Matrix: (Units=1/GPa)
#
#
# Indices 1 2 3 4 5 6 
#
# 1 0.014172 -0.004299 -0.002989 0.005207 -0.006948 0.004826
# 2 -0.004299 0.009524 -0.001756 0.001825 0.005058 -0.000909
# 3 -0.002989 -0.001756 0.011706 -0.004202 -0.009400 -0.002457
# 4 0.005207 0.001825 -0.004202 0.044830 0.001211 0.000992
# 5 -0.006948 0.005058 -0.009400 0.001211 0.035078 0.004257
# 6 0.004826 -0.000909 -0.002457 0.000992 0.004257 0.024458
#
#
# Mechanical properties :
#
#
# Convention : Reuss Voigt Hill
#
# Bulk Modulus (GPa) = 57.74994 76.73517 67.24256
# Shear Modulus (GPa) = 30.55709 42.28926 36.42317
#
# Velocity S-wave (km/s) = 3.55402 4.18099 3.88019
# Velocity P-wave (km/s) = 6.38067 7.41801 6.91881
#
# Compressibility (1/GPa) = 0.01731604
#
# Stress axis : x y z
#
# Youngs Moduli (GPa) = 70.55987 104.99805 85.42370
#
# Poissons Ratio (x) = 0.45139 0.25529
# Poissons Ratio (y) = 0.30334 0.14999
# Poissons Ratio (z) = 0.21087 0.18436
#
# Static dielectric constant tensor:
#      x y z
#    x 2.004440 -0.001950 -0.015100 
#    y -0.001950 1.923940 -0.033700 
#    z -0.015100 -0.033700 2.043420 
# 
# From -- ./inp_files/227388.got.cif
#   From: 2010.05.17/outbox.cif.g08.bks.cpg/sg2_114_cif.got.tgz:227388.got - 2010.06.03 11:33:40.
