data_PCOD9030167
_publ_section_title
;
Structure prediction by ZEFSAII (Michael W. Deem and Ramdas Pophale) SiO2 
 PCOD9030167
Probable space group: P -1
;
_chemical_formula_sum "Si O2"
_cell_formula_units_Z 15
_cell_length_a 17.867728
_cell_length_b 5.041393
_cell_length_c 12.307437
_cell_angle_alpha 60.000522
_cell_angle_beta 137.608992
_cell_angle_gamma 101.638175
_cell_volume 620.069513
_symmetry_space_group_name_H-M "P -1"
_symmetry_group_IT_number 2
_symmetry_cell_setting 'triclinic'
loop_
_space_group_symop_operation_xyz
x,y,z
-x,-y,-z
loop_
_atom_site_type_symbol
_atom_site_label
_atom_site_fract_x
_atom_site_fract_y
_atom_site_fract_z
Si Si1 0.836529 0.464806 0.025370
Si Si2 0.687038 0.385783 0.712762
Si Si3 0.134403 0.937039 0.192234
Si Si4 0.182491 0.703846 0.533633
Si Si5 0.426634 0.256154 0.950814
Si Si6 0.620025 0.816602 0.840752
Si Si7 0.939968 0.790757 0.549413
Si Si8 0.500000 0.000000 0.500000
O O1 0.965891 0.340620 0.229140
O O2 0.780670 0.240974 0.939432
O O3 0.834177 0.754201 0.882639
O O4 0.746597 0.579444 0.004148
O O5 0.769706 0.354256 0.704435
O O6 0.613529 0.121709 0.685625
O O7 0.605611 0.722171 0.594356
O O8 0.152664 0.878981 0.350605
O O9 0.000000 0.000000 0.000000
O O10 0.306186 0.450781 0.728643
O O11 0.091668 0.493562 0.488087
O O12 0.168900 0.966491 0.558867
O O13 0.500000 0.500000 0.000000
O O14 0.500000 0.000000 0.000000
O O15 0.404186 0.121764 0.072838
O O16 0.522383 0.726074 0.684346
O O17 0.000000 0.000000 0.500000
#
# Coordination Sequence:
#
# PCOD9030167 Si02
#       8
#     2   2   2   2   2   2   2   1
#     4  10  23  41  71 103 141 192 226 311 367 446
#     4  10  23  39  69 100 138 188 237 310 374 441
#     4  11  23  43  67 107 150 185 243 301 386 447
#     4  12  28  47  74 108 147 196 244 309 368 454
#     4  12  30  50  74 103 146 202 249 309 371 440
#     4  10  24  44  70 100 142 180 257 298 378 433
#     4  12  26  45  75 106 146 190 251 294 373 447
#     4  10  22  42  70 100 130 188 244 318 360 432
#
# _framework density 24.190833999999999
#
# number of rings (size 3 to 8) (size 9 to 14) (size 15 to 20)
#    0.000    1.067    1.333    3.200   11.200    4.267 
#    0.000    0.000    0.000    0.000    0.000    0.000 
#    0.000    0.000    0.000    0.000    0.000    0.000 
#
# Total GULP energy -83693.932318 kJ/mol
# GULP energy per Si atom -5579.595488 kJ/mol
# Density = 2.413577 g / cm^3
# Si number density = 24.190834 Si / 1000 Ang^3
#
#
#
# Elastic Constant Matrix: (Units=GPa)
#
#
# Indices 1 2 3 4 5 6 
#
# 1 120.3187 29.9257 32.1080 -1.4675 -10.7916 -21.5235
# 2 29.9257 98.5482 5.9636 0.9748 -0.9956 -8.1736
# 3 32.1080 5.9636 119.2474 3.2147 8.7971 1.5349
# 4 -1.4675 0.9748 3.2147 30.9087 2.6945 9.6170
# 5 -10.7916 -0.9956 8.7971 2.6945 47.7036 2.7624
# 6 -21.5235 -8.1736 1.5349 9.6170 2.7624 44.7075
#
#
#
# Elastic Compliance Matrix: (Units=1/GPa)
#
#
# Indices 1 2 3 4 5 6 
#
# 1 0.010897 -0.002685 -0.003042 -0.000835 0.002735 0.004870
# 2 -0.002685 0.011028 0.000211 -0.000741 -0.000427 0.000902
# 3 -0.003042 0.000211 0.009396 -0.000459 -0.002303 -0.001507
# 4 -0.000835 -0.000741 -0.000459 0.035001 -0.001637 -0.007950
# 5 0.002735 -0.000427 -0.002303 -0.001637 0.022072 0.000306
# 6 0.004870 0.000902 -0.001507 -0.007950 0.000306 0.026620
#
#
# Mechanical properties :
#
#
# Convention : Reuss Voigt Hill
#
# Bulk Modulus (GPa) = 49.28600 52.67874 50.98237
# Shear Modulus (GPa) = 37.64812 42.67178 40.15995
#
# Velocity S-wave (km/s) = 3.94927 4.20451 4.07889
# Velocity P-wave (km/s) = 6.41979 6.73752 6.58057
#
# Compressibility (1/GPa) = 0.02028974
#
# Stress axis : x y z
#
# Youngs Moduli (GPa) = 91.76618 90.68042 106.42751
#
# Poissons Ratio (x) = 0.24349 0.32373
# Poissons Ratio (y) = 0.24641 -0.02249
# Poissons Ratio (z) = 0.27914 -0.01916
#
# Static dielectric constant tensor:
#      x y z
#    x 1.954520 0.091730 0.015300 
#    y 0.091730 2.175090 0.129040 
#    z 0.015300 0.129040 2.113860 
# 
# From -- ./inp_files/442130.got.cif
#   From: 2010.05.17/outbox.cif.g08.bks.cpg/sg2_222_cif.got.tgz:442130.got - 2010.06.03 11:33:40.
