data_PCOD9030284
_publ_section_title
;
Structure prediction by ZEFSAII (Michael W. Deem and Ramdas Pophale) SiO2 
 PCOD9030284
Probable space group: P -1
;
_chemical_formula_sum "Si O2"
_cell_formula_units_Z 16
_cell_length_a 12.084008
_cell_length_b 13.915283
_cell_length_c 5.495844
_cell_angle_alpha 77.677976
_cell_angle_beta 77.866573
_cell_angle_gamma 129.991431
_cell_volume 612.722435
_symmetry_space_group_name_H-M "P -1"
_symmetry_group_IT_number 2
_symmetry_cell_setting 'triclinic'
loop_
_space_group_symop_operation_xyz
x,y,z
-x,-y,-z
loop_
_atom_site_type_symbol
_atom_site_label
_atom_site_fract_x
_atom_site_fract_y
_atom_site_fract_z
Si Si1 0.673767 0.532623 0.528030
Si Si2 0.881878 0.792601 0.999483
Si Si3 0.234086 0.216057 0.443089
Si Si4 0.890659 0.229910 0.276322
Si Si5 0.881037 0.501722 0.683524
Si Si6 0.368406 0.998997 0.147836
Si Si7 0.456200 0.227078 0.644615
Si Si8 0.360666 0.776314 0.775740
O O1 0.667057 0.618906 0.671192
O O2 0.824900 0.558677 0.520308
O O3 0.518277 0.365412 0.670990
O O4 0.731108 0.621496 0.205392
O O5 0.843474 0.835560 0.759634
O O6 0.036067 0.821652 0.846918
O O7 0.888141 0.847523 0.232731
O O8 0.350191 0.200939 0.482181
O O9 0.753028 0.200500 0.205541
O O10 0.029760 0.396670 0.177970
O O11 0.805837 0.151813 0.616691
O O12 0.000000 0.500000 0.500000
O O13 0.719658 0.344015 0.925106
O O14 0.456584 0.083559 0.312819
O O15 0.365260 0.091355 0.926555
O O16 0.500000 0.000000 0.000000
O O17 0.618666 0.272310 0.453254
#
# Coordination Sequence:
#
# PCOD9030284 Si02
#       8
#     2   2   2   2   2   2   2   2
#     4  10  22  42  70 106 144 185 242 297 367 423
#     4  10  23  44  70 106 142 191 239 297 369 426
#     4  10  25  44  74 108 149 188 247 302 367 430
#     4  12  23  45  70 104 144 190 238 301 367 438
#     4  12  22  41  71 109 144 184 239 307 364 435
#     4  12  27  48  67 104 147 192 243 293 373 441
#     4  12  25  45  70 106 142 195 237 304 361 439
#     4  12  26  43  74 105 145 181 252 300 371 428
#
# _framework density 26.112964999999999
#
# number of rings (size 3 to 8) (size 9 to 14) (size 15 to 20)
#    0.750    0.000    3.750    4.125    1.750    1.500 
#    0.000    1.250    0.000    0.000    0.000    0.000 
#    0.000    0.000    0.000    0.000    0.000    0.000 
#
# Total GULP energy -89593.426711 kJ/mol
# GULP energy per Si atom -5599.589169 kJ/mol
# Density = 2.605353 g / cm^3
# Si number density = 26.112965 Si / 1000 Ang^3
#
#
#
# Elastic Constant Matrix: (Units=GPa)
#
#
# Indices 1 2 3 4 5 6 
#
# 1 157.2934 19.8323 29.3426 8.4787 13.2849 6.6955
# 2 19.8323 64.3636 17.9647 -2.2888 8.4153 -7.6933
# 3 29.3426 17.9647 107.8975 0.7348 17.9089 -1.7250
# 4 8.4787 -2.2888 0.7348 36.1077 -5.7015 8.0177
# 5 13.2849 8.4153 17.9089 -5.7015 58.2268 10.0181
# 6 6.6955 -7.6933 -1.7250 8.0177 10.0181 16.3389
#
#
#
# Elastic Compliance Matrix: (Units=1/GPa)
#
#
# Indices 1 2 3 4 5 6 
#
# 1 0.007156 -0.002157 -0.001572 -0.001100 -0.000369 -0.003348
# 2 -0.002157 0.018668 -0.001623 -0.001788 -0.004100 0.012894
# 3 -0.001572 -0.001623 0.010607 -0.001330 -0.003448 0.003767
# 4 -0.001100 -0.001788 -0.001330 0.034072 0.008075 -0.022202
# 5 -0.000369 -0.004100 -0.003448 0.008075 0.023200 -0.020331
# 6 -0.003348 0.012894 0.003767 -0.022202 -0.020331 0.092405
#
#
# Mechanical properties :
#
#
# Convention : Reuss Voigt Hill
#
# Bulk Modulus (GPa) = 38.86822 51.53707 45.20264
# Shear Modulus (GPa) = 24.34434 39.62901 31.98667
#
# Velocity S-wave (km/s) = 3.05662 3.89986 3.50370
# Velocity P-wave (km/s) = 5.23204 6.32911 5.80654
#
# Compressibility (1/GPa) = 0.02572796
#
# Stress axis : x y z
#
# Youngs Moduli (GPa) = 139.74884 53.56742 94.27608
#
# Poissons Ratio (x) = 0.11556 0.14816
# Poissons Ratio (y) = 0.30147 0.15298
# Poissons Ratio (z) = 0.21962 0.08692
#
# Static dielectric constant tensor:
#      x y z
#    x 2.009660 -0.006440 -0.003190 
#    y -0.006440 2.088350 0.062590 
#    z -0.003190 0.062590 2.039200 
# 
# From -- ./inp_files/77613.got.cif
#   From: 2010.05.17/outbox.cif.g08.bks.cpg/sg2_39_cif.got.tgz:77613.got - 2010.06.03 11:33:40.
