data_PCOD9030526
_publ_section_title
;
Structure prediction by ZEFSAII (Michael W. Deem and Ramdas Pophale) SiO2 
 PCOD9030526
Probable space group: P -1
;
_chemical_formula_sum "Si O2"
_cell_formula_units_Z 14
_cell_length_a 9.037123
_cell_length_b 17.020443
_cell_length_c 5.670142
_cell_angle_alpha 105.539901
_cell_angle_beta 76.359269
_cell_angle_gamma 128.398019
_cell_volume 655.746316
_symmetry_space_group_name_H-M "P -1"
_symmetry_group_IT_number 2
_symmetry_cell_setting 'triclinic'
loop_
_space_group_symop_operation_xyz
x,y,z
-x,-y,-z
loop_
_atom_site_type_symbol
_atom_site_label
_atom_site_fract_x
_atom_site_fract_y
_atom_site_fract_z
Si Si1 0.539839 0.443277 0.746496
Si Si2 0.234718 0.824141 0.516759
Si Si3 0.830400 0.924970 0.683938
Si Si4 0.507090 0.757217 0.357688
Si Si5 0.212087 0.905977 0.097868
Si Si6 0.209291 0.355487 0.436543
Si Si7 0.824413 0.808263 0.977765
O O1 0.576890 0.360562 0.723648
O O2 0.343736 0.380081 0.624620
O O3 0.715450 0.534695 0.602533
O O4 0.500000 0.500000 0.000000
O O5 0.359955 0.782866 0.435972
O O6 0.262865 0.878557 0.805772
O O7 0.014060 0.726016 0.506844
O O8 0.276780 0.888122 0.309867
O O9 0.654810 0.816454 0.564140
O O10 0.926147 0.897053 0.818390
O O11 0.000000 0.000000 0.500000
O O12 0.742441 0.983629 0.838256
O O13 0.654043 0.809339 0.129352
O O14 0.981150 0.832519 0.127059
O O15 0.254726 0.299502 0.185782
#
# Coordination Sequence:
#
# PCOD9030526 Si02
#       7
#     2   2   2   2   2   2   2
#     4  11  22  42  71 102 125 180 233 286 336 412
#     4  11  28  46  68 103 147 184 219 285 354 410
#     4  12  24  42  72 103 134 181 244 286 333 400
#     4  12  26  42  69 102 141 174 234 286 342 410
#     4  11  25  46  70  99 140 190 228 276 344 411
#     4  10  22  42  71  96 137 177 228 280 352 407
#     4  11  22  42  73 100 132 180 238 286 334 408
#
# _framework density 21.349720999999999
#
# number of rings (size 3 to 8) (size 9 to 14) (size 15 to 20)
#    0.000    0.857    4.286    3.000    6.000    1.714 
#    0.000    0.714    0.000    0.000    0.000    0.000 
#    0.000    0.000    0.000    0.000    0.000    0.000 
#
# Total GULP energy -78118.519424 kJ/mol
# GULP energy per Si atom -5579.894245 kJ/mol
# Density = 2.130113 g / cm^3
# Si number density = 21.349721 Si / 1000 Ang^3
#
#
#
# Elastic Constant Matrix: (Units=GPa)
#
#
# Indices 1 2 3 4 5 6 
#
# 1 78.6329 25.2183 44.6874 5.0712 -17.4970 -22.5392
# 2 25.2183 109.3481 37.7259 10.6821 -2.8836 -29.3449
# 3 44.6874 37.7259 105.9250 18.7325 -8.4270 -17.0636
# 4 5.0712 10.6821 18.7325 43.7711 -3.2453 3.8218
# 5 -17.4970 -2.8836 -8.4270 -3.2453 33.0226 3.4910
# 6 -22.5392 -29.3449 -17.0636 3.8218 3.4910 37.2743
#
#
#
# Elastic Compliance Matrix: (Units=1/GPa)
#
#
# Indices 1 2 3 4 5 6 
#
# 1 0.020959 0.000069 -0.006842 0.000345 0.008473 0.008767
# 2 0.000069 0.012788 -0.002647 -0.002863 -0.000783 0.009264
# 3 -0.006842 -0.002647 0.014183 -0.004763 -0.000793 0.000834
# 4 0.000345 -0.002863 -0.004763 0.026317 0.002056 -0.007116
# 5 0.008473 -0.000783 -0.000793 0.002056 0.034630 0.000690
# 6 0.008767 0.009264 0.000834 -0.007116 0.000690 0.040470
#
#
# Mechanical properties :
#
#
# Convention : Reuss Voigt Hill
#
# Bulk Modulus (GPa) = 34.37485 56.57436 45.47460
# Shear Modulus (GPa) = 28.10830 35.23191 31.67010
#
# Velocity S-wave (km/s) = 3.63239 4.06671 3.85567
# Velocity P-wave (km/s) = 5.80759 6.97189 6.41620
#
# Compressibility (1/GPa) = 0.02909104
#
# Stress axis : x y z
#
# Youngs Moduli (GPa) = 47.71158 78.20058 70.50473
#
# Poissons Ratio (x) = -0.00541 0.48237
# Poissons Ratio (y) = -0.00330 0.18664
# Poissons Ratio (z) = 0.32642 0.20702
#
# Static dielectric constant tensor:
#      x y z
#    x 1.741210 -0.000460 0.011880 
#    y -0.000460 1.780980 -0.021770 
#    z 0.011880 -0.021770 1.916370 
# 
# From -- ./inp_files/28149.got.cif
#   From: 2010.05.17/outbox.cif.g08.bks.cpg/sg2_15_cif.got.tgz:28149.got - 2010.06.03 11:33:40.
