data_PCOD9030683
_publ_section_title
;
Structure prediction by ZEFSAII (Michael W. Deem and Ramdas Pophale) SiO2 
 PCOD9030683
Probable space group: P -1
;
_chemical_formula_sum "Si O2"
_cell_formula_units_Z 14
_cell_length_a 9.657088
_cell_length_b 14.244106
_cell_length_c 17.510982
_cell_angle_alpha 157.684523
_cell_angle_beta 46.352795
_cell_angle_gamma 131.142015
_cell_volume 660.167775
_symmetry_space_group_name_H-M "P -1"
_symmetry_group_IT_number 2
_symmetry_cell_setting 'triclinic'
loop_
_space_group_symop_operation_xyz
x,y,z
-x,-y,-z
loop_
_atom_site_type_symbol
_atom_site_label
_atom_site_fract_x
_atom_site_fract_y
_atom_site_fract_z
Si Si1 0.885618 0.732467 0.190826
Si Si2 0.289420 0.331892 0.225223
Si Si3 0.070216 0.473138 0.550319
Si Si4 0.629153 0.709987 0.414122
Si Si5 0.724573 0.589091 0.978144
Si Si6 0.049969 0.264951 0.562415
Si Si7 0.702656 0.004828 0.174835
O O1 0.713499 0.766753 0.341446
O O2 0.023778 0.980064 0.332924
O O3 0.801364 0.689274 0.106056
O O4 0.000000 0.500000 0.000000
O O5 0.167764 0.287210 0.315578
O O6 0.491554 0.461457 0.270512
O O7 0.157609 0.524513 0.375723
O O8 0.314292 0.115669 0.993198
O O9 0.116897 0.417490 0.577012
O O10 0.155812 0.749207 0.703140
O O11 0.804578 0.690335 0.389936
O O12 0.495700 0.908971 0.650992
O O13 0.847583 0.360217 0.736890
O O14 0.500000 0.500000 0.000000
O O15 0.764728 0.800102 0.056996
#
# Coordination Sequence:
#
# PCOD9030683 Si02
#       7
#     2   2   2   2   2   2   2
#     4  12  28  46  71  99 140 186 228 289 348 407
#     4  10  22  42  72  97 141 178 226 283 335 405
#     4  10  24  44  70 106 138 181 235 280 345 408
#     4  11  26  45  69 102 141 181 232 285 347 405
#     4  12  27  44  75 107 134 184 235 280 349 409
#     4  12  27  46  71 102 144 181 230 286 345 422
#     4  11  24  43  76 102 145 178 227 292 340 413
#
# _framework density 21.206727999999998
#
# number of rings (size 3 to 8) (size 9 to 14) (size 15 to 20)
#    0.000    0.857    2.857    2.571   10.000    3.429 
#    0.000    1.429    0.000    0.000    0.000    0.000 
#    0.000    0.000    0.000    0.000    0.000    0.000 
#
# Total GULP energy -78289.759195 kJ/mol
# GULP energy per Si atom -5592.125657 kJ/mol
# Density = 2.115846 g / cm^3
# Si number density = 21.206728 Si / 1000 Ang^3
#
#
#
# Elastic Constant Matrix: (Units=GPa)
#
#
# Indices 1 2 3 4 5 6 
#
# 1 112.2444 36.4502 57.8600 8.2990 21.1403 1.7059
# 2 36.4502 77.6562 47.6559 3.7306 13.1491 -1.1058
# 3 57.8600 47.6559 140.5361 -12.3548 17.6287 -2.0072
# 4 8.2990 3.7306 -12.3548 38.7021 -7.9580 6.6201
# 5 21.1403 13.1491 17.6287 -7.9580 38.6758 -10.0741
# 6 1.7059 -1.1058 -2.0072 6.6201 -10.0741 31.0548
#
#
#
# Elastic Compliance Matrix: (Units=1/GPa)
#
#
# Indices 1 2 3 4 5 6 
#
# 1 0.013536 -0.002359 -0.004475 -0.005014 -0.006118 -0.002033
# 2 -0.002359 0.017721 -0.004944 -0.003455 -0.003152 0.000155
# 3 -0.004475 -0.004944 0.011067 0.005025 0.000046 -0.000271
# 4 -0.005014 -0.003455 0.005025 0.030947 0.006989 -0.003853
# 5 -0.006118 -0.003152 0.000046 0.006989 0.034254 0.009849
# 6 -0.002033 0.000155 -0.000271 -0.003853 0.009849 0.036317
#
#
# Mechanical properties :
#
#
# Convention : Reuss Voigt Hill
#
# Bulk Modulus (GPa) = 53.28647 68.26319 60.77483
# Shear Modulus (GPa) = 28.79291 34.25125 31.52208
#
# Velocity S-wave (km/s) = 3.68873 4.02321 3.85959
# Velocity P-wave (km/s) = 6.58210 7.33763 6.97011
#
# Compressibility (1/GPa) = 0.01876649
#
# Stress axis : x y z
#
# Youngs Moduli (GPa) = 73.87631 56.43177 90.36137
#
# Poissons Ratio (x) = 0.13314 0.40439
# Poissons Ratio (y) = 0.17430 0.44673
# Poissons Ratio (z) = 0.33062 0.27899
#
# Static dielectric constant tensor:
#      x y z
#    x 1.730920 0.011520 -0.008660 
#    y 0.011520 1.777470 -0.005470 
#    z -0.008660 -0.005470 1.776500 
# 
# From -- ./inp_files/561459.got.cif
#   From: 2010.05.17/outbox.cif.g08.bks.cpg/sg2_281_cif.got.tgz:561459.got - 2010.06.03 11:33:40.
