data_PCOD9030938
_publ_section_title
;
Structure prediction by ZEFSAII (Michael W. Deem and Ramdas Pophale) SiO2 
 PCOD9030938
Probable space group: P -1
;
_chemical_formula_sum "Si O2"
_cell_formula_units_Z 14
_cell_length_a 7.465928
_cell_length_b 23.772743
_cell_length_c 27.229285
_cell_angle_alpha 167.010299
_cell_angle_beta 148.674751
_cell_angle_gamma 32.561176
_cell_volume 562.500487
_symmetry_space_group_name_H-M "P -1"
_symmetry_group_IT_number 2
_symmetry_cell_setting 'triclinic'
loop_
_space_group_symop_operation_xyz
x,y,z
-x,-y,-z
loop_
_atom_site_type_symbol
_atom_site_label
_atom_site_fract_x
_atom_site_fract_y
_atom_site_fract_z
Si Si1 0.249919 0.317230 0.003498
Si Si2 0.586925 0.590619 0.981135
Si Si3 0.302351 0.263222 0.770316
Si Si4 0.198369 0.450516 0.310745
Si Si5 0.791226 0.864957 0.505940
Si Si6 0.527871 0.807606 0.939833
Si Si7 0.854568 0.638559 0.669253
O O1 0.510776 0.321895 0.022288
O O2 0.312940 0.255234 0.022552
O O3 0.011846 0.097198 0.741639
O O4 0.082763 0.607455 0.211629
O O5 0.344232 0.374523 0.757206
O O6 0.566779 0.792607 0.191101
O O7 0.000000 0.500000 0.000000
O O8 0.419991 0.012705 0.556784
O O9 0.500000 0.500000 0.000000
O O10 0.243808 0.261614 0.113802
O O11 0.590743 0.462852 0.433816
O O12 0.016792 0.414541 0.290128
O O13 0.031931 0.715428 0.475711
O O14 0.191239 0.651064 0.725678
O O15 0.367106 0.093066 0.148666
#
# Coordination Sequence:
#
# PCOD9030938 Si02
#       7
#     2   2   2   2   2   2   2
#     4  10  22  43  62  97 131 169 221 265 325 393
#     4  10  23  42  62  92 130 172 221 264 322 383
#     4   9  22  41  64  92 131 171 212 264 319 383
#     4  11  23  41  68  96 127 172 219 265 333 390
#     4  11  23  42  64  96 130 171 218 268 320 391
#     4  11  22  43  65  94 133 168 211 279 326 384
#     4  10  23  43  65  96 129 166 220 268 331 394
#
# _framework density 24.888866
#
# number of rings (size 3 to 8) (size 9 to 14) (size 15 to 20)
#    0.000    1.714    1.429    1.714    4.000    7.429 
#    5.143    1.429    0.000    0.000    0.000    0.000 
#    0.000    0.000    0.000    0.000    0.000    0.000 
#
# Total GULP energy -77986.633648 kJ/mol
# GULP energy per Si atom -5570.473832 kJ/mol
# Density = 2.483222 g / cm^3
# Si number density = 24.888866 Si / 1000 Ang^3
#
#
#
# Elastic Constant Matrix: (Units=GPa)
#
#
# Indices 1 2 3 4 5 6 
#
# 1 101.4598 17.8226 16.3166 1.0007 -14.0918 10.2221
# 2 17.8226 96.2119 8.6730 0.8830 -10.0437 33.9023
# 3 16.3166 8.6730 55.5410 -8.3812 -0.4187 8.1151
# 4 1.0007 0.8830 -8.3812 35.4416 -1.8755 -6.6680
# 5 -14.0918 -10.0437 -0.4187 -1.8755 22.5727 -12.1464
# 6 10.2221 33.9023 8.1151 -6.6680 -12.1464 44.1640
#
#
#
# Elastic Compliance Matrix: (Units=1/GPa)
#
#
# Indices 1 2 3 4 5 6 
#
# 1 0.011517 -0.001403 -0.003318 -0.000552 0.006909 0.000838
# 2 -0.001403 0.014689 -0.000617 -0.002663 -0.000729 -0.011440
# 3 -0.003318 -0.000617 0.020073 0.004195 -0.003052 -0.002653
# 4 -0.000552 -0.002663 0.004195 0.030972 0.005155 0.007495
# 5 0.006909 -0.000729 -0.003052 0.005155 0.057304 0.016060
# 6 0.000838 -0.011440 -0.002653 0.007495 0.016060 0.037267
#
#
# Mechanical properties :
#
#
# Convention : Reuss Voigt Hill
#
# Bulk Modulus (GPa) = 28.08823 37.64858 32.86840
# Shear Modulus (GPa) = 25.72461 34.46237 30.09349
#
# Velocity S-wave (km/s) = 3.21842 3.72513 3.48100
# Velocity P-wave (km/s) = 5.01208 5.80186 5.42137
#
# Compressibility (1/GPa) = 0.03560210
#
# Stress axis : x y z
#
# Youngs Moduli (GPa) = 86.82981 68.07877 49.81692
#
# Poissons Ratio (x) = 0.09554 0.16528
# Poissons Ratio (y) = 0.12186 0.03075
# Poissons Ratio (z) = 0.28809 0.04203
#
# Static dielectric constant tensor:
#      x y z
#    x 2.062260 -0.026350 0.042110 
#    y -0.026350 2.063350 -0.073000 
#    z 0.042110 -0.073000 1.915850 
# 
# From -- ./inp_files/339657.got.cif
#   From: 2010.05.17/outbox.cif.g08.bks.cpg/sg2_170_cif.got.tgz:339657.got - 2010.06.03 11:33:40.
