data_PCOD9030128
_publ_section_title
;
Structure prediction by ZEFSAII (Michael W. Deem and Ramdas Pophale) SiO2 
 PCOD9030128
Probable space group: P -1
;
_chemical_formula_sum "Si O2"
_cell_formula_units_Z 16
_cell_length_a 9.615431
_cell_length_b 15.288203
_cell_length_c 7.965511
_cell_angle_alpha 103.033997
_cell_angle_beta 105.234387
_cell_angle_gamma 41.937631
_cell_volume 754.250251
_symmetry_space_group_name_H-M "P -1"
_symmetry_group_IT_number 2
_symmetry_cell_setting 'triclinic'
loop_
_space_group_symop_operation_xyz
x,y,z
-x,-y,-z
loop_
_atom_site_type_symbol
_atom_site_label
_atom_site_fract_x
_atom_site_fract_y
_atom_site_fract_z
Si Si1 0.574176 0.002610 0.845839
Si Si2 0.965937 0.120390 0.080301
Si Si3 0.430028 0.185130 0.375291
Si Si4 0.187784 0.868774 0.604560
Si Si5 0.453875 0.622872 0.093240
Si Si6 0.902329 0.536515 0.671358
Si Si7 0.650384 0.718208 0.218692
Si Si8 0.525696 0.586412 0.475719
O O1 0.430216 0.153531 0.828807
O O2 0.813855 0.928381 0.884525
O O3 0.553048 0.929207 0.677363
O O4 0.500000 0.000000 0.000000
O O5 0.883465 0.148984 0.257278
O O6 0.793399 0.246071 0.960836
O O7 0.000000 0.000000 0.000000
O O8 0.630923 0.137547 0.324985
O O9 0.216698 0.315516 0.271629
O O10 0.413999 0.235255 0.581622
O O11 0.306615 0.738099 0.483473
O O12 0.000000 0.000000 0.500000
O O13 0.544700 0.678178 0.083507
O O14 0.568439 0.568608 0.285973
O O15 0.500000 0.500000 0.000000
O O16 0.711264 0.552717 0.616910
O O17 0.000000 0.500000 0.500000
O O18 0.101703 0.411504 0.781472
O O19 0.500000 0.500000 0.500000
#
# Coordination Sequence:
#
# PCOD9030128 Si02
#       8
#     2   2   2   2   2   2   2   2
#     4  12  27  45  66 101 138 176 225 278 342 410
#     4  12  25  44  69  96 141 181 220 282 351 400
#     4  10  22  42  69  98 134 170 229 279 333 398
#     4  11  22  41  70  98 131 178 229 282 334 402
#     4  12  25  42  68 103 140 179 226 277 348 407
#     4   9  19  39  70  91 130 171 219 276 329 383
#     4  11  22  45  70  99 134 180 227 279 335 405
#     4  11  23  42  65 102 134 169 234 285 326 406
#
# _framework density 21.213117
#
# number of rings (size 3 to 8) (size 9 to 14) (size 15 to 20)
#    0.000    1.000    5.000    3.375    1.750    4.000 
#    0.000    0.625    0.000    0.000    0.000    0.000 
#    0.000    0.000    0.000    0.000    0.000    0.000 
#
# Total GULP energy -89211.274315 kJ/mol
# GULP energy per Si atom -5575.704645 kJ/mol
# Density = 2.116484 g / cm^3
# Si number density = 21.213117 Si / 1000 Ang^3
#
#
#
# Elastic Constant Matrix: (Units=GPa)
#
#
# Indices 1 2 3 4 5 6 
#
# 1 119.7454 62.1747 21.7713 -1.5458 4.8197 11.3161
# 2 62.1747 183.5476 14.4586 -12.2815 26.2787 14.4962
# 3 21.7713 14.4586 39.4888 7.4897 10.9917 4.1232
# 4 -1.5458 -12.2815 7.4897 37.5165 10.8215 9.0610
# 5 4.8197 26.2787 10.9917 10.8215 26.8981 7.7781
# 6 11.3161 14.4962 4.1232 9.0610 7.7781 48.2351
#
#
#
# Elastic Compliance Matrix: (Units=1/GPa)
#
#
# Indices 1 2 3 4 5 6 
#
# 1 0.011492 -0.004080 -0.005957 -0.000759 0.005143 -0.001647
# 2 -0.004080 0.008670 0.000922 0.005670 -0.010058 -0.001170
# 3 -0.005957 0.000922 0.032096 -0.003119 -0.011952 0.000890
# 4 -0.000759 0.005670 -0.003119 0.035194 -0.016795 -0.005162
# 5 0.005143 -0.010058 -0.011952 -0.016795 0.058729 -0.003478
# 6 -0.001647 -0.001170 0.000890 -0.005162 -0.003478 0.022924
#
#
# Mechanical properties :
#
#
# Convention : Reuss Voigt Hill
#
# Bulk Modulus (GPa) = 29.39002 59.95455 44.67228
# Shear Modulus (GPa) = 25.16638 38.82175 31.99407
#
# Velocity S-wave (km/s) = 3.44809 4.28259 3.88780
# Velocity P-wave (km/s) = 5.45318 7.26487 6.42322
#
# Compressibility (1/GPa) = 0.03402516
#
# Stress axis : x y z
#
# Youngs Moduli (GPa) = 87.01896 115.34538 31.15654
#
# Poissons Ratio (x) = 0.47066 0.18561
# Poissons Ratio (y) = 0.35508 -0.02872
# Poissons Ratio (z) = 0.51841 -0.10633
#
# Static dielectric constant tensor:
#      x y z
#    x 1.754610 0.065010 0.077460 
#    y 0.065010 1.689410 -0.150700 
#    z 0.077460 -0.150700 1.553610 
# 
# From -- ./inp_files/208472.got.cif
#   From: 2010.05.17/outbox.cif.g08.bks.cpg/sg2_105_cif.got.tgz:208472.got - 2010.06.03 11:33:40.
