data_PCOD9030844
_publ_section_title
;
Structure prediction by ZEFSAII (Michael W. Deem and Ramdas Pophale) SiO2 
 PCOD9030844
Probable space group: P -1
;
_chemical_formula_sum "Si O2"
_cell_formula_units_Z 14
_cell_length_a 9.927319
_cell_length_b 18.545387
_cell_length_c 8.598153
_cell_angle_alpha 30.727006
_cell_angle_beta 119.218774
_cell_angle_gamma 129.897006
_cell_volume 612.400386
_symmetry_space_group_name_H-M "P -1"
_symmetry_group_IT_number 2
_symmetry_cell_setting 'triclinic'
loop_
_space_group_symop_operation_xyz
x,y,z
-x,-y,-z
loop_
_atom_site_type_symbol
_atom_site_label
_atom_site_fract_x
_atom_site_fract_y
_atom_site_fract_z
Si Si1 0.834393 0.829577 0.171918
Si Si2 0.967774 0.638965 0.795409
Si Si3 0.458333 0.725965 0.308801
Si Si4 0.349240 0.110433 0.608262
Si Si5 0.246007 0.391263 0.971636
Si Si6 0.674948 0.105646 0.299149
Si Si7 0.016888 0.125248 0.142937
O O1 0.649177 0.788414 0.220102
O O2 0.887462 0.699523 0.502553
O O3 0.835661 0.836691 0.973165
O O4 0.000000 0.000000 0.000000
O O5 0.145574 0.795518 0.679002
O O6 0.000000 0.500000 0.000000
O O7 0.820141 0.571705 0.974018
O O8 0.487891 0.827670 0.296364
O O9 0.377572 0.543452 0.662003
O O10 0.341633 0.756855 0.062428
O O11 0.342584 0.023013 0.605487
O O12 0.321600 0.267375 0.275467
O O13 0.177158 0.970258 0.861900
O O14 0.069086 0.289230 0.957311
O O15 0.500000 0.000000 0.500000
O O16 0.000000 0.000000 0.500000
#
# Coordination Sequence:
#
# PCOD9030844 Si02
#       7
#     2   2   2   2   2   2   2
#     4  12  24  46  78 108 141 194 254 292 364 448
#     4  12  29  50  72 107 155 192 235 309 374 431
#     4  12  27  45  76 112 146 191 246 309 366 429
#     4  11  23  48  77 104 145 196 245 297 364 441
#     4  11  25  47  76 107 146 193 249 298 371 432
#     4  12  30  47  72 111 151 192 246 307 365 431
#     4  10  22  42  76 104 139 192 246 295 353 440
#
# _framework density 22.860862000000001
#
# number of rings (size 3 to 8) (size 9 to 14) (size 15 to 20)
#    0.000    0.571    4.286    2.571   10.000    2.286 
#    0.000    0.000    0.000    0.000    0.000    0.000 
#    0.000    0.000    0.000    0.000    0.000    0.000 
#
# Total GULP energy -78233.442318 kJ/mol
# GULP energy per Si atom -5588.103023 kJ/mol
# Density = 2.280883 g / cm^3
# Si number density = 22.860862 Si / 1000 Ang^3
#
#
#
# Elastic Constant Matrix: (Units=GPa)
#
#
# Indices 1 2 3 4 5 6 
#
# 1 122.2347 20.9919 51.4790 1.6712 -16.5019 -33.7096
# 2 20.9919 84.0986 24.4133 9.0767 -4.4523 -12.6491
# 3 51.4790 24.4133 100.0814 2.6928 -12.9313 -14.4248
# 4 1.6712 9.0767 2.6928 34.4736 0.3403 2.8686
# 5 -16.5019 -4.4523 -12.9313 0.3403 46.2941 0.4854
# 6 -33.7096 -12.6491 -14.4248 2.8686 0.4854 49.2484
#
#
#
# Elastic Compliance Matrix: (Units=1/GPa)
#
#
# Indices 1 2 3 4 5 6 
#
# 1 0.012764 -0.000408 -0.005019 -0.000746 0.003039 0.007175
# 2 -0.000408 0.013543 -0.002558 -0.003571 0.000441 0.002653
# 3 -0.005019 -0.002558 0.013396 -0.000132 0.001710 -0.000178
# 4 -0.000746 -0.003571 -0.000132 0.030271 -0.000835 -0.003222
# 5 0.003039 0.000441 0.001710 -0.000835 0.023184 0.002514
# 6 0.007175 0.002653 -0.000178 -0.003222 0.002514 0.026009
#
#
# Mechanical properties :
#
#
# Convention : Reuss Voigt Hill
#
# Bulk Modulus (GPa) = 42.13600 55.57591 48.85596
# Shear Modulus (GPa) = 34.95300 39.97191 37.46246
#
# Velocity S-wave (km/s) = 3.91441 4.18603 4.05250
# Velocity P-wave (km/s) = 6.23712 6.90848 6.58137
#
# Compressibility (1/GPa) = 0.02373267
#
# Stress axis : x y z
#
# Youngs Moduli (GPa) = 78.34461 73.83765 74.64745
#
# Poissons Ratio (x) = 0.03016 0.37465
# Poissons Ratio (y) = 0.03200 0.19096
# Poissons Ratio (z) = 0.39321 0.18888
#
# Static dielectric constant tensor:
#      x y z
#    x 1.934310 0.009630 0.010660 
#    y 0.009630 1.935570 0.029120 
#    z 0.010660 0.029120 1.857630 
# 
# From -- ./inp_files/216370.got.cif
#   From: 2010.05.17/outbox.cif.g08.bks.cpg/sg2_109_cif.got.tgz:216370.got - 2010.06.03 11:33:40.
