data_PCOD9030343
_publ_section_title
;
Structure prediction by ZEFSAII (Michael W. Deem and Ramdas Pophale) SiO2 
 PCOD9030343
Probable space group: P -1
;
_chemical_formula_sum "Si O2"
_cell_formula_units_Z 14
_cell_length_a 7.448744
_cell_length_b 13.606567
_cell_length_c 15.081641
_cell_angle_alpha 138.387291
_cell_angle_beta 39.785560
_cell_angle_gamma 142.510159
_cell_volume 556.741555
_symmetry_space_group_name_H-M "P -1"
_symmetry_group_IT_number 2
_symmetry_cell_setting 'triclinic'
loop_
_space_group_symop_operation_xyz
x,y,z
-x,-y,-z
loop_
_atom_site_type_symbol
_atom_site_label
_atom_site_fract_x
_atom_site_fract_y
_atom_site_fract_z
Si Si1 0.876037 0.563890 0.299362
Si Si2 0.745616 0.749029 0.608222
Si Si3 0.854095 0.068029 0.864838
Si Si4 0.294461 0.596556 0.025906
Si Si5 0.836490 0.292910 0.435894
Si Si6 0.751088 0.976443 0.155740
Si Si7 0.648141 0.639871 0.249539
O O1 0.953189 0.727891 0.438796
O O2 0.629654 0.405524 0.348477
O O3 0.725054 0.595503 0.288424
O O4 0.149998 0.530999 0.134320
O O5 0.892004 0.724906 0.626931
O O6 0.773837 0.929205 0.724765
O O7 0.100336 0.065334 0.842122
O O8 0.064262 0.246346 0.853340
O O9 0.500000 0.000000 0.000000
O O10 0.433512 0.799274 0.123659
O O11 0.542287 0.544594 0.854840
O O12 0.000000 0.500000 0.000000
O O13 0.539667 0.259275 0.590515
O O14 0.000000 0.500000 0.500000
O O15 0.723785 0.144250 0.303079
O O16 0.000000 0.000000 0.000000
#
# Coordination Sequence:
#
# PCOD9030343 Si02
#       7
#     2   2   2   2   2   2   2
#     4  10  22  42  70  94 137 194 231 287 364 421
#     4  10  23  43  67 101 141 185 234 296 360 423
#     4  11  27  45  68 106 146 182 244 306 354 430
#     4  10  24  45  70  98 143 188 239 295 351 422
#     4  11  23  45  72 102 146 183 241 300 353 433
#     4  11  27  45  74 104 144 194 238 293 370 422
#     4  11  24  43  71 100 141 188 235 295 363 420
#
# _framework density 25.146318000000001
#
# number of rings (size 3 to 8) (size 9 to 14) (size 15 to 20)
#    0.000    1.429    1.429    1.714   14.000    3.429 
#    7.714    0.000    0.000    0.000    0.000    0.000 
#    0.000    0.000    0.000    0.000    0.000    0.000 
#
# Total GULP energy -78009.343424 kJ/mol
# GULP energy per Si atom -5572.095959 kJ/mol
# Density = 2.508908 g / cm^3
# Si number density = 25.146318 Si / 1000 Ang^3
#
#
#
# Elastic Constant Matrix: (Units=GPa)
#
#
# Indices 1 2 3 4 5 6 
#
# 1 65.1772 18.9593 9.0665 6.5847 13.4782 -1.0391
# 2 18.9593 107.3437 69.4489 15.9777 7.6023 -2.5703
# 3 9.0665 69.4489 204.9438 46.6873 24.5369 16.5516
# 4 6.5847 15.9777 46.6873 48.0834 3.3524 1.1285
# 5 13.4782 7.6023 24.5369 3.3524 33.0627 0.7315
# 6 -1.0391 -2.5703 16.5516 1.1285 0.7315 33.6909
#
#
#
# Elastic Compliance Matrix: (Units=1/GPa)
#
#
# Indices 1 2 3 4 5 6 
#
# 1 0.017938 -0.003501 0.001946 -0.002638 -0.007675 -0.000415
# 2 -0.003501 0.012924 -0.004877 0.000710 0.001932 0.003208
# 3 0.001946 -0.004877 0.009052 -0.006942 -0.005589 -0.004405
# 4 -0.002638 0.000710 -0.006942 0.027381 0.003235 0.002396
# 5 -0.007675 0.001932 -0.005589 0.003235 0.036711 0.001751
# 6 -0.000415 0.003208 -0.004405 0.002396 0.001751 0.031960
#
#
# Mechanical properties :
#
#
# Convention : Reuss Voigt Hill
#
# Bulk Modulus (GPa) = 36.96819 63.60157 50.28488
# Shear Modulus (GPa) = 31.67663 41.63339 36.65501
#
# Velocity S-wave (km/s) = 3.55307 4.07338 3.82209
# Velocity P-wave (km/s) = 5.61832 6.88990 6.28634
#
# Compressibility (1/GPa) = 0.02705028
#
# Stress axis : x y z
#
# Youngs Moduli (GPa) = 55.74912 77.37767 110.47021
#
# Poissons Ratio (x) = 0.27090 -0.21499
# Poissons Ratio (y) = 0.19518 0.53872
# Poissons Ratio (z) = -0.10850 0.37734
#
# Static dielectric constant tensor:
#      x y z
#    x 2.114320 0.095290 -0.178820 
#    y 0.095290 2.139460 -0.019490 
#    z -0.178820 -0.019490 2.311990 
# 
# From -- ./inp_files/505532.got.cif
#   From: 2010.05.17/outbox.cif.g08.bks.cpg/sg2_253_cif.got.tgz:505532.got - 2010.06.03 11:33:40.
