data_PCOD9030763
_publ_section_title
;
Structure prediction by ZEFSAII (Michael W. Deem and Ramdas Pophale) SiO2 
 PCOD9030763
Probable space group: P -1
;
_chemical_formula_sum "Si O2"
_cell_formula_units_Z 14
_cell_length_a 8.817180
_cell_length_b 8.180959
_cell_length_c 9.731776
_cell_angle_alpha 84.174206
_cell_angle_beta 77.428748
_cell_angle_gamma 73.541549
_cell_volume 656.483593
_symmetry_space_group_name_H-M "P -1"
_symmetry_group_IT_number 2
_symmetry_cell_setting 'triclinic'
loop_
_space_group_symop_operation_xyz
x,y,z
-x,-y,-z
loop_
_atom_site_type_symbol
_atom_site_label
_atom_site_fract_x
_atom_site_fract_y
_atom_site_fract_z
Si Si1 0.896510 0.180102 0.435193
Si Si2 0.571624 0.370338 0.613798
Si Si3 0.357812 0.547048 0.130470
Si Si4 0.213858 0.952912 0.093300
Si Si5 0.639423 0.832501 0.448649
Si Si6 0.835200 0.999984 0.214002
Si Si7 0.789168 0.740481 0.727116
O O1 0.759456 0.275920 0.559063
O O2 0.025594 0.277130 0.351510
O O3 0.797865 0.152837 0.320276
O O4 0.000000 0.000000 0.500000
O O5 0.500000 0.500000 0.500000
O O6 0.552198 0.480419 0.741765
O O7 0.456556 0.248571 0.635899
O O8 0.284890 0.751442 0.120739
O O9 0.241501 0.420636 0.170356
O O10 0.500000 0.500000 0.000000
O O11 0.023165 0.978242 0.151209
O O12 0.259373 0.088146 0.179500
O O13 0.244178 0.984607 0.922671
O O14 0.790073 0.858054 0.329362
O O15 0.700851 0.758678 0.593709
O O16 0.500000 0.000000 0.500000
#
# Coordination Sequence:
#
# PCOD9030763 Si02
#       7
#     2   2   2   2   2   2   2
#     4  11  21  44  75 102 134 178 237 290 338 420
#     4  12  26  43  66 104 142 172 227 298 349 399
#     4  12  29  46  66 101 148 181 230 288 351 421
#     4  10  25  47  68 100 141 187 231 280 348 424
#     4  12  22  40  73 101 132 179 233 285 352 405
#     4  10  22  42  74 100 135 181 234 285 342 416
#     4  11  25  46  73 103 132 191 233 282 354 409
#
# _framework density 21.325742000000002
#
# number of rings (size 3 to 8) (size 9 to 14) (size 15 to 20)
#    0.000    0.857    4.286    2.571    6.000    2.286 
#    0.000    6.429    0.000    0.000    0.000    0.000 
#    0.000    0.000    0.000    0.000    0.000    0.000 
#
# Total GULP energy -77970.571421 kJ/mol
# GULP energy per Si atom -5569.326530 kJ/mol
# Density = 2.127720 g / cm^3
# Si number density = 21.325742 Si / 1000 Ang^3
#
#
#
# Elastic Constant Matrix: (Units=GPa)
#
#
# Indices 1 2 3 4 5 6 
#
# 1 66.2015 28.2023 35.7732 6.2847 -3.2246 25.9025
# 2 28.2023 77.5876 40.0289 -5.8287 -3.3885 24.7197
# 3 35.7732 40.0289 167.9313 0.3893 -4.9005 10.0580
# 4 6.2847 -5.8287 0.3893 25.7403 -0.5736 3.7512
# 5 -3.2246 -3.3885 -4.9005 -0.5736 26.7785 -6.2960
# 6 25.9025 24.7197 10.0580 3.7512 -6.2960 39.1646
#
#
#
# Elastic Compliance Matrix: (Units=1/GPa)
#
#
# Indices 1 2 3 4 5 6 
#
# 1 0.023644 -0.003194 -0.003554 -0.004654 -0.001237 -0.012462
# 2 -0.003194 0.019482 -0.003398 0.006694 -0.000767 -0.010076
# 3 -0.003554 -0.003398 0.007387 -0.000399 0.001149 0.002821
# 4 -0.004654 0.006694 -0.000399 0.042250 -0.000082 -0.005105
# 5 -0.001237 -0.000767 0.001149 -0.000082 0.039019 0.007288
# 6 -0.012462 -0.010076 0.002821 -0.005105 0.007288 0.041071
#
#
# Mechanical properties :
#
#
# Convention : Reuss Voigt Hill
#
# Bulk Modulus (GPa) = 33.08878 57.74768 45.41823
# Shear Modulus (GPa) = 24.60380 32.18442 28.39411
#
# Velocity S-wave (km/s) = 3.40032 3.88903 3.65286
# Velocity P-wave (km/s) = 5.56469 6.87777 6.25578
#
# Compressibility (1/GPa) = 0.03022172
#
# Stress axis : x y z
#
# Youngs Moduli (GPa) = 42.29363 51.32834 135.36566
#
# Poissons Ratio (x) = 0.16394 0.48114
# Poissons Ratio (y) = 0.13508 0.45996
# Poissons Ratio (z) = 0.15033 0.17441
#
# Static dielectric constant tensor:
#      x y z
#    x 1.737800 0.005830 0.010440 
#    y 0.005830 1.837970 -0.021010 
#    z 0.010440 -0.021010 1.825380 
# 
# From -- ./inp_files/154614.got.cif
#   From: 2010.05.17/outbox.cif.g08.bks.cpg/sg2_78_cif.got.tgz:154614.got - 2010.06.03 11:33:40.
