data_PCOD9030847
_publ_section_title
;
Structure prediction by ZEFSAII (Michael W. Deem and Ramdas Pophale) SiO2 
 PCOD9030847
Probable space group: P -1
;
_chemical_formula_sum "Si O2"
_cell_formula_units_Z 13
_cell_length_a 13.770489
_cell_length_b 5.165040
_cell_length_c 11.744511
_cell_angle_alpha 84.101165
_cell_angle_beta 43.109936
_cell_angle_gamma 61.541884
_cell_volume 458.222867
_symmetry_space_group_name_H-M "P -1"
_symmetry_group_IT_number 2
_symmetry_cell_setting 'triclinic'
loop_
_space_group_symop_operation_xyz
x,y,z
-x,-y,-z
loop_
_atom_site_type_symbol
_atom_site_label
_atom_site_fract_x
_atom_site_fract_y
_atom_site_fract_z
Si Si1 0.264141 0.168515 0.948815
Si Si2 0.822895 0.322852 0.169050
Si Si3 0.375964 0.025301 0.403920
Si Si4 0.299651 0.322589 0.149659
Si Si5 0.777513 0.109619 0.650027
Si Si6 0.500000 0.500000 0.500000
Si Si7 0.930637 0.271804 0.324770
O O1 0.249617 0.390241 0.057223
O O2 0.122451 0.111058 0.115097
O O3 0.187565 0.387502 0.892351
O O4 0.474162 0.928901 0.760912
O O5 0.654530 0.340406 0.276752
O O6 0.804698 0.334869 0.321217
O O7 0.000000 0.000000 0.000000
O O8 0.368736 0.815172 0.321528
O O9 0.422176 0.856023 0.493726
O O10 0.179833 0.358013 0.556507
O O11 0.285227 0.599582 0.222643
O O12 0.187481 0.200332 0.302092
O O13 0.500000 0.000000 0.000000
O O14 0.924270 0.076394 0.442535
#
# Coordination Sequence:
#
# PCOD9030847 Si02
#       7
#     2   2   2   2   2   1   2
#     4  11  27  46  76 114 147 210 254 311 399 449
#     4  11  25  45  74 113 155 195 257 319 387 459
#     4  11  24  50  71 115 149 202 255 317 387 460
#     4  12  26  49  77 114 155 203 263 319 370 464
#     4  12  25  49  78 104 158 202 250 323 380 437
#     4  10  22  42  76 106 150 200 248 312 390 460
#     4  12  26  49  77 110 158 196 256 328 378 464
#
# _framework density 28.370474999999999
#
# number of rings (size 3 to 8) (size 9 to 14) (size 15 to 20)
#    0.000    0.615    4.615    1.846    0.000    6.154 
#    5.538    0.000    0.000    0.000    0.000    0.000 
#    0.000    0.000    0.000    0.000    0.000    0.000 
#
# Total GULP energy -72598.156485 kJ/mol
# GULP energy per Si atom -5584.473576 kJ/mol
# Density = 2.830590 g / cm^3
# Si number density = 28.370475 Si / 1000 Ang^3
#
#
#
# Elastic Constant Matrix: (Units=GPa)
#
#
# Indices 1 2 3 4 5 6 
#
# 1 102.1912 34.2621 10.4986 2.6455 15.3996 18.8938
# 2 34.2621 128.8645 57.9289 -4.7123 -6.2126 0.2304
# 3 10.4986 57.9289 174.2541 -29.8839 -35.5156 -3.5493
# 4 2.6455 -4.7123 -29.8839 51.6152 -3.3733 5.0263
# 5 15.3996 -6.2126 -35.5156 -3.3733 66.0037 -1.7711
# 6 18.8938 0.2304 -3.5493 5.0263 -1.7711 56.5396
#
#
#
# Elastic Compliance Matrix: (Units=1/GPa)
#
#
# Indices 1 2 3 4 5 6 
#
# 1 0.012277 -0.003146 -0.000742 -0.001186 -0.003732 -0.004148
# 2 -0.003146 0.010047 -0.003320 -0.000938 -0.000131 0.000881
# 3 -0.000742 -0.003320 0.008754 0.005070 0.004844 0.000512
# 4 -0.001186 -0.000938 0.005070 0.022663 0.004044 -0.001170
# 5 -0.003732 -0.000131 0.004844 0.004044 0.018870 0.001783
# 6 -0.004148 0.000881 0.000512 -0.001170 0.001783 0.019261
#
#
# Mechanical properties :
#
#
# Convention : Reuss Voigt Hill
#
# Bulk Modulus (GPa) = 60.02084 67.85432 63.93758
# Shear Modulus (GPa) = 44.70558 55.00638 49.85598
#
# Velocity S-wave (km/s) = 3.97391 4.40803 4.19659
# Velocity P-wave (km/s) = 6.50062 7.06235 6.78730
#
# Compressibility (1/GPa) = 0.01666088
#
# Stress axis : x y z
#
# Youngs Moduli (GPa) = 81.45573 99.53326 114.22762
#
# Poissons Ratio (x) = 0.31316 0.08478
# Poissons Ratio (y) = 0.25628 0.37924
# Poissons Ratio (z) = 0.06046 0.33046
#
# Static dielectric constant tensor:
#      x y z
#    x 5.787430 0.422450 -1.264690 
#    y 0.422450 2.298130 -0.074800 
#    z -1.264690 -0.074800 2.670680 
# 
# From -- ./inp_files/441140.got.cif
#   From: 2010.05.17/outbox.cif.g08.bks.cpg/sg2_221_cif.got.tgz:441140.got - 2010.06.03 11:33:40.
