data_PCOD9030390
_publ_section_title
;
Structure prediction by ZEFSAII (Michael W. Deem and Ramdas Pophale) SiO2 
 PCOD9030390
Probable space group: P -1
;
_chemical_formula_sum "Si O2"
_cell_formula_units_Z 12
_cell_length_a 6.713081
_cell_length_b 10.342841
_cell_length_c 11.475539
_cell_angle_alpha 44.110109
_cell_angle_beta 87.377169
_cell_angle_gamma 70.403660
_cell_volume 498.813973
_symmetry_space_group_name_H-M "P -1"
_symmetry_group_IT_number 2
_symmetry_cell_setting 'triclinic'
loop_
_space_group_symop_operation_xyz
x,y,z
-x,-y,-z
loop_
_atom_site_type_symbol
_atom_site_label
_atom_site_fract_x
_atom_site_fract_y
_atom_site_fract_z
Si Si1 0.181935 0.728872 0.286716
Si Si2 0.992112 0.213707 0.315699
Si Si3 0.360902 0.619051 0.602873
Si Si4 0.748681 0.952247 0.060397
Si Si5 0.268839 0.765722 0.905005
Si Si6 0.412798 0.297243 0.273891
O O1 0.202475 0.697846 0.444338
O O2 0.417124 0.569474 0.329293
O O3 0.172995 0.949265 0.110953
O O4 0.958623 0.734337 0.229594
O O5 0.208670 0.244130 0.311323
O O6 0.790949 0.393068 0.278175
O O7 0.938898 0.213734 0.180986
O O8 0.000000 0.000000 0.500000
O O9 0.459408 0.765245 0.565741
O O10 0.734875 0.080814 0.094305
O O11 0.500000 0.000000 0.000000
O O12 0.430368 0.784155 0.789426
O O13 0.342962 0.541858 0.105168
#
# Coordination Sequence:
#
# PCOD9030390 Si02
#       6
#     2   2   2   2   2   2
#     4  10  23  43  63  97 137 180 224 283 329 419
#     4  11  24  40  68 103 135 180 229 291 347 405
#     4  10  22  43  67  96 137 177 232 272 350 407
#     4  11  24  42  69  98 134 178 232 282 342 401
#     4  10  22  43  66 100 132 176 234 281 346 405
#     4  10  22  42  70  97 135 178 226 288 344 410
#
# _framework density 24.057062999999999
#
# number of rings (size 3 to 8) (size 9 to 14) (size 15 to 20)
#    0.000    1.667    1.667    1.500    0.000   10.667 
#    0.000    3.333    0.000    0.000    0.000    0.000 
#    0.000    0.000    0.000    0.000    0.000    0.000 
#
# Total GULP energy -66950.397338 kJ/mol
# GULP energy per Si atom -5579.199778 kJ/mol
# Density = 2.400231 g / cm^3
# Si number density = 24.057063 Si / 1000 Ang^3
#
#
#
# Elastic Constant Matrix: (Units=GPa)
#
#
# Indices 1 2 3 4 5 6 
#
# 1 198.2846 31.5973 32.7058 4.3319 35.4084 9.9082
# 2 31.5973 101.1832 28.6721 18.6689 9.4019 -1.7040
# 3 32.7058 28.6721 98.0407 14.6070 33.8182 8.7144
# 4 4.3319 18.6689 14.6070 37.3206 3.8276 15.1903
# 5 35.4084 9.4019 33.8182 3.8276 44.4798 1.8867
# 6 9.9082 -1.7040 8.7144 15.1903 1.8867 16.7283
#
#
#
# Elastic Compliance Matrix: (Units=1/GPa)
#
#
# Indices 1 2 3 4 5 6 
#
# 1 0.006549 -0.002500 0.000330 0.003799 -0.004958 -0.007196
# 2 -0.002500 0.013868 -0.003566 -0.011589 0.002130 0.015035
# 3 0.000330 -0.003566 0.015634 -0.000324 -0.011064 -0.007161
# 4 0.003799 -0.011589 -0.000324 0.053556 -0.002748 -0.051583
# 5 -0.004958 0.002130 -0.011064 -0.002748 0.034307 0.007544
# 6 -0.007196 0.015035 -0.007161 -0.051583 0.007544 0.115293
#
#
# Mechanical properties :
#
#
# Convention : Reuss Voigt Hill
#
# Bulk Modulus (GPa) = 40.68527 64.82877 52.75702
# Shear Modulus (GPa) = 19.31464 40.00796 29.66130
#
# Velocity S-wave (km/s) = 2.83657 4.08247 3.51516
# Velocity P-wave (km/s) = 5.26088 7.01630 6.20102
#
# Compressibility (1/GPa) = 0.02457892
#
# Stress axis : x y z
#
# Youngs Moduli (GPa) = 152.69285 72.10931 63.96422
#
# Poissons Ratio (x) = 0.18028 -0.02112
# Poissons Ratio (y) = 0.38175 0.22809
# Poissons Ratio (z) = -0.05042 0.25714
#
# Static dielectric constant tensor:
#      x y z
#    x 1.975750 -0.075960 0.095160 
#    y -0.075960 2.029320 -0.085280 
#    z 0.095160 -0.085280 2.021540 
# 
# From -- ./inp_files/44096.got.cif
#   From: 2010.05.17/outbox.cif.g08.bks.cpg/sg2_23_cif.got.tgz:44096.got - 2010.06.03 11:33:40.
