data_PCOD9030089
_publ_section_title
;
Structure prediction by ZEFSAII (Michael W. Deem and Ramdas Pophale) SiO2 
 PCOD9030089
Probable space group: P -1
;
_chemical_formula_sum "Si O2"
_cell_formula_units_Z 16
_cell_length_a 7.992355
_cell_length_b 9.247409
_cell_length_c 22.391861
_cell_angle_alpha 50.809089
_cell_angle_beta 53.419702
_cell_angle_gamma 32.275700
_cell_volume 677.283926
_symmetry_space_group_name_H-M "P -1"
_symmetry_group_IT_number 2
_symmetry_cell_setting 'triclinic'
loop_
_space_group_symop_operation_xyz
x,y,z
-x,-y,-z
loop_
_atom_site_type_symbol
_atom_site_label
_atom_site_fract_x
_atom_site_fract_y
_atom_site_fract_z
Si Si1 0.182819 0.266969 0.293011
Si Si2 0.679808 0.237964 0.784475
Si Si3 0.102969 0.338671 0.432239
Si Si4 0.500538 0.734147 0.531075
Si Si5 0.579906 0.605162 0.002174
Si Si6 0.625638 0.301718 0.181648
Si Si7 0.294510 0.164172 0.940672
Si Si8 0.478084 0.697141 0.328037
O O1 0.150516 0.323760 0.355932
O O2 0.412801 0.269512 0.217290
O O3 0.827287 0.522398 0.277674
O O4 0.321230 0.969581 0.327048
O O5 0.492745 0.540969 0.770589
O O6 0.469995 0.200454 0.855466
O O7 0.728961 0.206861 0.711450
O O8 0.011577 0.001545 0.809981
O O9 0.337637 0.306542 0.430810
O O10 0.750519 0.621471 0.455750
O O11 0.187385 0.067799 0.502436
O O12 0.463351 0.537774 0.589551
O O13 0.587413 0.498226 0.092611
O O14 0.500000 0.500000 0.000000
O O15 0.929590 0.453396 0.955888
O O16 0.324504 0.940587 0.963586
O O17 0.500000 0.000000 0.000000
#
# Coordination Sequence:
#
# PCOD9030089 Si02
#       8
#     2   2   2   2   2   2   2   2
#     4  12  27  43  66  98 140 170 216 270 336 382
#     4  12  26  44  71  92 132 177 223 272 317 393
#     4  10  22  42  69  97 127 175 212 270 315 394
#     4  10  22  42  69  96 129 169 226 255 321 388
#     4  12  26  42  69 100 133 171 212 278 336 388
#     4  12  25  46  66  95 131 180 218 265 330 395
#     4  12  23  45  69  99 127 170 229 268 324 389
#     4  12  27  43  65 101 133 175 214 276 324 384
#
# _framework density 23.623768999999999
#
# number of rings (size 3 to 8) (size 9 to 14) (size 15 to 20)
#    0.000    0.500    2.500    5.250    3.500    6.000 
#    0.000    0.000    0.000    0.000    0.000    0.000 
#    0.000    0.000    0.000    0.000    0.000    0.000 
#
# Total GULP energy -89679.344390 kJ/mol
# GULP energy per Si atom -5604.959024 kJ/mol
# Density = 2.357000 g / cm^3
# Si number density = 23.623769 Si / 1000 Ang^3
#
#
#
# Elastic Constant Matrix: (Units=GPa)
#
#
# Indices 1 2 3 4 5 6 
#
# 1 43.9672 13.1201 1.6150 5.5474 -8.1962 -5.3443
# 2 13.1201 100.1466 -0.5557 6.6753 -3.6049 4.6901
# 3 1.6150 -0.5557 49.7762 0.2451 -9.9706 -5.2781
# 4 5.5474 6.6753 0.2451 19.8667 1.7013 -3.8117
# 5 -8.1962 -3.6049 -9.9706 1.7013 31.3839 -0.6883
# 6 -5.3443 4.6901 -5.2781 -3.8117 -0.6883 42.8372
#
#
#
# Elastic Compliance Matrix: (Units=1/GPa)
#
#
# Indices 1 2 3 4 5 6 
#
# 1 0.026105 -0.002886 0.000937 -0.006326 0.007198 0.003241
# 2 -0.002886 0.010684 0.000172 -0.003185 0.000662 -0.001781
# 3 0.000937 0.000172 0.021828 -0.000668 0.007298 0.002845
# 4 -0.006326 -0.003185 -0.000668 0.054429 -0.005088 0.004239
# 5 0.007198 0.000662 0.007298 -0.005088 0.036454 0.001858
# 6 0.003241 -0.001781 0.002845 0.004239 0.001858 0.024701
#
#
# Mechanical properties :
#
#
# Convention : Reuss Voigt Hill
#
# Bulk Modulus (GPa) = 18.16041 24.69431 21.42736
# Shear Modulus (GPa) = 25.49604 30.79826 28.14715
#
# Velocity S-wave (km/s) = 3.28876 3.61459 3.45552
# Velocity P-wave (km/s) = 4.70376 5.28169 5.00108
#
# Compressibility (1/GPa) = 0.05506484
#
# Stress axis : x y z
#
# Youngs Moduli (GPa) = 38.30710 93.59882 45.81208
#
# Poissons Ratio (x) = 0.27011 -0.04295
# Poissons Ratio (y) = 0.11055 -0.00789
# Poissons Ratio (z) = -0.03591 -0.01612
#
# Static dielectric constant tensor:
#      x y z
#    x 1.892210 0.029370 0.002180 
#    y 0.029370 1.852630 0.011660 
#    z 0.002180 0.011660 1.888170 
# 
# From -- ./inp_files/588057.got.cif
#   From: 2010.05.17/outbox.cif.g08.bks.cpg/sg2_295_cif.got.tgz:588057.got - 2010.06.03 11:33:40.
