data_PCOD9030563
_publ_section_title
;
Structure prediction by ZEFSAII (Michael W. Deem and Ramdas Pophale) SiO2 
 PCOD9030563
Probable space group: P -1
;
_chemical_formula_sum "Si O2"
_cell_formula_units_Z 16
_cell_length_a 12.200961
_cell_length_b 8.844486
_cell_length_c 17.235166
_cell_angle_alpha 134.614660
_cell_angle_beta 47.242093
_cell_angle_gamma 96.833245
_cell_volume 708.520308
_symmetry_space_group_name_H-M "P -1"
_symmetry_group_IT_number 2
_symmetry_cell_setting 'triclinic'
loop_
_space_group_symop_operation_xyz
x,y,z
-x,-y,-z
loop_
_atom_site_type_symbol
_atom_site_label
_atom_site_fract_x
_atom_site_fract_y
_atom_site_fract_z
Si Si1 0.235032 0.361967 0.140841
Si Si2 0.756715 0.712421 0.177932
Si Si3 0.455652 0.286524 0.307657
Si Si4 0.248090 0.797361 0.201343
Si Si5 0.504001 0.728407 0.190298
Si Si6 0.210277 0.328008 0.583482
Si Si7 0.407152 0.378209 0.636504
Si Si8 0.864390 0.434246 0.570346
O O1 0.233285 0.589434 0.179288
O O2 0.258948 0.379104 0.226632
O O3 0.011379 0.484996 0.276736
O O4 0.396295 0.037432 0.914237
O O5 0.688360 0.707622 0.121951
O O6 0.663684 0.614501 0.240681
O O7 0.619223 0.050047 0.391894
O O8 0.000000 0.500000 0.000000
O O9 0.350820 0.302910 0.441932
O O10 0.569478 0.396416 0.306369
O O11 0.281307 0.496648 0.403245
O O12 0.371199 0.837629 0.212682
O O13 0.380256 0.609967 0.993710
O O14 0.028205 0.099231 0.396356
O O15 0.319115 0.994179 0.428314
O O16 0.231182 0.448238 0.692583
O O17 0.000000 0.500000 0.500000
#
# Coordination Sequence:
#
# PCOD9030563 Si02
#       8
#     2   2   2   2   2   2   2   2
#     4  12  26  44  73 102 137 191 232 282 356 420
#     4  10  24  44  68 103 141 177 232 291 349 410
#     4  12  26  46  69 102 144 181 232 294 347 415
#     4  11  24  42  74 103 135 191 231 279 352 425
#     4  10  22  42  71  99 136 176 232 283 340 414
#     4  11  23  47  68  99 139 178 238 286 344 416
#     4  10  26  43  69 101 135 185 231 289 349 410
#     4  12  26  45  67 104 146 180 231 291 355 412
#
# _framework density 22.582274000000002
#
# number of rings (size 3 to 8) (size 9 to 14) (size 15 to 20)
#    0.000    1.000    3.750    1.125    7.000    3.500 
#    0.000    0.000    0.000    0.000    0.000    0.000 
#    0.000    0.000    0.000    0.000    0.000    0.000 
#
# Total GULP energy -89349.822628 kJ/mol
# GULP energy per Si atom -5584.363914 kJ/mol
# Density = 2.253088 g / cm^3
# Si number density = 22.582274 Si / 1000 Ang^3
#
#
#
# Elastic Constant Matrix: (Units=GPa)
#
#
# Indices 1 2 3 4 5 6 
#
# 1 122.8454 8.3470 17.4754 3.9564 -3.2871 -6.5234
# 2 8.3470 92.6307 27.3654 -0.6164 12.8360 8.2094
# 3 17.4754 27.3654 69.5762 8.3453 -2.5343 4.3492
# 4 3.9564 -0.6164 8.3453 26.1560 1.0848 3.9771
# 5 -3.2871 12.8360 -2.5343 1.0848 39.7200 3.9493
# 6 -6.5234 8.2094 4.3492 3.9771 3.9493 37.0925
#
#
#
# Elastic Compliance Matrix: (Units=1/GPa)
#
#
# Indices 1 2 3 4 5 6 
#
# 1 0.008597 -0.000448 -0.001961 -0.000996 0.000571 0.001887
# 2 -0.000448 0.013288 -0.005460 0.002642 -0.004535 -0.002180
# 3 -0.001961 -0.005460 0.017841 -0.005503 0.002986 -0.000956
# 4 -0.000996 0.002642 -0.005503 0.040936 -0.001979 -0.004293
# 5 0.000571 -0.004535 0.002986 -0.001979 0.027125 -0.001922
# 6 0.001887 -0.002180 -0.000956 -0.004293 -0.001922 0.028551
#
#
# Mechanical properties :
#
#
# Convention : Reuss Voigt Hill
#
# Bulk Modulus (GPa) = 41.68586 43.49198 42.58892
# Shear Modulus (GPa) = 31.23596 36.05133 33.64365
#
# Velocity S-wave (km/s) = 3.72318 3.99989 3.86401
# Velocity P-wave (km/s) = 6.08132 6.37442 6.22959
#
# Compressibility (1/GPa) = 0.02398895
#
# Stress axis : x y z
#
# Youngs Moduli (GPa) = 116.31600 75.25521 56.05024
#
# Poissons Ratio (x) = 0.03375 0.10990
# Poissons Ratio (y) = 0.05216 0.30601
# Poissons Ratio (z) = 0.22806 0.41087
#
# Static dielectric constant tensor:
#      x y z
#    x 1.819630 -0.032950 0.028070 
#    y -0.032950 1.955610 -0.037890 
#    z 0.028070 -0.037890 1.874820 
# 
# From -- ./inp_files/567051.got.cif
#   From: 2010.05.17/outbox.cif.g08.bks.cpg/sg2_284_cif.got.tgz:567051.got - 2010.06.03 11:33:40.
