data_PCOD9030942
_publ_section_title
;
Structure prediction by ZEFSAII (Michael W. Deem and Ramdas Pophale) SiO2 
 PCOD9030942
Probable space group: P -1
;
_chemical_formula_sum "Si O2"
_cell_formula_units_Z 15
_cell_length_a 10.671335
_cell_length_b 12.333764
_cell_length_c 10.824481
_cell_angle_alpha 72.316537
_cell_angle_beta 142.131962
_cell_angle_gamma 124.099107
_cell_volume 696.652377
_symmetry_space_group_name_H-M "P -1"
_symmetry_group_IT_number 2
_symmetry_cell_setting 'triclinic'
loop_
_space_group_symop_operation_xyz
x,y,z
-x,-y,-z
loop_
_atom_site_type_symbol
_atom_site_label
_atom_site_fract_x
_atom_site_fract_y
_atom_site_fract_z
Si Si1 0.959940 0.703347 0.302157
Si Si2 0.146855 0.231845 0.272810
Si Si3 0.895729 0.600196 0.023128
Si Si4 0.386254 0.724098 0.784003
Si Si5 0.500000 0.500000 0.000000
Si Si6 0.618212 0.324032 0.748466
Si Si7 0.945423 0.946065 0.113910
Si Si8 0.350329 0.839301 0.970075
O O1 0.032910 0.847505 0.255331
O O2 0.181280 0.707922 0.536101
O O3 0.835744 0.598558 0.122251
O O4 0.709754 0.633990 0.206685
O O5 0.162200 0.302144 0.129757
O O6 0.398864 0.316540 0.510624
O O7 0.922045 0.217421 0.175760
O O8 0.075644 0.079118 0.252983
O O9 0.752489 0.454595 0.897290
O O10 0.181192 0.660382 0.199717
O O11 0.414145 0.598042 0.838954
O O12 0.322019 0.749792 0.861057
O O13 0.653424 0.858818 0.924695
O O14 0.531410 0.193664 0.812490
O O15 0.000000 0.000000 0.000000
O O16 0.500000 0.000000 0.000000
#
# Coordination Sequence:
#
# PCOD9030942 Si02
#       8
#     2   2   2   2   1   2   2   2
#     4  11  24  40  70  95 134 174 212 275 332 386
#     4  11  23  42  69  93 131 178 213 273 328 383
#     4  10  22  43  62  98 128 161 229 272 320 394
#     4  11  25  44  67  98 133 178 213 273 336 380
#     4  10  24  44  62  96 130 166 226 264 314 398
#     4  10  24  40  67  92 126 177 217 272 327 377
#     4  11  24  41  62 103 136 166 226 268 320 402
#     4  11  24  43  61  95 137 167 223 266 313 403
#
# _framework density 21.531542000000002
#
# number of rings (size 3 to 8) (size 9 to 14) (size 15 to 20)
#    0.000    1.333    2.667    1.600    3.733    4.267 
#    0.000    2.667    0.000    0.000    0.000    0.000 
#    0.000    0.000    0.000    0.000    0.000    0.000 
#
# Total GULP energy -83650.373864 kJ/mol
# GULP energy per Si atom -5576.691591 kJ/mol
# Density = 2.148253 g / cm^3
# Si number density = 21.531542 Si / 1000 Ang^3
#
#
#
# Elastic Constant Matrix: (Units=GPa)
#
#
# Indices 1 2 3 4 5 6 
#
# 1 51.5739 -0.1476 17.3505 -1.6602 -11.1029 -2.8257
# 2 -0.1476 89.7963 5.1914 -11.5449 -2.6560 4.3592
# 3 17.3505 5.1914 131.2760 -18.7252 3.4002 2.1290
# 4 -1.6602 -11.5449 -18.7252 24.9676 -5.3449 3.6862
# 5 -11.1029 -2.6560 3.4002 -5.3449 9.2201 0.2484
# 6 -2.8257 4.3592 2.1290 3.6862 0.2484 31.4679
#
#
#
# Elastic Compliance Matrix: (Units=1/GPa)
#
#
# Indices 1 2 3 4 5 6 
#
# 1 0.030813 0.002826 -0.003963 0.009865 0.045069 0.001132
# 2 0.002826 0.012834 0.000170 0.009333 0.012521 -0.002728
# 3 -0.003963 0.000170 0.009125 0.005915 -0.004615 -0.001653
# 4 0.009865 0.009333 0.005915 0.060952 0.047945 -0.008326
# 5 0.045069 0.012521 -0.004615 0.047945 0.195956 -0.004539
# 6 0.001132 -0.002728 -0.001653 -0.008326 -0.004539 0.033381
#
#
# Mechanical properties :
#
#
# Convention : Reuss Voigt Hill
#
# Bulk Modulus (GPa) = 19.67028 35.27055 27.47042
# Shear Modulus (GPa) = 13.81443 29.81457 21.81450
#
# Velocity S-wave (km/s) = 2.53571 3.72518 3.18644
# Velocity P-wave (km/s) = 4.21052 5.90924 5.13067
#
# Compressibility (1/GPa) = 0.05083811
#
# Stress axis : x y z
#
# Youngs Moduli (GPa) = 32.45386 77.91898 109.59426
#
# Poissons Ratio (x) = -0.22021 0.43431
# Poissons Ratio (y) = -0.09172 -0.01865
# Poissons Ratio (z) = 0.12861 -0.01326
#
# Static dielectric constant tensor:
#      x y z
#    x 1.601280 -0.087910 -0.047730 
#    y -0.087910 1.767030 -0.031080 
#    z -0.047730 -0.031080 1.773180 
# 
# From -- ./inp_files/65850.got.cif
#   From: 2010.05.17/outbox.cif.g08.bks.cpg/sg2_33_cif.got.tgz:65850.got - 2010.06.03 11:33:40.
