data_PCOD9030051
_publ_section_title
;
Structure prediction by ZEFSAII (Michael W. Deem and Ramdas Pophale) SiO2 
 PCOD9030051
Probable space group: P -1
;
_chemical_formula_sum "Si O2"
_cell_formula_units_Z 16
_cell_length_a 25.033051
_cell_length_b 18.530209
_cell_length_c 8.611040
_cell_angle_alpha 31.317021
_cell_angle_beta 147.937640
_cell_angle_gamma 158.090025
_cell_volume 743.071522
_symmetry_space_group_name_H-M "P -1"
_symmetry_group_IT_number 2
_symmetry_cell_setting 'triclinic'
loop_
_space_group_symop_operation_xyz
x,y,z
-x,-y,-z
loop_
_atom_site_type_symbol
_atom_site_label
_atom_site_fract_x
_atom_site_fract_y
_atom_site_fract_z
Si Si1 0.834422 0.625802 0.100537
Si Si2 0.642108 0.665590 0.655042
Si Si3 0.369792 0.033959 0.783789
Si Si4 0.346804 0.408214 0.843337
Si Si5 0.843152 0.050558 0.821780
Si Si6 0.975300 0.363230 0.825055
Si Si7 0.163834 0.643564 0.214214
Si Si8 0.705269 0.393233 0.876366
O O1 0.797570 0.474560 0.421476
O O2 0.012254 0.796598 0.211802
O O3 0.782823 0.732869 0.797881
O O4 0.765294 0.505079 0.987383
O O5 0.500000 0.500000 0.500000
O O6 0.641979 0.826085 0.415496
O O7 0.635174 0.565374 0.977091
O O8 0.540894 0.164811 0.929819
O O9 0.280486 0.973693 0.514099
O O10 0.285790 0.838831 0.045242
O O11 0.329097 0.521842 0.485580
O O12 0.500000 0.500000 0.000000
O O13 0.218333 0.166805 0.933314
O O14 0.899995 0.155370 0.937457
O O15 0.862315 0.302241 0.787432
O O16 0.000000 0.500000 0.500000
O O17 0.148762 0.522250 0.004534
O O18 0.000000 0.500000 0.000000
#
# Coordination Sequence:
#
# PCOD9030051 Si02
#       8
#     2   2   2   2   2   2   2   2
#     4  11  23  44  69  96 140 172 226 283 335 405
#     4  11  23  42  68 101 139 176 217 280 343 399
#     4  11  23  45  69  99 140 177 225 283 338 402
#     4  11  22  40  68  97 136 172 221 273 340 401
#     4  10  22  42  69  94 132 172 223 277 336 396
#     4  11  23  45  68  94 133 180 224 277 333 399
#     4  12  25  45  71  99 137 181 229 279 337 406
#     4  11  23  43  68  97 138 173 223 279 337 393
#
# _framework density 21.532247000000002
#
# number of rings (size 3 to 8) (size 9 to 14) (size 15 to 20)
#    0.000    1.000    7.500    0.000    1.750    7.500 
#    0.000    2.500    0.000    0.000    0.000    0.000 
#    0.000    0.000    0.000    0.000    0.000    0.000 
#
# Total GULP energy -89240.023744 kJ/mol
# GULP energy per Si atom -5577.501484 kJ/mol
# Density = 2.148324 g / cm^3
# Si number density = 21.532247 Si / 1000 Ang^3
#
#
#
# Elastic Constant Matrix: (Units=GPa)
#
#
# Indices 1 2 3 4 5 6 
#
# 1 57.3474 27.0327 7.2063 -3.5643 2.8660 -4.4491
# 2 27.0327 120.3262 29.1480 2.7278 -8.9567 14.4562
# 3 7.2063 29.1480 85.4442 -2.0752 -7.0564 -5.0453
# 4 -3.5643 2.7278 -2.0752 35.7575 15.0094 -3.7766
# 5 2.8660 -8.9567 -7.0564 15.0094 36.4683 3.4111
# 6 -4.4491 14.4562 -5.0453 -3.7766 3.4111 30.9051
#
#
#
# Elastic Compliance Matrix: (Units=1/GPa)
#
#
# Indices 1 2 3 4 5 6 
#
# 1 0.021799 -0.006577 0.000476 0.006271 -0.006545 0.007781
# 2 -0.006577 0.012276 -0.003792 -0.005110 0.005702 -0.008562
# 3 0.000476 -0.003792 0.013287 0.001242 0.000709 0.004085
# 4 0.006271 -0.005110 0.001242 0.037651 -0.017946 0.010077
# 5 -0.006545 0.005702 0.000709 -0.017946 0.037781 -0.009857
# 6 0.007781 -0.008562 0.004085 0.010077 -0.009857 0.040468
#
#
# Mechanical properties :
#
#
# Convention : Reuss Voigt Hill
#
# Bulk Modulus (GPa) = 36.26276 43.32130 39.79203
# Shear Modulus (GPa) = 26.00941 33.94155 29.97548
#
# Velocity S-wave (km/s) = 3.47930 3.97459 3.73516
# Velocity P-wave (km/s) = 5.74616 6.42075 6.09280
#
# Compressibility (1/GPa) = 0.02757650
#
# Stress axis : x y z
#
# Youngs Moduli (GPa) = 45.87467 81.46152 75.26277
#
# Poissons Ratio (x) = 0.53576 -0.03585
# Poissons Ratio (y) = 0.30171 0.28538
# Poissons Ratio (z) = -0.02185 0.30888
#
# Static dielectric constant tensor:
#      x y z
#    x 1.892820 0.006320 0.039760 
#    y 0.006320 1.833650 -0.028080 
#    z 0.039760 -0.028080 1.767380 
# 
# From -- ./inp_files/357725.got.cif
#   From: 2010.05.17/outbox.cif.g08.bks.cpg/sg2_179_cif.got.tgz:357725.got - 2010.06.03 11:33:40.
