data_PCOD9030452
_publ_section_title
;
Structure prediction by ZEFSAII (Michael W. Deem and Ramdas Pophale) SiO2 
 PCOD9030452
Probable space group: P -1
;
_chemical_formula_sum "Si O2"
_cell_formula_units_Z 16
_cell_length_a 7.377591
_cell_length_b 12.348209
_cell_length_c 15.145373
_cell_angle_alpha 30.011074
_cell_angle_beta 87.406733
_cell_angle_gamma 97.868216
_cell_volume 645.173132
_symmetry_space_group_name_H-M "P -1"
_symmetry_group_IT_number 2
_symmetry_cell_setting 'triclinic'
loop_
_space_group_symop_operation_xyz
x,y,z
-x,-y,-z
loop_
_atom_site_type_symbol
_atom_site_label
_atom_site_fract_x
_atom_site_fract_y
_atom_site_fract_z
Si Si1 0.211402 0.189839 0.449192
Si Si2 0.378238 0.098799 0.784345
Si Si3 0.594970 0.194686 0.548037
Si Si4 0.631619 0.343572 0.819306
Si Si5 0.959657 0.074099 0.211147
Si Si6 0.711451 0.529657 0.174682
Si Si7 0.838027 0.593796 0.470411
Si Si8 0.556239 0.736698 0.776662
O O1 0.201073 0.444298 0.285049
O O2 0.264506 0.186736 0.349145
O O3 0.403336 0.215299 0.488238
O O4 0.064792 0.959281 0.659883
O O5 0.570478 0.209576 0.642577
O O6 0.235908 0.932388 0.829464
O O7 0.276191 0.284445 0.676632
O O8 0.369334 0.913600 0.988439
O O9 0.592359 0.946326 0.694405
O O10 0.759347 0.404625 0.347714
O O11 0.436922 0.348520 0.869617
O O12 0.677511 0.421981 0.661089
O O13 0.127111 0.279361 0.018692
O O14 0.964186 0.823739 0.360745
O O15 0.616755 0.325839 0.248082
O O16 0.000000 0.500000 0.500000
O O17 0.500000 0.500000 0.000000
#
# Coordination Sequence:
#
# PCOD9030452 Si02
#       8
#     2   2   2   2   2   2   2   2
#     4   8  15  30  46  65 100 135 162 198 252 297
#     4   9  17  33  53  74  98 135 173 198 252 310
#     4   9  15  30  48  68  95 133 172 199 240 300
#     4   9  16  31  55  74  97 136 170 202 243 312
#     4   8  18  33  50  73 102 130 167 206 267 293
#     4  10  17  32  52  72 102 136 166 213 254 287
#     4   9  18  35  56  76 102 132 166 206 253 314
#     4  10  18  28  47  75  96 136 183 206 235 300
#
# _framework density 24.799544999999998
#
# number of rings (size 3 to 8) (size 9 to 14) (size 15 to 20)
#    0.750    2.500    2.500    3.000    0.000    0.500 
#    0.000   11.875    0.000    0.750    0.000    0.875 
#    0.000    0.000    0.000    0.000    0.000    0.000 
#
# Total GULP energy -89099.699593 kJ/mol
# GULP energy per Si atom -5568.731225 kJ/mol
# Density = 2.474310 g / cm^3
# Si number density = 24.799545 Si / 1000 Ang^3
#
#
#
# Elastic Constant Matrix: (Units=GPa)
#
#
# Indices 1 2 3 4 5 6 
#
# 1 53.5679 16.5829 32.7797 8.7430 -7.5294 -6.6613
# 2 16.5829 100.2635 49.4887 8.1143 8.8942 -14.0676
# 3 32.7797 49.4887 230.2299 2.1038 -15.1228 -19.2063
# 4 8.7430 8.1143 2.1038 36.1515 -13.6367 5.4821
# 5 -7.5294 8.8942 -15.1228 -13.6367 33.9837 1.6007
# 6 -6.6613 -14.0676 -19.2063 5.4821 1.6007 29.1432
#
#
#
# Elastic Compliance Matrix: (Units=1/GPa)
#
#
# Indices 1 2 3 4 5 6 
#
# 1 0.022122 -0.001959 -0.002248 -0.004330 0.002520 0.003306
# 2 -0.001959 0.013673 -0.002623 -0.006392 -0.008031 0.006067
# 3 -0.002248 -0.002623 0.005541 0.001867 0.003341 0.001337
# 4 -0.004330 -0.006392 0.001867 0.038274 0.017421 -0.011001
# 5 0.002520 -0.008031 0.003341 0.017421 0.040875 -0.006621
# 6 0.003306 0.006067 0.001337 -0.011001 -0.006621 0.041312
#
#
# Mechanical properties :
#
#
# Convention : Reuss Voigt Hill
#
# Bulk Modulus (GPa) = 36.13075 64.64042 50.38559
# Shear Modulus (GPa) = 27.07344 38.86967 32.97155
#
# Velocity S-wave (km/s) = 3.30766 3.96328 3.65022
# Velocity P-wave (km/s) = 5.40261 6.86041 6.17468
#
# Compressibility (1/GPa) = 0.02767725
#
# Stress axis : x y z
#
# Youngs Moduli (GPa) = 45.20435 73.13469 180.46288
#
# Poissons Ratio (x) = 0.14324 0.40564
# Poissons Ratio (y) = 0.08854 0.47339
# Poissons Ratio (z) = 0.10161 0.19185
#
# Static dielectric constant tensor:
#      x y z
#    x 2.174370 0.019580 -0.052470 
#    y 0.019580 2.015780 0.017140 
#    z -0.052470 0.017140 2.025690 
# 
# From -- ./inp_files/595723.got.cif
#   From: 2010.05.17/outbox.cif.g08.bks.cpg/sg2_298_cif.got.tgz:595723.got - 2010.06.03 11:33:40.
