data_PCOD9030059
_publ_section_title
;
Structure prediction by ZEFSAII (Michael W. Deem and Ramdas Pophale) SiO2 
 PCOD9030059
Probable space group: P -1
;
_chemical_formula_sum "Si O2"
_cell_formula_units_Z 14
_cell_length_a 19.717265
_cell_length_b 14.046483
_cell_length_c 9.316867
_cell_angle_alpha 133.175405
_cell_angle_beta 144.048930
_cell_angle_gamma 27.205432
_cell_volume 686.434124
_symmetry_space_group_name_H-M "P -1"
_symmetry_group_IT_number 2
_symmetry_cell_setting 'triclinic'
loop_
_space_group_symop_operation_xyz
x,y,z
-x,-y,-z
loop_
_atom_site_type_symbol
_atom_site_label
_atom_site_fract_x
_atom_site_fract_y
_atom_site_fract_z
Si Si1 0.379843 0.735696 0.024848
Si Si2 0.023381 0.062490 0.959098
Si Si3 0.868579 0.047272 0.437855
Si Si4 0.036132 0.628886 0.403769
Si Si5 0.095972 0.558227 0.748759
Si Si6 0.603842 0.792702 0.550607
Si Si7 0.334267 0.213330 0.020680
O O1 0.502269 0.750040 0.291850
O O2 0.500000 0.500000 0.000000
O O3 0.312271 0.816219 0.827632
O O4 0.208861 0.876156 0.990020
O O5 0.860309 0.151896 0.667058
O O6 0.020152 0.218881 0.154417
O O7 0.000000 0.000000 0.000000
O O8 0.000000 0.000000 0.500000
O O9 0.970957 0.823411 0.427360
O O10 0.138416 0.561595 0.662027
O O11 0.179909 0.416651 0.338575
O O12 0.844624 0.721137 0.196240
O O13 0.000000 0.500000 0.500000
O O14 0.260104 0.391879 0.972050
O O15 0.596159 0.814461 0.730737
O O16 0.500000 0.000000 0.500000
O O17 0.500000 0.000000 0.000000
#
# Coordination Sequence:
#
# PCOD9030059 Si02
#       7
#     2   2   2   2   2   2   2
#     4  11  27  44  66  99 141 175 233 284 335 409
#     4  11  23  44  72  98 132 186 225 277 350 406
#     4  10  22  42  69  94 136 178 229 272 344 398
#     4  11  23  45  69  98 139 179 228 282 342 410
#     4  10  24  41  70  98 139 175 229 280 346 402
#     4  12  26  42  71 101 137 182 231 278 343 408
#     4  11  26  43  69 103 140 175 227 287 344 405
#
# _framework density 20.395257000000001
#
# number of rings (size 3 to 8) (size 9 to 14) (size 15 to 20)
#    0.000    1.143    1.429    3.857   14.000    0.000 
#    0.000    0.714    0.000    0.000    0.000    0.000 
#    0.000    0.000    0.000    0.000    0.000    0.000 
#
# Total GULP energy -78127.061195 kJ/mol
# GULP energy per Si atom -5580.504371 kJ/mol
# Density = 2.034884 g / cm^3
# Si number density = 20.395257 Si / 1000 Ang^3
#
#
#
# Elastic Constant Matrix: (Units=GPa)
#
#
# Indices 1 2 3 4 5 6 
#
# 1 102.0291 68.1242 64.7781 -4.1778 -25.3129 7.8256
# 2 68.1242 166.7561 60.8682 15.3473 -14.3342 11.8682
# 3 64.7781 60.8682 144.0110 5.3312 -28.6008 5.4288
# 4 -4.1778 15.3473 5.3312 31.8439 1.8929 -6.4199
# 5 -25.3129 -14.3342 -28.6008 1.8929 52.6815 -5.0200
# 6 7.8256 11.8682 5.4288 -6.4199 -5.0200 53.0011
#
#
#
# Elastic Compliance Matrix: (Units=1/GPa)
#
#
# Indices 1 2 3 4 5 6 
#
# 1 0.018142 -0.005729 -0.005131 0.005797 0.004186 0.000228
# 2 -0.005729 0.009356 -0.001285 -0.005366 -0.000888 -0.001852
# 3 -0.005131 -0.001285 0.010450 -0.001975 0.002930 0.000013
# 4 0.005797 -0.005366 -0.001975 0.036096 -0.000580 0.004865
# 5 0.004186 -0.000888 0.002930 -0.000580 0.022491 0.001341
# 6 0.000228 -0.001852 0.000013 0.004865 0.001341 0.019963
#
#
# Mechanical properties :
#
#
# Convention : Reuss Voigt Hill
#
# Bulk Modulus (GPa) = 73.22191 88.92635 81.07413
# Shear Modulus (GPa) = 34.40191 42.10701 38.25446
#
# Velocity S-wave (km/s) = 4.11147 4.54866 4.33558
# Velocity P-wave (km/s) = 7.64973 8.44294 8.05610
#
# Compressibility (1/GPa) = 0.01365711
#
# Stress axis : x y z
#
# Youngs Moduli (GPa) = 55.11963 106.88882 95.69500
#
# Poissons Ratio (x) = 0.61233 0.49103
# Poissons Ratio (y) = 0.31576 0.12301
# Poissons Ratio (z) = 0.28283 0.13740
#
# Static dielectric constant tensor:
#      x y z
#    x 1.680890 0.183450 -0.080640 
#    y 0.183450 0.980670 0.294960 
#    z -0.080640 0.294960 1.653010 
# 
# From -- ./inp_files/333750.got.cif
#   From: 2010.05.17/outbox.cif.g08.bks.cpg/sg2_167_cif.got.tgz:333750.got - 2010.06.03 11:33:40.
