data_PCOD9030009
_publ_section_title
;
Structure prediction by ZEFSAII (Michael W. Deem and Ramdas Pophale) SiO2 
 PCOD9030009
Probable space group: P -1
;
_chemical_formula_sum "Si O2"
_cell_formula_units_Z 14
_cell_length_a 7.570589
_cell_length_b 12.700128
_cell_length_c 20.037895
_cell_angle_alpha 26.585729
_cell_angle_beta 134.312399
_cell_angle_gamma 117.883565
_cell_volume 537.685218
_symmetry_space_group_name_H-M "P -1"
_symmetry_group_IT_number 2
_symmetry_cell_setting 'triclinic'
loop_
_space_group_symop_operation_xyz
x,y,z
-x,-y,-z
loop_
_atom_site_type_symbol
_atom_site_label
_atom_site_fract_x
_atom_site_fract_y
_atom_site_fract_z
Si Si1 0.795569 0.071220 0.696408
Si Si2 0.163447 0.766167 0.082907
Si Si3 0.193544 0.777958 0.738204
Si Si4 0.313611 0.910762 0.830687
Si Si5 0.638848 0.781239 0.602354
Si Si6 0.712633 0.552155 0.480796
Si Si7 0.823031 0.739223 0.133852
O O1 0.527236 0.072279 0.592224
O O2 0.756294 0.366041 0.534396
O O3 0.055761 0.931388 0.793676
O O4 0.887765 0.923644 0.874491
O O5 0.371019 0.498080 0.248180
O O6 0.053996 0.706100 0.157139
O O7 0.259252 0.984480 0.002092
O O8 0.968392 0.679386 0.749100
O O9 0.214625 0.950319 0.706455
O O10 0.500000 0.500000 0.000000
O O11 0.000000 0.000000 0.500000
O O12 0.396081 0.140571 0.737426
O O13 0.603648 0.671869 0.074544
O O14 0.500000 0.000000 0.500000
O O15 0.500000 0.500000 0.500000
O O16 0.000130 0.467558 0.644272
#
# Coordination Sequence:
#
# PCOD9030009 Si02
#       7
#     2   2   2   2   2   2   2
#     4  11  25  44  69 106 146 193 245 321 389 465
#     4  10  23  42  72 101 142 195 258 313 395 464
#     4  12  32  52  80 114 155 211 270 325 384 468
#     4  12  25  44  68 107 150 190 250 318 388 461
#     4  12  26  48  70 106 151 204 254 319 390 471
#     4  11  24  41  74 104 139 191 249 317 391 465
#     4  10  22  42  69 106 137 190 253 324 386 464
#
# _framework density 26.037538999999999
#
# number of rings (size 3 to 8) (size 9 to 14) (size 15 to 20)
#    0.000    0.857    1.429    5.571   10.000    5.143 
#    0.000    0.000    0.000    0.000    0.000    0.000 
#    0.000    0.000    0.000    0.000    0.000    0.000 
#
# Total GULP energy -77979.887043 kJ/mol
# GULP energy per Si atom -5569.991932 kJ/mol
# Density = 2.597828 g / cm^3
# Si number density = 26.037539 Si / 1000 Ang^3
#
#
#
# Elastic Constant Matrix: (Units=GPa)
#
#
# Indices 1 2 3 4 5 6 
#
# 1 56.1018 7.7292 28.1836 16.5634 16.0482 -1.8482
# 2 7.7292 174.0698 83.9287 52.1190 2.1115 -22.9461
# 3 28.1836 83.9287 108.4710 23.8917 8.5980 -14.0629
# 4 16.5634 52.1190 23.8917 80.2392 7.7220 6.4958
# 5 16.0482 2.1115 8.5980 7.7220 25.4365 11.0248
# 6 -1.8482 -22.9461 -14.0629 6.4958 11.0248 34.7636
#
#
#
# Elastic Compliance Matrix: (Units=1/GPa)
#
#
# Indices 1 2 3 4 5 6 
#
# 1 0.028139 0.005813 -0.007891 -0.006267 -0.017507 0.008864
# 2 0.005813 0.012895 -0.008658 -0.007336 -0.002879 0.007602
# 3 -0.007891 -0.008658 0.017787 0.002001 -0.001415 0.001136
# 4 -0.006267 -0.007336 0.002001 0.018421 0.001946 -0.008425
# 5 -0.017507 -0.002879 -0.001415 0.001946 0.060424 -0.022929
# 6 0.008864 0.007602 0.001136 -0.008425 -0.022929 0.043560
#
#
# Mechanical properties :
#
#
# Convention : Reuss Voigt Hill
#
# Bulk Modulus (GPa) = 26.77577 64.25841 45.51709
# Shear Modulus (GPa) = 23.23992 42.67459 32.95726
#
# Velocity S-wave (km/s) = 2.99081 4.05280 3.56161
# Velocity P-wave (km/s) = 4.71513 6.82884 5.86794
#
# Compressibility (1/GPa) = 0.03734720
#
# Stress axis : x y z
#
# Youngs Moduli (GPa) = 35.53835 77.55153 56.22026
#
# Poissons Ratio (x) = -0.45078 0.44366
# Poissons Ratio (y) = -0.20657 0.48675
# Poissons Ratio (z) = 0.28045 0.67143
#
# Static dielectric constant tensor:
#      x y z
#    x 1.495390 -0.435020 0.221680 
#    y -0.435020 1.811890 0.040620 
#    z 0.221680 0.040620 2.197520 
# 
# From -- ./inp_files/589405.got.cif
#   From: 2010.05.17/outbox.cif.g08.bks.cpg/sg2_295_cif.got.tgz:589405.got - 2010.06.03 11:33:40.
