data_PCOD9030577
_publ_section_title
;
Structure prediction by ZEFSAII (Michael W. Deem and Ramdas Pophale) SiO2 
 PCOD9030577
Probable space group: P -1
;
_chemical_formula_sum "Si O2"
_cell_formula_units_Z 15
_cell_length_a 7.915712
_cell_length_b 14.310537
_cell_length_c 12.434253
_cell_angle_alpha 41.823054
_cell_angle_beta 60.730028
_cell_angle_gamma 92.206807
_cell_volume 591.036534
_symmetry_space_group_name_H-M "P -1"
_symmetry_group_IT_number 2
_symmetry_cell_setting 'triclinic'
loop_
_space_group_symop_operation_xyz
x,y,z
-x,-y,-z
loop_
_atom_site_type_symbol
_atom_site_label
_atom_site_fract_x
_atom_site_fract_y
_atom_site_fract_z
Si Si1 0.407254 0.715146 0.929216
Si Si2 0.000000 0.000000 0.500000
Si Si3 0.306682 0.658839 0.638649
Si Si4 0.820919 0.588293 0.905209
Si Si5 0.884354 0.941708 0.900685
Si Si6 0.690928 0.387233 0.713222
Si Si7 0.262507 0.284253 0.649283
Si Si8 0.284225 0.941615 0.705958
O O1 0.214401 0.755251 0.937574
O O2 0.406699 0.609921 0.918311
O O3 0.331054 0.605262 0.158376
O O4 0.704932 0.924079 0.670190
O O5 0.144166 0.230225 0.256601
O O6 0.462035 0.664825 0.489035
O O7 0.066922 0.645645 0.711770
O O8 0.539995 0.871207 0.434292
O O9 0.203051 0.489595 0.901057
O O10 0.583704 0.832538 0.050031
O O11 0.875973 0.829513 0.099910
O O12 0.038985 0.929267 0.769097
O O13 0.067426 0.153642 0.718133
O O14 0.659078 0.517552 0.552356
O O15 0.000000 0.500000 0.500000
O O16 0.500000 0.000000 0.500000
#
# Coordination Sequence:
#
# PCOD9030577 Si02
#       8
#     2   1   2   2   2   2   2   2
#     4  12  27  42  69 103 148 191 234 299 379 435
#     4  12  26  44  64 102 150 186 228 300 380 436
#     4  10  22  42  72 100 136 186 252 298 352 426
#     4  11  24  42  67 105 141 191 238 301 369 439
#     4  10  25  45  76 102 137 190 251 303 353 431
#     4  12  28  45  68 107 148 191 238 298 376 437
#     4  10  23  47  73 101 137 189 252 302 350 431
#     4  11  22  44  73 105 140 187 248 300 355 433
#
# _framework density 25.379142999999999
#
# number of rings (size 3 to 8) (size 9 to 14) (size 15 to 20)
#    0.000    1.067    2.667    2.400    5.600    1.600 
#    0.000    0.000    0.000    0.000    0.000    0.000 
#    0.000    0.000    0.000    0.000    0.000    0.000 
#
# Total GULP energy -83552.931204 kJ/mol
# GULP energy per Si atom -5570.195414 kJ/mol
# Density = 2.532138 g / cm^3
# Si number density = 25.379143 Si / 1000 Ang^3
#
#
#
# Elastic Constant Matrix: (Units=GPa)
#
#
# Indices 1 2 3 4 5 6 
#
# 1 64.5220 23.6923 16.5890 -8.5948 -20.3871 -3.0072
# 2 23.6923 89.7765 19.0238 -2.5139 -0.8494 -6.9775
# 3 16.5890 19.0238 71.4469 4.1571 -14.1355 -5.5895
# 4 -8.5948 -2.5139 4.1571 54.2187 -12.1820 2.2447
# 5 -20.3871 -0.8494 -14.1355 -12.1820 44.7766 -6.6086
# 6 -3.0072 -6.9775 -5.5895 2.2447 -6.6086 39.7460
#
#
#
# Elastic Compliance Matrix: (Units=1/GPa)
#
#
# Indices 1 2 3 4 5 6 
#
# 1 0.022312 -0.005080 -0.001744 0.005916 0.011434 0.002118
# 2 -0.005080 0.013103 -0.002773 -0.000697 -0.002971 0.001071
# 3 -0.001744 -0.002773 0.016254 -0.000755 0.004440 0.002448
# 4 0.005916 -0.000697 -0.000755 0.021252 0.008283 0.000396
# 5 0.011434 -0.002971 0.004440 0.008283 0.031997 0.005820
# 6 0.002118 0.001071 0.002448 0.000396 0.005820 0.026798
#
#
# Mechanical properties :
#
#
# Convention : Reuss Voigt Hill
#
# Bulk Modulus (GPa) = 30.79378 38.26174 34.52776
# Shear Modulus (GPa) = 30.91499 38.84428 34.87964
#
# Velocity S-wave (km/s) = 3.49395 3.91648 3.71123
# Velocity P-wave (km/s) = 5.33261 5.96327 5.65674
#
# Compressibility (1/GPa) = 0.03247409
#
# Stress axis : x y z
#
# Youngs Moduli (GPa) = 44.81858 76.32064 61.52477
#
# Poissons Ratio (x) = 0.38772 0.10731
# Poissons Ratio (y) = 0.22769 0.17059
# Poissons Ratio (z) = 0.07818 0.21162
#
# Static dielectric constant tensor:
#      x y z
#    x 3.379640 -0.058090 -1.100650 
#    y -0.058090 2.018470 0.126680 
#    z -1.100650 0.126680 2.848900 
# 
# From -- ./inp_files/505231.got.cif
#   From: 2010.05.17/outbox.cif.g08.bks.cpg/sg2_253_cif.got.tgz:505231.got - 2010.06.03 11:33:40.
