data_PCOD9030173
_publ_section_title
;
Structure prediction by ZEFSAII (Michael W. Deem and Ramdas Pophale) SiO2 
 PCOD9030173
Probable space group: P -1
;
_chemical_formula_sum "Si O2"
_cell_formula_units_Z 16
_cell_length_a 5.392049
_cell_length_b 26.625479
_cell_length_c 8.791738
_cell_angle_alpha 145.616561
_cell_angle_beta 116.164872
_cell_angle_gamma 72.346872
_cell_volume 635.158050
_symmetry_space_group_name_H-M "P -1"
_symmetry_group_IT_number 2
_symmetry_cell_setting 'triclinic'
loop_
_space_group_symop_operation_xyz
x,y,z
-x,-y,-z
loop_
_atom_site_type_symbol
_atom_site_label
_atom_site_fract_x
_atom_site_fract_y
_atom_site_fract_z
Si Si1 0.615181 0.185121 0.706620
Si Si2 0.258317 0.028636 0.250072
Si Si3 0.949216 0.355008 0.092155
Si Si4 0.081771 0.919585 0.219422
Si Si5 0.651906 0.520722 0.337259
Si Si6 0.768448 0.300931 0.581910
Si Si7 0.490204 0.126425 0.178386
Si Si8 0.221479 0.403637 0.755047
O O1 0.782303 0.141663 0.776464
O O2 0.588394 0.153531 0.442549
O O3 0.308282 0.135971 0.549571
O O4 0.771690 0.283720 0.973953
O O5 0.244298 0.976957 0.274560
O O6 0.494363 0.978174 0.106802
O O7 0.000000 0.000000 0.000000
O O8 0.775634 0.439743 0.251184
O O9 0.261021 0.390088 0.319133
O O10 0.948393 0.320272 0.832623
O O11 0.000000 0.000000 0.500000
O O12 0.824950 0.862968 0.922365
O O13 0.814862 0.545442 0.284777
O O14 0.344937 0.479976 0.100331
O O15 0.676445 0.194772 0.288372
O O16 0.483066 0.346628 0.647858
O O17 0.956161 0.343608 0.601842
#
# Coordination Sequence:
#
# PCOD9030173 Si02
#       8
#     2   2   2   2   2   2   2   2
#     4  11  23  43  65  97 137 176 233 282 346 409
#     4  12  24  42  72  96 136 188 223 286 343 410
#     4   9  21  41  65  96 134 176 224 289 343 413
#     4  12  25  43  68  97 136 179 234 279 344 412
#     4   9  20  40  68  96 134 174 228 280 350 410
#     4  10  24  42  69 101 139 177 227 283 344 409
#     4  11  25  44  66  99 139 180 226 286 342 414
#     4  10  22  42  70 100 135 180 226 283 342 418
#
# _framework density 25.190581000000002
#
# number of rings (size 3 to 8) (size 9 to 14) (size 15 to 20)
#    0.000    1.500    2.500    1.500    3.500    6.000 
#    0.000    2.500    0.000    0.000    0.000    0.000 
#    0.000    0.000    0.000    0.000    0.000    0.000 
#
# Total GULP energy -89296.139300 kJ/mol
# GULP energy per Si atom -5581.008706 kJ/mol
# Density = 2.513325 g / cm^3
# Si number density = 25.190581 Si / 1000 Ang^3
#
#
#
# Elastic Constant Matrix: (Units=GPa)
#
#
# Indices 1 2 3 4 5 6 
#
# 1 72.8983 40.9094 18.0760 0.6450 14.7137 19.0762
# 2 40.9094 193.1086 54.5265 9.1724 24.1819 31.7792
# 3 18.0760 54.5265 67.3452 20.7264 14.8842 7.1552
# 4 0.6450 9.1724 20.7264 49.1616 9.0226 18.5141
# 5 14.7137 24.1819 14.8842 9.0226 26.4656 7.2650
# 6 19.0762 31.7792 7.1552 18.5141 7.2650 36.7324
#
#
#
# Elastic Compliance Matrix: (Units=1/GPa)
#
#
# Indices 1 2 3 4 5 6 
#
# 1 0.019299 -0.000563 -0.004112 0.007002 -0.007320 -0.010816
# 2 -0.000563 0.008647 -0.006762 0.004711 -0.003306 -0.007591
# 3 -0.004112 -0.006762 0.025068 -0.012295 -0.004224 0.010135
# 4 0.007002 0.004711 -0.012295 0.033725 -0.007036 -0.020924
# 5 -0.007320 -0.003306 -0.004224 -0.007036 0.049299 0.001281
# 6 -0.010816 -0.007591 0.010135 -0.020924 0.001281 0.047727
#
#
# Mechanical properties :
#
#
# Convention : Reuss Voigt Hill
#
# Bulk Modulus (GPa) = 33.17915 62.26401 47.72158
# Shear Modulus (GPa) = 23.07485 37.12793 30.10139
#
# Velocity S-wave (km/s) = 3.02985 3.84328 3.46055
# Velocity P-wave (km/s) = 5.04379 6.66823 5.91207
#
# Compressibility (1/GPa) = 0.03013941
#
# Stress axis : x y z
#
# Youngs Moduli (GPa) = 51.81506 115.65064 39.89122
#
# Poissons Ratio (x) = 0.06517 0.16403
# Poissons Ratio (y) = 0.02920 0.26975
# Poissons Ratio (z) = 0.21306 0.78204
#
# Static dielectric constant tensor:
#      x y z
#    x 2.413080 0.042180 0.037570 
#    y 0.042180 2.284620 -0.003810 
#    z 0.037570 -0.003810 2.059130 
# 
# From -- ./inp_files/143172.got.cif
#   From: 2010.05.17/outbox.cif.g08.bks.cpg/sg2_72_cif.got.tgz:143172.got - 2010.06.03 11:33:40.
