data_PCOD9030483
_publ_section_title
;
Structure prediction by ZEFSAII (Michael W. Deem and Ramdas Pophale) SiO2 
 PCOD9030483
Probable space group: P -1
;
_chemical_formula_sum "Si O2"
_cell_formula_units_Z 14
_cell_length_a 22.216023
_cell_length_b 18.651622
_cell_length_c 12.531558
_cell_angle_alpha 25.085471
_cell_angle_beta 154.716013
_cell_angle_gamma 162.150982
_cell_volume 638.362873
_symmetry_space_group_name_H-M "P -1"
_symmetry_group_IT_number 2
_symmetry_cell_setting 'triclinic'
loop_
_space_group_symop_operation_xyz
x,y,z
-x,-y,-z
loop_
_atom_site_type_symbol
_atom_site_label
_atom_site_fract_x
_atom_site_fract_y
_atom_site_fract_z
Si Si1 0.320472 0.372765 0.633242
Si Si2 0.131982 0.441071 0.779479
Si Si3 0.394695 0.085376 0.739909
Si Si4 0.699249 0.277034 0.545836
Si Si5 0.463025 0.299623 0.779923
Si Si6 0.048999 0.382610 0.309149
Si Si7 0.270332 0.011820 0.159481
O O1 0.490773 0.660057 0.480725
O O2 0.291576 0.218969 0.695571
O O3 0.131945 0.313850 0.454807
O O4 0.367551 0.278623 0.927548
O O5 0.216246 0.528129 0.676908
O O6 0.000000 0.500000 0.500000
O O7 0.331874 0.580478 0.987624
O O8 0.947134 0.152647 0.907190
O O9 0.404070 0.115917 0.842236
O O10 0.154780 0.862345 0.627323
O O11 0.500000 0.000000 0.000000
O O12 0.790380 0.416270 0.615218
O O13 0.449748 0.068745 0.432791
O O14 0.759565 0.141214 0.784462
O O15 0.500000 0.500000 0.500000
O O16 0.000000 0.500000 0.000000
#
# Coordination Sequence:
#
# PCOD9030483 Si02
#       7
#     2   2   2   2   2   2   2
#     4  11  25  45  69 105 139 185 242 291 357 416
#     4  10  22  42  71 104 136 186 237 293 360 417
#     4  11  26  47  69 103 151 184 231 298 363 427
#     4  10  24  46  69 103 139 183 241 292 353 435
#     4  10  24  45  72 106 143 182 243 298 354 425
#     4  12  28  45  70 105 142 193 236 290 373 428
#     4  10  23  42  76 100 135 180 244 295 353 417
#
# _framework density 21.931101000000002
#
# number of rings (size 3 to 8) (size 9 to 14) (size 15 to 20)
#    0.000    1.429    2.857    0.000   10.000    2.286 
#    0.000    1.429    0.000    0.000    0.000    0.000 
#    0.000    0.000    0.000    0.000    0.000    0.000 
#
# Total GULP energy -78063.799271 kJ/mol
# GULP energy per Si atom -5575.985662 kJ/mol
# Density = 2.188118 g / cm^3
# Si number density = 21.931101 Si / 1000 Ang^3
#
#
#
# Elastic Constant Matrix: (Units=GPa)
#
#
# Indices 1 2 3 4 5 6 
#
# 1 95.8279 40.5077 42.4385 11.8709 25.3180 -9.4335
# 2 40.5077 78.6585 23.1788 -10.5125 6.9690 5.0321
# 3 42.4385 23.1788 115.2614 -13.4001 5.9402 1.3986
# 4 11.8709 -10.5125 -13.4001 38.9056 4.9888 -7.3431
# 5 25.3180 6.9690 5.9402 4.9888 38.2446 7.0579
# 6 -9.4335 5.0321 1.3986 -7.3431 7.0579 33.5386
#
#
#
# Elastic Compliance Matrix: (Units=1/GPa)
#
#
# Indices 1 2 3 4 5 6 
#
# 1 0.023573 -0.010719 -0.007016 -0.009071 -0.013096 0.009301
# 2 -0.010719 0.018968 0.000862 0.007296 0.003483 -0.005032
# 3 -0.007016 0.000862 0.011661 0.005760 0.002258 -0.001803
# 4 -0.009071 0.007296 0.005760 0.033275 -0.001235 0.003659
# 5 -0.013096 0.003483 0.002258 -0.001235 0.036244 -0.012198
# 6 0.009301 -0.005032 -0.001803 0.003659 -0.012198 0.036631
#
#
# Mechanical properties :
#
#
# Convention : Reuss Voigt Hill
#
# Bulk Modulus (GPa) = 48.88719 55.77754 52.33237
# Shear Modulus (GPa) = 24.88589 34.37927 29.63258
#
# Velocity S-wave (km/s) = 3.37223 3.96359 3.67981
# Velocity P-wave (km/s) = 6.12391 6.81433 6.47832
#
# Compressibility (1/GPa) = 0.02045525
#
# Stress axis : x y z
#
# Youngs Moduli (GPa) = 42.42142 52.72083 85.75508
#
# Poissons Ratio (x) = 0.56513 0.60169
# Poissons Ratio (y) = 0.45472 -0.07394
# Poissons Ratio (z) = 0.29764 -0.04546
#
# Static dielectric constant tensor:
#      x y z
#    x 1.868160 0.039580 -0.013140 
#    y 0.039580 1.851780 -0.058910 
#    z -0.013140 -0.058910 1.863170 
# 
# From -- ./inp_files/472357.got.cif
#   From: 2010.05.17/outbox.cif.g08.bks.cpg/sg2_237_cif.got.tgz:472357.got - 2010.06.03 11:33:40.
