data_PCOD9030845
_publ_section_title
;
Structure prediction by ZEFSAII (Michael W. Deem and Ramdas Pophale) SiO2 
 PCOD9030845
Probable space group: P -1
;
_chemical_formula_sum "Si O2"
_cell_formula_units_Z 15
_cell_length_a 12.383073
_cell_length_b 12.689369
_cell_length_c 5.676505
_cell_angle_alpha 78.843353
_cell_angle_beta 114.514939
_cell_angle_gamma 60.566708
_cell_volume 611.504965
_symmetry_space_group_name_H-M "P -1"
_symmetry_group_IT_number 2
_symmetry_cell_setting 'triclinic'
loop_
_space_group_symop_operation_xyz
x,y,z
-x,-y,-z
loop_
_atom_site_type_symbol
_atom_site_label
_atom_site_fract_x
_atom_site_fract_y
_atom_site_fract_z
Si Si1 0.131522 0.212348 0.602802
Si Si2 0.000000 0.000000 0.000000
Si Si3 0.088367 0.715726 0.250197
Si Si4 0.119261 0.523747 0.029525
Si Si5 0.435547 0.156543 0.878713
Si Si6 0.173678 0.942356 0.763947
Si Si7 0.368091 0.664876 0.766295
Si Si8 0.455833 0.258752 0.349925
O O1 0.252330 0.237959 0.671525
O O2 0.067661 0.240736 0.797588
O O3 0.980938 0.333248 0.269738
O O4 0.189259 0.058689 0.655244
O O5 0.956092 0.149636 0.981676
O O6 0.151080 0.957057 0.016034
O O7 0.210575 0.694663 0.551610
O O8 0.172840 0.566652 0.275424
O O9 0.273825 0.392149 0.110126
O O10 0.000000 0.500000 0.000000
O O11 0.479010 0.191156 0.657657
O O12 0.480931 0.177601 0.165730
O O13 0.500000 0.000000 0.000000
O O14 0.303401 0.787937 0.847970
O O15 0.000000 0.000000 0.500000
O O16 0.440233 0.695822 0.610835
O O17 0.500000 0.500000 0.000000
#
# Coordination Sequence:
#
# PCOD9030845 Si02
#       8
#     2   1   2   2   2   2   2   2
#     4  11  24  45  79 107 149 204 268 336 395 478
#     4  10  22  42  76 106 142 194 266 326 378 476
#     4  11  26  44  74 113 148 202 266 328 408 474
#     4  12  26  47  76 109 155 206 268 331 400 486
#     4  12  28  55  78 114 157 214 272 332 406 491
#     4  11  22  47  69 111 149 196 265 323 398 482
#     4  12  28  48  76 116 168 209 259 344 420 499
#     4  12  30  50  79 117 164 213 267 334 417 489
#
# _framework density 24.529644000000001
#
# number of rings (size 3 to 8) (size 9 to 14) (size 15 to 20)
#    0.000    0.533    4.000    3.600    5.600    4.800 
#    0.000    0.000    0.000    0.000    0.000    0.000 
#    0.000    0.000    0.000    0.000    0.000    0.000 
#
# Total GULP energy -83507.569878 kJ/mol
# GULP energy per Si atom -5567.171325 kJ/mol
# Density = 2.447381 g / cm^3
# Si number density = 24.529644 Si / 1000 Ang^3
#
#
#
# Elastic Constant Matrix: (Units=GPa)
#
#
# Indices 1 2 3 4 5 6 
#
# 1 156.9807 25.7082 27.7321 -2.1145 -30.6051 3.6970
# 2 25.7082 163.8707 31.4244 -8.2764 -26.4720 -1.9235
# 3 27.7321 31.4244 76.2389 -8.7987 -21.2933 5.8315
# 4 -2.1145 -8.2764 -8.7987 35.8736 8.2188 8.2984
# 5 -30.6051 -26.4720 -21.2933 8.2188 37.4282 -4.6353
# 6 3.6970 -1.9235 5.8315 8.2984 -4.6353 44.1817
#
#
#
# Elastic Compliance Matrix: (Units=1/GPa)
#
#
# Indices 1 2 3 4 5 6 
#
# 1 0.007731 -0.000075 -0.001329 -0.001317 0.005849 0.000386
# 2 -0.000075 0.007137 -0.001856 0.000034 0.004044 0.000980
# 3 -0.001329 -0.001856 0.016548 0.002592 0.006199 -0.001990
# 4 -0.001317 0.000034 0.002592 0.031753 -0.007415 -0.006972
# 5 0.005849 0.004044 0.006199 -0.007415 0.040069 0.004465
# 6 0.000386 0.000980 -0.001990 -0.006972 0.004465 0.024685
#
#
# Mechanical properties :
#
#
# Convention : Reuss Voigt Hill
#
# Bulk Modulus (GPa) = 40.16772 62.97997 51.57384
# Shear Modulus (GPa) = 35.02855 44.31175 39.67015
#
# Velocity S-wave (km/s) = 3.78300 4.25485 4.02585
# Velocity P-wave (km/s) = 5.95753 7.06181 6.53304
#
# Compressibility (1/GPa) = 0.02489561
#
# Stress axis : x y z
#
# Youngs Moduli (GPa) = 129.35185 140.12383 60.43085
#
# Poissons Ratio (x) = 0.01051 0.08031
# Poissons Ratio (y) = 0.00970 0.11215
# Poissons Ratio (z) = 0.17191 0.26004
#
# Static dielectric constant tensor:
#      x y z
#    x 2.109630 -0.054200 -0.374160 
#    y -0.054200 1.947500 0.059200 
#    z -0.374160 0.059200 3.050450 
# 
# From -- ./inp_files/70027.got.cif
#   From: 2010.05.17/outbox.cif.g08.bks.cpg/sg2_36_cif.got.tgz:70027.got - 2010.06.03 11:33:40.
