data_PCOD9030415
_publ_section_title
;
Structure prediction by ZEFSAII (Michael W. Deem and Ramdas Pophale) SiO2 
 PCOD9030415
Probable space group: P -1
;
_chemical_formula_sum "Si O2"
_cell_formula_units_Z 16
_cell_length_a 9.663854
_cell_length_b 22.242865
_cell_length_c 5.011352
_cell_angle_alpha 121.341713
_cell_angle_beta 63.427986
_cell_angle_gamma 135.644486
_cell_volume 638.039325
_symmetry_space_group_name_H-M "P -1"
_symmetry_group_IT_number 2
_symmetry_cell_setting 'triclinic'
loop_
_space_group_symop_operation_xyz
x,y,z
-x,-y,-z
loop_
_atom_site_type_symbol
_atom_site_label
_atom_site_fract_x
_atom_site_fract_y
_atom_site_fract_z
Si Si1 0.309101 0.127023 0.531130
Si Si2 0.331625 0.380645 0.622093
Si Si3 0.453981 0.689210 0.933946
Si Si4 0.183991 0.630893 0.512133
Si Si5 0.697107 0.093941 0.419521
Si Si6 0.683998 0.180420 0.115212
Si Si7 0.220674 0.429351 0.321607
Si Si8 0.945382 0.049979 0.344560
O O1 0.459057 0.144602 0.215428
O O2 0.130830 0.119306 0.535359
O O3 0.226461 0.031899 0.510853
O O4 0.431691 0.209221 0.821466
O O5 0.374429 0.315664 0.318826
O O6 0.217250 0.395510 0.539993
O O7 0.560322 0.473243 0.665368
O O8 0.223892 0.366047 0.959840
O O9 0.304762 0.657815 0.743991
O O10 0.309564 0.626797 0.165149
O O11 0.195352 0.718650 0.645385
O O12 0.944671 0.557700 0.559229
O O13 0.685232 0.117662 0.183667
O O14 0.873569 0.090482 0.311087
O O15 0.500000 0.000000 0.500000
O O16 0.743035 0.172312 0.755425
O O17 0.000000 0.000000 0.000000
#
# Coordination Sequence:
#
# PCOD9030415 Si02
#       8
#     2   2   2   2   2   2   2   2
#     4  10  24  42  61  88 129 164 213 269 331 376
#     4  10  22  42  70  98 138 177 215 267 327 391
#     4  11  24  42  67  96 130 178 218 272 330 390
#     4  11  24  42  66  96 135 172 217 276 326 386
#     4  12  24  40  66  88 117 163 216 262 317 386
#     4  11  24  43  62  89 123 165 210 265 322 376
#     4  10  22  43  67 100 138 176 215 269 326 386
#     4  11  25  41  64  88 124 168 212 274 321 389
#
# _framework density 25.076824999999999
#
# number of rings (size 3 to 8) (size 9 to 14) (size 15 to 20)
#    0.000    1.250    1.250    4.125    7.000    2.000 
#    2.250    0.000    0.000    0.000    0.000    0.000 
#    0.000    0.000    0.000    0.000    0.000    0.000 
#
# Total GULP energy -89578.663304 kJ/mol
# GULP energy per Si atom -5598.666457 kJ/mol
# Density = 2.501975 g / cm^3
# Si number density = 25.076825 Si / 1000 Ang^3
#
#
#
# Elastic Constant Matrix: (Units=GPa)
#
#
# Indices 1 2 3 4 5 6 
#
# 1 137.7378 16.0975 30.2367 6.7926 15.3045 13.9724
# 2 16.0975 23.4211 9.1916 -0.2385 14.5087 10.3321
# 3 30.2367 9.1916 111.8977 -7.3389 1.0642 0.3705
# 4 6.7926 -0.2385 -7.3389 26.7456 -7.9557 -0.5234
# 5 15.3045 14.5087 1.0642 -7.9557 44.3279 -2.6837
# 6 13.9724 10.3321 0.3705 -0.5234 -2.6837 28.4175
#
#
#
# Elastic Compliance Matrix: (Units=1/GPa)
#
#
# Indices 1 2 3 4 5 6 
#
# 1 0.009021 -0.000882 -0.002591 -0.004227 -0.003796 -0.004517
# 2 -0.000882 0.076368 -0.006309 -0.009778 -0.028116 -0.030086
# 3 -0.002591 -0.006309 0.010412 0.004659 0.003780 0.003875
# 4 -0.004227 -0.009778 0.004659 0.043621 0.012836 0.007589
# 5 -0.003796 -0.028116 0.003780 0.012836 0.036236 0.015698
# 6 -0.004517 -0.030086 0.003875 0.007589 0.015698 0.049921
#
#
# Mechanical properties :
#
#
# Convention : Reuss Voigt Hill
#
# Bulk Modulus (GPa) = 13.11710 42.67869 27.89790
# Shear Modulus (GPa) = 18.48052 34.40026 26.44039
#
# Velocity S-wave (km/s) = 2.71764 3.70779 3.25064
# Velocity P-wave (km/s) = 3.88453 5.94865 5.02374
#
# Compressibility (1/GPa) = 0.07623635
#
# Stress axis : x y z
#
# Youngs Moduli (GPa) = 110.85830 13.09440 96.04329
#
# Poissons Ratio (x) = 0.01155 0.24887
# Poissons Ratio (y) = 0.09777 0.60595
# Poissons Ratio (z) = 0.28726 0.08261
#
# Static dielectric constant tensor:
#      x y z
#    x 1.983470 0.047760 -0.041080 
#    y 0.047760 2.199300 0.007670 
#    z -0.041080 0.007670 1.966310 
# 
# From -- ./inp_files/55687.got.cif
#   From: 2010.05.17/outbox.cif.g08.bks.cpg/sg2_28_cif.got.tgz:55687.got - 2010.06.03 11:33:40.
