data_PCOD9030189
_publ_section_title
;
Structure prediction by ZEFSAII (Michael W. Deem and Ramdas Pophale) SiO2 
 PCOD9030189
Probable space group: P -1
;
_chemical_formula_sum "Si O2"
_cell_formula_units_Z 14
_cell_length_a 13.267873
_cell_length_b 5.162070
_cell_length_c 19.805974
_cell_angle_alpha 107.059096
_cell_angle_beta 29.432350
_cell_angle_gamma 99.522129
_cell_volume 625.430960
_symmetry_space_group_name_H-M "P -1"
_symmetry_group_IT_number 2
_symmetry_cell_setting 'triclinic'
loop_
_space_group_symop_operation_xyz
x,y,z
-x,-y,-z
loop_
_atom_site_type_symbol
_atom_site_label
_atom_site_fract_x
_atom_site_fract_y
_atom_site_fract_z
Si Si1 0.005532 0.301531 0.546076
Si Si2 0.722048 0.014858 0.961646
Si Si3 0.349833 0.386988 0.131921
Si Si4 0.509756 0.782319 0.417001
Si Si5 0.404427 0.219206 0.401770
Si Si6 0.784054 0.907835 0.067879
Si Si7 0.004577 0.301329 0.898481
O O1 0.807495 0.395345 0.717238
O O2 0.000000 0.500000 0.500000
O O3 0.211851 0.295229 0.469599
O O4 0.000000 0.000000 0.500000
O O5 0.778946 0.791991 0.852702
O O6 0.694782 0.888443 0.041728
O O7 0.899768 0.195772 0.884476
O O8 0.504428 0.196875 0.078738
O O9 0.500000 0.500000 0.000000
O O10 0.429332 0.495426 0.449218
O O11 0.755645 0.692565 0.249841
O O12 0.500000 0.000000 0.500000
O O13 0.389594 0.965637 0.440598
O O14 0.610063 0.099268 0.228188
O O15 0.028954 0.931001 0.046188
O O16 0.865018 0.596285 0.020368
#
# Coordination Sequence:
#
# PCOD9030189 Si02
#       7
#     2   2   2   2   2   2   2
#     4  12  30  49  78 109 156 195 246 305 382 439
#     4   9  23  39  70 103 143 175 248 302 353 433
#     4  11  24  43  74 104 143 194 251 300 376 428
#     4  12  28  47  71 102 148 188 250 292 367 427
#     4  12  27  47  74 105 144 195 233 307 363 447
#     4  10  22  42  70 100 141 173 244 286 371 416
#     4  10  23  41  71  97 136 181 224 304 343 425
#
# _framework density 22.384564000000001
#
# number of rings (size 3 to 8) (size 9 to 14) (size 15 to 20)
#    0.857    0.286    0.000    4.714   10.000    5.714 
#    0.000    0.000    0.000    0.000    0.000    0.000 
#    0.000    0.000    0.000    0.000    0.000    0.000 
#
# Total GULP energy -78302.490508 kJ/mol
# GULP energy per Si atom -5593.035036 kJ/mol
# Density = 2.233362 g / cm^3
# Si number density = 22.384564 Si / 1000 Ang^3
#
#
#
# Elastic Constant Matrix: (Units=GPa)
#
#
# Indices 1 2 3 4 5 6 
#
# 1 116.3620 28.9457 28.0417 18.3351 2.8876 6.2128
# 2 28.9457 111.0919 33.8339 26.4461 2.1556 7.6034
# 3 28.0417 33.8339 128.2653 25.6572 12.5628 1.5723
# 4 18.3351 26.4461 25.6572 32.7165 8.8129 3.8835
# 5 2.8876 2.1556 12.5628 8.8129 25.9262 6.4240
# 6 6.2128 7.6034 1.5723 3.8835 6.4240 43.0925
#
#
#
# Elastic Compliance Matrix: (Units=1/GPa)
#
#
# Indices 1 2 3 4 5 6 
#
# 1 0.009802 -0.001266 -0.001155 -0.003741 0.001086 -0.000972
# 2 -0.001266 0.011806 -0.001452 -0.008341 0.003084 -0.001556
# 3 -0.001155 -0.001452 0.009737 -0.005132 -0.002965 0.000972
# 4 -0.003741 -0.008341 -0.005132 0.046751 -0.012248 -0.000189
# 5 0.001086 0.003084 -0.002965 -0.012248 0.045342 -0.006248
# 6 -0.000972 -0.001556 0.000972 -0.000189 -0.006248 0.024534
#
#
# Mechanical properties :
#
#
# Convention : Reuss Voigt Hill
#
# Bulk Modulus (GPa) = 42.37570 59.70687 51.04128
# Shear Modulus (GPa) = 30.56563 38.00690 34.28627
#
# Velocity S-wave (km/s) = 3.69925 4.12504 3.91793
# Velocity P-wave (km/s) = 6.10064 7.02987 6.58167
#
# Compressibility (1/GPa) = 0.02359843
#
# Stress axis : x y z
#
# Youngs Moduli (GPa) = 102.02439 84.70349 102.70288
#
# Poissons Ratio (x) = 0.10724 0.11862
# Poissons Ratio (y) = 0.12917 0.14911
# Poissons Ratio (z) = 0.11784 0.12298
#
# Static dielectric constant tensor:
#      x y z
#    x 1.904100 0.014230 0.057110 
#    y 0.014230 1.829130 -0.028950 
#    z 0.057110 -0.028950 1.902430 
# 
# From -- ./inp_files/564227.got.cif
#   From: 2010.05.17/outbox.cif.g08.bks.cpg/sg2_283_cif.got.tgz:564227.got - 2010.06.03 11:33:40.
