data_PCOD9030428
_publ_section_title
;
Structure prediction by ZEFSAII (Michael W. Deem and Ramdas Pophale) SiO2 
 PCOD9030428
Probable space group: P -1
;
_chemical_formula_sum "Si O2"
_cell_formula_units_Z 14
_cell_length_a 6.130284
_cell_length_b 4.958849
_cell_length_c 24.173698
_cell_angle_alpha 98.571804
_cell_angle_beta 55.335768
_cell_angle_gamma 94.748794
_cell_volume 597.668492
_symmetry_space_group_name_H-M "P -1"
_symmetry_group_IT_number 2
_symmetry_cell_setting 'triclinic'
loop_
_space_group_symop_operation_xyz
x,y,z
-x,-y,-z
loop_
_atom_site_type_symbol
_atom_site_label
_atom_site_fract_x
_atom_site_fract_y
_atom_site_fract_z
Si Si1 0.928423 0.583189 0.450263
Si Si2 0.039672 0.391129 0.799344
Si Si3 0.325212 0.091665 0.150413
Si Si4 0.579032 0.167815 0.423180
Si Si5 0.654949 0.716240 0.021573
Si Si6 0.805263 0.417420 0.105078
Si Si7 0.514776 0.623051 0.355864
O O1 0.811854 0.325847 0.426192
O O2 0.687102 0.794994 0.500340
O O3 0.000000 0.500000 0.500000
O O4 0.206371 0.681547 0.388342
O O5 0.831615 0.155960 0.807252
O O6 0.888504 0.677181 0.824109
O O7 0.114666 0.373535 0.852398
O O8 0.295953 0.381378 0.724000
O O9 0.713047 0.575309 0.068288
O O10 0.563661 0.229462 0.153916
O O11 0.472946 0.973615 0.070789
O O12 0.534347 0.341129 0.378370
O O13 0.614299 0.859081 0.390182
O O14 0.939473 0.762355 0.954147
O O15 0.500000 0.500000 0.000000
#
# Coordination Sequence:
#
# PCOD9030428 Si02
#       7
#     2   2   2   2   2   2   2
#     4   9  21  41  70 103 131 172 222 281 323 385
#     4  12  28  44  68  96 143 180 227 269 335 409
#     4  12  25  48  65 100 133 176 221 283 332 408
#     4  10  22  42  70  99 134 171 224 276 331 375
#     4  11  23  47  73 101 131 168 228 290 344 394
#     4  11  25  44  73 101 128 178 223 285 343 401
#     4  11  24  43  64  98 136 182 218 269 327 400
#
# _framework density 23.424358999999999
#
# number of rings (size 3 to 8) (size 9 to 14) (size 15 to 20)
#    0.000    1.143    2.857    1.714    2.000   12.000 
#    0.000    0.000    0.000    0.000    0.000    0.000 
#    0.000    0.000    0.000    0.000    0.000    0.000 
#
# Total GULP energy -78424.864086 kJ/mol
# GULP energy per Si atom -5601.776006 kJ/mol
# Density = 2.337104 g / cm^3
# Si number density = 23.424359 Si / 1000 Ang^3
#
#
#
# Elastic Constant Matrix: (Units=GPa)
#
#
# Indices 1 2 3 4 5 6 
#
# 1 94.0410 11.0340 58.5560 5.2123 -19.0268 15.5706
# 2 11.0340 82.0291 30.4494 4.6754 -14.5157 -1.2903
# 3 58.5560 30.4494 139.0615 -9.3467 -37.5020 7.7577
# 4 5.2123 4.6754 -9.3467 32.0838 6.3082 -5.7692
# 5 -19.0268 -14.5157 -37.5020 6.3082 30.4687 -7.0152
# 6 15.5706 -1.2903 7.7577 -5.7692 -7.0152 34.4502
#
#
#
# Elastic Compliance Matrix: (Units=1/GPa)
#
#
# Indices 1 2 3 4 5 6 
#
# 1 0.016556 0.000916 -0.006557 -0.006405 0.002528 -0.006530
# 2 0.000916 0.014131 -0.002314 -0.003760 0.005494 0.001125
# 3 -0.006557 -0.002314 0.013645 0.003614 0.011482 0.002747
# 4 -0.006405 -0.003760 0.003614 0.036437 -0.007381 0.006539
# 5 0.002528 0.005494 0.011482 -0.007381 0.054119 0.006262
# 6 -0.006530 0.001125 0.002747 0.006539 0.006262 0.033772
#
#
# Mechanical properties :
#
#
# Convention : Reuss Voigt Hill
#
# Bulk Modulus (GPa) = 35.18228 57.24559 46.21393
# Shear Modulus (GPa) = 25.76758 33.74002 29.75380
#
# Velocity S-wave (km/s) = 3.32027 3.79935 3.56786
# Velocity P-wave (km/s) = 5.45446 6.61350 6.06174
#
# Compressibility (1/GPa) = 0.02842340
#
# Stress axis : x y z
#
# Youngs Moduli (GPa) = 60.39964 70.76828 73.28867
#
# Poissons Ratio (x) = -0.06486 0.48053
# Poissons Ratio (y) = -0.05535 0.16958
# Poissons Ratio (z) = 0.39602 0.16375
#
# Static dielectric constant tensor:
#      x y z
#    x 1.914060 -0.033140 -0.004350 
#    y -0.033140 1.891200 -0.019630 
#    z -0.004350 -0.019630 1.848690 
# 
# From -- ./inp_files/602970.got.cif
#   From: 2010.05.17/outbox.cif.g08.bks.cpg/sg2_302_cif.got.tgz:602970.got - 2010.06.03 11:33:40.
