data_PCOD9030710
_publ_section_title
;
Structure prediction by ZEFSAII (Michael W. Deem and Ramdas Pophale) SiO2 
 PCOD9030710
Probable space group: P -1
;
_chemical_formula_sum "Si O2"
_cell_formula_units_Z 12
_cell_length_a 8.828862
_cell_length_b 11.405194
_cell_length_c 9.578603
_cell_angle_alpha 129.734638
_cell_angle_beta 45.718549
_cell_angle_gamma 122.351436
_cell_volume 524.061220
_symmetry_space_group_name_H-M "P -1"
_symmetry_group_IT_number 2
_symmetry_cell_setting 'triclinic'
loop_
_space_group_symop_operation_xyz
x,y,z
-x,-y,-z
loop_
_atom_site_type_symbol
_atom_site_label
_atom_site_fract_x
_atom_site_fract_y
_atom_site_fract_z
Si Si1 0.578114 0.267274 0.029183
Si Si2 0.990308 0.245197 0.924113
Si Si3 0.545563 0.880219 0.264060
Si Si4 0.093846 0.653567 0.641100
Si Si5 0.563802 0.621945 0.273773
Si Si6 0.871956 0.904192 0.836918
O O1 0.773600 0.273488 0.011963
O O2 0.622388 0.166467 0.788186
O O3 0.551615 0.439223 0.131040
O O4 0.342924 0.184533 0.169986
O O5 0.208106 0.311149 0.752949
O O6 0.971478 0.061960 0.820459
O O7 0.003565 0.329157 0.130423
O O8 0.566918 0.720661 0.204918
O O9 0.500000 0.000000 0.500000
O O10 0.759968 0.940866 0.083962
O O11 0.345665 0.657375 0.508906
O O12 0.000000 0.500000 0.500000
O O13 0.033069 0.787955 0.682629
#
# Coordination Sequence:
#
# PCOD9030710 Si02
#       6
#     2   2   2   2   2   2
#     4  10  24  46  69  99 142 181 218 283 348 393
#     4  12  25  45  70  99 146 172 225 289 336 402
#     4  10  22  42  73 101 130 177 237 271 328 411
#     4  12  25  44  72 101 133 185 229 276 337 405
#     4  12  25  44  72 101 135 182 228 276 341 407
#     4  10  23  46  70  96 137 184 221 280 339 401
#
# _framework density 22.898088999999999
#
# number of rings (size 3 to 8) (size 9 to 14) (size 15 to 20)
#    1.000    0.000    3.333    3.000    4.667    0.667 
#    0.000    0.833    0.000    0.000    0.000    0.000 
#    0.000    0.000    0.000    0.000    0.000    0.000 
#
# Total GULP energy -67034.283805 kJ/mol
# GULP energy per Si atom -5586.190317 kJ/mol
# Density = 2.284597 g / cm^3
# Si number density = 22.898089 Si / 1000 Ang^3
#
#
#
# Elastic Constant Matrix: (Units=GPa)
#
#
# Indices 1 2 3 4 5 6 
#
# 1 107.1126 5.1734 49.5035 13.5147 -14.7057 16.4533
# 2 5.1734 93.6887 50.7763 20.2785 -4.2872 27.8188
# 3 49.5035 50.7763 110.2453 12.3056 -21.7881 9.4068
# 4 13.5147 20.2785 12.3056 35.8803 3.4378 -9.7100
# 5 -14.7057 -4.2872 -21.7881 3.4378 30.4098 -4.9379
# 6 16.4533 27.8188 9.4068 -9.7100 -4.9379 33.3409
#
#
#
# Elastic Compliance Matrix: (Units=1/GPa)
#
#
# Indices 1 2 3 4 5 6 
#
# 1 0.023654 0.022206 -0.014899 -0.025469 0.001381 -0.033210
# 2 0.022206 0.048337 -0.023212 -0.043020 -0.003600 -0.057803
# 3 -0.014899 -0.023212 0.024192 0.016613 0.009215 0.026097
# 4 -0.025469 -0.043020 0.016613 0.074001 -0.004341 0.064685
# 5 0.001381 -0.003600 0.009215 -0.004341 0.040870 0.004511
# 6 -0.033210 -0.057803 0.026097 0.064685 0.004511 0.106755
#
#
# Mechanical properties :
#
#
# Convention : Reuss Voigt Hill
#
# Bulk Modulus (GPa) = 15.53461 57.99479 36.76470
# Shear Modulus (GPa) = 13.47434 33.63242 23.55338
#
# Velocity S-wave (km/s) = 2.42843 3.83663 3.21069
# Velocity P-wave (km/s) = 3.82910 6.70885 5.46217
#
# Compressibility (1/GPa) = 0.06437239
#
# Stress axis : x y z
#
# Youngs Moduli (GPa) = 42.27669 20.68789 41.33672
#
# Poissons Ratio (x) = -0.45939 0.61588
# Poissons Ratio (y) = -0.93878 0.95949
# Poissons Ratio (z) = 0.62989 0.48020
#
# Static dielectric constant tensor:
#      x y z
#    x 1.902630 0.052050 -0.003610 
#    y 0.052050 1.867860 -0.030660 
#    z -0.003610 -0.030660 1.857440 
# 
# From -- ./inp_files/385945.got.cif
#   From: 2010.05.17/outbox.cif.g08.bks.cpg/sg2_193_cif.got.tgz:385945.got - 2010.06.03 11:33:40.
