data_PCOD9030893
_publ_section_title
;
Structure prediction by ZEFSAII (Michael W. Deem and Ramdas Pophale) SiO2 
 PCOD9030893
Probable space group: P -1
;
_chemical_formula_sum "Si O2"
_cell_formula_units_Z 16
_cell_length_a 11.294174
_cell_length_b 18.795533
_cell_length_c 18.298872
_cell_angle_alpha 20.439146
_cell_angle_beta 148.192609
_cell_angle_gamma 148.903309
_cell_volume 675.949084
_symmetry_space_group_name_H-M "P -1"
_symmetry_group_IT_number 2
_symmetry_cell_setting 'triclinic'
loop_
_space_group_symop_operation_xyz
x,y,z
-x,-y,-z
loop_
_atom_site_type_symbol
_atom_site_label
_atom_site_fract_x
_atom_site_fract_y
_atom_site_fract_z
Si Si1 0.662765 0.825306 0.824375
Si Si2 0.164932 0.908418 0.470575
Si Si3 0.363224 0.965865 0.763716
Si Si4 0.790538 0.504005 0.583740
Si Si5 0.060736 0.249655 0.351356
Si Si6 0.647271 0.325579 0.831271
Si Si7 0.195112 0.862922 0.271463
Si Si8 0.850297 0.572765 0.265632
O O1 0.404951 0.849146 0.662830
O O2 0.776504 0.878935 0.752748
O O3 0.814419 0.010579 0.781308
O O4 0.674779 0.613570 0.074151
O O5 0.981834 0.712057 0.520196
O O6 0.060591 0.917790 0.486070
O O7 0.137226 0.790600 0.775569
O O8 0.286917 0.180177 0.515413
O O9 0.595223 0.001326 0.802091
O O10 0.396677 0.885712 0.939500
O O11 0.707526 0.327136 0.775334
O O12 0.575646 0.585764 0.368745
O O13 0.915874 0.427057 0.656997
O O14 0.141011 0.484749 0.201953
O O15 0.256504 0.652872 0.533368
O O16 0.948910 0.758185 0.199763
#
# Coordination Sequence:
#
# PCOD9030893 Si02
#       8
#     2   2   2   2   2   2   2   2
#     4  11  23  42  67  93 128 174 209 264 324 370
#     4  10  22  43  64  93 134 162 218 266 307 386
#     4  11  23  40  70  92 128 173 209 259 324 379
#     4  10  22  44  63  98 131 163 217 262 311 386
#     4  10  22  43  61 100 126 163 219 264 307 386
#     4  10  23  42  66  93 132 168 207 267 320 370
#     4  11  24  44  62 101 129 161 219 262 314 386
#     4  11  25  42  67  95 129 171 209 269 317 377
#
# _framework density 23.670423
#
# number of rings (size 3 to 8) (size 9 to 14) (size 15 to 20)
#    0.000    1.500    2.500    1.500    3.500    3.500 
#    9.000    2.500    0.000    0.000    0.000    0.000 
#    0.000    0.000    0.000    0.000    0.000    0.000 
#
# Total GULP energy -89511.851869 kJ/mol
# GULP energy per Si atom -5594.490742 kJ/mol
# Density = 2.361655 g / cm^3
# Si number density = 23.670423 Si / 1000 Ang^3
#
#
#
# Elastic Constant Matrix: (Units=GPa)
#
#
# Indices 1 2 3 4 5 6 
#
# 1 84.0090 4.4283 14.3251 0.9509 -16.4881 15.1119
# 2 4.4283 43.8224 34.8223 9.1501 -5.0758 -22.5288
# 3 14.3251 34.8223 113.3524 21.2854 -38.9856 25.5425
# 4 0.9509 9.1501 21.2854 23.0005 -1.4476 0.7939
# 5 -16.4881 -5.0758 -38.9856 -1.4476 31.8528 -0.6484
# 6 15.1119 -22.5288 25.5425 0.7939 -0.6484 15.1510
#
#
#
# Elastic Compliance Matrix: (Units=1/GPa)
#
#
# Indices 1 2 3 4 5 6 
#
# 1 0.011189 0.006713 -0.005243 0.001498 0.000667 0.007611
# 2 0.006713 0.000780 0.014488 -0.011740 0.020218 -0.028481
# 3 -0.005243 0.014488 0.001001 -0.007290 0.001008 0.025511
# 4 0.001498 -0.011740 -0.007290 0.054686 -0.007733 -0.009857
# 5 0.000667 0.020218 0.001008 -0.007733 0.036447 0.029664
# 6 0.007611 -0.028481 0.025511 -0.009857 0.029664 -0.025160
#
#
# Mechanical properties :
#
#
# Convention : Reuss Voigt Hill
#
# Bulk Modulus (GPa) = 22.27922 38.70391 30.49156
# Shear Modulus (GPa) = 80.66113 26.50808 53.58460
#
# Velocity S-wave (km/s) = 5.84386 3.35009 4.76308
# Velocity P-wave (km/s) = 7.41397 5.59918 6.56955
#
# Compressibility (1/GPa) = 0.04488487
#
# Stress axis : x y z
#
# Youngs Moduli (GPa) = 89.37673 1282.75153 999.15800
#
# Poissons Ratio (x) = -8.61075 5.23866
# Poissons Ratio (y) = -0.59996 -14.47609
# Poissons Ratio (z) = 0.46861 -18.58488
#
# Static dielectric constant tensor:
#      x y z
#    x 1.863250 -0.023520 0.000870 
#    y -0.023520 1.888490 -0.011980 
#    z 0.000870 -0.011980 1.946120 
# 
# From -- ./inp_files/82784.got.cif
#   From: 2010.05.17/outbox.cif.g08.bks.cpg/sg2_42_cif.got.tgz:82784.got - 2010.06.03 11:33:40.
