data_PCOD9030833
_publ_section_title
;
Structure prediction by ZEFSAII (Michael W. Deem and Ramdas Pophale) SiO2 
 PCOD9030833
Probable space group: P -1
;
_chemical_formula_sum "Si O2"
_cell_formula_units_Z 14
_cell_length_a 5.730133
_cell_length_b 22.632433
_cell_length_c 5.475236
_cell_angle_alpha 80.202985
_cell_angle_beta 74.588667
_cell_angle_gamma 112.933043
_cell_volume 599.723911
_symmetry_space_group_name_H-M "P -1"
_symmetry_group_IT_number 2
_symmetry_cell_setting 'triclinic'
loop_
_space_group_symop_operation_xyz
x,y,z
-x,-y,-z
loop_
_atom_site_type_symbol
_atom_site_label
_atom_site_fract_x
_atom_site_fract_y
_atom_site_fract_z
Si Si1 0.537022 0.436074 0.619207
Si Si2 0.185077 0.939073 0.837637
Si Si3 0.556290 0.739253 0.791746
Si Si4 0.063180 0.459848 0.214223
Si Si5 0.575984 0.083469 0.710935
Si Si6 0.907025 0.664043 0.911499
Si Si7 0.627218 0.817412 0.227848
O O1 0.500000 0.500000 0.500000
O O2 0.766839 0.421074 0.446989
O O3 0.698613 0.473852 0.785621
O O4 0.255871 0.369724 0.769733
O O5 0.241670 0.921590 0.559487
O O6 0.287360 0.019209 0.765372
O O7 0.355190 0.927624 0.021596
O O8 0.882536 0.886942 0.027412
O O9 0.742378 0.701085 0.814725
O O10 0.678896 0.785614 0.482821
O O11 0.231347 0.700526 0.843127
O O12 0.561804 0.773018 0.031804
O O13 0.150035 0.402773 0.177520
O O14 0.000000 0.500000 0.000000
O O15 0.590046 0.156672 0.652837
#
# Coordination Sequence:
#
# PCOD9030833 Si02
#       7
#     2   2   2   2   2   2   2
#     4  11  25  43  79 107 143 181 238 314 388 452
#     4  10  22  42  75 112 147 186 251 322 389 433
#     4  12  33  49  79 103 161 211 261 302 371 454
#     4  11  24  47  74 110 140 183 235 311 390 448
#     4  10  22  42  75 112 146 189 246 328 381 444
#     4  12  29  53  69 115 147 200 252 316 368 465
#     4  12  27  50  72 107 147 212 254 313 368 455
#
# _framework density 23.344078
#
# number of rings (size 3 to 8) (size 9 to 14) (size 15 to 20)
#    0.000    0.857    1.429    3.429   12.000    0.000 
#    0.000    5.714    0.000    0.000    0.000    0.000 
#    0.000    0.000    0.000    0.000    0.000    0.000 
#
# Total GULP energy -77962.390947 kJ/mol
# GULP energy per Si atom -5568.742210 kJ/mol
# Density = 2.329095 g / cm^3
# Si number density = 23.344078 Si / 1000 Ang^3
#
#
#
# Elastic Constant Matrix: (Units=GPa)
#
#
# Indices 1 2 3 4 5 6 
#
# 1 117.5735 62.1619 32.4764 1.8417 0.0755 -10.8106
# 2 62.1619 145.1122 35.6042 29.6941 7.5583 -30.0827
# 3 32.4764 35.6042 114.7551 0.0440 -3.1216 -8.0675
# 4 1.8417 29.6941 0.0440 37.5934 6.0983 -0.7530
# 5 0.0755 7.5583 -3.1216 6.0983 60.9561 -7.4803
# 6 -10.8106 -30.0827 -8.0675 -0.7530 -7.4803 43.4175
#
#
#
# Elastic Compliance Matrix: (Units=1/GPa)
#
#
# Indices 1 2 3 4 5 6 
#
# 1 0.011806 -0.005710 -0.001657 0.003898 0.000066 -0.001246
# 2 -0.005710 0.013445 -0.002029 -0.010216 0.000162 0.007367
# 3 -0.001657 -0.002029 0.009839 0.001575 0.000618 0.000144
# 4 0.003898 -0.010216 0.001575 0.034824 -0.002841 -0.005701
# 5 0.000066 0.000162 0.000618 -0.002841 0.017086 0.003138
# 6 -0.001246 0.007367 0.000144 -0.005701 0.003138 0.028295
#
#
# Mechanical properties :
#
#
# Convention : Reuss Voigt Hill
#
# Bulk Modulus (GPa) = 61.35960 70.88062 66.12011
# Shear Modulus (GPa) = 35.83721 44.87329 40.35525
#
# Velocity S-wave (km/s) = 3.92238 4.38911 4.16229
# Velocity P-wave (km/s) = 6.84510 7.49100 7.17532
#
# Compressibility (1/GPa) = 0.01629737
#
# Stress axis : x y z
#
# Youngs Moduli (GPa) = 84.69932 74.37924 101.63718
#
# Poissons Ratio (x) = 0.42474 0.16840
# Poissons Ratio (y) = 0.48367 0.20622
# Poissons Ratio (z) = 0.14033 0.15092
#
# Static dielectric constant tensor:
#      x y z
#    x 1.849050 -0.005050 -0.034900 
#    y -0.005050 1.844740 0.010200 
#    z -0.034900 0.010200 1.987690 
# 
# From -- ./inp_files/10529.got.cif
#   From: 2010.05.17/outbox.cif.g08.bks.cpg/sg2_6_cif.got.tgz:10529.got - 2010.06.03 11:33:40.
