data_PCOD9030353
_publ_section_title
;
Structure prediction by ZEFSAII (Michael W. Deem and Ramdas Pophale) SiO2 
 PCOD9030353
Probable space group: P -1
;
_chemical_formula_sum "Si O2"
_cell_formula_units_Z 12
_cell_length_a 8.741359
_cell_length_b 9.674010
_cell_length_c 14.174430
_cell_angle_alpha 112.081478
_cell_angle_beta 149.203204
_cell_angle_gamma 75.281224
_cell_volume 562.667739
_symmetry_space_group_name_H-M "P -1"
_symmetry_group_IT_number 2
_symmetry_cell_setting 'triclinic'
loop_
_space_group_symop_operation_xyz
x,y,z
-x,-y,-z
loop_
_atom_site_type_symbol
_atom_site_label
_atom_site_fract_x
_atom_site_fract_y
_atom_site_fract_z
Si Si1 0.605669 0.372504 0.458525
Si Si2 0.169173 0.416000 0.646438
Si Si3 0.180377 0.074205 0.527821
Si Si4 0.737012 0.600199 0.915265
Si Si5 0.189710 0.059308 0.879528
Si Si6 0.358906 0.057032 0.342109
O O1 0.500000 0.500000 0.500000
O O2 0.433159 0.371377 0.266146
O O3 0.506872 0.219552 0.425415
O O4 0.961934 0.404029 0.627510
O O5 0.161546 0.248516 0.560371
O O6 0.508981 0.502291 0.842990
O O7 0.000000 0.500000 0.500000
O O8 0.530155 0.053832 0.704571
O O9 0.000000 0.000000 0.500000
O O10 0.006258 0.981081 0.327525
O O11 0.808135 0.767088 0.042809
O O12 0.000000 0.500000 0.000000
O O13 0.996818 0.960510 0.833021
O O14 0.500000 0.000000 0.000000
O O15 0.500000 0.000000 0.500000
#
# Coordination Sequence:
#
# PCOD9030353 Si02
#       6
#     2   2   2   2   2   2
#     4  11  25  42  71  98 130 181 235 263 331 411
#     4  10  22  42  70  95 131 177 223 269 329 407
#     4  11  22  43  71  97 126 176 234 266 323 409
#     4  11  26  45  66 103 144 172 215 287 349 389
#     4  11  25  43  68  97 140 171 218 283 347 381
#     4  10  24  42  70  94 132 178 229 269 328 399
#
# _framework density 21.326972000000001
#
# number of rings (size 3 to 8) (size 9 to 14) (size 15 to 20)
#    0.000    1.333    1.667    3.000   16.333    0.667 
#    3.000    1.667    0.000    0.000    0.000    0.000 
#    0.000    0.000    0.000    0.000    0.000    0.000 
#
# Total GULP energy -66869.863920 kJ/mol
# GULP energy per Si atom -5572.488660 kJ/mol
# Density = 2.127843 g / cm^3
# Si number density = 21.326972 Si / 1000 Ang^3
#
#
#
# Elastic Constant Matrix: (Units=GPa)
#
#
# Indices 1 2 3 4 5 6 
#
# 1 196.9646 83.9834 68.2802 17.4655 51.9097 -15.3520
# 2 83.9834 166.1858 23.4776 30.4590 26.8838 -5.2086
# 3 68.2802 23.4776 43.4995 16.4655 25.6411 0.4898
# 4 17.4655 30.4590 16.4655 38.8268 -8.5980 2.4546
# 5 51.9097 26.8838 25.6411 -8.5980 52.7724 -1.1594
# 6 -15.3520 -5.2086 0.4898 2.4546 -1.1594 51.1136
#
#
#
# Elastic Compliance Matrix: (Units=1/GPa)
#
#
# Indices 1 2 3 4 5 6 
#
# 1 0.015580 -0.005979 -0.025435 0.008565 0.001561 0.003938
# 2 -0.005979 0.010975 0.013660 -0.013588 -0.008568 -0.000350
# 3 -0.025435 0.013660 0.094155 -0.046686 -0.035419 -0.005711
# 4 0.008565 -0.013588 -0.046686 0.059217 0.030817 -0.000509
# 5 0.001561 -0.008568 -0.035419 0.030817 0.043997 -0.000547
# 6 0.003938 -0.000350 -0.005711 -0.000509 -0.000547 0.020778
#
#
# Mechanical properties :
#
#
# Convention : Reuss Voigt Hill
#
# Bulk Modulus (GPa) = 11.73699 84.23692 47.98696
# Shear Modulus (GPa) = 16.20165 43.93647 30.06906
#
# Velocity S-wave (km/s) = 2.75922 4.54380 3.75895
# Velocity P-wave (km/s) = 3.95807 8.19217 6.43343
#
# Compressibility (1/GPa) = 0.08520070
#
# Stress axis : x y z
#
# Youngs Moduli (GPa) = 64.18563 91.11899 10.62074
#
# Poissons Ratio (x) = 0.54481 0.27014
# Poissons Ratio (y) = 0.38377 -0.14508
# Poissons Ratio (z) = 1.63257 -1.24465
#
# Static dielectric constant tensor:
#      x y z
#    x 1.904990 -0.063710 0.087460 
#    y -0.063710 1.756000 -0.052140 
#    z 0.087460 -0.052140 1.874750 
# 
# From -- ./inp_files/147915.got.cif
#   From: 2010.05.17/outbox.cif.g08.bks.cpg/sg2_74_cif.got.tgz:147915.got - 2010.06.03 11:33:40.
