data_PCOD9030335
_publ_section_title
;
Structure prediction by ZEFSAII (Michael W. Deem and Ramdas Pophale) SiO2 
 PCOD9030335
Probable space group: P -1
;
_chemical_formula_sum "Si O2"
_cell_formula_units_Z 11
_cell_length_a 14.141909
_cell_length_b 15.108331
_cell_length_c 6.635509
_cell_angle_alpha 75.344620
_cell_angle_beta 74.715563
_cell_angle_gamma 19.431152
_cell_volume 454.921941
_symmetry_space_group_name_H-M "P -1"
_symmetry_group_IT_number 2
_symmetry_cell_setting 'triclinic'
loop_
_space_group_symop_operation_xyz
x,y,z
-x,-y,-z
loop_
_atom_site_type_symbol
_atom_site_label
_atom_site_fract_x
_atom_site_fract_y
_atom_site_fract_z
Si Si1 0.171368 0.707906 0.989883
Si Si2 0.411678 0.313342 0.562442
Si Si3 0.128896 0.186135 0.153122
Si Si4 0.693161 0.751527 0.625793
Si Si5 0.714497 0.198062 0.240360
Si Si6 0.000000 0.500000 0.000000
O O1 0.999871 0.778565 0.938072
O O2 0.215023 0.757330 0.791634
O O3 0.474827 0.409299 0.076586
O O4 0.990799 0.904849 0.166940
O O5 0.094520 0.607075 0.653076
O O6 0.409804 0.256728 0.390270
O O7 0.580385 0.258946 0.463108
O O8 0.574100 0.107828 0.751496
O O9 0.110204 0.299619 0.991252
O O10 0.000000 0.500000 0.500000
O O11 0.746433 0.715891 0.849725
O O12 0.500000 0.000000 0.500000
#
# Coordination Sequence:
#
# PCOD9030335 Si02
#       6
#     2   2   2   2   2   1
#     4  10  22  43  66 101 127 184 226 280 345 426
#     4  12  24  44  65 102 137 178 226 301 336 419
#     4  12  26  41  68  99 139 179 238 278 357 406
#     4  12  25  46  67  98 137 179 234 287 340 415
#     4  10  22  42  70  93 138 172 231 284 347 405
#     4  12  26  46  72  96 140 192 226 296 340 418
#
# _framework density 24.179973
#
# number of rings (size 3 to 8) (size 9 to 14) (size 15 to 20)
#    0.000    0.727    3.636    3.273    0.000    5.818 
#    0.000    0.000    0.000    0.000    0.000    0.000 
#    0.000    0.000    0.000    0.000    0.000    0.000 
#
# Total GULP energy -61391.536627 kJ/mol
# GULP energy per Si atom -5581.048784 kJ/mol
# Density = 2.412494 g / cm^3
# Si number density = 24.179973 Si / 1000 Ang^3
#
#
#
# Elastic Constant Matrix: (Units=GPa)
#
#
# Indices 1 2 3 4 5 6 
#
# 1 108.5953 9.1143 23.0944 -14.5615 14.7351 23.5717
# 2 9.1143 94.8869 27.7073 -3.3240 -14.5273 1.0597
# 3 23.0944 27.7073 60.4696 -19.3147 -10.1842 1.9038
# 4 -14.5615 -3.3240 -19.3147 35.3262 -9.0968 -4.2243
# 5 14.7351 -14.5273 -10.1842 -9.0968 46.5618 -3.7997
# 6 23.5717 1.0597 1.9038 -4.2243 -3.7997 31.7865
#
#
#
# Elastic Compliance Matrix: (Units=1/GPa)
#
#
# Indices 1 2 3 4 5 6 
#
# 1 0.013681 -0.000500 -0.006049 -0.000750 -0.006827 -0.010682
# 2 -0.000500 0.012563 -0.005562 -0.001336 0.002635 0.000422
# 3 -0.006049 -0.005562 0.027776 0.015432 0.009778 0.006227
# 4 -0.000750 -0.001336 0.015432 0.040044 0.011540 0.006378
# 5 -0.006827 0.002635 0.009778 0.011540 0.029625 0.009464
# 6 -0.010682 0.000422 0.006227 0.006378 0.009464 0.040974
#
#
# Mechanical properties :
#
#
# Convention : Reuss Voigt Hill
#
# Bulk Modulus (GPa) = 33.55897 42.64265 38.10081
# Shear Modulus (GPa) = 25.14871 36.33729 30.74300
#
# Velocity S-wave (km/s) = 3.22850 3.88078 3.56957
# Velocity P-wave (km/s) = 5.27319 6.14446 5.72543
#
# Compressibility (1/GPa) = 0.02979829
#
# Stress axis : x y z
#
# Youngs Moduli (GPa) = 73.09193 79.60022 36.00260
#
# Poissons Ratio (x) = 0.03980 0.21779
# Poissons Ratio (y) = 0.03654 0.20023
# Poissons Ratio (z) = 0.44215 0.44270
#
# Static dielectric constant tensor:
#      x y z
#    x 1.952760 -0.015500 -0.056120 
#    y -0.015500 1.862220 0.036050 
#    z -0.056120 0.036050 1.957310 
# 
# From -- ./inp_files/6056.got.cif
#   From: 2010.05.17/outbox.cif.g08.bks.cpg/sg2_4_cif.got.tgz:6056.got - 2010.06.03 11:33:40.
