data_PCOD9030183
_publ_section_title
;
Structure prediction by ZEFSAII (Michael W. Deem and Ramdas Pophale) SiO2 
 PCOD9030183
Probable space group: P -1
;
_chemical_formula_sum "Si O2"
_cell_formula_units_Z 15
_cell_length_a 9.054431
_cell_length_b 12.524474
_cell_length_c 15.290040
_cell_angle_alpha 132.963811
_cell_angle_beta 30.390897
_cell_angle_gamma 121.327600
_cell_volume 631.002091
_symmetry_space_group_name_H-M "P -1"
_symmetry_group_IT_number 2
_symmetry_cell_setting 'triclinic'
loop_
_space_group_symop_operation_xyz
x,y,z
-x,-y,-z
loop_
_atom_site_type_symbol
_atom_site_label
_atom_site_fract_x
_atom_site_fract_y
_atom_site_fract_z
Si Si1 0.800305 0.486101 0.509090
Si Si2 0.500000 0.000000 0.500000
Si Si3 0.880512 0.091263 0.860216
Si Si4 0.312709 0.969646 0.901680
Si Si5 0.853373 0.449365 0.803490
Si Si6 0.211556 0.864423 0.269974
Si Si7 0.677395 0.163201 0.344983
Si Si8 0.105554 0.596924 0.922426
O O1 0.754354 0.317050 0.422956
O O2 0.462560 0.576603 0.736433
O O3 0.000000 0.500000 0.500000
O O4 0.974860 0.535000 0.364735
O O5 0.542887 0.901145 0.514546
O O6 0.835776 0.041538 0.363740
O O7 0.785237 0.137383 0.837656
O O8 0.631070 0.069935 0.046735
O O9 0.022869 0.227793 0.904515
O O10 0.411919 0.831402 0.709231
O O11 0.460210 0.102176 0.861756
O O12 0.965308 0.033393 0.119924
O O13 0.876355 0.282471 0.731223
O O14 0.991943 0.539394 0.858053
O O15 0.500000 0.500000 0.000000
O O16 0.000000 0.000000 0.500000
O O17 0.000000 0.500000 0.000000
#
# Coordination Sequence:
#
# PCOD9030183 Si02
#       8
#     2   1   2   2   2   2   2   2
#     4  12  28  45  76 107 148 195 250 303 370 449
#     4  10  22  42  70 100 138 184 228 294 366 442
#     4  11  24  43  71 101 141 183 242 298 374 434
#     4  10  23  41  69  98 138 184 227 300 360 433
#     4  12  28  50  74 107 150 201 250 307 373 445
#     4  12  27  43  71 104 143 181 243 304 365 439
#     4  10  22  43  69 101 137 184 239 288 360 435
#     4  12  25  46  76 103 147 191 242 309 364 442
#
# _framework density 23.771712000000001
#
# number of rings (size 3 to 8) (size 9 to 14) (size 15 to 20)
#    0.000    0.800    1.333    4.800    5.600    6.400 
#    0.000    0.000    0.000    0.000    0.000    0.000 
#    0.000    0.000    0.000    0.000    0.000    0.000 
#
# Total GULP energy -83612.385400 kJ/mol
# GULP energy per Si atom -5574.159027 kJ/mol
# Density = 2.371761 g / cm^3
# Si number density = 23.771712 Si / 1000 Ang^3
#
#
#
# Elastic Constant Matrix: (Units=GPa)
#
#
# Indices 1 2 3 4 5 6 
#
# 1 140.0862 23.6101 39.8188 -18.1703 29.4591 1.7820
# 2 23.6101 105.3502 24.6035 -31.3635 32.9638 -10.6824
# 3 39.8188 24.6035 96.0716 -38.6693 10.1771 -5.2698
# 4 -18.1703 -31.3635 -38.6693 54.3151 -1.8822 9.4564
# 5 29.4591 32.9638 10.1771 -1.8822 49.0154 -10.5680
# 6 1.7820 -10.6824 -5.2698 9.4564 -10.5680 42.4851
#
#
#
# Elastic Compliance Matrix: (Units=1/GPa)
#
#
# Indices 1 2 3 4 5 6 
#
# 1 0.009338 0.000697 -0.002867 0.001702 -0.005944 -0.002429
# 2 0.000697 0.015150 0.000602 0.009187 -0.010556 -0.000816
# 3 -0.002867 0.000602 0.015925 0.010767 -0.001698 -0.000572
# 4 0.001702 0.009187 0.010767 0.032677 -0.009488 -0.006059
# 5 -0.005944 -0.010556 -0.001698 -0.009488 0.032707 0.007632
# 6 -0.002429 -0.000816 -0.000572 -0.006059 0.007632 0.026611
#
#
# Mechanical properties :
#
#
# Convention : Reuss Voigt Hill
#
# Bulk Modulus (GPa) = 26.82553 57.50808 42.16681
# Shear Modulus (GPa) = 33.79060 46.06149 39.92604
#
# Velocity S-wave (km/s) = 3.77432 4.40666 4.10269
# Velocity P-wave (km/s) = 5.50483 7.08067 6.34188
#
# Compressibility (1/GPa) = 0.03727792
#
# Stress axis : x y z
#
# Youngs Moduli (GPa) = 107.09380 66.00463 62.79242
#
# Poissons Ratio (x) = -0.04602 0.18004
# Poissons Ratio (y) = -0.07466 -0.03782
# Poissons Ratio (z) = 0.30706 -0.03975
#
# Static dielectric constant tensor:
#      x y z
#    x 2.096870 -0.062600 -0.081680 
#    y -0.062600 1.883050 0.046340 
#    z -0.081680 0.046340 1.915030 
# 
# From -- ./inp_files/500761.got.cif
#   From: 2010.05.17/outbox.cif.g08.bks.cpg/sg2_251_cif.got.tgz:500761.got - 2010.06.03 11:33:40.
