data_PCOD9030280
_publ_section_title
;
Structure prediction by ZEFSAII (Michael W. Deem and Ramdas Pophale) SiO2 
 PCOD9030280
Probable space group: P -1
;
_chemical_formula_sum "Si O2"
_cell_formula_units_Z 13
_cell_length_a 12.540622
_cell_length_b 5.327468
_cell_length_c 12.873506
_cell_angle_alpha 62.222632
_cell_angle_beta 49.094101
_cell_angle_gamma 53.221664
_cell_volume 516.746271
_symmetry_space_group_name_H-M "P -1"
_symmetry_group_IT_number 2
_symmetry_cell_setting 'triclinic'
loop_
_space_group_symop_operation_xyz
x,y,z
-x,-y,-z
loop_
_atom_site_type_symbol
_atom_site_label
_atom_site_fract_x
_atom_site_fract_y
_atom_site_fract_z
Si Si1 0.177118 0.437137 0.890549
Si Si2 0.156253 0.086412 0.559891
Si Si3 0.500000 0.500000 0.000000
Si Si4 0.194741 0.586912 0.305932
Si Si5 0.579413 0.728887 0.087191
Si Si6 0.615850 0.414371 0.614338
Si Si7 0.711196 0.006733 0.294052
O O1 0.262176 0.273510 0.975727
O O2 0.207625 0.750310 0.812121
O O3 0.247666 0.222891 0.785868
O O4 0.000000 0.500000 0.000000
O O5 0.166536 0.284529 0.415001
O O6 0.976160 0.147526 0.669409
O O7 0.288338 0.735109 0.521066
O O8 0.212857 0.180999 0.612194
O O9 0.669857 0.468713 0.852235
O O10 0.426973 0.557510 0.915593
O O11 0.259902 0.650314 0.360389
O O12 0.480043 0.777069 0.245379
O O13 0.500000 0.000000 0.000000
O O14 0.475203 0.763603 0.625310
#
# Coordination Sequence:
#
# PCOD9030280 Si02
#       7
#     2   2   1   2   2   2   2
#     4  11  27  48  71 109 156 198 257 313 381 460
#     4  11  24  44  70 108 149 195 251 314 384 445
#     4  10  22  42  70 106 138 198 242 314 368 450
#     4  10  24  42  73 104 150 186 262 309 383 441
#     4  10  23  39  71 100 141 189 250 305 376 436
#     4  10  23  43  68 102 145 190 252 309 372 453
#     4  11  27  46  74 108 150 204 252 311 384 457
#
# _framework density 25.157412999999998
#
# number of rings (size 3 to 8) (size 9 to 14) (size 15 to 20)
#    0.000    1.538    0.000    2.308   15.077    3.077 
#    0.000    0.000    0.000    0.000    0.000    0.000 
#    0.000    0.000    0.000    0.000    0.000    0.000 
#
# Total GULP energy -72438.552585 kJ/mol
# GULP energy per Si atom -5572.196353 kJ/mol
# Density = 2.510015 g / cm^3
# Si number density = 25.157413 Si / 1000 Ang^3
#
#
#
# Elastic Constant Matrix: (Units=GPa)
#
#
# Indices 1 2 3 4 5 6 
#
# 1 206.0892 40.7814 67.7854 36.1876 -9.5475 -31.1216
# 2 40.7814 75.5272 53.2075 3.3809 -4.7395 -4.9376
# 3 67.7854 53.2075 140.7073 19.1416 -11.7441 -14.7494
# 4 36.1876 3.3809 19.1416 44.9653 -3.7216 -2.4451
# 5 -9.5475 -4.7395 -11.7441 -3.7216 50.9080 3.1462
# 6 -31.1216 -4.9376 -14.7494 -2.4451 3.1462 49.9357
#
#
#
# Elastic Compliance Matrix: (Units=1/GPa)
#
#
# Indices 1 2 3 4 5 6 
#
# 1 0.007207 -0.002341 -0.001550 -0.004753 0.000209 0.003556
# 2 -0.002341 0.018928 -0.006601 0.003206 0.000120 -0.001388
# 3 -0.001550 -0.006601 0.010982 -0.002744 0.001341 0.001406
# 4 -0.004753 0.003206 -0.002744 0.026946 0.000879 -0.002192
# 5 0.000209 0.000120 0.001341 0.000879 0.020110 -0.000686
# 6 0.003556 -0.001388 0.001406 -0.002192 -0.000686 0.022456
#
#
# Mechanical properties :
#
#
# Convention : Reuss Voigt Hill
#
# Bulk Modulus (GPa) = 61.98437 82.87468 72.42953
# Shear Modulus (GPa) = 37.59673 46.53176 42.06424
#
# Velocity S-wave (km/s) = 3.87002 4.30539 4.09350
# Velocity P-wave (km/s) = 6.68292 7.59797 7.15509
#
# Compressibility (1/GPa) = 0.01613310
#
# Stress axis : x y z
#
# Youngs Moduli (GPa) = 138.76146 52.83133 91.05537
#
# Poissons Ratio (x) = 0.12369 0.14110
# Poissons Ratio (y) = 0.32487 0.60107
# Poissons Ratio (z) = 0.21502 0.34875
#
# Static dielectric constant tensor:
#      x y z
#    x 1.976170 0.045870 -0.036700 
#    y 0.045870 2.241370 -0.105560 
#    z -0.036700 -0.105560 1.990090 
# 
# From -- ./inp_files/409950.got.cif
#   From: 2010.05.17/outbox.cif.g08.bks.cpg/sg2_205_cif.got.tgz:409950.got - 2010.06.03 11:33:40.
