data_PCOD9030741
_publ_section_title
;
Structure prediction by ZEFSAII (Michael W. Deem and Ramdas Pophale) SiO2 
 PCOD9030741
Probable space group: P -1
;
_chemical_formula_sum "Si O2"
_cell_formula_units_Z 16
_cell_length_a 12.168657
_cell_length_b 8.215053
_cell_length_c 9.017018
_cell_angle_alpha 64.113986
_cell_angle_beta 56.941445
_cell_angle_gamma 87.328664
_cell_volume 657.375451
_symmetry_space_group_name_H-M "P -1"
_symmetry_group_IT_number 2
_symmetry_cell_setting 'triclinic'
loop_
_space_group_symop_operation_xyz
x,y,z
-x,-y,-z
loop_
_atom_site_type_symbol
_atom_site_label
_atom_site_fract_x
_atom_site_fract_y
_atom_site_fract_z
Si Si1 0.159010 0.763757 0.647764
Si Si2 0.085814 0.403347 0.265274
Si Si3 0.639234 0.133125 0.280896
Si Si4 0.742188 0.585396 0.400002
Si Si5 0.722190 0.865276 0.747613
Si Si6 0.265683 0.096883 0.946117
Si Si7 0.473146 0.375218 0.215430
Si Si8 0.971661 0.243759 0.722843
O O1 0.230754 0.835865 0.720193
O O2 0.235055 0.613863 0.584650
O O3 0.000644 0.656870 0.796357
O O4 0.177424 0.945175 0.458128
O O5 0.205892 0.304092 0.227922
O O6 0.110891 0.623268 0.188104
O O7 0.991798 0.314580 0.510832
O O8 0.606039 0.332410 0.202292
O O9 0.500000 0.000000 0.500000
O O10 0.664875 0.028377 0.156686
O O11 0.721305 0.709025 0.225649
O O12 0.619481 0.565118 0.615133
O O13 0.879949 0.703302 0.332965
O O14 0.611448 0.817106 0.720635
O O15 0.673138 0.883755 0.942319
O O16 0.109844 0.971617 0.124273
O O17 0.500000 0.500000 0.000000
#
# Coordination Sequence:
#
# PCOD9030741 Si02
#       8
#     2   2   2   2   2   2   2   2
#     4  11  25  45  75 101 143 194 232 298 354 424
#     4  10  22  42  73 110 146 186 237 296 354 419
#     4  12  27  51  68 100 148 190 238 294 357 418
#     4  11  25  48  70 108 146 185 238 303 361 413
#     4  12  25  44  74 109 141 190 243 290 358 429
#     4  12  27  42  73 109 145 190 237 298 355 428
#     4  12  29  48  77  99 140 197 239 297 354 437
#     4  10  22  42  75 106 149 184 236 295 360 425
#
# _framework density 24.339210000000001
#
# number of rings (size 3 to 8) (size 9 to 14) (size 15 to 20)
#    0.000    0.750    5.000    0.750    5.250    3.000 
#    0.000    2.500    0.000    0.000    0.000    0.000 
#    0.000    0.000    0.000    0.000    0.000    0.000 
#
# Total GULP energy -89578.862777 kJ/mol
# GULP energy per Si atom -5598.678924 kJ/mol
# Density = 2.428381 g / cm^3
# Si number density = 24.339210 Si / 1000 Ang^3
#
#
#
# Elastic Constant Matrix: (Units=GPa)
#
#
# Indices 1 2 3 4 5 6 
#
# 1 76.9925 21.5352 2.4202 9.5106 17.8429 -10.9576
# 2 21.5352 89.0700 27.5891 7.1763 5.4757 -8.3067
# 3 2.4202 27.5891 87.4294 -3.2301 12.1125 -12.6768
# 4 9.5106 7.1763 -3.2301 46.1758 -1.7222 3.7488
# 5 17.8429 5.4757 12.1125 -1.7222 28.8265 -3.9359
# 6 -10.9576 -8.3067 -12.6768 3.7488 -3.9359 41.0956
#
#
#
# Elastic Compliance Matrix: (Units=1/GPa)
#
#
# Indices 1 2 3 4 5 6 
#
# 1 0.017480 -0.003715 0.002647 -0.003569 -0.010892 0.004009
# 2 -0.003715 0.013578 -0.004354 -0.001649 0.001548 0.000710
# 3 0.002647 -0.004354 0.014137 0.000601 -0.006233 0.003535
# 4 -0.003569 -0.001649 0.000601 0.023046 0.003252 -0.002891
# 5 -0.010892 0.001548 -0.006233 0.003252 0.043868 -0.000609
# 6 0.004009 0.000710 0.003535 -0.002891 -0.000609 0.026841
#
#
# Mechanical properties :
#
#
# Convention : Reuss Voigt Hill
#
# Bulk Modulus (GPa) = 29.11264 39.62009 34.36636
# Shear Modulus (GPa) = 31.00871 36.68274 33.84572
#
# Velocity S-wave (km/s) = 3.57322 3.88641 3.73310
# Velocity P-wave (km/s) = 5.38619 6.03759 5.72117
#
# Compressibility (1/GPa) = 0.03434935
#
# Stress axis : x y z
#
# Youngs Moduli (GPa) = 57.20876 73.64874 70.73751
#
# Poissons Ratio (x) = 0.27361 -0.18723
# Poissons Ratio (y) = 0.21253 0.30802
# Poissons Ratio (z) = -0.15142 0.32069
#
# Static dielectric constant tensor:
#      x y z
#    x 1.957340 0.032040 -0.048910 
#    y 0.032040 1.932860 -0.047360 
#    z -0.048910 -0.047360 1.991340 
# 
# From -- ./inp_files/242451.got.cif
#   From: 2010.05.17/outbox.cif.g08.bks.cpg/sg2_122_cif.got.tgz:242451.got - 2010.06.03 11:33:40.
