data_PCOD9030178
_publ_section_title
;
Structure prediction by ZEFSAII (Michael W. Deem and Ramdas Pophale) SiO2 
 PCOD9030178
Probable space group: P -1
;
_chemical_formula_sum "Si O2"
_cell_formula_units_Z 15
_cell_length_a 11.184983
_cell_length_b 11.664938
_cell_length_c 10.294465
_cell_angle_alpha 64.681987
_cell_angle_beta 42.674627
_cell_angle_gamma 40.159436
_cell_volume 558.776696
_symmetry_space_group_name_H-M "P -1"
_symmetry_group_IT_number 2
_symmetry_cell_setting 'triclinic'
loop_
_space_group_symop_operation_xyz
x,y,z
-x,-y,-z
loop_
_atom_site_type_symbol
_atom_site_label
_atom_site_fract_x
_atom_site_fract_y
_atom_site_fract_z
Si Si1 0.728067 0.716508 0.746955
Si Si2 0.254669 0.114132 0.802420
Si Si3 0.857273 0.390513 0.200429
Si Si4 0.000000 0.000000 0.000000
Si Si5 0.411403 0.286900 0.551621
Si Si6 0.276743 0.515429 0.323909
Si Si7 0.456384 0.684493 0.165777
Si Si8 0.938202 0.061409 0.332227
O O1 0.755653 0.564757 0.728441
O O2 0.993917 0.654836 0.550835
O O3 0.505244 0.912866 0.757853
O O4 0.619717 0.720022 0.967866
O O5 0.317651 0.201126 0.620502
O O6 0.107374 0.257184 0.972895
O O7 0.080571 0.106527 0.867820
O O8 0.802320 0.524777 0.286682
O O9 0.616981 0.537057 0.224076
O O10 0.865082 0.246535 0.324298
O O11 0.039212 0.997951 0.131453
O O12 0.478635 0.336575 0.347567
O O13 0.664929 0.133608 0.510743
O O14 0.383762 0.599060 0.176799
O O15 0.171444 0.890208 0.316169
#
# Coordination Sequence:
#
# PCOD9030178 Si02
#       8
#     2   2   2   1   2   2   2   2
#     4  11  24  46  68 108 145 181 244 298 369 427
#     4  11  24  45  71 102 143 190 235 295 363 424
#     4  11  25  47  70 103 143 195 241 287 355 426
#     4  10  22  42  70 100 136 178 234 280 362 430
#     4  12  25  46  69 104 149 186 243 298 346 429
#     4  11  26  42  71 109 143 188 238 303 357 431
#     4  12  24  45  74 104 146 191 236 299 360 422
#     4  11  24  43  71 107 139 191 230 295 359 420
#
# _framework density 26.844353999999999
#
# number of rings (size 3 to 8) (size 9 to 14) (size 15 to 20)
#    0.000    0.800    4.000    3.600    1.867    6.933 
#    2.400    1.333    0.000    0.000    0.000    0.000 
#    0.000    0.000    0.000    0.000    0.000    0.000 
#
# Total GULP energy -83770.890504 kJ/mol
# GULP energy per Si atom -5584.726034 kJ/mol
# Density = 2.678326 g / cm^3
# Si number density = 26.844354 Si / 1000 Ang^3
#
#
#
# Elastic Constant Matrix: (Units=GPa)
#
#
# Indices 1 2 3 4 5 6 
#
# 1 64.5001 40.0396 10.1902 6.3833 -14.9955 5.4261
# 2 40.0396 160.5159 32.0322 -4.5690 -10.0497 -9.0520
# 3 10.1902 32.0322 67.4966 -2.5370 -13.0560 1.3741
# 4 6.3833 -4.5690 -2.5370 43.7239 10.2150 -24.0557
# 5 -14.9955 -10.0497 -13.0560 10.2150 30.9628 -1.1727
# 6 5.4261 -9.0520 1.3741 -24.0557 -1.1727 50.3072
#
#
#
# Elastic Compliance Matrix: (Units=1/GPa)
#
#
# Indices 1 2 3 4 5 6 
#
# 1 0.024776 -0.006568 0.001909 -0.012975 0.014583 -0.009771
# 2 -0.006568 0.008817 -0.003755 0.005063 -0.003394 0.004739
# 3 0.001909 -0.003755 0.017817 -0.002955 0.008095 -0.002592
# 4 -0.012975 0.005063 -0.002955 0.041495 -0.018751 0.021796
# 5 0.014583 -0.003394 0.008095 -0.018751 0.047469 -0.010264
# 6 -0.009771 0.004739 -0.002592 0.021796 -0.010264 0.032038
#
#
# Mechanical properties :
#
#
# Convention : Reuss Voigt Hill
#
# Bulk Modulus (GPa) = 28.91838 50.78185 39.85012
# Shear Modulus (GPa) = 24.90432 39.01547 31.95990
#
# Velocity S-wave (km/s) = 3.04917 3.81648 3.45420
# Velocity P-wave (km/s) = 4.81587 6.19507 5.54849
#
# Compressibility (1/GPa) = 0.03458008
#
# Stress axis : x y z
#
# Youngs Moduli (GPa) = 40.36119 113.42206 56.12606
#
# Poissons Ratio (x) = 0.74501 -0.10713
# Poissons Ratio (y) = 0.26511 0.21076
# Poissons Ratio (z) = -0.07704 0.42591
#
# Static dielectric constant tensor:
#      x y z
#    x 2.177530 0.007650 0.016440 
#    y 0.007650 2.060190 0.081200 
#    z 0.016440 0.081200 2.423260 
# 
# From -- ./inp_files/425389.got.cif
#   From: 2010.05.17/outbox.cif.g08.bks.cpg/sg2_213_cif.got.tgz:425389.got - 2010.06.03 11:33:40.
