data_PCOD9030600
_publ_section_title
;
Structure prediction by ZEFSAII (Michael W. Deem and Ramdas Pophale) SiO2 
 PCOD9030600
Probable space group: P -1
;
_chemical_formula_sum "Si O2"
_cell_formula_units_Z 16
_cell_length_a 22.708096
_cell_length_b 20.932679
_cell_length_c 11.119225
_cell_angle_alpha 30.352962
_cell_angle_beta 153.044671
_cell_angle_gamma 160.825967
_cell_volume 779.013478
_symmetry_space_group_name_H-M "P -1"
_symmetry_group_IT_number 2
_symmetry_cell_setting 'triclinic'
loop_
_space_group_symop_operation_xyz
x,y,z
-x,-y,-z
loop_
_atom_site_type_symbol
_atom_site_label
_atom_site_fract_x
_atom_site_fract_y
_atom_site_fract_z
Si Si1 0.849110 0.547819 0.573058
Si Si2 0.413963 0.168756 0.730486
Si Si3 0.084130 0.247676 0.850352
Si Si4 0.695956 0.690686 0.191050
Si Si5 0.084513 0.124333 0.287699
Si Si6 0.683786 0.159828 0.980755
Si Si7 0.696178 0.834563 0.729319
Si Si8 0.351382 0.437402 0.435591
O O1 0.835960 0.574282 0.366169
O O2 0.788846 0.628502 0.409096
O O3 0.087524 0.700049 0.785375
O O4 0.713076 0.324853 0.719327
O O5 0.238201 0.123876 0.540951
O O6 0.398685 0.178993 0.541783
O O7 0.621242 0.391320 0.784899
O O8 0.372263 0.992209 0.969391
O O9 0.121385 0.264621 0.031117
O O10 0.182944 0.195868 0.055246
O O11 0.848941 0.052139 0.706708
O O12 0.581230 0.565970 0.306271
O O13 0.596560 0.694790 0.893266
O O14 0.871395 0.910753 0.205168
O O15 0.135407 0.221394 0.352235
O O16 0.500000 0.000000 0.000000
O O17 0.500000 0.500000 0.500000
#
# Coordination Sequence:
#
# PCOD9030600 Si02
#       8
#     2   2   2   2   2   2   2   2
#     4  10  19  33  55  78 101 138 170 204 268 306
#     4  10  17  33  47  71 111 130 157 209 255 300
#     4   8  13  28  51  74  97 124 166 205 250 309
#     4  10  17  32  52  76 100 129 172 204 250 314
#     4   9  17  31  53  73  99 135 167 204 241 309
#     4  11  21  32  49  78 109 134 169 212 257 305
#     4   8  14  25  50  75  96 129 156 204 262 306
#     4  10  21  30  45  73 107 140 163 201 254 301
#
# _framework density 20.538796000000001
#
# number of rings (size 3 to 8) (size 9 to 14) (size 15 to 20)
#    0.000    2.500    2.500    2.625    0.000    0.500 
#    0.000    2.500    0.000    0.750    0.000   11.375 
#    0.000    0.000    0.000    0.000    0.000    0.000 
#
# Total GULP energy -89073.375496 kJ/mol
# GULP energy per Si atom -5567.085969 kJ/mol
# Density = 2.049205 g / cm^3
# Si number density = 20.538796 Si / 1000 Ang^3
#
#
#
# Elastic Constant Matrix: (Units=GPa)
#
#
# Indices 1 2 3 4 5 6 
#
# 1 58.0907 9.8254 26.9371 -5.1555 -18.1825 3.4562
# 2 9.8254 131.2015 26.7587 -25.0334 2.8845 -6.7698
# 3 26.9371 26.7587 81.9798 -31.8140 -8.6919 -3.0289
# 4 -5.1555 -25.0334 -31.8140 35.2911 2.6573 -3.9860
# 5 -18.1825 2.8845 -8.6919 2.6573 24.1128 -1.9743
# 6 3.4562 -6.7698 -3.0289 -3.9860 -1.9743 33.5518
#
#
#
# Elastic Compliance Matrix: (Units=1/GPa)
#
#
# Indices 1 2 3 4 5 6 
#
# 1 0.027131 -0.002211 -0.009564 -0.008021 0.017831 -0.004008
# 2 -0.002211 0.009300 0.000149 0.006965 -0.003268 0.002753
# 3 -0.009564 0.000149 0.023363 0.020438 -0.000608 0.005517
# 4 -0.008021 0.006965 0.020438 0.051991 -0.004426 0.009993
# 5 0.017831 -0.003268 -0.000608 -0.004426 0.055593 0.000194
# 6 -0.004008 0.002753 0.005517 0.009993 0.000194 0.032470
#
#
# Mechanical properties :
#
#
# Convention : Reuss Voigt Hill
#
# Bulk Modulus (GPa) = 27.36475 44.25716 35.81095
# Shear Modulus (GPa) = 21.25142 32.44119 26.84631
#
# Velocity S-wave (km/s) = 3.22016 3.97861 3.61931
# Velocity P-wave (km/s) = 5.21328 6.53458 5.91096
#
# Compressibility (1/GPa) = 0.03654336
#
# Stress axis : x y z
#
# Youngs Moduli (GPa) = 36.85843 107.52847 42.80313
#
# Poissons Ratio (x) = 0.23770 0.40935
# Poissons Ratio (y) = 0.08148 -0.00638
# Poissons Ratio (z) = 0.35250 -0.01602
#
# Static dielectric constant tensor:
#      x y z
#    x 1.775990 0.072330 0.001930 
#    y 0.072330 1.891100 -0.005330 
#    z 0.001930 -0.005330 1.779410 
# 
# From -- ./inp_files/390474.got.cif
#   From: 2010.05.17/outbox.cif.g08.bks.cpg/sg2_196_cif.got.tgz:390474.got - 2010.06.03 11:33:40.
