data_PCOD9030816
_publ_section_title
;
Structure prediction by ZEFSAII (Michael W. Deem and Ramdas Pophale) SiO2 
 PCOD9030816
Probable space group: P -1
;
_chemical_formula_sum "Si O2"
_cell_formula_units_Z 12
_cell_length_a 10.566609
_cell_length_b 9.369235
_cell_length_c 9.695635
_cell_angle_alpha 56.731336
_cell_angle_beta 42.648543
_cell_angle_gamma 48.396162
_cell_volume 482.831691
_symmetry_space_group_name_H-M "P -1"
_symmetry_group_IT_number 2
_symmetry_cell_setting 'triclinic'
loop_
_space_group_symop_operation_xyz
x,y,z
-x,-y,-z
loop_
_atom_site_type_symbol
_atom_site_label
_atom_site_fract_x
_atom_site_fract_y
_atom_site_fract_z
Si Si1 0.630084 0.709225 0.191925
Si Si2 0.249268 0.413517 0.278822
Si Si3 0.018288 0.921067 0.870459
Si Si4 0.654164 0.287010 0.821912
Si Si5 0.381331 0.998170 0.456621
Si Si6 0.994319 0.532861 0.163285
O O1 0.441898 0.707745 0.254692
O O2 0.530294 0.904914 0.255347
O O3 0.769049 0.558457 0.280305
O O4 0.815030 0.654252 0.958801
O O5 0.274317 0.548053 0.301856
O O6 0.756444 0.111418 0.348721
O O7 0.239320 0.220508 0.425438
O O8 0.461631 0.342661 0.054027
O O9 0.840725 0.083328 0.830840
O O10 0.947062 0.470005 0.724511
O O11 0.006834 0.722473 0.996453
O O12 0.000000 0.000000 0.000000
O O13 0.500000 0.000000 0.500000
#
# Coordination Sequence:
#
# PCOD9030816 Si02
#       6
#     2   2   2   2   2   2
#     4  10  24  45  69 107 137 183 228 287 339 408
#     4  10  22  44  73 103 132 183 231 279 343 412
#     4  12  24  45  71 100 136 186 231 281 347 408
#     4  10  22  42  75 100 140 180 228 280 345 414
#     4  12  28  44  69 103 141 180 236 288 339 410
#     4  10  22  44  76 100 138 185 227 277 345 419
#
# _framework density 24.853382
#
# number of rings (size 3 to 8) (size 9 to 14) (size 15 to 20)
#    0.000    1.333    1.667    3.000    4.667    9.333 
#    0.000    0.000    0.000    0.000    0.000    0.000 
#    0.000    0.000    0.000    0.000    0.000    0.000 
#
# Total GULP energy -67094.513800 kJ/mol
# GULP energy per Si atom -5591.209483 kJ/mol
# Density = 2.479681 g / cm^3
# Si number density = 24.853382 Si / 1000 Ang^3
#
#
#
# Elastic Constant Matrix: (Units=GPa)
#
#
# Indices 1 2 3 4 5 6 
#
# 1 214.8158 61.8563 37.2779 3.5539 43.1393 -8.1532
# 2 61.8563 130.2296 52.6048 16.2633 16.0667 4.4367
# 3 37.2779 52.6048 58.2663 10.5390 -10.3011 10.2826
# 4 3.5539 16.2633 10.5390 46.1205 4.2965 4.8736
# 5 43.1393 16.0667 -10.3011 4.2965 46.3779 10.1227
# 6 -8.1532 4.4367 10.2826 4.8736 10.1227 41.7387
#
#
#
# Elastic Compliance Matrix: (Units=1/GPa)
#
#
# Indices 1 2 3 4 5 6 
#
# 1 0.009002 0.001154 -0.010665 0.001777 -0.012873 0.007178
# 2 0.001154 0.015702 -0.017820 -0.001091 -0.011659 0.005901
# 3 -0.010665 -0.017820 0.050164 -0.005259 0.032023 -0.019700
# 4 0.001777 -0.001091 -0.005259 0.023551 -0.004655 0.000138
# 5 -0.012873 -0.011659 0.032023 -0.004655 0.049628 -0.020657
# 6 0.007178 0.005901 -0.019700 0.000138 -0.020657 0.034580
#
#
# Mechanical properties :
#
#
# Convention : Reuss Voigt Hill
#
# Bulk Modulus (GPa) = 49.49167 78.53218 64.01193
# Shear Modulus (GPa) = 20.48960 43.61893 32.05427
#
# Velocity S-wave (km/s) = 2.87438 4.19388 3.59518
# Velocity P-wave (km/s) = 5.56532 7.42417 6.56091
#
# Compressibility (1/GPa) = 0.02020542
#
# Stress axis : x y z
#
# Youngs Moduli (GPa) = 111.08800 63.68436 19.93450
#
# Poissons Ratio (x) = -0.07351 0.21261
# Poissons Ratio (y) = -0.12822 0.35524
# Poissons Ratio (z) = 1.18480 1.13488
#
# Static dielectric constant tensor:
#      x y z
#    x 2.003010 -0.032590 0.001390 
#    y -0.032590 1.945970 0.018150 
#    z 0.001390 0.018150 2.024170 
# 
# From -- ./inp_files/219828.got.cif
#   From: 2010.05.17/outbox.cif.g08.bks.cpg/sg2_110_cif.got.tgz:219828.got - 2010.06.03 11:33:40.
