data_PCOD9030098
_publ_section_title
;
Structure prediction by ZEFSAII (Michael W. Deem and Ramdas Pophale) SiO2 
 PCOD9030098
Probable space group: P -1
;
_chemical_formula_sum "Si O2"
_cell_formula_units_Z 16
_cell_length_a 8.928662
_cell_length_b 9.060302
_cell_length_c 11.813045
_cell_angle_alpha 110.590056
_cell_angle_beta 76.571407
_cell_angle_gamma 130.836691
_cell_volume 676.820197
_symmetry_space_group_name_H-M "P -1"
_symmetry_group_IT_number 2
_symmetry_cell_setting 'triclinic'
loop_
_space_group_symop_operation_xyz
x,y,z
-x,-y,-z
loop_
_atom_site_type_symbol
_atom_site_label
_atom_site_fract_x
_atom_site_fract_y
_atom_site_fract_z
Si Si1 0.287146 0.285405 0.003383
Si Si2 0.976208 0.867964 0.361175
Si Si3 0.965304 0.595938 0.929247
Si Si4 0.295481 0.795958 0.284719
Si Si5 0.778934 0.415278 0.536973
Si Si6 0.616207 0.022477 0.102304
Si Si7 0.410469 0.562801 0.624999
Si Si8 0.204007 0.226063 0.263213
O O1 0.125836 0.298676 0.978892
O O2 0.213685 0.249642 0.135507
O O3 0.320058 0.120782 0.937294
O O4 0.500000 0.500000 0.000000
O O5 0.766364 0.645037 0.339219
O O6 0.142171 0.840561 0.333228
O O7 0.000000 0.000000 0.500000
O O8 0.025285 0.007142 0.282503
O O9 0.813765 0.415622 0.821315
O O10 0.000000 0.500000 0.000000
O O11 0.176102 0.754043 0.875595
O O12 0.333743 0.757100 0.393965
O O13 0.476612 0.958230 0.216929
O O14 0.672968 0.354819 0.418282
O O15 0.800095 0.606006 0.632713
O O16 0.000000 0.500000 0.500000
O O17 0.500000 0.000000 0.000000
O O18 0.500000 0.500000 0.500000
O O19 0.587953 0.717923 0.719040
#
# Coordination Sequence:
#
# PCOD9030098 Si02
#       8
#     2   2   2   2   2   2   2   2
#     4  12  24  49  76 105 151 191 243 305 362 442
#     4  12  23  43  71 101 139 184 239 295 354 434
#     4  12  26  48  74 107 146 197 241 302 369 428
#     4  12  25  46  71 102 146 189 234 302 368 420
#     4  11  20  44  68  96 142 179 230 293 349 428
#     4  12  25  49  72 110 150 187 248 303 361 443
#     4  10  22  42  69  96 137 180 232 287 352 423
#     4  11  24  44  69 101 135 182 238 285 361 427
#
# _framework density 23.639956999999999
#
# number of rings (size 3 to 8) (size 9 to 14) (size 15 to 20)
#    0.000    0.500    7.500    1.125    0.000    3.000 
#    6.750    1.875    0.000    0.000    0.000    0.000 
#    0.000    0.000    0.000    0.000    0.000    0.000 
#
# Total GULP energy -89600.585343 kJ/mol
# GULP energy per Si atom -5600.036584 kJ/mol
# Density = 2.358615 g / cm^3
# Si number density = 23.639957 Si / 1000 Ang^3
#
#
#
# Elastic Constant Matrix: (Units=GPa)
#
#
# Indices 1 2 3 4 5 6 
#
# 1 134.8378 43.4888 35.5982 -15.4698 -19.3644 -12.7937
# 2 43.4888 159.8150 62.4188 -44.6997 -16.6945 6.5500
# 3 35.5982 62.4188 79.2810 -22.4748 -16.3640 -4.8611
# 4 -15.4698 -44.6997 -22.4748 56.1929 -4.9655 -10.4733
# 5 -19.3644 -16.6945 -16.3640 -4.9655 36.6715 -7.4715
# 6 -12.7937 6.5500 -4.8611 -10.4733 -7.4715 52.7026
#
#
#
# Elastic Compliance Matrix: (Units=1/GPa)
#
#
# Indices 1 2 3 4 5 6 
#
# 1 0.009422 -0.000919 -0.001672 0.002248 0.004803 0.003375
# 2 -0.000919 0.010793 -0.005862 0.006112 0.002532 -0.000531
# 3 -0.001672 -0.005862 0.021118 0.004771 0.007387 0.004266
# 4 0.002248 0.006112 0.004771 0.027546 0.011317 0.007304
# 5 0.004803 0.002532 0.007387 0.011317 0.037644 0.009118
# 6 0.003375 -0.000531 0.004266 0.007304 0.009118 0.022997
#
#
# Mechanical properties :
#
#
# Convention : Reuss Voigt Hill
#
# Bulk Modulus (GPa) = 40.93731 72.99393 56.96562
# Shear Modulus (GPa) = 32.34829 44.60861 38.47845
#
# Velocity S-wave (km/s) = 3.70317 4.34867 4.03884
# Velocity P-wave (km/s) = 5.96986 7.49393 6.77489
#
# Compressibility (1/GPa) = 0.02442760
#
# Stress axis : x y z
#
# Youngs Moduli (GPa) = 106.13639 92.65625 47.35325
#
# Poissons Ratio (x) = 0.08514 0.07916
# Poissons Ratio (y) = 0.09753 0.27758
# Poissons Ratio (z) = 0.17742 0.54313
#
# Static dielectric constant tensor:
#      x y z
#    x 1.879010 -0.047050 -0.013450 
#    y -0.047050 1.897950 0.041910 
#    z -0.013450 0.041910 1.883510 
# 
# From -- ./inp_files/379513.got.cif
#   From: 2010.05.17/outbox.cif.g08.bks.cpg/sg2_190_cif.got.tgz:379513.got - 2010.06.03 11:33:40.
