data_PCOD9030695
_publ_section_title
;
Structure prediction by ZEFSAII (Michael W. Deem and Ramdas Pophale) SiO2 
 PCOD9030695
Probable space group: P -1
;
_chemical_formula_sum "Si O2"
_cell_formula_units_Z 14
_cell_length_a 14.174973
_cell_length_b 9.142888
_cell_length_c 11.645724
_cell_angle_alpha 57.773342
_cell_angle_beta 29.771065
_cell_angle_gamma 59.243237
_cell_volume 629.722739
_symmetry_space_group_name_H-M "P -1"
_symmetry_group_IT_number 2
_symmetry_cell_setting 'triclinic'
loop_
_space_group_symop_operation_xyz
x,y,z
-x,-y,-z
loop_
_atom_site_type_symbol
_atom_site_label
_atom_site_fract_x
_atom_site_fract_y
_atom_site_fract_z
Si Si1 0.114794 0.891501 0.183807
Si Si2 0.980646 0.206960 0.921255
Si Si3 0.532480 0.297722 0.042462
Si Si4 0.574923 0.804221 0.548986
Si Si5 0.353306 0.549568 0.739094
Si Si6 0.319724 0.156214 0.974620
Si Si7 0.286847 0.053757 0.297894
O O1 0.107510 0.782949 0.118697
O O2 0.899610 0.939970 0.431415
O O3 0.244574 0.762819 0.185131
O O4 0.222497 0.067324 0.006129
O O5 0.198078 0.245566 0.680726
O O6 0.842403 0.315439 0.113030
O O7 0.000000 0.000000 0.000000
O O8 0.477039 0.208677 0.257041
O O9 0.395549 0.225151 0.125912
O O10 0.500000 0.500000 0.000000
O O11 0.475226 0.655888 0.651966
O O12 0.500000 0.000000 0.500000
O O13 0.500000 0.500000 0.500000
O O14 0.289634 0.363418 0.920219
O O15 0.548207 0.095586 0.771488
O O16 0.236482 0.065638 0.212114
#
# Coordination Sequence:
#
# PCOD9030695 Si02
#       7
#     2   2   2   2   2   2   2
#     4  11  23  42  75 101 137 188 235 284 353 429
#     4  12  26  45  74 102 135 192 243 283 354 428
#     4  11  23  40  70 106 140 181 234 297 348 413
#     4  12  25  48  73 101 142 188 236 291 353 426
#     4  12  29  44  70 103 143 178 236 299 348 415
#     4  10  25  45  65 105 145 179 228 292 360 411
#     4  10  22  42  72  98 141 186 226 286 356 422
#
# _framework density 22.232006999999999
#
# number of rings (size 3 to 8) (size 9 to 14) (size 15 to 20)
#    0.000    0.857    4.286    1.286    8.000    3.429 
#    0.000    0.000    0.000    0.000    0.000    0.000 
#    0.000    0.000    0.000    0.000    0.000    0.000 
#
# Total GULP energy -78116.376999 kJ/mol
# GULP energy per Si atom -5579.741214 kJ/mol
# Density = 2.218141 g / cm^3
# Si number density = 22.232007 Si / 1000 Ang^3
#
#
#
# Elastic Constant Matrix: (Units=GPa)
#
#
# Indices 1 2 3 4 5 6 
#
# 1 60.8437 18.5431 22.4707 6.8679 -9.9490 10.7419
# 2 18.5431 160.4554 30.1461 12.0959 -12.7203 -0.5107
# 3 22.4707 30.1461 99.5641 43.5947 -18.0868 -12.2540
# 4 6.8679 12.0959 43.5947 40.2371 6.1209 1.5359
# 5 -9.9490 -12.7203 -18.0868 6.1209 43.8512 -0.0946
# 6 10.7419 -0.5107 -12.2540 1.5359 -0.0946 28.4770
#
#
#
# Elastic Compliance Matrix: (Units=1/GPa)
#
#
# Indices 1 2 3 4 5 6 
#
# 1 0.021613 -0.001375 -0.009275 0.007309 -0.000368 -0.012564
# 2 -0.001375 0.006767 -0.001154 -0.000752 0.001280 0.000189
# 3 -0.009275 -0.001154 0.036598 -0.041353 0.018475 0.021518
# 4 0.007309 -0.000752 -0.041353 0.073520 -0.025932 -0.024617
# 5 -0.000368 0.001280 0.018475 -0.025932 0.034353 0.009624
# 6 -0.012564 0.000189 0.021518 -0.024617 0.009624 0.050478
#
#
# Mechanical properties :
#
#
# Convention : Reuss Voigt Hill
#
# Bulk Modulus (GPa) = 24.17214 51.46480 37.81847
# Shear Modulus (GPa) = 19.17729 39.15995 29.16862
#
# Velocity S-wave (km/s) = 2.94019 4.20148 3.62610
# Velocity P-wave (km/s) = 4.73525 6.83636 5.88041
#
# Compressibility (1/GPa) = 0.04136995
#
# Stress axis : x y z
#
# Youngs Moduli (GPa) = 46.26838 147.78283 27.32417
#
# Poissons Ratio (x) = 0.20325 0.25343
# Poissons Ratio (y) = 0.06363 0.03152
# Poissons Ratio (z) = 0.42913 0.17047
#
# Static dielectric constant tensor:
#      x y z
#    x 1.959560 -0.005710 0.012690 
#    y -0.005710 1.806460 0.018710 
#    z 0.012690 0.018710 1.857520 
# 
# From -- ./inp_files/445592.got.cif
#   From: 2010.05.17/outbox.cif.g08.bks.cpg/sg2_223_cif.got.tgz:445592.got - 2010.06.03 11:33:40.
