data_PCOD9030941
_publ_section_title
;
Structure prediction by ZEFSAII (Michael W. Deem and Ramdas Pophale) SiO2 
 PCOD9030941
Probable space group: P -1
;
_chemical_formula_sum "Si O2"
_cell_formula_units_Z 14
_cell_length_a 14.210754
_cell_length_b 19.144326
_cell_length_c 10.851682
_cell_angle_alpha 151.382913
_cell_angle_beta 141.462622
_cell_angle_gamma 21.991394
_cell_volume 521.123183
_symmetry_space_group_name_H-M "P -1"
_symmetry_group_IT_number 2
_symmetry_cell_setting 'triclinic'
loop_
_space_group_symop_operation_xyz
x,y,z
-x,-y,-z
loop_
_atom_site_type_symbol
_atom_site_label
_atom_site_fract_x
_atom_site_fract_y
_atom_site_fract_z
Si Si1 0.245167 0.078097 0.758416
Si Si2 0.844072 0.407585 0.053267
Si Si3 0.594339 0.605696 0.538173
Si Si4 0.667460 0.245892 0.059201
Si Si5 0.582204 0.905482 0.628020
Si Si6 0.897138 0.078459 0.309100
Si Si7 0.866651 0.787993 0.523078
O O1 0.459621 0.810186 0.621229
O O2 0.418355 0.048125 0.804961
O O3 0.053676 0.107164 0.541846
O O4 0.088426 0.266723 0.005057
O O5 0.632042 0.544531 0.942753
O O6 0.929479 0.193801 0.883029
O O7 0.709059 0.644237 0.355496
O O8 0.701428 0.374112 0.226987
O O9 0.858341 0.464992 0.637957
O O10 0.371188 0.733065 0.599776
O O11 0.787003 0.161754 0.186714
O O12 0.794092 0.009861 0.759702
O O13 0.814709 0.809700 0.650477
O O14 0.352197 0.127395 0.642066
#
# Coordination Sequence:
#
# PCOD9030941 Si02
#       7
#     2   2   2   2   2   2   2
#     4  11  22  41  68  93 129 166 206 264 321 372
#     4  10  22  43  62  98 128 161 218 255 313 383
#     4  11  21  39  64  95 130 156 211 271 307 379
#     4  11  21  39  67  92 129 164 205 268 316 369
#     4  10  24  45  64  86 133 173 206 264 309 371
#     4  11  22  39  65  99 126 163 208 261 330 366
#     4  10  24  43  59  96 124 166 223 250 309 388
#
# _framework density 26.865048000000002
#
# number of rings (size 3 to 8) (size 9 to 14) (size 15 to 20)
#    0.000    1.429    2.857    2.571    4.000    2.286 
#    2.571    3.571    0.000    0.000    0.000    0.000 
#    0.000    0.000    0.000    0.000    0.000    0.000 
#
# Total GULP energy -78098.626510 kJ/mol
# GULP energy per Si atom -5578.473322 kJ/mol
# Density = 2.680390 g / cm^3
# Si number density = 26.865048 Si / 1000 Ang^3
#
#
#
# Elastic Constant Matrix: (Units=GPa)
#
#
# Indices 1 2 3 4 5 6 
#
# 1 116.0654 39.0179 32.6543 19.3796 -25.4037 -13.7915
# 2 39.0179 195.1879 37.9894 29.2671 -7.5955 -2.1608
# 3 32.6543 37.9894 76.4283 29.1381 2.2359 -12.2109
# 4 19.3796 29.2671 29.1381 39.9076 0.0461 -8.4590
# 5 -25.4037 -7.5955 2.2359 0.0461 29.4556 7.8290
# 6 -13.7915 -2.1608 -12.2109 -8.4590 7.8290 30.6151
#
#
#
# Elastic Compliance Matrix: (Units=1/GPa)
#
#
# Indices 1 2 3 4 5 6 
#
# 1 0.013115 -0.000960 -0.004502 -0.002277 0.011267 0.000534
# 2 -0.000960 0.006175 -0.001810 -0.003157 0.001427 -0.001955
# 3 -0.004502 -0.001810 0.021040 -0.010753 -0.007293 0.005130
# 4 -0.002277 -0.003157 -0.010753 0.037552 -0.003548 0.005746
# 5 0.011267 0.001427 -0.007293 -0.003548 0.047478 -0.010855
# 6 0.000534 -0.001955 0.005130 0.005746 -0.010855 0.039176
#
#
# Mechanical properties :
#
#
# Convention : Reuss Voigt Hill
#
# Bulk Modulus (GPa) = 38.78102 67.44500 53.11301
# Shear Modulus (GPa) = 26.64200 38.53032 32.58616
#
# Velocity S-wave (km/s) = 3.15254 3.79121 3.48653
# Velocity P-wave (km/s) = 5.26480 6.65763 6.00176
#
# Compressibility (1/GPa) = 0.02578581
#
# Stress axis : x y z
#
# Youngs Moduli (GPa) = 76.24939 161.95523 47.52916
#
# Poissons Ratio (x) = 0.15540 0.21400
# Poissons Ratio (y) = 0.07316 0.08601
# Poissons Ratio (z) = 0.34331 0.29309
#
# Static dielectric constant tensor:
#      x y z
#    x 2.182780 -0.123660 0.012380 
#    y -0.123660 2.246080 -0.125930 
#    z 0.012380 -0.125930 2.203210 
# 
# From -- ./inp_files/154719.got.cif
#   From: 2010.05.17/outbox.cif.g08.bks.cpg/sg2_78_cif.got.tgz:154719.got - 2010.06.03 11:33:40.
