data_PCOD9030464
_publ_section_title
;
Structure prediction by ZEFSAII (Michael W. Deem and Ramdas Pophale) SiO2 
 PCOD9030464
Probable space group: P -1
;
_chemical_formula_sum "Si O2"
_cell_formula_units_Z 14
_cell_length_a 7.007361
_cell_length_b 14.305040
_cell_length_c 9.713065
_cell_angle_alpha 107.086533
_cell_angle_beta 133.141423
_cell_angle_gamma 67.168964
_cell_volume 654.188086
_symmetry_space_group_name_H-M "P -1"
_symmetry_group_IT_number 2
_symmetry_cell_setting 'triclinic'
loop_
_space_group_symop_operation_xyz
x,y,z
-x,-y,-z
loop_
_atom_site_type_symbol
_atom_site_label
_atom_site_fract_x
_atom_site_fract_y
_atom_site_fract_z
Si Si1 0.436654 0.607889 0.093438
Si Si2 0.613800 0.844787 0.510243
Si Si3 0.076046 0.947737 0.868952
Si Si4 0.026406 0.911034 0.363354
Si Si5 0.359408 0.496937 0.576084
Si Si6 0.034262 0.636092 0.690600
Si Si7 0.406045 0.199728 0.823511
O O1 0.463327 0.581848 0.256929
O O2 0.615301 0.681996 0.163383
O O3 0.500000 0.500000 0.000000
O O4 0.148252 0.660963 0.904288
O O5 0.345716 0.865071 0.477415
O O6 0.518780 0.854660 0.310351
O O7 0.815901 0.913020 0.672270
O O8 0.800600 0.731710 0.571817
O O9 0.345364 0.853736 0.976260
O O10 0.114721 0.031377 0.817373
O O11 0.000000 0.000000 0.000000
O O12 0.871616 0.826670 0.286066
O O13 0.000000 0.000000 0.500000
O O14 0.500000 0.500000 0.500000
O O15 0.254321 0.600223 0.659950
O O16 0.095321 0.457925 0.396367
#
# Coordination Sequence:
#
# PCOD9030464 Si02
#       7
#     2   2   2   2   2   2   2
#     4  10  22  45  71 101 142 184 231 291 348 416
#     4  12  24  45  70 105 145 181 235 295 356 418
#     4  12  24  46  72  99 146 188 232 298 358 417
#     4  12  26  45  72 105 142 189 241 293 356 424
#     4  10  22  42  71 101 139 181 231 290 357 415
#     4  10  22  43  68 100 140 181 230 291 351 416
#     4  12  24  45  73 102 141 188 238 295 349 424
#
# _framework density 21.400572
#
# number of rings (size 3 to 8) (size 9 to 14) (size 15 to 20)
#    0.000    0.857    5.714    1.714    0.000    1.714 
#    0.000    5.714    0.000    0.000    0.000    0.000 
#    0.000    0.000    0.000    0.000    0.000    0.000 
#
# Total GULP energy -78156.084042 kJ/mol
# GULP energy per Si atom -5582.577432 kJ/mol
# Density = 2.135186 g / cm^3
# Si number density = 21.400572 Si / 1000 Ang^3
#
#
#
# Elastic Constant Matrix: (Units=GPa)
#
#
# Indices 1 2 3 4 5 6 
#
# 1 140.1573 48.0562 45.4208 -0.3533 -3.2124 11.8139
# 2 48.0562 105.0856 27.8984 -5.5216 0.4244 10.5254
# 3 45.4208 27.8984 115.4017 -7.5972 -2.2353 15.0280
# 4 -0.3533 -5.5216 -7.5972 44.0025 6.4569 10.4379
# 5 -3.2124 0.4244 -2.2353 6.4569 39.7332 0.2908
# 6 11.8139 10.5254 15.0280 10.4379 0.2908 34.4827
#
#
#
# Elastic Compliance Matrix: (Units=1/GPa)
#
#
# Indices 1 2 3 4 5 6 
#
# 1 0.009303 -0.003497 -0.002765 -0.000792 0.000768 -0.000682
# 2 -0.003497 0.011747 -0.001017 0.001986 -0.000769 -0.002539
# 3 -0.002765 -0.001017 0.010730 0.002711 -0.000019 -0.004239
# 4 -0.000792 0.001986 0.002711 0.026282 -0.004135 -0.009437
# 5 0.000768 -0.000769 -0.000019 -0.004135 0.025902 0.001013
# 6 -0.000682 -0.002539 -0.004239 -0.009437 0.001013 0.034704
#
#
# Mechanical properties :
#
#
# Convention : Reuss Voigt Hill
#
# Bulk Modulus (GPa) = 58.06473 67.04394 62.55434
# Shear Modulus (GPa) = 35.98047 39.59496 37.78771
#
# Velocity S-wave (km/s) = 4.10480 4.30604 4.20662
# Velocity P-wave (km/s) = 7.04677 7.49125 7.27241
#
# Compressibility (1/GPa) = 0.01722216
#
# Stress axis : x y z
#
# Youngs Moduli (GPa) = 107.49498 85.12913 93.20080
#
# Poissons Ratio (x) = 0.29767 0.25767
# Poissons Ratio (y) = 0.37588 0.09480
# Poissons Ratio (z) = 0.29719 0.08659
#
# Static dielectric constant tensor:
#      x y z
#    x 1.773240 0.016500 0.008290 
#    y 0.016500 1.842110 -0.030110 
#    z 0.008290 -0.030110 1.838310 
# 
# From -- ./inp_files/135778.got.cif
#   From: 2010.05.17/outbox.cif.g08.bks.cpg/sg2_68_cif.got.tgz:135778.got - 2010.06.03 11:33:40.
