data_PCOD9030646
_publ_section_title
;
Structure prediction by ZEFSAII (Michael W. Deem and Ramdas Pophale) SiO2 
 PCOD9030646
Probable space group: P -1
;
_chemical_formula_sum "Si O2"
_cell_formula_units_Z 15
_cell_length_a 9.711463
_cell_length_b 11.904134
_cell_length_c 8.381933
_cell_angle_alpha 52.821589
_cell_angle_beta 130.731428
_cell_angle_gamma 102.769469
_cell_volume 560.437388
_symmetry_space_group_name_H-M "P -1"
_symmetry_group_IT_number 2
_symmetry_cell_setting 'triclinic'
loop_
_space_group_symop_operation_xyz
x,y,z
-x,-y,-z
loop_
_atom_site_type_symbol
_atom_site_label
_atom_site_fract_x
_atom_site_fract_y
_atom_site_fract_z
Si Si1 0.405296 0.831250 0.626873
Si Si2 0.500000 0.500000 0.000000
Si Si3 0.466009 0.177586 0.620282
Si Si4 0.212889 0.451998 0.082228
Si Si5 0.688008 0.879194 0.031318
Si Si6 0.006141 0.017552 0.296555
Si Si7 0.867254 0.543643 0.518340
Si Si8 0.743171 0.334310 0.790747
O O1 0.408112 0.837498 0.433069
O O2 0.217558 0.948522 0.451220
O O3 0.393387 0.674137 0.814897
O O4 0.603773 0.857236 0.812695
O O5 0.352490 0.443353 0.047029
O O6 0.263277 0.287459 0.334241
O O7 0.565686 0.269929 0.728039
O O8 0.504794 0.009397 0.840403
O O9 0.255122 0.563067 0.146409
O O10 0.006281 0.509094 0.803594
O O11 0.867092 0.936219 0.169406
O O12 0.747855 0.712236 0.281818
O O13 0.000000 0.000000 0.500000
O O14 0.920742 0.189691 0.042875
O O15 0.736826 0.434168 0.540021
O O16 0.000000 0.500000 0.500000
#
# Coordination Sequence:
#
# PCOD9030646 Si02
#       8
#     2   1   2   2   2   2   2   2
#     4  11  24  43  76  99 151 186 246 296 373 431
#     4  10  22  42  72 108 130 192 234 298 360 434
#     4  10  25  45  72 105 139 187 244 299 369 431
#     4  11  24  47  74 100 149 188 248 300 371 438
#     4  11  26  45  69 110 139 190 247 301 363 436
#     4  11  26  48  72 107 148 194 243 306 370 437
#     4  12  27  43  72 108 148 191 247 300 369 437
#     4  11  26  46  73 106 146 194 243 303 369 436
#
# _framework density 26.764807999999999
#
# number of rings (size 3 to 8) (size 9 to 14) (size 15 to 20)
#    0.000    1.067    0.000    5.200   13.067    1.600 
#    4.800    0.000    0.000    0.000    0.000    0.000 
#    0.000    0.000    0.000    0.000    0.000    0.000 
#
# Total GULP energy -83777.746190 kJ/mol
# GULP energy per Si atom -5585.183079 kJ/mol
# Density = 2.670389 g / cm^3
# Si number density = 26.764808 Si / 1000 Ang^3
#
#
#
# Elastic Constant Matrix: (Units=GPa)
#
#
# Indices 1 2 3 4 5 6 
#
# 1 91.9656 27.6140 33.7201 -2.1111 6.0818 -23.4249
# 2 27.6140 155.2313 78.4874 -17.7820 8.6149 6.9885
# 3 33.7201 78.4874 175.3280 -43.8641 30.9453 4.0084
# 4 -2.1111 -17.7820 -43.8641 87.4637 9.4629 0.5558
# 5 6.0818 8.6149 30.9453 9.4629 37.9513 2.6259
# 6 -23.4249 6.9885 4.0084 0.5558 2.6259 34.8553
#
#
#
# Elastic Compliance Matrix: (Units=1/GPa)
#
#
# Indices 1 2 3 4 5 6 
#
# 1 0.015205 -0.002052 -0.002540 -0.001359 -0.000320 0.010968
# 2 -0.002052 0.008746 -0.003869 -0.000388 0.001790 -0.002817
# 3 -0.002540 -0.003869 0.010941 0.005615 -0.008925 -0.001607
# 4 -0.001359 -0.000388 0.005615 0.015003 -0.007936 -0.001123
# 5 -0.000320 0.001790 -0.008925 -0.007936 0.035395 -0.002087
# 6 0.010968 -0.002817 -0.001607 -0.001123 -0.002087 0.036986
#
#
# Mechanical properties :
#
#
# Convention : Reuss Voigt Hill
#
# Bulk Modulus (GPa) = 55.65059 78.01865 66.83462
# Shear Modulus (GPa) = 34.43798 50.90094 42.66946
#
# Velocity S-wave (km/s) = 3.59094 4.36568 3.99712
# Velocity P-wave (km/s) = 6.16690 7.39089 6.80646
#
# Compressibility (1/GPa) = 0.01796926
#
# Stress axis : x y z
#
# Youngs Moduli (GPa) = 65.76893 114.33149 91.40063
#
# Poissons Ratio (x) = 0.23464 0.23215
# Poissons Ratio (y) = 0.13498 0.35365
# Poissons Ratio (z) = 0.16705 0.44238
#
# Static dielectric constant tensor:
#      x y z
#    x 2.126100 -0.014090 -0.009680 
#    y -0.014090 2.142790 0.078500 
#    z -0.009680 0.078500 2.112870 
# 
# From -- ./inp_files/262142.got.cif
#   From: 2010.05.17/outbox.cif.g08.bks.cpg/sg2_132_cif.got.tgz:262142.got - 2010.06.03 11:33:40.
