data_PCOD9030322
_publ_section_title
;
Structure prediction by ZEFSAII (Michael W. Deem and Ramdas Pophale) SiO2 
 PCOD9030322
Probable space group: P -1
;
_chemical_formula_sum "Si O2"
_cell_formula_units_Z 15
_cell_length_a 9.866370
_cell_length_b 9.405632
_cell_length_c 11.324509
_cell_angle_alpha 86.591074
_cell_angle_beta 100.137648
_cell_angle_gamma 44.016387
_cell_volume 691.738996
_symmetry_space_group_name_H-M "P -1"
_symmetry_group_IT_number 2
_symmetry_cell_setting 'triclinic'
loop_
_space_group_symop_operation_xyz
x,y,z
-x,-y,-z
loop_
_atom_site_type_symbol
_atom_site_label
_atom_site_fract_x
_atom_site_fract_y
_atom_site_fract_z
Si Si1 0.997292 0.699292 0.845181
Si Si2 0.021064 0.566641 0.284147
Si Si3 0.086228 0.981417 0.343907
Si Si4 0.500000 0.500000 0.500000
Si Si5 0.461355 0.365129 0.020725
Si Si6 0.128343 0.117869 0.576755
Si Si7 0.716410 0.914391 0.018298
Si Si8 0.471906 0.315080 0.303043
O O1 0.968516 0.606017 0.741306
O O2 0.232559 0.504017 0.933434
O O3 0.956090 0.890337 0.782768
O O4 0.839417 0.786545 0.923261
O O5 0.951599 0.672061 0.397014
O O6 0.865547 0.757585 0.156455
O O7 0.246065 0.458451 0.308169
O O8 0.316721 0.744294 0.403981
O O9 0.943929 0.951366 0.339355
O O10 0.047282 0.118813 0.441239
O O11 0.546825 0.396575 0.380519
O O12 0.500000 0.500000 0.000000
O O13 0.467625 0.330145 0.162385
O O14 0.640803 0.135278 0.999177
O O15 0.373374 0.928732 0.624288
O O16 0.500000 0.000000 0.000000
#
# Coordination Sequence:
#
# PCOD9030322 Si02
#       8
#     2   2   2   1   2   2   2   2
#     4  12  27  43  67 104 142 171 231 288 337 403
#     4  12  23  42  70  97 137 185 225 277 339 412
#     4  10  23  46  67 101 133 179 225 293 333 402
#     4  10  22  42  70  92 132 178 222 274 342 390
#     4  12  26  41  68 105 134 174 227 288 341 405
#     4  10  22  43  71  93 133 181 234 267 346 408
#     4  12  25  46  67  98 140 190 222 272 350 413
#     4  11  22  41  69  97 130 182 227 271 344 402
#
# _framework density 21.684479
#
# number of rings (size 3 to 8) (size 9 to 14) (size 15 to 20)
#    0.000    0.800    5.333    2.000    1.867    1.067 
#    0.000    2.667    0.000    0.000    0.000    0.000 
#    0.000    0.000    0.000    0.000    0.000    0.000 
#
# Total GULP energy -83578.416609 kJ/mol
# GULP energy per Si atom -5571.894441 kJ/mol
# Density = 2.163512 g / cm^3
# Si number density = 21.684479 Si / 1000 Ang^3
#
#
#
# Elastic Constant Matrix: (Units=GPa)
#
#
# Indices 1 2 3 4 5 6 
#
# 1 32.6391 30.6493 2.6160 -4.4602 -6.6956 -5.6437
# 2 30.6493 140.5124 19.8806 11.7798 4.4229 -4.9643
# 3 2.6160 19.8806 53.8878 3.5555 5.5687 -2.2926
# 4 -4.4602 11.7798 3.5555 49.6544 3.3012 6.7135
# 5 -6.6956 4.4229 5.5687 3.3012 12.3810 -2.7594
# 6 -5.6437 -4.9643 -2.2926 6.7135 -2.7594 38.4962
#
#
#
# Elastic Compliance Matrix: (Units=1/GPa)
#
#
# Indices 1 2 3 4 5 6 
#
# 1 0.050566 -0.011963 -0.001395 0.004305 0.032745 0.007384
# 2 -0.011963 0.010524 -0.002257 -0.002745 -0.008631 -0.000671
# 3 -0.001395 -0.002257 0.020423 -0.000478 -0.008971 0.000161
# 4 0.004305 -0.002745 -0.000478 0.021937 -0.003174 -0.003804
# 5 0.032745 -0.008631 -0.008971 -0.003174 0.109009 0.011520
# 6 0.007384 -0.000671 0.000161 -0.003804 0.011520 0.028471
#
#
# Mechanical properties :
#
#
# Convention : Reuss Voigt Hill
#
# Bulk Modulus (GPa) = 19.88780 37.03680 28.46230
# Shear Modulus (GPa) = 17.30580 31.69922 24.50251
#
# Velocity S-wave (km/s) = 2.82808 3.82755 3.36513
# Velocity P-wave (km/s) = 4.45594 6.05396 5.31535
#
# Compressibility (1/GPa) = 0.05028209
#
# Stress axis : x y z
#
# Youngs Moduli (GPa) = 19.77620 95.02345 48.96461
#
# Poissons Ratio (x) = 1.13677 0.06830
# Poissons Ratio (y) = 0.23658 0.11052
# Poissons Ratio (z) = 0.02759 0.21449
#
# Static dielectric constant tensor:
#      x y z
#    x 1.797420 0.019170 -0.013980 
#    y 0.019170 1.790770 0.016520 
#    z -0.013980 0.016520 1.553620 
# 
# From -- ./inp_files/379216.got.cif
#   From: 2010.05.17/outbox.cif.g08.bks.cpg/sg2_190_cif.got.tgz:379216.got - 2010.06.03 11:33:40.
