data_PCOD9030653
_publ_section_title
;
Structure prediction by ZEFSAII (Michael W. Deem and Ramdas Pophale) SiO2 
 PCOD9030653
Probable space group: P -1
;
_chemical_formula_sum "Si O2"
_cell_formula_units_Z 13
_cell_length_a 19.623897
_cell_length_b 9.426932
_cell_length_c 11.179271
_cell_angle_alpha 49.519298
_cell_angle_beta 20.386887
_cell_angle_gamma 49.419623
_cell_volume 541.056684
_symmetry_space_group_name_H-M "P -1"
_symmetry_group_IT_number 2
_symmetry_cell_setting 'triclinic'
loop_
_space_group_symop_operation_xyz
x,y,z
-x,-y,-z
loop_
_atom_site_type_symbol
_atom_site_label
_atom_site_fract_x
_atom_site_fract_y
_atom_site_fract_z
Si Si1 0.695715 0.944886 0.788545
Si Si2 0.834268 0.784956 0.312501
Si Si3 0.391019 0.503308 0.050899
Si Si4 0.615463 0.533925 0.172865
Si Si5 0.000000 0.500000 0.000000
Si Si6 0.106289 0.834448 0.036679
Si Si7 0.142402 0.817743 0.414610
O O1 0.906208 0.926070 0.383532
O O2 0.706877 0.096772 0.791510
O O3 0.684691 0.734062 0.965755
O O4 0.500000 0.000000 0.000000
O O5 0.724325 0.674601 0.650948
O O6 0.863007 0.660923 0.215859
O O7 0.045531 0.787810 0.027263
O O8 0.756622 0.002700 0.290121
O O9 0.247234 0.702147 0.192831
O O10 0.500000 0.500000 0.000000
O O11 0.499828 0.477437 0.758126
O O12 0.500000 0.500000 0.500000
O O13 0.794749 0.361007 0.963454
O O14 0.955842 0.333903 0.263614
O O15 0.000000 0.000000 0.500000
#
# Coordination Sequence:
#
# PCOD9030653 Si02
#       7
#     2   2   2   2   1   2   2
#     4  12  26  48  75 109 152 199 255 318 392 465
#     4  10  23  41  76 101 143 198 245 303 389 454
#     4  11  25  48  71 104 155 194 241 319 390 456
#     4  12  29  46  74 112 149 197 264 315 375 457
#     4  10  22  42  72 110 146 190 258 302 392 466
#     4  11  24  46  75 105 146 192 254 308 377 452
#     4  11  25  45  75 109 147 199 254 317 390 467
#
# _framework density 24.027056000000002
#
# number of rings (size 3 to 8) (size 9 to 14) (size 15 to 20)
#    0.000    0.923    3.077    2.308    8.615    2.462 
#    0.000    1.538    0.000    0.000    0.000    0.000 
#    0.000    0.000    0.000    0.000    0.000    0.000 
#
# Total GULP energy -72434.392280 kJ/mol
# GULP energy per Si atom -5571.876329 kJ/mol
# Density = 2.397237 g / cm^3
# Si number density = 24.027056 Si / 1000 Ang^3
#
#
#
# Elastic Constant Matrix: (Units=GPa)
#
#
# Indices 1 2 3 4 5 6 
#
# 1 103.8352 29.7885 48.1015 -9.1006 25.4532 10.1501
# 2 29.7885 166.2356 44.2850 -23.7834 2.7201 -13.6209
# 3 48.1015 44.2850 65.9439 -3.5106 24.5405 11.3475
# 4 -9.1006 -23.7834 -3.5106 44.8208 1.5060 3.9155
# 5 25.4532 2.7201 24.5405 1.5060 39.2360 10.4428
# 6 10.1501 -13.6209 11.3475 3.9155 10.4428 37.7172
#
#
#
# Elastic Compliance Matrix: (Units=1/GPa)
#
#
# Indices 1 2 3 4 5 6 
#
# 1 0.015241 0.000254 -0.009648 0.002631 -0.003891 -0.000303
# 2 0.000254 0.008855 -0.007701 0.003679 0.002751 0.004303
# 3 -0.009648 -0.007701 0.032780 -0.002511 -0.011885 -0.006496
# 4 0.002631 0.003679 -0.002511 0.024715 -0.001105 -0.000884
# 5 -0.003891 0.002751 -0.011885 -0.001105 0.036457 -0.004363
# 6 -0.000303 0.004303 -0.006496 -0.000884 -0.004363 0.031402
#
#
# Mechanical properties :
#
#
# Convention : Reuss Voigt Hill
#
# Bulk Modulus (GPa) = 44.07621 64.48497 54.28059
# Shear Modulus (GPa) = 26.15016 38.61076 32.38046
#
# Velocity S-wave (km/s) = 3.30261 4.01305 3.67504
# Velocity P-wave (km/s) = 5.73823 6.95482 6.37561
#
# Compressibility (1/GPa) = 0.02268798
#
# Stress axis : x y z
#
# Youngs Moduli (GPa) = 65.61228 112.92583 30.50596
#
# Poissons Ratio (x) = -0.02873 0.29432
# Poissons Ratio (y) = -0.01669 0.23492
# Poissons Ratio (z) = 0.63303 0.86962
#
# Static dielectric constant tensor:
#      x y z
#    x 1.986340 -0.021630 -0.030570 
#    y -0.021630 1.938550 0.004790 
#    z -0.030570 0.004790 1.991850 
# 
# From -- ./inp_files/469190.got.cif
#   From: 2010.05.17/outbox.cif.g08.bks.cpg/sg2_235_cif.got.tgz:469190.got - 2010.06.03 11:33:40.
