data_PCOD9030107
_publ_section_title
;
Structure prediction by ZEFSAII (Michael W. Deem and Ramdas Pophale) SiO2 
 PCOD9030107
Probable space group: P -1
;
_chemical_formula_sum "Si O2"
_cell_formula_units_Z 12
_cell_length_a 11.851525
_cell_length_b 7.561016
_cell_length_c 6.077442
_cell_angle_alpha 112.247340
_cell_angle_beta 92.622438
_cell_angle_gamma 76.589528
_cell_volume 489.777095
_symmetry_space_group_name_H-M "P -1"
_symmetry_group_IT_number 2
_symmetry_cell_setting 'triclinic'
loop_
_space_group_symop_operation_xyz
x,y,z
-x,-y,-z
loop_
_atom_site_type_symbol
_atom_site_label
_atom_site_fract_x
_atom_site_fract_y
_atom_site_fract_z
Si Si1 0.724317 0.107159 0.875104
Si Si2 0.718506 0.523437 0.544393
Si Si3 0.867167 0.733861 0.960414
Si Si4 0.627561 0.880190 0.391484
Si Si5 0.471948 0.332157 0.069143
Si Si6 0.140010 0.603538 0.887721
O O1 0.803438 0.951142 0.975833
O O2 0.704694 0.006293 0.590356
O O3 0.600867 0.190175 0.028927
O O4 0.787203 0.280816 0.899340
O O5 0.813275 0.603285 0.726253
O O6 0.658173 0.677503 0.427363
O O7 0.605718 0.537182 0.689306
O O8 0.800214 0.363876 0.323649
O O9 0.004575 0.702740 0.928862
O O10 0.851422 0.623550 0.139778
O O11 0.500000 0.000000 0.500000
O O12 0.608703 0.805231 0.106661
O O13 0.500000 0.500000 0.000000
#
# Coordination Sequence:
#
# PCOD9030107 Si02
#       6
#     2   2   2   2   2   2
#     4  10  22  42  69  97 130 172 218 269 327 390
#     4  11  22  39  65  94 132 171 210 270 331 389
#     4  10  23  43  67  96 129 173 226 272 318 382
#     4   9  21  38  59  90 128 167 213 264 318 387
#     4  11  23  41  66  99 134 172 216 266 332 396
#     4  11  23  43  68  96 131 172 221 273 326 383
#
# _framework density 24.50094
#
# number of rings (size 3 to 8) (size 9 to 14) (size 15 to 20)
#    0.000    1.667    0.000    4.000    0.000   10.000 
#    0.000   15.000    0.000   23.000    0.000    0.000 
#    0.000    0.000    0.000    0.000    0.000    0.000 
#
# Total GULP energy -66818.736560 kJ/mol
# GULP energy per Si atom -5568.228047 kJ/mol
# Density = 2.444517 g / cm^3
# Si number density = 24.500940 Si / 1000 Ang^3
#
#
#
# Elastic Constant Matrix: (Units=GPa)
#
#
# Indices 1 2 3 4 5 6 
#
# 1 193.3626 62.1039 66.7193 -4.2788 -14.6844 -10.3966
# 2 62.1039 103.6411 26.9782 0.2749 -21.1277 -3.4781
# 3 66.7193 26.9782 85.6058 8.8070 -22.4905 9.9739
# 4 -4.2788 0.2749 8.8070 23.5964 0.4956 9.9777
# 5 -14.6844 -21.1277 -22.4905 0.4956 28.8739 1.4716
# 6 -10.3966 -3.4781 9.9739 9.9777 1.4716 43.2127
#
#
#
# Elastic Compliance Matrix: (Units=1/GPa)
#
#
# Indices 1 2 3 4 5 6 
#
# 1 0.009072 -0.004316 -0.007643 0.003388 -0.004707 0.002978
# 2 -0.004316 0.013661 0.001656 -0.001645 0.009133 -0.000252
# 3 -0.007643 0.001656 0.022609 -0.007777 0.015357 -0.005651
# 4 0.003388 -0.001645 -0.007777 0.049766 -0.005943 -0.008811
# 5 -0.004707 0.009133 0.015357 -0.005943 0.051206 -0.004314
# 6 0.002978 -0.000252 -0.005651 -0.008811 -0.004314 0.027323
#
#
# Mechanical properties :
#
#
# Convention : Reuss Voigt Hill
#
# Bulk Modulus (GPa) = 40.42295 77.13471 58.77883
# Shear Modulus (GPa) = 24.69270 34.25714 29.47492
#
# Velocity S-wave (km/s) = 3.17807 3.74330 3.47221
# Velocity P-wave (km/s) = 5.47734 7.08758 6.33384
#
# Compressibility (1/GPa) = 0.02473842
#
# Stress axis : x y z
#
# Youngs Moduli (GPa) = 110.22368 73.20029 44.22922
#
# Poissons Ratio (x) = 0.31590 0.33804
# Poissons Ratio (y) = 0.47567 -0.07325
# Poissons Ratio (z) = 0.84243 -0.12123
#
# Static dielectric constant tensor:
#      x y z
#    x 1.626400 0.020240 0.348140 
#    y 0.020240 1.989830 -0.069230 
#    z 0.348140 -0.069230 1.660070 
# 
# From -- ./inp_files/59929.got.cif
#   From: 2010.05.17/outbox.cif.g08.bks.cpg/sg2_30_cif.got.tgz:59929.got - 2010.06.03 11:33:40.
