data_PCOD9030728
_publ_section_title
;
Structure prediction by ZEFSAII (Michael W. Deem and Ramdas Pophale) SiO2 
 PCOD9030728
Probable space group: P -1
;
_chemical_formula_sum "Si O2"
_cell_formula_units_Z 16
_cell_length_a 7.738619
_cell_length_b 23.459160
_cell_length_c 5.441635
_cell_angle_alpha 54.956132
_cell_angle_beta 86.107742
_cell_angle_gamma 55.159081
_cell_volume 612.036480
_symmetry_space_group_name_H-M "P -1"
_symmetry_group_IT_number 2
_symmetry_cell_setting 'triclinic'
loop_
_space_group_symop_operation_xyz
x,y,z
-x,-y,-z
loop_
_atom_site_type_symbol
_atom_site_label
_atom_site_fract_x
_atom_site_fract_y
_atom_site_fract_z
Si Si1 0.729231 0.987479 0.678829
Si Si2 0.963835 0.188425 0.628414
Si Si3 0.881274 0.096690 0.515645
Si Si4 0.368572 0.459038 0.616690
Si Si5 0.409006 0.721093 0.219089
Si Si6 0.247918 0.275273 0.556316
Si Si7 0.720032 0.817597 0.709751
Si Si8 0.759292 0.465042 0.060161
O O1 0.863386 0.960348 0.475811
O O2 0.823936 0.031391 0.701985
O O3 0.462434 0.072791 0.501022
O O4 0.815600 0.895686 0.032892
O O5 0.853408 0.146900 0.640026
O O6 0.778476 0.269408 0.622587
O O7 0.042716 0.211824 0.331498
O O8 0.717288 0.178268 0.132205
O O9 0.500000 0.500000 0.500000
O O10 0.516181 0.351768 0.817947
O O11 0.243177 0.487279 0.815855
O O12 0.213978 0.504617 0.277629
O O13 0.610068 0.694721 0.442736
O O14 0.339179 0.215643 0.441354
O O15 0.981636 0.359335 0.326508
O O16 0.261804 0.225504 0.926564
O O17 0.500000 0.500000 0.000000
#
# Coordination Sequence:
#
# PCOD9030728 Si02
#       8
#     2   2   2   2   2   2   2   2
#     4  10  22  44  67 110 146 202 247 305 367 431
#     4  11  26  41  73 107 151 200 253 305 366 438
#     4  10  22  42  73 104 150 198 250 301 367 440
#     4  10  24  44  76 108 146 186 243 307 373 445
#     4  11  26  45  73 110 148 199 250 303 372 451
#     4  12  28  49  74 109 151 195 250 308 376 442
#     4  12  28  45  76 109 154 195 250 312 364 437
#     4  10  24  46  73 106 142 188 236 308 376 444
#
# _framework density 26.142233999999998
#
# number of rings (size 3 to 8) (size 9 to 14) (size 15 to 20)
#    0.000    1.250    1.250    2.250   10.500    2.500 
#    0.000    0.000    0.000    0.000    0.000    0.000 
#    0.000    0.000    0.000    0.000    0.000    0.000 
#
# Total GULP energy -89582.060399 kJ/mol
# GULP energy per Si atom -5598.878775 kJ/mol
# Density = 2.608273 g / cm^3
# Si number density = 26.142234 Si / 1000 Ang^3
#
#
#
# Elastic Constant Matrix: (Units=GPa)
#
#
# Indices 1 2 3 4 5 6 
#
# 1 88.8806 26.6174 41.6411 -17.7876 9.2946 -0.4115
# 2 26.6174 176.8425 44.5791 13.8229 9.2951 0.9953
# 3 41.6411 44.5791 119.5739 24.1951 6.7404 -14.6606
# 4 -17.7876 13.8229 24.1951 44.5408 -3.8819 3.6869
# 5 9.2946 9.2951 6.7404 -3.8819 29.8027 -4.6530
# 6 -0.4115 0.9953 -14.6606 3.6869 -4.6530 40.5713
#
#
#
# Elastic Compliance Matrix: (Units=1/GPa)
#
#
# Indices 1 2 3 4 5 6 
#
# 1 0.018743 -0.001406 -0.009053 0.013005 -0.002368 -0.004500
# 2 -0.001406 0.006490 -0.001570 -0.001798 -0.001583 -0.000759
# 3 -0.009053 -0.001570 0.015388 -0.012090 -0.000724 0.006523
# 4 0.013005 -0.001798 -0.012090 0.035600 0.002766 -0.007111
# 5 -0.002368 -0.001583 -0.000724 0.002766 0.035875 0.003616
# 6 -0.004500 -0.000759 0.006523 -0.007111 0.003616 0.028039
#
#
# Mechanical properties :
#
#
# Convention : Reuss Voigt Hill
#
# Bulk Modulus (GPa) = 60.37364 67.88582 64.12973
# Shear Modulus (GPa) = 29.46150 41.14691 35.30421
#
# Velocity S-wave (km/s) = 3.36068 3.97162 3.67886
# Velocity P-wave (km/s) = 6.18088 6.85974 6.52914
#
# Compressibility (1/GPa) = 0.01656352
#
# Stress axis : x y z
#
# Youngs Moduli (GPa) = 53.35385 154.07938 64.98642
#
# Poissons Ratio (x) = 0.21660 0.58831
# Poissons Ratio (y) = 0.07500 0.10204
# Poissons Ratio (z) = 0.48300 0.24192
#
# Static dielectric constant tensor:
#      x y z
#    x 2.119210 0.038380 0.030470 
#    y 0.038380 1.998500 -0.003380 
#    z 0.030470 -0.003380 2.051030 
# 
# From -- ./inp_files/55368.got.cif
#   From: 2010.05.17/outbox.cif.g08.bks.cpg/sg2_28_cif.got.tgz:55368.got - 2010.06.03 11:33:40.
