data_PCOD9030766
_publ_section_title
;
Structure prediction by ZEFSAII (Michael W. Deem and Ramdas Pophale) SiO2 
 PCOD9030766
Probable space group: P -1
;
_chemical_formula_sum "Si O2"
_cell_formula_units_Z 15
_cell_length_a 6.135760
_cell_length_b 5.969035
_cell_length_c 21.615754
_cell_angle_alpha 105.865829
_cell_angle_beta 61.618882
_cell_angle_gamma 74.346080
_cell_volume 590.513960
_symmetry_space_group_name_H-M "P -1"
_symmetry_group_IT_number 2
_symmetry_cell_setting 'triclinic'
loop_
_space_group_symop_operation_xyz
x,y,z
-x,-y,-z
loop_
_atom_site_type_symbol
_atom_site_label
_atom_site_fract_x
_atom_site_fract_y
_atom_site_fract_z
Si Si1 0.173258 0.674043 0.612366
Si Si2 0.335003 0.702754 0.389334
Si Si3 0.262103 0.400290 0.261923
Si Si4 0.793745 0.922809 0.170911
Si Si5 0.000000 0.500000 0.500000
Si Si6 0.185949 0.557833 0.929699
Si Si7 0.745114 0.887140 0.316542
Si Si8 0.269530 0.903192 0.026204
O O1 0.409608 0.476773 0.612447
O O2 0.163986 0.551233 0.539394
O O3 0.880938 0.743161 0.690512
O O4 0.211980 0.932380 0.624762
O O5 0.337328 0.568631 0.313284
O O6 0.074336 0.701283 0.459708
O O7 0.434770 0.919123 0.373567
O O8 0.016986 0.598125 0.264344
O O9 0.557434 0.168175 0.182243
O O10 0.728222 0.680199 0.147326
O O11 0.751630 0.985231 0.254001
O O12 0.105690 0.864590 0.104216
O O13 0.383026 0.634438 0.950383
O O14 0.984976 0.833763 0.947251
O O15 0.000000 0.500000 0.000000
O O16 0.500000 0.000000 0.000000
#
# Coordination Sequence:
#
# PCOD9030766 Si02
#       8
#     2   2   2   2   1   2   2   2
#     4  10  22  44  67 101 142 180 234 291 338 414
#     4  10  22  44  67 101 145 174 240 286 334 425
#     4  10  24  44  66 102 142 175 231 293 342 417
#     4  11  24  46  72 100 142 182 225 292 355 407
#     4  10  22  42  74 100 140 196 224 290 348 400
#     4   9  22  46  67  99 137 177 228 281 341 416
#     4  11  25  43  70 106 136 181 231 289 350 412
#     4  10  23  48  69 101 136 180 234 284 338 422
#
# _framework density 25.401599000000001
#
# number of rings (size 3 to 8) (size 9 to 14) (size 15 to 20)
#    0.000    1.867    1.333    0.400    3.733    2.667 
#   19.200    6.667    0.000    0.000    0.000    0.000 
#    0.000    0.000    0.000    0.000    0.000    0.000 
#
# Total GULP energy -83501.373841 kJ/mol
# GULP energy per Si atom -5566.758256 kJ/mol
# Density = 2.534378 g / cm^3
# Si number density = 25.401599 Si / 1000 Ang^3
#
#
#
# Elastic Constant Matrix: (Units=GPa)
#
#
# Indices 1 2 3 4 5 6 
#
# 1 129.5128 42.3486 53.6994 -0.0656 -6.0865 48.4430
# 2 42.3486 72.1870 24.0702 -22.9956 -4.1550 15.9800
# 3 53.6994 24.0702 82.5160 -14.7853 -10.6387 12.6142
# 4 -0.0656 -22.9956 -14.7853 26.2801 6.3831 -7.7413
# 5 -6.0865 -4.1550 -10.6387 6.3831 38.6463 5.9664
# 6 48.4430 15.9800 12.6142 -7.7413 5.9664 77.5822
#
#
#
# Elastic Compliance Matrix: (Units=1/GPa)
#
#
# Indices 1 2 3 4 5 6 
#
# 1 0.021116 -0.012784 -0.011724 -0.022007 0.004081 -0.011155
# 2 -0.012784 0.027953 0.004210 0.028996 -0.003363 0.004692
# 3 -0.011724 0.004210 0.020895 0.016556 0.000908 0.004638
# 4 -0.022007 0.028996 0.016556 0.079449 -0.011052 0.013855
# 5 0.004081 -0.003363 0.000908 -0.011052 0.029057 -0.005340
# 6 -0.011155 0.004692 0.004638 0.013855 -0.005340 0.019927
#
#
# Mechanical properties :
#
#
# Convention : Reuss Voigt Hill
#
# Bulk Modulus (GPa) = 34.05121 58.27246 46.16183
# Shear Modulus (GPa) = 20.09784 39.44156 29.76970
#
# Velocity S-wave (km/s) = 2.81589 3.94473 3.42711
# Velocity P-wave (km/s) = 4.89965 6.61348 5.81999
#
# Compressibility (1/GPa) = 0.02936754
#
# Stress axis : x y z
#
# Youngs Moduli (GPa) = 47.35789 35.77376 47.85812
#
# Poissons Ratio (x) = 0.45735 0.56110
# Poissons Ratio (y) = 0.60545 -0.20150
# Poissons Ratio (z) = 0.55524 -0.15062
#
# Static dielectric constant tensor:
#      x y z
#    x 2.223110 0.047350 0.017260 
#    y 0.047350 2.122740 0.032620 
#    z 0.017260 0.032620 2.097310 
# 
# From -- ./inp_files/14000.got.cif
#   From: 2010.05.17/outbox.cif.g08.bks.cpg/sg2_7_cif.got.tgz:14000.got - 2010.06.03 11:33:40.
