data_PCOD9030848
_publ_section_title
;
Structure prediction by ZEFSAII (Michael W. Deem and Ramdas Pophale) SiO2 
 PCOD9030848
Probable space group: P -1
;
_chemical_formula_sum "Si O2"
_cell_formula_units_Z 14
_cell_length_a 11.111310
_cell_length_b 10.067918
_cell_length_c 9.249564
_cell_angle_alpha 44.436805
_cell_angle_beta 125.592726
_cell_angle_gamma 115.689039
_cell_volume 588.801379
_symmetry_space_group_name_H-M "P -1"
_symmetry_group_IT_number 2
_symmetry_cell_setting 'triclinic'
loop_
_space_group_symop_operation_xyz
x,y,z
-x,-y,-z
loop_
_atom_site_type_symbol
_atom_site_label
_atom_site_fract_x
_atom_site_fract_y
_atom_site_fract_z
Si Si1 0.655054 0.402451 0.203343
Si Si2 0.560703 0.288922 0.530320
Si Si3 0.089889 0.485359 0.889781
Si Si4 0.290866 0.994503 0.556933
Si Si5 0.144705 0.199204 0.560333
Si Si6 0.305526 0.527619 0.278899
Si Si7 0.990275 0.933028 0.882161
O O1 0.659221 0.327678 0.428346
O O2 0.792755 0.531706 0.145974
O O3 0.666878 0.222237 0.246582
O O4 0.500000 0.500000 0.000000
O O5 0.444396 0.115058 0.559939
O O6 0.448851 0.460684 0.344844
O O7 0.652897 0.284582 0.747296
O O8 0.000894 0.676488 0.659680
O O9 0.176463 0.503753 0.088272
O O10 0.991893 0.291191 0.961404
O O11 0.196295 0.061891 0.575350
O O12 0.176626 0.031970 0.318797
O O13 0.268131 0.369019 0.500792
O O14 0.105994 0.066537 0.770725
O O15 0.000000 0.000000 0.000000
#
# Coordination Sequence:
#
# PCOD9030848 Si02
#       7
#     2   2   2   2   2   2   2
#     4  12  24  44  73 102 150 197 243 298 369 430
#     4  10  22  44  71 103 146 190 241 300 356 433
#     4  12  25  45  76 107 149 195 241 299 375 435
#     4  11  24  49  74 105 149 192 245 308 359 437
#     4  11  25  48  75 105 153 188 245 303 368 433
#     4  10  22  42  76 107 139 192 245 294 363 434
#     4  12  27  45  71 115 151 188 243 301 372 438
#
# _framework density 23.777117000000001
#
# number of rings (size 3 to 8) (size 9 to 14) (size 15 to 20)
#    0.000    0.857    5.714    1.286    2.000    1.714 
#    0.000    0.714    3.143    0.000    0.000    0.000 
#    0.000    0.000    0.000    0.000    0.000    0.000 
#
# Total GULP energy -78283.631762 kJ/mol
# GULP energy per Si atom -5591.687983 kJ/mol
# Density = 2.372300 g / cm^3
# Si number density = 23.777117 Si / 1000 Ang^3
#
#
#
# Elastic Constant Matrix: (Units=GPa)
#
#
# Indices 1 2 3 4 5 6 
#
# 1 140.9092 35.9002 45.8491 0.9831 -20.9197 -6.2563
# 2 35.9002 117.0378 44.4542 9.6088 -9.3945 -2.4701
# 3 45.8491 44.4542 74.5823 -9.6111 -20.0605 -13.5962
# 4 0.9831 9.6088 -9.6111 35.5841 -8.3464 3.4800
# 5 -20.9197 -9.3945 -20.0605 -8.3464 56.7821 -8.1501
# 6 -6.2563 -2.4701 -13.5962 3.4800 -8.1501 36.6493
#
#
#
# Elastic Compliance Matrix: (Units=1/GPa)
#
#
# Indices 1 2 3 4 5 6 
#
# 1 0.009093 -0.000721 -0.004923 -0.001079 0.001344 0.000079
# 2 -0.000721 0.012381 -0.008902 -0.006091 -0.002630 -0.002598
# 3 -0.004923 -0.008902 0.027537 0.011246 0.009504 0.009821
# 4 -0.001079 -0.006091 0.011246 0.034473 0.007932 0.002068
# 5 0.001344 -0.002630 0.009504 0.007932 0.023346 0.008017
# 6 0.000079 -0.002598 0.009821 0.002068 0.008017 0.032354
#
#
# Mechanical properties :
#
#
# Convention : Reuss Voigt Hill
#
# Bulk Modulus (GPa) = 50.20726 64.99292 57.60009
# Shear Modulus (GPa) = 28.58543 39.55814 34.07178
#
# Velocity S-wave (km/s) = 3.47107 4.08328 3.78956
# Velocity P-wave (km/s) = 6.10132 7.04446 6.58979
#
# Compressibility (1/GPa) = 0.01991744
#
# Stress axis : x y z
#
# Youngs Moduli (GPa) = 109.97515 80.77033 36.31542
#
# Poissons Ratio (x) = 0.05824 0.17879
# Poissons Ratio (y) = 0.07930 0.32328
# Poissons Ratio (z) = 0.54143 0.71903
#
# Static dielectric constant tensor:
#      x y z
#    x 1.948380 0.030910 0.009060 
#    y 0.030910 1.924260 0.005180 
#    z 0.009060 0.005180 1.957940 
# 
# From -- ./inp_files/236899.got.cif
#   From: 2010.05.17/outbox.cif.g08.bks.cpg/sg2_119_cif.got.tgz:236899.got - 2010.06.03 11:33:40.
