data_PCOD9030406
_publ_section_title
;
Structure prediction by ZEFSAII (Michael W. Deem and Ramdas Pophale) SiO2 
 PCOD9030406
Probable space group: P -1
;
_chemical_formula_sum "Si O2"
_cell_formula_units_Z 14
_cell_length_a 9.538208
_cell_length_b 8.379943
_cell_length_c 17.535202
_cell_angle_alpha 115.732131
_cell_angle_beta 150.046575
_cell_angle_gamma 62.545290
_cell_volume 619.081940
_symmetry_space_group_name_H-M "P -1"
_symmetry_group_IT_number 2
_symmetry_cell_setting 'triclinic'
loop_
_space_group_symop_operation_xyz
x,y,z
-x,-y,-z
loop_
_atom_site_type_symbol
_atom_site_label
_atom_site_fract_x
_atom_site_fract_y
_atom_site_fract_z
Si Si1 0.553336 0.367177 0.872160
Si Si2 0.824231 0.648265 0.770061
Si Si3 0.154744 0.035741 0.847470
Si Si4 0.753863 0.360719 0.437522
Si Si5 0.958868 0.693381 0.287028
Si Si6 0.913144 0.314691 0.338836
Si Si7 0.831138 0.044304 0.849385
O O1 0.365861 0.313513 0.842661
O O2 0.378237 0.553196 0.797076
O O3 0.588671 0.214308 0.791721
O O4 0.865609 0.381029 0.050627
O O5 0.583856 0.611337 0.706873
O O6 0.867690 0.505541 0.692909
O O7 0.737954 0.856004 0.747185
O O8 0.041671 0.185980 0.762260
O O9 0.033830 0.085657 0.885295
O O10 0.046166 0.855649 0.731992
O O11 0.500000 0.000000 0.000000
O O12 0.864455 0.260831 0.391429
O O13 0.894952 0.254901 0.556408
O O14 0.857322 0.553556 0.525644
O O15 0.000000 0.000000 0.000000
#
# Coordination Sequence:
#
# PCOD9030406 Si02
#       7
#     2   2   2   2   2   2   2
#     4  10  22  42  70  98 133 176 225 281 335 384
#     4  11  22  42  71  93 137 173 230 274 332 396
#     4  12  25  42  71 102 134 172 229 281 331 393
#     4  10  24  44  68  95 137 187 218 271 336 403
#     4  11  24  43  67 101 133 180 223 269 343 393
#     4  10  24  46  68  96 143 175 226 273 336 397
#     4  10  23  41  64 101 134 168 215 282 336 389
#
# _framework density 22.614131
#
# number of rings (size 3 to 8) (size 9 to 14) (size 15 to 20)
#    0.000    1.429    0.000    5.143    8.000    1.143 
#    5.143    1.429    0.000    0.000    0.000    0.000 
#    0.000    0.000    0.000    0.000    0.000    0.000 
#
# Total GULP energy -78305.420160 kJ/mol
# GULP energy per Si atom -5593.244297 kJ/mol
# Density = 2.256266 g / cm^3
# Si number density = 22.614131 Si / 1000 Ang^3
#
#
#
# Elastic Constant Matrix: (Units=GPa)
#
#
# Indices 1 2 3 4 5 6 
#
# 1 177.3210 33.8600 25.4684 -3.0845 -7.9874 -0.8541
# 2 33.8600 54.1855 -4.4935 -1.7737 -19.2555 -5.5803
# 3 25.4684 -4.4935 55.6426 -4.5364 12.9184 11.3813
# 4 -3.0845 -1.7737 -4.5364 14.7700 1.4293 -7.9406
# 5 -7.9874 -19.2555 12.9184 1.4293 42.0872 -4.2826
# 6 -0.8541 -5.5803 11.3813 -7.9406 -4.2826 29.6293
#
#
#
# Elastic Compliance Matrix: (Units=1/GPa)
#
#
# Indices 1 2 3 4 5 6 
#
# 1 0.007086 -0.004415 -0.003940 0.000238 0.000632 0.001042
# 2 -0.004415 0.026420 0.000239 0.005440 0.011797 0.007920
# 3 -0.003940 0.000239 0.024158 0.002073 -0.009153 -0.010116
# 4 0.000238 0.005440 0.002073 0.080784 0.001402 0.022088
# 5 0.000632 0.011797 -0.009153 0.001402 0.033151 0.010924
# 6 0.001042 0.007920 -0.010116 0.022088 0.010924 0.046656
#
#
# Mechanical properties :
#
#
# Convention : Reuss Voigt Hill
#
# Bulk Modulus (GPa) = 24.13647 44.09101 34.11374
# Shear Modulus (GPa) = 20.13705 32.78491 26.46098
#
# Velocity S-wave (km/s) = 2.98730 3.81169 3.42440
# Velocity P-wave (km/s) = 4.75342 6.23790 5.54556
#
# Compressibility (1/GPa) = 0.04143108
#
# Stress axis : x y z
#
# Youngs Moduli (GPa) = 141.12016 37.85011 41.39439
#
# Poissons Ratio (x) = 0.16711 0.16311
# Poissons Ratio (y) = 0.62306 -0.00989
# Poissons Ratio (z) = 0.55607 -0.00905
#
# Static dielectric constant tensor:
#      x y z
#    x 1.846540 0.001680 -0.018930 
#    y 0.001680 1.863380 0.030510 
#    z -0.018930 0.030510 1.866560 
# 
# From -- ./inp_files/202619.got.cif
#   From: 2010.05.17/outbox.cif.g08.bks.cpg/sg2_102_cif.got.tgz:202619.got - 2010.06.03 11:33:40.
