data_PCOD9030870
_publ_section_title
;
Structure prediction by ZEFSAII (Michael W. Deem and Ramdas Pophale) SiO2 
 PCOD9030870
Probable space group: P -1
;
_chemical_formula_sum "Si O2"
_cell_formula_units_Z 13
_cell_length_a 8.332888
_cell_length_b 9.858749
_cell_length_c 12.797208
_cell_angle_alpha 45.756145
_cell_angle_beta 124.953134
_cell_angle_gamma 95.604555
_cell_volume 529.336602
_symmetry_space_group_name_H-M "P -1"
_symmetry_group_IT_number 2
_symmetry_cell_setting 'triclinic'
loop_
_space_group_symop_operation_xyz
x,y,z
-x,-y,-z
loop_
_atom_site_type_symbol
_atom_site_label
_atom_site_fract_x
_atom_site_fract_y
_atom_site_fract_z
Si Si1 0.428032 0.017052 0.082066
Si Si2 0.905299 0.083369 0.537893
Si Si3 0.500000 0.000000 0.500000
Si Si4 0.026494 0.993721 0.856383
Si Si5 0.922387 0.479515 0.867353
Si Si6 0.687339 0.526315 0.119736
Si Si7 0.470558 0.830042 0.401118
O O1 0.180345 0.042499 0.963320
O O2 0.418956 0.229921 0.009060
O O3 0.500000 0.000000 0.000000
O O4 0.556720 0.824063 0.320325
O O5 0.774492 0.346733 0.340285
O O6 0.071021 0.006613 0.741837
O O7 0.724542 0.014568 0.540349
O O8 0.000000 0.000000 0.500000
O O9 0.400702 0.060849 0.307320
O O10 0.760041 0.174108 0.681190
O O11 0.075643 0.746848 0.026703
O O12 0.658207 0.677634 0.640190
O O13 0.086527 0.519385 0.833008
O O14 0.000000 0.500000 0.000000
O O15 0.500000 0.500000 0.000000
#
# Coordination Sequence:
#
# PCOD9030870 Si02
#       7
#     2   2   1   2   2   2   2
#     4  12  30  51  77 116 171 216 270 336 413 494
#     4  11  25  46  78 114 160 207 269 339 410 479
#     4  10  22  42  78 106 152 198 256 332 404 460
#     4  11  27  50  78 112 163 213 268 335 410 489
#     4  12  27  47  85 122 150 211 278 339 414 486
#     4  12  29  48  80 115 164 209 278 336 407 497
#     4  11  24  49  78 111 157 207 267 337 404 477
#
# _framework density 24.559042999999999
#
# number of rings (size 3 to 8) (size 9 to 14) (size 15 to 20)
#    0.000    0.615    1.538    5.077   15.077    1.231 
#    0.000    0.000    0.000    0.000    0.000    0.000 
#    0.000    0.000    0.000    0.000    0.000    0.000 
#
# Total GULP energy -72515.572992 kJ/mol
# GULP energy per Si atom -5578.120999 kJ/mol
# Density = 2.450315 g / cm^3
# Si number density = 24.559043 Si / 1000 Ang^3
#
#
#
# Elastic Constant Matrix: (Units=GPa)
#
#
# Indices 1 2 3 4 5 6 
#
# 1 119.2319 31.8286 45.7956 10.0661 -15.6636 -5.2306
# 2 31.8286 117.4778 46.7811 7.6472 -1.9893 23.8058
# 3 45.7956 46.7811 142.6897 13.2563 -16.6500 9.2169
# 4 10.0661 7.6472 13.2563 46.4550 -5.6858 -5.8237
# 5 -15.6636 -1.9893 -16.6500 -5.6858 48.8992 17.0504
# 6 -5.2306 23.8058 9.2169 -5.8237 17.0504 37.5519
#
#
#
# Elastic Compliance Matrix: (Units=1/GPa)
#
#
# Indices 1 2 3 4 5 6 
#
# 1 0.010320 -0.002300 -0.002533 -0.000622 0.001289 0.002836
# 2 -0.002300 0.011853 -0.002264 -0.001641 0.001676 -0.008294
# 3 -0.002533 -0.002264 0.009260 -0.001704 0.003040 -0.002835
# 4 -0.000622 -0.001641 -0.001704 0.023046 0.000129 0.004888
# 5 0.001289 0.001676 0.003040 0.000129 0.026782 -0.013769
# 6 0.002836 -0.008294 -0.002835 0.004888 -0.013769 0.039988
#
#
# Mechanical properties :
#
#
# Convention : Reuss Voigt Hill
#
# Bulk Modulus (GPa) = 58.00967 69.80109 63.90538
# Shear Modulus (GPa) = 35.41343 43.58084 39.49713
#
# Velocity S-wave (km/s) = 3.80145 4.21709 4.01465
# Velocity P-wave (km/s) = 6.55285 7.22463 6.89692
#
# Compressibility (1/GPa) = 0.01723851
#
# Stress axis : x y z
#
# Youngs Moduli (GPa) = 96.89870 84.36795 107.99545
#
# Poissons Ratio (x) = 0.19401 0.27359
# Poissons Ratio (y) = 0.22282 0.24452
# Poissons Ratio (z) = 0.24547 0.19102
#
# Static dielectric constant tensor:
#      x y z
#    x 2.014590 0.101190 -0.076040 
#    y 0.101190 1.606560 0.171770 
#    z -0.076040 0.171770 1.940430 
# 
# From -- ./inp_files/375484.got.cif
#   From: 2010.05.17/outbox.cif.g08.bks.cpg/sg2_188_cif.got.tgz:375484.got - 2010.06.03 11:33:40.
