data_PCOD9030917
_publ_section_title
;
Structure prediction by ZEFSAII (Michael W. Deem and Ramdas Pophale) SiO2 
 PCOD9030917
Probable space group: P -1
;
_chemical_formula_sum "Si O2"
_cell_formula_units_Z 16
_cell_length_a 7.461073
_cell_length_b 14.871308
_cell_length_c 16.292078
_cell_angle_alpha 20.032822
_cell_angle_beta 97.393391
_cell_angle_gamma 89.984489
_cell_volume 573.705250
_symmetry_space_group_name_H-M "P -1"
_symmetry_group_IT_number 2
_symmetry_cell_setting 'triclinic'
loop_
_space_group_symop_operation_xyz
x,y,z
-x,-y,-z
loop_
_atom_site_type_symbol
_atom_site_label
_atom_site_fract_x
_atom_site_fract_y
_atom_site_fract_z
Si Si1 0.690448 0.059286 0.483428
Si Si2 0.035346 0.657551 0.742877
Si Si3 0.088456 0.014882 0.293184
Si Si4 0.994685 0.028081 0.093952
Si Si5 0.297127 0.260843 0.875594
Si Si6 0.359305 0.097921 0.689127
Si Si7 0.290440 0.463408 0.524328
Si Si8 0.622688 0.419916 0.806672
O O1 0.709570 0.047910 0.592752
O O2 0.875620 0.811773 0.668742
O O3 0.500000 0.000000 0.500000
O O4 0.751063 0.330511 0.230467
O O5 0.998264 0.851677 0.492346
O O6 0.025292 0.352719 0.991646
O O7 0.055393 0.919795 0.282938
O O8 0.115044 0.762125 0.272797
O O9 0.090257 0.263399 0.884128
O O10 0.765041 0.204872 0.932187
O O11 0.305428 0.265662 0.773996
O O12 0.402704 0.476252 0.720442
O O13 0.431440 0.011000 0.157888
O O14 0.248493 0.303150 0.580965
O O15 0.339857 0.296321 0.440951
O O16 0.335430 0.798863 0.928288
O O17 0.500000 0.500000 0.500000
#
# Coordination Sequence:
#
# PCOD9030917 Si02
#       8
#     2   2   2   2   2   2   2   2
#     4   9  20  41  76 105 127 173 217 255 309 381
#     4   9  21  43  65  98 142 164 208 269 301 381
#     4  10  23  44  61  99 141 173 209 261 327 382
#     4  12  27  40  66  93 133 180 218 268 339 398
#     4  10  23  41  65  88 126 162 218 283 337 386
#     4  10  22  43  62  89 119 158 224 288 330 375
#     4  12  21  42  67  90 125 171 226 289 336 381
#     4  10  24  43  59  92 122 161 221 276 328 397
#
# _framework density 27.888884000000001
#
# number of rings (size 3 to 8) (size 9 to 14) (size 15 to 20)
#    1.500    0.250    2.500    0.750    5.250    1.500 
#    2.250    1.250    0.000    0.000    0.000    0.000 
#    0.000    0.000    0.000    0.000    0.000    0.000 
#
# Total GULP energy -89215.234665 kJ/mol
# GULP energy per Si atom -5575.952167 kJ/mol
# Density = 2.782541 g / cm^3
# Si number density = 27.888884 Si / 1000 Ang^3
#
#
#
# Elastic Constant Matrix: (Units=GPa)
#
#
# Indices 1 2 3 4 5 6 
#
# 1 170.8847 50.2128 66.8036 -5.2727 -18.8049 24.0157
# 2 50.2128 108.6772 26.6901 -2.4562 -5.9891 0.2117
# 3 66.8036 26.6901 168.1705 1.5553 -35.2522 11.3415
# 4 -5.2727 -2.4562 1.5553 42.8891 5.1680 -2.0271
# 5 -18.8049 -5.9891 -35.2522 5.1680 53.2651 -3.9071
# 6 24.0157 0.2117 11.3415 -2.0271 -3.9071 41.7126
#
#
#
# Elastic Compliance Matrix: (Units=1/GPa)
#
#
# Indices 1 2 3 4 5 6 
#
# 1 0.008414 -0.003234 -0.002427 0.000668 0.000637 -0.004076
# 2 -0.003234 0.010840 -0.000619 0.000366 -0.000223 0.001972
# 3 -0.002427 -0.000619 0.007977 -0.001177 0.004437 -0.000410
# 4 0.000668 0.000366 -0.001177 0.023833 -0.002753 0.000834
# 5 0.000637 -0.000223 0.004437 -0.002753 0.022205 0.000374
# 6 -0.004076 0.001972 -0.000410 0.000834 0.000374 0.026497
#
#
# Mechanical properties :
#
#
# Convention : Reuss Voigt Hill
#
# Bulk Modulus (GPa) = 68.15611 81.68282 74.91947
# Shear Modulus (GPa) = 42.65591 47.84175 45.24883
#
# Velocity S-wave (km/s) = 3.91512 4.14628 4.03236
# Velocity P-wave (km/s) = 6.70291 7.23011 6.97150
#
# Compressibility (1/GPa) = 0.01467220
#
# Stress axis : x y z
#
# Youngs Moduli (GPa) = 118.84382 92.25318 125.35373
#
# Poissons Ratio (x) = 0.29831 0.30424
# Poissons Ratio (y) = 0.38429 0.07760
# Poissons Ratio (z) = 0.28844 0.05711
#
# Static dielectric constant tensor:
#      x y z
#    x 2.266270 -0.032070 -0.025340 
#    y -0.032070 2.177590 -0.028800 
#    z -0.025340 -0.028800 2.269560 
# 
# From -- ./inp_files/562022.got.cif
#   From: 2010.05.17/outbox.cif.g08.bks.cpg/sg2_282_cif.got.tgz:562022.got - 2010.06.03 11:33:40.
