data_PCOD9030213
_publ_section_title
;
Structure prediction by ZEFSAII (Michael W. Deem and Ramdas Pophale) SiO2 
 PCOD9030213
Probable space group: P -1
;
_chemical_formula_sum "Si O2"
_cell_formula_units_Z 16
_cell_length_a 15.737172
_cell_length_b 17.647034
_cell_length_c 17.470681
_cell_angle_alpha 163.525228
_cell_angle_beta 142.345159
_cell_angle_gamma 34.488291
_cell_volume 779.091621
_symmetry_space_group_name_H-M "P -1"
_symmetry_group_IT_number 2
_symmetry_cell_setting 'triclinic'
loop_
_space_group_symop_operation_xyz
x,y,z
-x,-y,-z
loop_
_atom_site_type_symbol
_atom_site_label
_atom_site_fract_x
_atom_site_fract_y
_atom_site_fract_z
Si Si1 0.830394 0.201353 0.558073
Si Si2 0.241579 0.954685 0.354384
Si Si3 0.570654 0.846777 0.531576
Si Si4 0.410192 0.905800 0.626011
Si Si5 0.437614 0.270124 0.272300
Si Si6 0.821804 0.554009 0.101238
Si Si7 0.844915 0.723710 0.993780
Si Si8 0.652314 0.328493 0.991864
O O1 0.821412 0.519938 0.845245
O O2 0.721862 0.204588 0.552946
O O3 0.000000 0.000000 0.500000
O O4 0.796622 0.041777 0.304183
O O5 0.409311 0.953506 0.477632
O O6 0.225664 0.869436 0.173104
O O7 0.150992 0.249255 0.619850
O O8 0.229867 0.689910 0.137295
O O9 0.528140 0.769772 0.510444
O O10 0.621173 0.114480 0.822224
O O11 0.679735 0.576980 0.299794
O O12 0.310321 0.224822 0.831307
O O13 0.501473 0.836037 0.702656
O O14 0.500000 0.500000 0.500000
O O15 0.259698 0.329448 0.198279
O O16 0.500000 0.000000 0.000000
O O17 0.980826 0.399929 0.023911
O O18 0.500000 0.500000 0.000000
#
# Coordination Sequence:
#
# PCOD9030213 Si02
#       8
#     2   2   2   2   2   2   2   2
#     4  12  24  38  60  83 115 153 194 243 290 338
#     4  10  19  34  54  84 115 150 177 231 288 350
#     4  10  20  30  51  82 112 148 180 230 282 342
#     4  11  23  38  59  84 117 148 200 236 287 329
#     4  12  25  42  59  80 112 159 201 241 287 338
#     4  11  23  34  58  86 115 145 193 236 284 336
#     4  12  24  41  57  84 113 156 200 235 287 343
#     4  10  17  32  51  78 118 146 175 219 294 350
#
# _framework density 20.536738
#
# number of rings (size 3 to 8) (size 9 to 14) (size 15 to 20)
#    0.000    1.000    3.750    6.375    1.750    4.000 
#    0.000    0.000    0.000    0.000    0.000    5.250 
#    0.000    0.000    0.000    0.250    0.000    0.000 
#
# Total GULP energy -89210.739055 kJ/mol
# GULP energy per Si atom -5575.671191 kJ/mol
# Density = 2.049000 g / cm^3
# Si number density = 20.536738 Si / 1000 Ang^3
#
#
#
# Elastic Constant Matrix: (Units=GPa)
#
#
# Indices 1 2 3 4 5 6 
#
# 1 90.8972 20.0790 26.8283 3.1783 -11.6424 20.9438
# 2 20.0790 68.8970 6.9415 -16.1213 0.6126 0.4674
# 3 26.8283 6.9415 100.6598 14.6374 -5.6885 -0.0280
# 4 3.1783 -16.1213 14.6374 25.1119 3.7332 -1.2351
# 5 -11.6424 0.6126 -5.6885 3.7332 47.2056 -4.5039
# 6 20.9438 0.4674 -0.0280 -1.2351 -4.5039 17.1300
#
#
#
# Elastic Compliance Matrix: (Units=1/GPa)
#
#
# Indices 1 2 3 4 5 6 
#
# 1 0.019507 -0.006603 -0.003711 -0.006097 0.002699 -0.023406
# 2 -0.006603 0.020342 -0.002103 0.015905 -0.002644 0.007966
# 3 -0.003711 -0.002103 0.012342 -0.008102 0.001666 0.004469
# 4 -0.006097 0.015905 -0.008102 0.056927 -0.006286 0.009459
# 5 0.002699 -0.002644 0.001666 -0.006286 0.022803 0.002318
# 6 -0.023406 0.007966 0.004469 0.009459 0.002318 0.088076
#
#
# Mechanical properties :
#
#
# Convention : Reuss Voigt Hill
#
# Bulk Modulus (GPa) = 36.55386 40.90572 38.72979
# Shear Modulus (GPa) = 19.68889 31.66320 25.67605
#
# Velocity S-wave (km/s) = 3.09967 3.93081 3.53972
# Velocity P-wave (km/s) = 5.53611 6.36893 5.96707
#
# Compressibility (1/GPa) = 0.02735689
#
# Stress axis : x y z
#
# Youngs Moduli (GPa) = 51.26270 49.15978 81.02273
#
# Poissons Ratio (x) = 0.32461 0.30069
# Poissons Ratio (y) = 0.33849 0.17038
# Poissons Ratio (z) = 0.19025 0.10338
#
# Static dielectric constant tensor:
#      x y z
#    x 1.762850 -0.016330 -0.023070 
#    y -0.016330 1.760190 -0.043570 
#    z -0.023070 -0.043570 1.788300 
# 
# From -- ./inp_files/534682.got.cif
#   From: 2010.05.17/outbox.cif.g08.bks.cpg/sg2_268_cif.got.tgz:534682.got - 2010.06.03 11:33:40.
