data_PCOD9030035
_publ_section_title
;
Structure prediction by ZEFSAII (Michael W. Deem and Ramdas Pophale) SiO2 
 PCOD9030035
Probable space group: P -1
;
_chemical_formula_sum "Si O2"
_cell_formula_units_Z 14
_cell_length_a 9.157985
_cell_length_b 6.860521
_cell_length_c 22.067121
_cell_angle_alpha 96.529104
_cell_angle_beta 141.639857
_cell_angle_gamma 106.737760
_cell_volume 676.271692
_symmetry_space_group_name_H-M "P -1"
_symmetry_group_IT_number 2
_symmetry_cell_setting 'triclinic'
loop_
_space_group_symop_operation_xyz
x,y,z
-x,-y,-z
loop_
_atom_site_type_symbol
_atom_site_label
_atom_site_fract_x
_atom_site_fract_y
_atom_site_fract_z
Si Si1 0.235526 0.958424 0.874055
Si Si2 0.288965 0.746756 0.575765
Si Si3 0.607300 0.719858 0.182066
Si Si4 0.747188 0.009911 0.543554
Si Si5 0.649044 0.263576 0.775511
Si Si6 0.753271 0.665433 0.038053
Si Si7 0.394228 0.493984 0.346475
O O1 0.956225 0.677971 0.758012
O O2 0.363878 0.115749 0.859427
O O3 0.113790 0.063624 0.884730
O O4 0.500000 0.000000 0.000000
O O5 0.499838 0.675800 0.621827
O O6 0.000000 0.500000 0.500000
O O7 0.199203 0.837302 0.493869
O O8 0.450038 0.974033 0.682962
O O9 0.432127 0.711946 0.182635
O O10 0.427034 0.441084 0.087080
O O11 0.945323 0.851201 0.315964
O O12 0.601671 0.730113 0.465800
O O13 0.500000 0.000000 0.500000
O O14 0.580496 0.398148 0.708691
O O15 0.988682 0.364991 0.881845
O O16 0.500000 0.500000 0.000000
#
# Coordination Sequence:
#
# PCOD9030035 Si02
#       7
#     2   2   2   2   2   2   2
#     4  11  24  43  68  98 128 177 225 272 333 396
#     4  11  23  42  67  95 138 174 218 269 331 396
#     4  11  24  43  66  96 138 171 222 279 329 391
#     4  11  26  41  67 100 134 179 220 272 330 389
#     4  11  23  44  69 101 132 176 219 275 337 388
#     4  10  22  42  69  92 131 176 217 271 335 388
#     4  11  23  43  68  95 136 173 223 269 327 398
#
# _framework density 20.701740000000001
#
# number of rings (size 3 to 8) (size 9 to 14) (size 15 to 20)
#    0.000    1.143    1.429    4.714    8.000    5.714 
#    2.571    1.429    0.000    0.000    0.000    0.000 
#    0.000    0.000    0.000    0.000    0.000    0.000 
#
# Total GULP energy -78222.737339 kJ/mol
# GULP energy per Si atom -5587.338381 kJ/mol
# Density = 2.065462 g / cm^3
# Si number density = 20.701740 Si / 1000 Ang^3
#
#
#
# Elastic Constant Matrix: (Units=GPa)
#
#
# Indices 1 2 3 4 5 6 
#
# 1 76.6176 -10.9941 11.4608 -10.1786 -9.2789 2.7279
# 2 -10.9941 46.5947 9.0919 5.9342 -7.6455 -0.1245
# 3 11.4608 9.0919 121.6553 -2.8243 2.6988 -1.1198
# 4 -10.1786 5.9342 -2.8243 33.3628 -3.8110 10.8873
# 5 -9.2789 -7.6455 2.6988 -3.8110 41.7269 4.8312
# 6 2.7279 -0.1245 -1.1198 10.8873 4.8312 27.1708
#
#
#
# Elastic Compliance Matrix: (Units=1/GPa)
#
#
# Indices 1 2 3 4 5 6 
#
# 1 0.015573 0.004130 -0.001801 0.006140 0.005482 -0.005054
# 2 0.004130 0.024086 -0.002368 -0.002510 0.005295 -0.000338
# 3 -0.001801 -0.002368 0.008610 0.000206 -0.001454 0.000701
# 4 0.006140 -0.002510 0.000206 0.038676 0.006423 -0.017259
# 5 0.005482 0.005295 -0.001454 0.006423 0.027773 -0.008098
# 6 -0.005054 -0.000338 0.000701 -0.017259 -0.008098 0.045694
#
#
# Mechanical properties :
#
#
# Convention : Reuss Voigt Hill
#
# Bulk Modulus (GPa) = 20.75082 29.33167 25.04124
# Shear Modulus (GPa) = 28.31988 36.13937 32.22962
#
# Velocity S-wave (km/s) = 3.70265 4.18271 3.94998
# Velocity P-wave (km/s) = 5.32212 6.12586 5.73808
#
# Compressibility (1/GPa) = 0.04819087
#
# Stress axis : x y z
#
# Youngs Moduli (GPa) = 64.21190 41.51841 116.14267
#
# Poissons Ratio (x) = -0.17148 0.20922
# Poissons Ratio (y) = -0.26521 0.27502
# Poissons Ratio (z) = 0.11567 0.09831
#
# Static dielectric constant tensor:
#      x y z
#    x 1.722340 -0.035950 0.016260 
#    y -0.035950 1.779560 0.020230 
#    z 0.016260 0.020230 1.756070 
# 
# From -- ./inp_files/117165.got.cif
#   From: 2010.05.17/outbox.cif.g08.bks.cpg/sg2_59_cif.got.tgz:117165.got - 2010.06.03 11:33:40.
