data_PCOD9030640
_publ_section_title
;
Structure prediction by ZEFSAII (Michael W. Deem and Ramdas Pophale) SiO2 
 PCOD9030640
Probable space group: P -1
;
_chemical_formula_sum "Si O2"
_cell_formula_units_Z 16
_cell_length_a 9.716019
_cell_length_b 9.094297
_cell_length_c 24.710710
_cell_angle_alpha 133.390737
_cell_angle_beta 151.423882
_cell_angle_gamma 46.822333
_cell_volume 738.067137
_symmetry_space_group_name_H-M "P -1"
_symmetry_group_IT_number 2
_symmetry_cell_setting 'triclinic'
loop_
_space_group_symop_operation_xyz
x,y,z
-x,-y,-z
loop_
_atom_site_type_symbol
_atom_site_label
_atom_site_fract_x
_atom_site_fract_y
_atom_site_fract_z
Si Si1 0.116968 0.594759 0.691834
Si Si2 0.215774 0.156005 0.105568
Si Si3 0.406835 0.977636 0.901200
Si Si4 0.801360 0.572537 0.109616
Si Si5 0.683372 0.835107 0.382953
Si Si6 0.816673 0.460584 0.660744
Si Si7 0.342237 0.853877 0.644328
Si Si8 0.441759 0.135627 0.461291
O O1 0.233180 0.795667 0.796296
O O2 0.342105 0.399407 0.694567
O O3 0.968264 0.516027 0.672937
O O4 0.847786 0.686168 0.582211
O O5 0.335379 0.110152 0.075019
O O6 0.492168 0.121477 0.235436
O O7 0.021720 0.388467 0.106784
O O8 0.000000 0.000000 0.000000
O O9 0.252658 0.206041 0.882828
O O10 0.500000 0.000000 0.000000
O O11 0.951032 0.586406 0.222585
O O12 0.500000 0.500000 0.000000
O O13 0.005392 0.824059 0.519576
O O14 0.673357 0.948950 0.350491
O O15 0.433990 0.976254 0.369623
O O16 0.555846 0.656028 0.638368
O O17 0.684475 0.259193 0.558194
O O18 0.500000 0.000000 0.500000
#
# Coordination Sequence:
#
# PCOD9030640 Si02
#       8
#     2   2   2   2   2   2   2   2
#     4  12  26  44  69 103 146 184 235 295 358 429
#     4  11  26  46  77 108 141 188 247 302 355 436
#     4  12  29  48  71 109 146 186 239 302 366 429
#     4  11  24  46  77 105 137 189 238 297 365 421
#     4  11  24  41  71 104 142 190 231 292 361 422
#     4  11  22  45  70 101 144 186 239 290 351 431
#     4  10  22  42  72 107 140 183 246 291 352 428
#     4  12  26  42  67 103 143 189 236 290 351 423
#
# _framework density 21.678245
#
# number of rings (size 3 to 8) (size 9 to 14) (size 15 to 20)
#    0.000    0.750    3.750    3.375    7.000    5.000 
#    0.000    0.000    0.000    0.000    0.000    0.000 
#    0.000    0.000    0.000    0.000    0.000    0.000 
#
# Total GULP energy -89480.739088 kJ/mol
# GULP energy per Si atom -5592.546193 kJ/mol
# Density = 2.162890 g / cm^3
# Si number density = 21.678245 Si / 1000 Ang^3
#
#
#
# Elastic Constant Matrix: (Units=GPa)
#
#
# Indices 1 2 3 4 5 6 
#
# 1 96.8181 40.8926 21.6191 2.5457 -9.1159 8.0124
# 2 40.8926 174.3458 50.0790 15.0864 -7.2842 10.6124
# 3 21.6191 50.0790 90.7333 8.0669 -3.1606 10.5814
# 4 2.5457 15.0864 8.0669 39.0967 7.0797 1.6815
# 5 -9.1159 -7.2842 -3.1606 7.0797 28.2549 3.4200
# 6 8.0124 10.6124 10.5814 1.6815 3.4200 43.6050
#
#
#
# Elastic Compliance Matrix: (Units=1/GPa)
#
#
# Indices 1 2 3 4 5 6 
#
# 1 0.012005 -0.002173 -0.001335 -0.000216 0.003413 -0.001612
# 2 -0.002173 0.007492 -0.003282 -0.002320 0.001525 -0.000658
# 3 -0.001335 -0.003282 0.013580 -0.001514 0.000896 -0.002263
# 4 -0.000216 -0.002320 -0.001514 0.028221 -0.007970 0.000509
# 5 0.003413 0.001525 0.000896 -0.007970 0.039468 -0.004004
# 6 -0.001612 -0.000658 -0.002263 0.000509 -0.004004 0.024233
#
#
# Mechanical properties :
#
#
# Convention : Reuss Voigt Hill
#
# Bulk Modulus (GPa) = 51.28429 65.23097 58.25763
# Shear Modulus (GPa) = 34.46416 38.81175 36.63795
#
# Velocity S-wave (km/s) = 3.99156 4.23585 4.11552
# Velocity P-wave (km/s) = 6.70461 7.35385 7.03672
#
# Compressibility (1/GPa) = 0.01949915
#
# Stress axis : x y z
#
# Youngs Moduli (GPa) = 83.29889 133.46735 73.63595
#
# Poissons Ratio (x) = 0.29000 0.09830
# Poissons Ratio (y) = 0.18099 0.24164
# Poissons Ratio (z) = 0.11120 0.43797
#
# Static dielectric constant tensor:
#      x y z
#    x 1.744000 -0.015610 0.007960 
#    y -0.015610 1.862750 0.044740 
#    z 0.007960 0.044740 1.816730 
# 
# From -- ./inp_files/606835.got.cif
#   From: 2010.05.17/outbox.cif.g08.bks.cpg/sg2_304_cif.got.tgz:606835.got - 2010.06.03 11:33:40.
