data_PCOD9030760
_publ_section_title
;
Structure prediction by ZEFSAII (Michael W. Deem and Ramdas Pophale) SiO2 
 PCOD9030760
Probable space group: P -1
;
_chemical_formula_sum "Si O2"
_cell_formula_units_Z 16
_cell_length_a 9.035039
_cell_length_b 8.888035
_cell_length_c 21.688265
_cell_angle_alpha 31.519574
_cell_angle_beta 63.404415
_cell_angle_gamma 59.695486
_cell_volume 785.505609
_symmetry_space_group_name_H-M "P -1"
_symmetry_group_IT_number 2
_symmetry_cell_setting 'triclinic'
loop_
_space_group_symop_operation_xyz
x,y,z
-x,-y,-z
loop_
_atom_site_type_symbol
_atom_site_label
_atom_site_fract_x
_atom_site_fract_y
_atom_site_fract_z
Si Si1 0.737137 0.120827 0.817977
Si Si2 0.508172 0.274953 0.520996
Si Si3 0.393318 0.406099 0.220250
Si Si4 0.604470 0.577629 0.010932
Si Si5 0.007989 0.562456 0.183602
Si Si6 0.165322 0.458786 0.440683
Si Si7 0.960641 0.179289 0.042608
Si Si8 0.850518 0.104109 0.440856
O O1 0.631274 0.399485 0.780758
O O2 0.832565 0.250393 0.701083
O O3 0.876974 0.922787 0.907592
O O4 0.622275 0.913576 0.887094
O O5 0.500000 0.500000 0.500000
O O6 0.336107 0.377852 0.477790
O O7 0.674083 0.261450 0.452757
O O8 0.530784 0.940271 0.658431
O O9 0.509656 0.526297 0.108633
O O10 0.204932 0.452474 0.208635
O O11 0.794171 0.358164 0.047425
O O12 0.500000 0.500000 0.000000
O O13 0.908277 0.325801 0.305805
O O14 0.005634 0.623491 0.089966
O O15 0.932570 0.878802 0.121556
O O16 0.000000 0.500000 0.500000
O O17 0.170068 0.188244 0.487768
O O18 0.000000 0.000000 0.500000
#
# Coordination Sequence:
#
# PCOD9030760 Si02
#       8
#     2   2   2   2   2   2   2   2
#     4  11  26  49  67  96 147 179 233 287 349 427
#     4  12  28  46  72 104 142 186 243 292 357 424
#     4  11  24  47  69 103 140 185 231 286 352 421
#     4  12  26  41  73 102 137 178 235 291 346 402
#     4  10  22  42  73  99 144 175 232 280 351 414
#     4  12  29  47  72 106 142 187 239 292 361 428
#     4  10  23  44  66 104 132 185 228 281 343 414
#     4  12  23  46  75 104 142 189 228 296 358 421
#
# _framework density 20.369046999999998
#
# number of rings (size 3 to 8) (size 9 to 14) (size 15 to 20)
#    0.000    0.750    3.750    2.625    7.000    1.000 
#    0.000    0.000    0.000    0.000    0.000    0.000 
#    0.000    0.000    0.000    0.000    0.000    0.000 
#
# Total GULP energy -89592.750729 kJ/mol
# GULP energy per Si atom -5599.546921 kJ/mol
# Density = 2.032269 g / cm^3
# Si number density = 20.369047 Si / 1000 Ang^3
#
#
#
# Elastic Constant Matrix: (Units=GPa)
#
#
# Indices 1 2 3 4 5 6 
#
# 1 118.7207 55.0734 42.2738 -0.4924 -5.2475 15.7670
# 2 55.0734 101.7765 9.5745 9.7137 -13.2670 -3.2280
# 3 42.2738 9.5745 120.1231 18.7526 -20.2301 6.7382
# 4 -0.4924 9.7137 18.7526 35.3482 -4.7781 -8.5432
# 5 -5.2475 -13.2670 -20.2301 -4.7781 37.4467 1.9488
# 6 15.7670 -3.2280 6.7382 -8.5432 1.9488 35.0302
#
#
#
# Elastic Compliance Matrix: (Units=1/GPa)
#
#
# Indices 1 2 3 4 5 6 
#
# 1 0.014827 -0.008437 -0.005325 0.003641 -0.003044 -0.005369
# 2 -0.008437 0.015305 0.003149 -0.004515 0.005198 0.003211
# 3 -0.005325 0.003149 0.012166 -0.006973 0.006140 -0.001695
# 4 0.003641 -0.004515 -0.006973 0.035080 -0.000791 0.007886
# 5 -0.003044 0.005198 0.006140 -0.000791 0.031402 -0.001272
# 6 -0.005369 0.003211 -0.001695 0.007886 -0.001272 0.033579
#
#
# Mechanical properties :
#
#
# Convention : Reuss Voigt Hill
#
# Bulk Modulus (GPa) = 47.45631 61.60706 54.53168
# Shear Modulus (GPa) = 29.30700 37.14494 33.22597
#
# Velocity S-wave (km/s) = 3.79727 4.27499 4.04319
# Velocity P-wave (km/s) = 6.52491 7.39449 6.97327
#
# Compressibility (1/GPa) = 0.02107201
#
# Stress axis : x y z
#
# Youngs Moduli (GPa) = 67.44624 65.33880 82.19866
#
# Poissons Ratio (x) = 0.55124 0.43773
# Poissons Ratio (y) = 0.56902 -0.25887
# Poissons Ratio (z) = 0.35917 -0.20577
#
# Static dielectric constant tensor:
#      x y z
#    x 1.704260 0.009520 0.006350 
#    y 0.009520 1.703910 -0.003850 
#    z 0.006350 -0.003850 1.701570 
# 
# From -- ./inp_files/383186.got.cif
#   From: 2010.05.17/outbox.cif.g08.bks.cpg/sg2_192_cif.got.tgz:383186.got - 2010.06.03 11:33:40.
