data_PCOD9030095
_publ_section_title
;
Structure prediction by ZEFSAII (Michael W. Deem and Ramdas Pophale) SiO2 
 PCOD9030095
Probable space group: P -1
;
_chemical_formula_sum "Si O2"
_cell_formula_units_Z 14
_cell_length_a 7.500168
_cell_length_b 9.853668
_cell_length_c 9.761938
_cell_angle_alpha 120.844276
_cell_angle_beta 113.032903
_cell_angle_gamma 66.295179
_cell_volume 551.196300
_symmetry_space_group_name_H-M "P -1"
_symmetry_group_IT_number 2
_symmetry_cell_setting 'triclinic'
loop_
_space_group_symop_operation_xyz
x,y,z
-x,-y,-z
loop_
_atom_site_type_symbol
_atom_site_label
_atom_site_fract_x
_atom_site_fract_y
_atom_site_fract_z
Si Si1 0.747149 0.522922 0.203555
Si Si2 0.790444 0.804001 0.518714
Si Si3 0.051578 0.825214 0.851623
Si Si4 0.413997 0.520000 0.331665
Si Si5 0.317629 0.983552 0.840964
Si Si6 0.803578 0.647606 0.006870
Si Si7 0.331332 0.875783 0.483768
O O1 0.874130 0.636906 0.374451
O O2 0.863639 0.335119 0.115844
O O3 0.583954 0.511758 0.263132
O O4 0.678640 0.616175 0.088531
O O5 0.549482 0.835640 0.455905
O O6 0.871135 0.794094 0.690907
O O7 0.823497 0.970249 0.550432
O O8 0.216982 0.850366 0.806140
O O9 0.000000 0.000000 0.000000
O O10 0.500000 0.500000 0.500000
O O11 0.304132 0.385458 0.181222
O O12 0.273230 0.704713 0.375778
O O13 0.373645 0.928779 0.675841
O O14 0.177532 0.168553 0.888849
O O15 0.500000 0.000000 0.000000
O O16 0.000000 0.500000 0.000000
#
# Coordination Sequence:
#
# PCOD9030095 Si02
#       7
#     2   2   2   2   2   2   2
#     4  11  24  47  70 102 135 187 227 286 347 418
#     4  10  23  43  68  99 132 176 226 281 344 410
#     4  12  26  41  69 101 138 176 228 286 342 412
#     4  11  25  45  73 102 139 186 233 283 353 424
#     4  12  25  45  68 100 139 183 228 281 349 418
#     4  12  27  45  70 106 144 182 235 295 347 411
#     4  10  22  42  69  96 131 176 227 277 338 413
#
# _framework density 25.399301999999999
#
# number of rings (size 3 to 8) (size 9 to 14) (size 15 to 20)
#    0.000    0.857    1.429    5.143    4.000    6.286 
#    0.000    0.000    0.000    0.000    0.000    0.000 
#    0.000    0.000    0.000    0.000    0.000    0.000 
#
# Total GULP energy -78372.085630 kJ/mol
# GULP energy per Si atom -5598.006116 kJ/mol
# Density = 2.534149 g / cm^3
# Si number density = 25.399302 Si / 1000 Ang^3
#
#
#
# Elastic Constant Matrix: (Units=GPa)
#
#
# Indices 1 2 3 4 5 6 
#
# 1 52.6889 8.1760 -2.9025 -4.1086 -11.0842 9.4782
# 2 8.1760 168.1503 32.2365 34.1824 -5.7033 4.6270
# 3 -2.9025 32.2365 128.6134 9.0380 -8.1481 -0.8387
# 4 -4.1086 34.1824 9.0380 54.9829 0.5709 -8.1945
# 5 -11.0842 -5.7033 -8.1481 0.5709 34.0540 0.1288
# 6 9.4782 4.6270 -0.8387 -8.1945 0.1288 30.8681
#
#
#
# Elastic Compliance Matrix: (Units=1/GPa)
#
#
# Indices 1 2 3 4 5 6 
#
# 1 0.021948 -0.001090 0.001107 0.001125 0.007231 -0.006277
# 2 -0.001090 0.007320 -0.001505 -0.004697 0.000598 -0.002053
# 3 0.001107 -0.001505 0.008337 -0.000374 0.002109 0.000004
# 4 0.001125 -0.004697 -0.000374 0.022193 -0.000905 0.006244
# 5 0.007231 0.000598 0.002109 -0.000905 0.032349 -0.002628
# 6 -0.006277 -0.002053 0.000004 0.006244 -0.002628 0.036300
#
#
# Mechanical properties :
#
#
# Convention : Reuss Voigt Hill
#
# Bulk Modulus (GPa) = 28.87799 47.16362 38.02080
# Shear Modulus (GPa) = 34.97344 44.77718 39.87531
#
# Velocity S-wave (km/s) = 3.71475 4.20328 3.96654
# Velocity P-wave (km/s) = 5.45833 6.49353 5.99831
#
# Compressibility (1/GPa) = 0.03462845
#
# Stress axis : x y z
#
# Youngs Moduli (GPa) = 45.56323 136.60881 119.94295
#
# Poissons Ratio (x) = 0.14891 -0.13273
# Poissons Ratio (y) = 0.04967 0.18049
# Poissons Ratio (z) = -0.05042 0.20557
#
# Static dielectric constant tensor:
#      x y z
#    x 2.182230 0.010770 -0.063310 
#    y 0.010770 2.018550 -0.000280 
#    z -0.063310 -0.000280 1.969910 
# 
# From -- ./inp_files/159904.got.cif
#   From: 2010.05.17/outbox.cif.g08.bks.cpg/sg2_80_cif.got.tgz:159904.got - 2010.06.03 11:33:40.
