data_PCOD9030964
_publ_section_title
;
Structure prediction by ZEFSAII (Michael W. Deem and Ramdas Pophale) SiO2 
 PCOD9030964
Probable space group: P -1
;
_chemical_formula_sum "Si O2"
_cell_formula_units_Z 16
_cell_length_a 8.292773
_cell_length_b 10.232486
_cell_length_c 22.088591
_cell_angle_alpha 44.974125
_cell_angle_beta 136.701492
_cell_angle_gamma 100.011542
_cell_volume 645.653679
_symmetry_space_group_name_H-M "P -1"
_symmetry_group_IT_number 2
_symmetry_cell_setting 'triclinic'
loop_
_space_group_symop_operation_xyz
x,y,z
-x,-y,-z
loop_
_atom_site_type_symbol
_atom_site_label
_atom_site_fract_x
_atom_site_fract_y
_atom_site_fract_z
Si Si1 0.884145 0.983731 0.884813
Si Si2 0.070411 0.105893 0.575965
Si Si3 0.606887 0.784790 0.438351
Si Si4 0.325194 0.013837 0.503945
Si Si5 0.917674 0.758828 0.208633
Si Si6 0.708936 0.515875 0.904919
Si Si7 0.349513 0.399986 0.895904
Si Si8 0.587658 0.985617 0.175997
O O1 0.647576 0.094011 0.724901
O O2 0.024394 0.110082 0.867872
O O3 0.643176 0.057934 0.850378
O O4 0.172356 0.669811 0.060038
O O5 0.372500 0.820267 0.721945
O O6 0.745707 0.163587 0.459905
O O7 0.069891 0.297696 0.476780
O O8 0.174964 0.091539 0.677937
O O9 0.489890 0.998438 0.385230
O O10 0.725562 0.537584 0.586209
O O11 0.966068 0.305167 0.303442
O O12 0.500000 0.000000 0.500000
O O13 0.677455 0.742151 0.116741
O O14 0.798354 0.858135 0.213036
O O15 0.653487 0.373767 0.982700
O O16 0.000000 0.500000 0.000000
O O17 0.351784 0.291053 0.995463
#
# Coordination Sequence:
#
# PCOD9030964 Si02
#       8
#     2   2   2   2   2   2   2   2
#     4  11  24  40  68 101 122 178 219 261 332 382
#     4  10  23  40  64  98 126 170 217 260 337 377
#     4  10  22  43  63  90 132 172 212 267 321 385
#     4  10  23  39  64  96 129 170 215 263 324 395
#     4  11  24  46  63  91 138 175 213 273 319 378
#     4  11  20  42  65  95 132 162 214 273 322 382
#     4  10  24  43  65  94 134 174 210 273 331 371
#     4  11  23  41  68  95 127 172 222 270 314 393
#
# _framework density 24.781088
#
# number of rings (size 3 to 8) (size 9 to 14) (size 15 to 20)
#    0.000    1.500    3.750    1.125    1.750    6.500 
#    4.500    0.000    0.000    0.000    0.000    0.000 
#    0.000    0.000    0.000    0.000    0.000    0.000 
#
# Total GULP energy -89244.997795 kJ/mol
# GULP energy per Si atom -5577.812362 kJ/mol
# Density = 2.472469 g / cm^3
# Si number density = 24.781088 Si / 1000 Ang^3
#
#
#
# Elastic Constant Matrix: (Units=GPa)
#
#
# Indices 1 2 3 4 5 6 
#
# 1 131.3813 59.0453 20.6590 13.3385 -7.0477 20.5731
# 2 59.0453 89.0778 19.7263 5.0691 -4.4396 22.7663
# 3 20.6590 19.7263 52.5769 6.4520 -14.9428 9.2029
# 4 13.3385 5.0691 6.4520 27.1236 0.9209 -5.9983
# 5 -7.0477 -4.4396 -14.9428 0.9209 40.1806 7.4616
# 6 20.5731 22.7663 9.2029 -5.9983 7.4616 51.8530
#
#
#
# Elastic Compliance Matrix: (Units=1/GPa)
#
#
# Indices 1 2 3 4 5 6 
#
# 1 0.011642 -0.006602 -0.000597 -0.004942 0.001654 -0.002425
# 2 -0.006602 0.017495 -0.002952 -0.000370 0.000551 -0.004660
# 3 -0.000597 -0.002952 0.024863 -0.006524 0.009905 -0.005060
# 4 -0.004942 -0.000370 -0.006524 0.043145 -0.006020 0.009139
# 5 0.001654 0.000551 0.009905 -0.006020 0.030498 -0.007741
# 6 -0.002425 -0.004660 -0.005060 0.009139 -0.007741 0.025362
#
#
# Mechanical properties :
#
#
# Convention : Reuss Voigt Hill
#
# Bulk Modulus (GPa) = 29.67404 52.43299 41.05351
# Shear Modulus (GPa) = 27.09431 35.40515 31.24973
#
# Velocity S-wave (km/s) = 3.31017 3.78394 3.55495
# Velocity P-wave (km/s) = 5.15849 6.34786 5.78383
#
# Compressibility (1/GPa) = 0.03369949
#
# Stress axis : x y z
#
# Youngs Moduli (GPa) = 85.89375 57.15770 40.22015
#
# Poissons Ratio (x) = 0.37733 0.02400
# Poissons Ratio (y) = 0.56704 0.11874
# Poissons Ratio (z) = 0.05126 0.16875
#
# Static dielectric constant tensor:
#      x y z
#    x 1.973150 0.033360 -0.039410 
#    y 0.033360 2.047420 -0.069310 
#    z -0.039410 -0.069310 1.984700 
# 
# From -- ./inp_files/616923.got.cif
#   From: 2010.05.17/outbox.cif.g08.bks.cpg/sg2_309_cif.got.tgz:616923.got - 2010.06.03 11:33:40.
