data_PCOD9030720
_publ_section_title
;
Structure prediction by ZEFSAII (Michael W. Deem and Ramdas Pophale) SiO2 
 PCOD9030720
Probable space group: P -1
;
_chemical_formula_sum "Si O2"
_cell_formula_units_Z 16
_cell_length_a 6.890175
_cell_length_b 5.874821
_cell_length_c 24.726767
_cell_angle_alpha 91.462143
_cell_angle_beta 128.316195
_cell_angle_gamma 73.695213
_cell_volume 738.916332
_symmetry_space_group_name_H-M "P -1"
_symmetry_group_IT_number 2
_symmetry_cell_setting 'triclinic'
loop_
_space_group_symop_operation_xyz
x,y,z
-x,-y,-z
loop_
_atom_site_type_symbol
_atom_site_label
_atom_site_fract_x
_atom_site_fract_y
_atom_site_fract_z
Si Si1 0.212668 0.466874 0.449562
Si Si2 0.304859 0.055517 0.306462
Si Si3 0.783390 0.616675 0.156634
Si Si4 0.117634 0.558887 0.711287
Si Si5 0.263669 0.006082 0.019801
Si Si6 0.585421 0.289386 0.057370
Si Si7 0.333724 0.544112 0.252458
Si Si8 0.188431 0.151665 0.537413
O O1 0.500000 0.500000 0.500000
O O2 0.245286 0.225591 0.487672
O O3 0.083260 0.481871 0.368157
O O4 0.979374 0.644480 0.447855
O O5 0.337152 0.290406 0.281147
O O6 0.027649 0.173248 0.289117
O O7 0.326908 0.796291 0.282315
O O8 0.536969 0.990138 0.389283
O O9 0.830177 0.617930 0.228852
O O10 0.517023 0.818573 0.092689
O O11 0.750134 0.363533 0.131738
O O12 0.049306 0.623656 0.175000
O O13 0.397891 0.529673 0.734573
O O14 0.325845 0.252992 0.035684
O O15 0.266393 0.936851 0.956464
O O16 0.000000 0.000000 0.000000
O O17 0.500000 0.500000 0.000000
O O18 0.000000 0.000000 0.500000
#
# Coordination Sequence:
#
# PCOD9030720 Si02
#       8
#     2   2   2   2   2   2   2   2
#     4  11  25  43  70 101 139 191 250 308 377 437
#     4  11  26  46  72 101 145 187 253 307 366 443
#     4  10  25  42  68 102 143 183 239 291 361 437
#     4  11  25  46  70 104 143 195 245 299 377 440
#     4  10  22  42  73 103 140 184 236 283 359 432
#     4   9  21  43  64  98 139 175 220 293 342 419
#     4  11  26  48  69 105 149 194 239 310 365 436
#     4  11  24  43  69  99 141 186 248 315 376 432
#
# _framework density 21.653331000000001
#
# number of rings (size 3 to 8) (size 9 to 14) (size 15 to 20)
#    0.000    1.500    1.250    1.500    8.750   11.000 
#    0.000    0.000    0.000    0.000    0.000    0.000 
#    0.000    0.000    0.000    0.000    0.000    0.000 
#
# Total GULP energy -89128.740845 kJ/mol
# GULP energy per Si atom -5570.546303 kJ/mol
# Density = 2.160405 g / cm^3
# Si number density = 21.653331 Si / 1000 Ang^3
#
#
#
# Elastic Constant Matrix: (Units=GPa)
#
#
# Indices 1 2 3 4 5 6 
#
# 1 173.1617 51.2443 65.6407 1.4262 34.1442 3.7498
# 2 51.2443 91.4989 35.5626 -1.7895 5.0525 10.0238
# 3 65.6407 35.5626 133.0906 -15.3565 15.7490 10.8379
# 4 1.4262 -1.7895 -15.3565 28.9971 -2.7293 9.2110
# 5 34.1442 5.0525 15.7490 -2.7293 40.9702 0.8884
# 6 3.7498 10.0238 10.8379 9.2110 0.8884 41.8042
#
#
#
# Elastic Compliance Matrix: (Units=1/GPa)
#
#
# Indices 1 2 3 4 5 6 
#
# 1 0.009497 -0.003901 -0.003480 -0.003772 -0.006390 0.001953
# 2 -0.003901 0.013991 -0.001705 0.001292 0.002330 -0.002897
# 3 -0.003480 -0.001705 0.010836 0.006898 -0.000517 -0.003597
# 4 -0.003772 0.001292 0.006898 0.042264 0.003390 -0.011144
# 5 -0.006390 0.002330 -0.000517 0.003390 0.029897 -0.001234
# 6 0.001953 -0.002897 -0.003597 -0.011144 -0.001234 0.027855
#
#
# Mechanical properties :
#
#
# Convention : Reuss Voigt Hill
#
# Bulk Modulus (GPa) = 61.91475 78.07182 69.99328
# Shear Modulus (GPa) = 31.66645 38.70786 35.18715
#
# Velocity S-wave (km/s) = 3.82832 4.23261 4.03553
# Velocity P-wave (km/s) = 6.94241 7.74727 7.35586
#
# Compressibility (1/GPa) = 0.01615124
#
# Stress axis : x y z
#
# Youngs Moduli (GPa) = 105.29252 71.47599 92.28809
#
# Poissons Ratio (x) = 0.27886 0.32115
# Poissons Ratio (y) = 0.41079 0.15735
# Poissons Ratio (z) = 0.36640 0.12187
#
# Static dielectric constant tensor:
#      x y z
#    x 1.680730 0.238810 0.031870 
#    y 0.238810 1.424320 -0.133160 
#    z 0.031870 -0.133160 1.763060 
# 
# From -- ./inp_files/603282.got.cif
#   From: 2010.05.17/outbox.cif.g08.bks.cpg/sg2_302_cif.got.tgz:603282.got - 2010.06.03 11:33:40.
