data_PCOD9030209
_publ_section_title
;
Structure prediction by ZEFSAII (Michael W. Deem and Ramdas Pophale) SiO2 
 PCOD9030209
Probable space group: P -1
;
_chemical_formula_sum "Si O2"
_cell_formula_units_Z 16
_cell_length_a 17.424775
_cell_length_b 9.566873
_cell_length_c 11.843868
_cell_angle_alpha 47.747064
_cell_angle_beta 149.246861
_cell_angle_gamma 117.429642
_cell_volume 710.550909
_symmetry_space_group_name_H-M "P -1"
_symmetry_group_IT_number 2
_symmetry_cell_setting 'triclinic'
loop_
_space_group_symop_operation_xyz
x,y,z
-x,-y,-z
loop_
_atom_site_type_symbol
_atom_site_label
_atom_site_fract_x
_atom_site_fract_y
_atom_site_fract_z
Si Si1 0.570753 0.180812 0.068885
Si Si2 0.182739 0.228620 0.366685
Si Si3 0.319518 0.560785 0.768793
Si Si4 0.928558 0.051624 0.255454
Si Si5 0.870002 0.600064 0.039767
Si Si6 0.786656 0.567124 0.495747
Si Si7 0.361663 0.640229 0.173969
Si Si8 0.139949 0.293304 0.789278
O O1 0.689685 0.270856 0.242683
O O2 0.653362 0.947428 0.313549
O O3 0.386262 0.265462 0.828686
O O4 0.581640 0.254551 0.915518
O O5 0.188320 0.417208 0.347558
O O6 0.046209 0.148851 0.288154
O O7 0.152784 0.284207 0.169363
O O8 0.232860 0.611332 0.510180
O O9 0.277611 0.371352 0.869450
O O10 0.500000 0.500000 0.000000
O O11 0.903628 0.873536 0.246069
O O12 0.756068 0.202934 0.978018
O O13 0.000000 0.000000 0.500000
O O14 0.843576 0.744772 0.035198
O O15 0.044121 0.434986 0.340146
O O16 0.740702 0.487119 0.941687
O O17 0.500000 0.500000 0.500000
O O18 0.000000 0.500000 0.500000
#
# Coordination Sequence:
#
# PCOD9030209 Si02
#       8
#     2   2   2   2   2   2   2   2
#     4  11  24  44  70 102 143 185 239 293 358 429
#     4  12  25  43  68 109 146 180 242 298 361 420
#     4  10  22  42  70 101 137 182 236 288 358 416
#     4  12  25  45  76 109 142 188 247 300 352 434
#     4  12  26  46  71 102 147 191 236 295 362 430
#     4  11  23  42  71 101 138 186 235 287 354 424
#     4  12  26  47  72 103 144 192 240 300 363 422
#     4  12  23  45  74 105 142 192 240 295 360 428
#
# _framework density 22.517738000000001
#
# number of rings (size 3 to 8) (size 9 to 14) (size 15 to 20)
#    0.000    0.500    5.000    3.750    1.750    0.500 
#    2.250    1.875    0.000    0.000    0.000    0.000 
#    0.000    0.000    0.000    0.000    0.000    0.000 
#
# Total GULP energy -89295.325364 kJ/mol
# GULP energy per Si atom -5580.957835 kJ/mol
# Density = 2.246649 g / cm^3
# Si number density = 22.517738 Si / 1000 Ang^3
#
#
#
# Elastic Constant Matrix: (Units=GPa)
#
#
# Indices 1 2 3 4 5 6 
#
# 1 168.4045 64.0941 69.2062 8.0847 -12.6934 -5.7100
# 2 64.0941 155.5734 49.9784 31.4251 -17.2864 -27.4880
# 3 69.2062 49.9784 128.8586 5.6436 10.2554 -5.3364
# 4 8.0847 31.4251 5.6436 36.9891 -4.5436 -2.0224
# 5 -12.6934 -17.2864 10.2554 -4.5436 52.5385 12.9297
# 6 -5.7100 -27.4880 -5.3364 -2.0224 12.9297 46.9457
#
#
#
# Elastic Compliance Matrix: (Units=1/GPa)
#
#
# Indices 1 2 3 4 5 6 
#
# 1 0.008593 -0.002463 -0.003966 0.001045 0.002497 -0.001491
# 2 -0.002463 0.010886 -0.002470 -0.007868 0.001551 0.005028
# 3 -0.003966 -0.002470 0.011151 0.000799 -0.003995 0.000474
# 4 0.001045 -0.007868 0.000799 0.033337 0.001199 -0.003283
# 5 0.002497 0.001551 -0.003995 0.001199 0.022346 -0.005345
# 6 -0.001491 0.005028 0.000474 -0.003283 -0.005345 0.025448
#
#
# Mechanical properties :
#
#
# Convention : Reuss Voigt Hill
#
# Bulk Modulus (GPa) = 77.93032 91.04377 84.48705
# Shear Modulus (GPa) = 37.35911 45.26516 41.31213
#
# Velocity S-wave (km/s) = 4.07762 4.48839 4.28793
# Velocity P-wave (km/s) = 7.54008 8.20857 7.88142
#
# Compressibility (1/GPa) = 0.01283198
#
# Stress axis : x y z
#
# Youngs Moduli (GPa) = 116.37671 91.86101 89.67840
#
# Poissons Ratio (x) = 0.22625 0.35565
# Poissons Ratio (y) = 0.28664 0.22151
# Poissons Ratio (z) = 0.46153 0.22690
#
# Static dielectric constant tensor:
#      x y z
#    x 1.816040 -0.048430 -0.016400 
#    y -0.048430 1.922240 0.057460 
#    z -0.016400 0.057460 1.874530 
# 
# From -- ./inp_files/461938.got.cif
#   From: 2010.05.17/outbox.cif.g08.bks.cpg/sg2_231_cif.got.tgz:461938.got - 2010.06.03 11:33:40.
