data_PCOD9030517
_publ_section_title
;
Structure prediction by ZEFSAII (Michael W. Deem and Ramdas Pophale) SiO2 
 PCOD9030517
Probable space group: P -1
;
_chemical_formula_sum "Si O2"
_cell_formula_units_Z 16
_cell_length_a 9.038979
_cell_length_b 16.808772
_cell_length_c 8.997364
_cell_angle_alpha 138.151987
_cell_angle_beta 99.716241
_cell_angle_gamma 57.354901
_cell_volume 698.727151
_symmetry_space_group_name_H-M "P -1"
_symmetry_group_IT_number 2
_symmetry_cell_setting 'triclinic'
loop_
_space_group_symop_operation_xyz
x,y,z
-x,-y,-z
loop_
_atom_site_type_symbol
_atom_site_label
_atom_site_fract_x
_atom_site_fract_y
_atom_site_fract_z
Si Si1 0.354013 0.152017 0.480250
Si Si2 0.630171 0.481653 0.170071
Si Si3 0.205482 0.467997 0.995639
Si Si4 0.008600 0.625733 0.744281
Si Si5 0.307735 0.773065 0.693934
Si Si6 0.489170 0.330632 0.096187
Si Si7 0.111756 0.124237 0.170417
Si Si8 0.659752 0.849817 0.191180
O O1 0.337929 0.300125 0.705644
O O2 0.211106 0.164985 0.359092
O O3 0.308257 0.126393 0.602325
O O4 0.569439 0.996812 0.278059
O O5 0.734990 0.451036 0.986736
O O6 0.778546 0.460905 0.284169
O O7 0.433389 0.651518 0.413946
O O8 0.607781 0.354224 0.035248
O O9 0.274278 0.460398 0.166261
O O10 0.000000 0.500000 0.000000
O O11 0.000000 0.500000 0.500000
O O12 0.942626 0.765920 0.823934
O O13 0.860709 0.704180 0.963335
O O14 0.428877 0.685103 0.746133
O O15 0.093959 0.823061 0.734480
O O16 0.258100 0.939687 0.910485
O O17 0.488094 0.188068 0.888958
#
# Coordination Sequence:
#
# PCOD9030517 Si02
#       8
#     2   2   2   2   2   2   2   2
#     4  10  22  42  71  93 137 181 229 288 350 405
#     4  12  25  43  71 102 136 188 233 286 354 419
#     4  11  26  45  72 104 139 180 235 291 357 420
#     4  12  26  42  70 105 143 184 237 291 352 417
#     4  11  25  44  68 101 143 183 236 287 354 414
#     4  11  22  45  69  97 140 180 229 291 346 415
#     4  11  25  44  67 101 142 187 230 292 346 424
#     4  10  23  43  70 100 136 180 234 290 350 411
#
# _framework density 22.898779000000001
#
# number of rings (size 3 to 8) (size 9 to 14) (size 15 to 20)
#    0.000    1.000    2.500    3.750    5.250    0.500 
#    2.250    0.000    0.000    6.000    0.000    0.000 
#    0.000    0.000    0.000    0.000    0.000    0.000 
#
# Total GULP energy -89223.480530 kJ/mol
# GULP energy per Si atom -5576.467533 kJ/mol
# Density = 2.284666 g / cm^3
# Si number density = 22.898779 Si / 1000 Ang^3
#
#
#
# Elastic Constant Matrix: (Units=GPa)
#
#
# Indices 1 2 3 4 5 6 
#
# 1 73.1679 12.8276 13.3073 16.6284 -11.9692 7.4790
# 2 12.8276 92.2831 5.6260 2.2873 -11.9587 0.4811
# 3 13.3073 5.6260 63.0280 24.7305 -9.6137 -5.4481
# 4 16.6284 2.2873 24.7305 32.8259 0.5783 9.8778
# 5 -11.9692 -11.9587 -9.6137 0.5783 31.7854 -1.9456
# 6 7.4790 0.4811 -5.4481 9.8778 -1.9456 40.5000
#
#
#
# Elastic Compliance Matrix: (Units=1/GPa)
#
#
# Indices 1 2 3 4 5 6 
#
# 1 0.016893 -0.001363 0.001152 -0.009332 0.006344 -0.000368
# 2 -0.001363 0.011530 -0.000012 -0.000282 0.003849 0.000367
# 3 0.001152 -0.000012 0.027628 -0.024570 0.009843 0.009969
# 4 -0.009332 -0.000282 -0.024570 0.058944 -0.013139 -0.016586
# 5 0.006344 0.003849 0.009843 -0.013139 0.038831 0.005177
# 6 -0.000368 0.000367 0.009969 -0.016586 0.005177 0.030390
#
#
# Mechanical properties :
#
#
# Convention : Reuss Voigt Hill
#
# Bulk Modulus (GPa) = 17.98389 32.44454 25.21422
# Shear Modulus (GPa) = 24.60688 34.13681 29.37184
#
# Velocity S-wave (km/s) = 3.28166 3.86524 3.58534
# Velocity P-wave (km/s) = 4.71484 5.84119 5.30798
#
# Compressibility (1/GPa) = 0.05560531
#
# Stress axis : x y z
#
# Youngs Moduli (GPa) = 59.19714 86.72848 36.19582
#
# Poissons Ratio (x) = 0.11822 -0.04171
# Poissons Ratio (y) = 0.08069 0.00043
# Poissons Ratio (z) = -0.06822 0.00104
#
# Static dielectric constant tensor:
#      x y z
#    x 1.856770 0.001470 -0.015640 
#    y 0.001470 2.000850 0.071690 
#    z -0.015640 0.071690 1.931100 
# 
# From -- ./inp_files/218927.got.cif
#   From: 2010.05.17/outbox.cif.g08.bks.cpg/sg2_110_cif.got.tgz:218927.got - 2010.06.03 11:33:40.
