data_PCOD9030711
_publ_section_title
;
Structure prediction by ZEFSAII (Michael W. Deem and Ramdas Pophale) SiO2 
 PCOD9030711
Probable space group: P -1
;
_chemical_formula_sum "Si O2"
_cell_formula_units_Z 16
_cell_length_a 12.083224
_cell_length_b 15.172492
_cell_length_c 7.941424
_cell_angle_alpha 102.188671
_cell_angle_beta 126.133686
_cell_angle_gamma 39.637630
_cell_volume 661.470342
_symmetry_space_group_name_H-M "P -1"
_symmetry_group_IT_number 2
_symmetry_cell_setting 'triclinic'
loop_
_space_group_symop_operation_xyz
x,y,z
-x,-y,-z
loop_
_atom_site_type_symbol
_atom_site_label
_atom_site_fract_x
_atom_site_fract_y
_atom_site_fract_z
Si Si1 0.401240 0.945181 0.009392
Si Si2 0.029418 0.675749 0.751464
Si Si3 0.949508 0.984923 0.129457
Si Si4 0.163400 0.042145 0.473410
Si Si5 0.715447 0.527041 0.414890
Si Si6 0.312764 0.634099 0.249507
Si Si7 0.173291 0.254402 0.908705
Si Si8 0.662182 0.750092 0.623273
O O1 0.263773 0.002563 0.733191
O O2 0.311236 0.092585 0.040824
O O3 0.311101 0.916536 0.039944
O O4 0.674109 0.799540 0.140873
O O5 0.184878 0.530389 0.707941
O O6 0.977993 0.795421 0.652846
O O7 0.784766 0.759371 0.619755
O O8 0.173368 0.629441 0.027746
O O9 0.127306 0.804484 0.232493
O O10 0.009163 0.034598 0.326162
O O11 0.000000 0.000000 0.000000
O O12 0.389269 0.910318 0.497989
O O13 0.469370 0.605725 0.242848
O O14 0.692626 0.638177 0.517071
O O15 0.913022 0.375260 0.654560
O O16 0.500000 0.500000 0.500000
O O17 0.196745 0.316288 0.098844
#
# Coordination Sequence:
#
# PCOD9030711 Si02
#       8
#     2   2   2   2   2   2   2   2
#     4  10  22  43  68 107 141 186 243 297 353 424
#     4  12  25  45  71 105 140 194 241 301 358 429
#     4  12  24  44  73 106 144 188 244 303 356 428
#     4  11  23  44  71 102 143 188 244 295 357 426
#     4  12  24  46  66 103 148 182 242 295 363 433
#     4  12  27  48  73 100 147 196 236 295 370 441
#     4  10  22  42  73 101 141 194 238 293 357 431
#     4  11  24  43  69 105 144 188 239 296 361 429
#
# _framework density 24.188537
#
# number of rings (size 3 to 8) (size 9 to 14) (size 15 to 20)
#    0.000    0.750    3.750    4.125    0.000    1.000 
#    2.250    0.000    0.000    0.000    0.000    0.000 
#    0.000    0.000    0.000    0.000    0.000    0.000 
#
# Total GULP energy -89690.501069 kJ/mol
# GULP energy per Si atom -5605.656317 kJ/mol
# Density = 2.413348 g / cm^3
# Si number density = 24.188537 Si / 1000 Ang^3
#
#
#
# Elastic Constant Matrix: (Units=GPa)
#
#
# Indices 1 2 3 4 5 6 
#
# 1 132.7785 25.6550 13.7434 7.8495 26.0330 -10.8294
# 2 25.6550 120.2260 21.0446 27.1174 4.0182 -1.8636
# 3 13.7434 21.0446 63.7529 14.3585 0.1679 7.4096
# 4 7.8495 27.1174 14.3585 35.6852 -1.9299 4.2482
# 5 26.0330 4.0182 0.1679 -1.9299 49.4261 -0.9952
# 6 -10.8294 -1.8636 7.4096 4.2482 -0.9952 26.2134
#
#
#
# Elastic Compliance Matrix: (Units=1/GPa)
#
#
# Indices 1 2 3 4 5 6 
#
# 1 0.009300 -0.001170 -0.001838 -0.001185 -0.004757 0.004290
# 2 -0.001170 0.010581 -0.001820 -0.007309 -0.000484 0.001949
# 3 -0.001838 -0.001820 0.018407 -0.004952 0.000754 -0.005260
# 4 -0.001185 -0.007309 -0.004952 0.036617 0.002555 -0.005447
# 5 -0.004757 -0.000484 0.000754 0.002555 0.022839 -0.001760
# 6 0.004290 0.001949 -0.005260 -0.005447 -0.001760 0.042362
#
#
# Mechanical properties :
#
#
# Convention : Reuss Voigt Hill
#
# Bulk Modulus (GPa) = 34.92429 48.62705 41.77567
# Shear Modulus (GPa) = 31.38619 39.35256 35.36937
#
# Velocity S-wave (km/s) = 3.60608 4.03787 3.82807
# Velocity P-wave (km/s) = 5.63987 6.47196 6.07019
#
# Compressibility (1/GPa) = 0.02863337
#
# Stress axis : x y z
#
# Youngs Moduli (GPa) = 107.52375 94.51029 54.32672
#
# Poissons Ratio (x) = 0.11059 0.09984
# Poissons Ratio (y) = 0.12581 0.09885
# Poissons Ratio (z) = 0.19761 0.17197
#
# Static dielectric constant tensor:
#      x y z
#    x 1.953520 -0.003450 -0.015350 
#    y -0.003450 1.899900 0.019260 
#    z -0.015350 0.019260 1.934400 
# 
# From -- ./inp_files/273901.got.cif
#   From: 2010.05.17/outbox.cif.g08.bks.cpg/sg2_137_cif.got.tgz:273901.got - 2010.06.03 11:33:40.
