data_PCOD9030825
_publ_section_title
;
Structure prediction by ZEFSAII (Michael W. Deem and Ramdas Pophale) SiO2 
 PCOD9030825
Probable space group: P -1
;
_chemical_formula_sum "Si O2"
_cell_formula_units_Z 16
_cell_length_a 17.815196
_cell_length_b 12.667331
_cell_length_c 9.046775
_cell_angle_alpha 136.888576
_cell_angle_beta 143.311075
_cell_angle_gamma 39.345318
_cell_volume 740.079768
_symmetry_space_group_name_H-M "P -1"
_symmetry_group_IT_number 2
_symmetry_cell_setting 'triclinic'
loop_
_space_group_symop_operation_xyz
x,y,z
-x,-y,-z
loop_
_atom_site_type_symbol
_atom_site_label
_atom_site_fract_x
_atom_site_fract_y
_atom_site_fract_z
Si Si1 0.519411 0.927648 0.295718
Si Si2 0.915599 0.864666 0.559477
Si Si3 0.460688 0.450015 0.045989
Si Si4 0.179945 0.526834 0.563658
Si Si5 0.842667 0.802979 0.696312
Si Si6 0.033014 0.877281 0.281092
Si Si7 0.359456 0.143127 0.005059
Si Si8 0.707967 0.496843 0.612319
O O1 0.678359 0.896827 0.481005
O O2 0.500000 0.000000 0.500000
O O3 0.395204 0.070765 0.151946
O O4 0.509405 0.748839 0.094271
O O5 0.926738 0.819050 0.703685
O O6 0.045780 0.710546 0.524949
O O7 0.915138 0.039836 0.683726
O O8 0.774106 0.866155 0.279886
O O9 0.562047 0.482862 0.351480
O O10 0.500000 0.500000 0.000000
O O11 0.290421 0.547926 0.871372
O O12 0.135045 0.388194 0.419030
O O13 0.251779 0.466942 0.454028
O O14 0.893037 0.872986 0.989403
O O15 0.158493 0.683811 0.314125
O O16 0.000000 0.000000 0.500000
O O17 0.324899 0.344102 0.165813
O O18 0.500000 0.000000 0.000000
#
# Coordination Sequence:
#
# PCOD9030825 Si02
#       8
#     2   2   2   2   2   2   2   2
#     4  11  23  41  74 100 139 190 239 291 343 427
#     4  12  25  46  70 100 150 184 237 294 361 430
#     4   9  20  40  65 106 138 173 230 291 349 407
#     4  10  22  42  75 105 137 188 239 296 344 431
#     4  11  25  44  67 103 142 189 233 291 361 419
#     4  12  27  45  72 107 143 184 237 300 352 427
#     4  12  26  47  71 103 142 186 236 294 361 423
#     4  11  24  45  71 107 139 186 240 300 355 419
#
# _framework density 21.619291
#
# number of rings (size 3 to 8) (size 9 to 14) (size 15 to 20)
#    0.000    1.000    2.500    4.500    5.250    2.000 
#    2.250    1.250    0.000    0.000    0.000    0.000 
#    0.000    0.000    0.000    0.000    0.000    0.000 
#
# Total GULP energy -89332.537212 kJ/mol
# GULP energy per Si atom -5583.283576 kJ/mol
# Density = 2.157008 g / cm^3
# Si number density = 21.619291 Si / 1000 Ang^3
#
#
#
# Elastic Constant Matrix: (Units=GPa)
#
#
# Indices 1 2 3 4 5 6 
#
# 1 74.3931 29.5827 31.6240 15.8089 3.4106 10.8977
# 2 29.5827 127.8510 54.1589 -1.2646 8.3253 -4.6320
# 3 31.6240 54.1589 137.7787 -5.5957 21.7702 7.3104
# 4 15.8089 -1.2646 -5.5957 22.2100 2.4249 -6.1809
# 5 3.4106 8.3253 21.7702 2.4249 28.2735 0.4513
# 6 10.8977 -4.6320 7.3104 -6.1809 0.4513 32.4417
#
#
#
# Elastic Compliance Matrix: (Units=1/GPa)
#
#
# Indices 1 2 3 4 5 6 
#
# 1 0.023162 -0.004343 -0.004499 -0.021513 0.003978 -0.011541
# 2 -0.004343 0.010357 -0.003041 0.004217 -0.000617 0.004435
# 3 -0.004499 -0.003041 0.010950 0.006606 -0.007559 -0.000027
# 4 -0.021513 0.004217 0.006606 0.068778 -0.009944 0.019582
# 5 0.003978 -0.000617 -0.007559 -0.009944 0.041779 -0.002197
# 6 -0.011541 0.004435 -0.000027 0.019582 -0.002197 0.039102
#
#
# Mechanical properties :
#
#
# Convention : Reuss Voigt Hill
#
# Bulk Modulus (GPa) = 48.30327 63.41711 55.86019
# Shear Modulus (GPa) = 22.24241 31.56216 26.90228
#
# Velocity S-wave (km/s) = 3.21101 3.82502 3.53138
# Velocity P-wave (km/s) = 6.01154 6.99321 6.52087
#
# Compressibility (1/GPa) = 0.02070253
#
# Stress axis : x y z
#
# Youngs Moduli (GPa) = 43.17475 96.54968 91.32272
#
# Poissons Ratio (x) = 0.41936 0.41085
# Poissons Ratio (y) = 0.18753 0.27771
# Poissons Ratio (z) = 0.19424 0.29361
#
# Static dielectric constant tensor:
#      x y z
#    x 1.886050 -0.024850 -0.009830 
#    y -0.024850 1.912480 -0.153740 
#    z -0.009830 -0.153740 1.953200 
# 
# From -- ./inp_files/333956.got.cif
#   From: 2010.05.17/outbox.cif.g08.bks.cpg/sg2_167_cif.got.tgz:333956.got - 2010.06.03 11:33:40.
