data_PCOD9030621
_publ_section_title
;
Structure prediction by ZEFSAII (Michael W. Deem and Ramdas Pophale) SiO2 
 PCOD9030621
Probable space group: P -1
;
_chemical_formula_sum "Si O2"
_cell_formula_units_Z 16
_cell_length_a 15.042074
_cell_length_b 9.280441
_cell_length_c 8.666939
_cell_angle_alpha 106.053587
_cell_angle_beta 37.012281
_cell_angle_gamma 91.959439
_cell_volume 662.508397
_symmetry_space_group_name_H-M "P -1"
_symmetry_group_IT_number 2
_symmetry_cell_setting 'triclinic'
loop_
_space_group_symop_operation_xyz
x,y,z
-x,-y,-z
loop_
_atom_site_type_symbol
_atom_site_label
_atom_site_fract_x
_atom_site_fract_y
_atom_site_fract_z
Si Si1 0.793850 0.346023 0.258179
Si Si2 0.669747 0.970094 0.614888
Si Si3 0.254151 0.346926 0.996875
Si Si4 0.072349 0.159944 0.037538
Si Si5 0.760521 0.324250 0.950654
Si Si6 0.583174 0.683160 0.557556
Si Si7 0.089921 0.967607 0.526623
Si Si8 0.519229 0.327006 0.846367
O O1 0.727412 0.537076 0.379909
O O2 0.651020 0.309794 0.528586
O O3 0.943219 0.280447 0.142411
O O4 0.818806 0.272053 0.028721
O O5 0.573232 0.848541 0.700435
O O6 0.793846 0.934063 0.572078
O O7 0.577695 0.156530 0.798381
O O8 0.779740 0.930844 0.298452
O O9 0.377866 0.296684 0.668748
O O10 0.353198 0.332831 0.008673
O O11 0.135477 0.252069 0.108583
O O12 0.176863 0.531973 0.128437
O O13 0.002137 0.043945 0.194196
O O14 0.805433 0.211352 0.709383
O O15 0.573041 0.364436 0.230347
O O16 0.000000 0.000000 0.500000
O O17 0.500000 0.500000 0.000000
#
# Coordination Sequence:
#
# PCOD9030621 Si02
#       8
#     2   2   2   2   2   2   2   2
#     4  11  22  44  76  96 141 186 234 276 345 419
#     4  11  26  45  71 101 145 179 235 286 347 413
#     4  10  22  43  70 101 136 178 239 281 343 411
#     4  11  26  45  70 104 136 191 232 281 346 417
#     4  11  22  43  69 100 142 181 233 286 345 403
#     4  10  22  42  72 105 134 185 231 291 344 404
#     4  12  27  42  63 100 143 184 230 290 347 409
#     4  12  24  44  72 102 132 188 235 288 341 408
#
# _framework density 24.150637
#
# number of rings (size 3 to 8) (size 9 to 14) (size 15 to 20)
#    0.000    1.000    3.750    2.625    1.750    9.500 
#    2.250    0.000    0.000    0.000    0.000    0.000 
#    0.000    0.000    0.000    0.000    0.000    0.000 
#
# Total GULP energy -89408.872578 kJ/mol
# GULP energy per Si atom -5588.054536 kJ/mol
# Density = 2.409567 g / cm^3
# Si number density = 24.150637 Si / 1000 Ang^3
#
#
#
# Elastic Constant Matrix: (Units=GPa)
#
#
# Indices 1 2 3 4 5 6 
#
# 1 155.0096 53.3816 1.9955 15.7663 -8.4995 3.8499
# 2 53.3816 112.8837 2.8972 19.1978 -7.9787 15.9863
# 3 1.9955 2.8972 57.5215 -2.2852 9.2835 -12.8480
# 4 15.7663 19.1978 -2.2852 26.3891 0.3461 1.3055
# 5 -8.4995 -7.9787 9.2835 0.3461 31.1346 3.1286
# 6 3.8499 15.9863 -12.8480 1.3055 3.1286 48.4810
#
#
#
# Elastic Compliance Matrix: (Units=1/GPa)
#
#
# Indices 1 2 3 4 5 6 
#
# 1 0.007893 -0.003259 -0.000362 -0.002411 0.001422 0.000325
# 2 -0.003259 0.012595 -0.002410 -0.007246 0.003597 -0.004570
# 3 -0.000362 -0.002410 0.020341 0.003503 -0.007484 0.006603
# 4 -0.002411 -0.007246 0.003503 0.044839 -0.004317 0.002580
# 5 0.001422 0.003597 -0.007484 -0.004317 0.036261 -0.005506
# 6 0.000325 -0.004570 0.006603 0.002580 -0.005506 0.024143
#
#
# Mechanical properties :
#
#
# Convention : Reuss Voigt Hill
#
# Bulk Modulus (GPa) = 34.76342 49.10704 41.93523
# Shear Modulus (GPa) = 29.81081 39.01032 34.41056
#
# Velocity S-wave (km/s) = 3.51717 4.02343 3.77879
# Velocity P-wave (km/s) = 5.56054 6.47779 6.03661
#
# Compressibility (1/GPa) = 0.02876587
#
# Stress axis : x y z
#
# Youngs Moduli (GPa) = 126.69010 79.39474 49.16281
#
# Poissons Ratio (x) = 0.25873 0.01782
# Poissons Ratio (y) = 0.41286 0.11850
# Poissons Ratio (z) = 0.04591 0.19138
#
# Static dielectric constant tensor:
#      x y z
#    x 1.967590 -0.068960 -0.015010 
#    y -0.068960 1.958730 0.109420 
#    z -0.015010 0.109420 2.001800 
# 
# From -- ./inp_files/299049.got.cif
#   From: 2010.05.17/outbox.cif.g08.bks.cpg/sg2_150_cif.got.tgz:299049.got - 2010.06.03 11:33:40.
