data_PCOD9030438
_publ_section_title
;
Structure prediction by ZEFSAII (Michael W. Deem and Ramdas Pophale) SiO2 
 PCOD9030438
Probable space group: P -1
;
_chemical_formula_sum "Si O2"
_cell_formula_units_Z 16
_cell_length_a 10.694259
_cell_length_b 12.256435
_cell_length_c 7.116925
_cell_angle_alpha 128.331366
_cell_angle_beta 75.875449
_cell_angle_gamma 112.859231
_cell_volume 674.277652
_symmetry_space_group_name_H-M "P -1"
_symmetry_group_IT_number 2
_symmetry_cell_setting 'triclinic'
loop_
_space_group_symop_operation_xyz
x,y,z
-x,-y,-z
loop_
_atom_site_type_symbol
_atom_site_label
_atom_site_fract_x
_atom_site_fract_y
_atom_site_fract_z
Si Si1 0.522866 0.898028 0.215337
Si Si2 0.808641 0.058174 0.220398
Si Si3 0.242376 0.747299 0.234724
Si Si4 0.863231 0.773325 0.404781
Si Si5 0.792690 0.466022 0.664879
Si Si6 0.097499 0.514318 0.742292
Si Si7 0.373655 0.354156 0.917961
Si Si8 0.985660 0.088691 0.869178
O O1 0.367755 0.824550 0.134229
O O2 0.576371 0.770619 0.141420
O O3 0.500000 0.000000 0.500000
O O4 0.651362 0.993907 0.151870
O O5 0.811821 0.139785 0.506100
O O6 0.883221 0.937896 0.110710
O O7 0.901880 0.149166 0.116482
O O8 0.286993 0.664164 0.305275
O O9 0.140538 0.622255 0.016888
O O10 0.894724 0.645679 0.374392
O O11 0.890469 0.926275 0.668106
O O12 0.711657 0.707734 0.305783
O O13 0.962325 0.818194 0.235407
O O14 0.797244 0.430778 0.408288
O O15 0.948019 0.504591 0.717503
O O16 0.731061 0.596272 0.859800
O O17 0.500000 0.500000 0.000000
#
# Coordination Sequence:
#
# PCOD9030438 Si02
#       8
#     2   2   2   2   2   2   2   2
#     4  10  22  43  71  97 140 190 231 288 351 419
#     4  10  22  42  70  99 138 184 239 282 358 413
#     4  11  22  46  70 101 142 187 230 291 356 424
#     4  11  23  42  69 102 145 183 233 294 358 420
#     4  11  25  42  70 103 142 179 232 294 350 427
#     4  11  25  45  69 108 139 182 233 295 363 412
#     4  12  23  44  70 101 144 192 233 289 358 416
#     4  10  23  41  65 106 138 182 234 300 339 425
#
# _framework density 23.729096999999999
#
# number of rings (size 3 to 8) (size 9 to 14) (size 15 to 20)
#    0.000    1.250    3.750    1.125    3.500    2.000 
#    4.500    1.250    0.000    3.750    0.000    0.000 
#    0.000    0.000    0.000    0.000    0.000    0.000 
#
# Total GULP energy -89486.313238 kJ/mol
# GULP energy per Si atom -5592.894577 kJ/mol
# Density = 2.367509 g / cm^3
# Si number density = 23.729097 Si / 1000 Ang^3
#
#
#
# Elastic Constant Matrix: (Units=GPa)
#
#
# Indices 1 2 3 4 5 6 
#
# 1 46.2714 23.2361 34.6285 -1.3502 -10.8446 8.8225
# 2 23.2361 81.1825 41.7026 -2.0035 11.2826 13.5563
# 3 34.6285 41.7026 94.8530 -7.8336 -1.1418 5.2278
# 4 -1.3502 -2.0035 -7.8336 46.2102 1.8160 0.3397
# 5 -10.8446 11.2826 -1.1418 1.8160 37.6661 10.1396
# 6 8.8225 13.5563 5.2278 0.3397 10.1396 45.1942
#
#
#
# Elastic Compliance Matrix: (Units=1/GPa)
#
#
# Indices 1 2 3 4 5 6 
#
# 1 0.037197 -0.006055 -0.010457 -0.001455 0.014276 -0.007428
# 2 -0.006055 0.018347 -0.005829 -0.000085 -0.006843 -0.002111
# 3 -0.010457 -0.005829 0.016983 0.002362 -0.001437 0.002130
# 4 -0.001455 -0.000085 0.002362 0.022049 -0.001437 0.000193
# 5 0.014276 -0.006843 -0.001437 -0.001437 0.034999 -0.008409
# 6 -0.007428 -0.002111 0.002130 0.000193 -0.008409 0.025849
#
#
# Mechanical properties :
#
#
# Convention : Reuss Voigt Hill
#
# Bulk Modulus (GPa) = 35.91117 46.82680 41.36898
# Shear Modulus (GPa) = 23.87927 33.99674 28.93800
#
# Velocity S-wave (km/s) = 3.17571 3.78921 3.49594
# Velocity P-wave (km/s) = 5.34916 6.23866 5.81096
#
# Compressibility (1/GPa) = 0.02784649
#
# Stress axis : x y z
#
# Youngs Moduli (GPa) = 26.88360 54.50622 58.88202
#
# Poissons Ratio (x) = 0.33002 0.61571
# Poissons Ratio (y) = 0.16277 0.34321
# Poissons Ratio (z) = 0.28112 0.31770
#
# Static dielectric constant tensor:
#      x y z
#    x 1.929960 0.016550 -0.000200 
#    y 0.016550 2.007110 0.011940 
#    z -0.000200 0.011940 1.909700 
# 
# From -- ./inp_files/277081.got.cif
#   From: 2010.05.17/outbox.cif.g08.bks.cpg/sg2_139_cif.got.tgz:277081.got - 2010.06.03 11:33:40.
