data_PCOD9030372
_publ_section_title
;
Structure prediction by ZEFSAII (Michael W. Deem and Ramdas Pophale) SiO2 
 PCOD9030372
Probable space group: P -1
;
_chemical_formula_sum "Si O2"
_cell_formula_units_Z 15
_cell_length_a 8.455043
_cell_length_b 9.068866
_cell_length_c 22.137103
_cell_angle_alpha 41.691628
_cell_angle_beta 141.726669
_cell_angle_gamma 130.094253
_cell_volume 692.393152
_symmetry_space_group_name_H-M "P -1"
_symmetry_group_IT_number 2
_symmetry_cell_setting 'triclinic'
loop_
_space_group_symop_operation_xyz
x,y,z
-x,-y,-z
loop_
_atom_site_type_symbol
_atom_site_label
_atom_site_fract_x
_atom_site_fract_y
_atom_site_fract_z
Si Si1 0.423971 0.866328 0.245810
Si Si2 0.365182 0.713168 0.878418
Si Si3 0.000000 0.500000 0.000000
Si Si4 0.477101 0.872795 0.595861
Si Si5 0.175594 0.516544 0.186613
Si Si6 0.829269 0.230887 0.673390
Si Si7 0.728163 0.036146 0.105289
Si Si8 0.077810 0.358177 0.509000
O O1 0.279438 0.743003 0.183103
O O2 0.257086 0.783912 0.279068
O O3 0.700593 0.782143 0.361383
O O4 0.484240 0.134375 0.174473
O O5 0.368946 0.873021 0.888915
O O6 0.066068 0.618385 0.807925
O O7 0.500000 0.500000 0.000000
O O8 0.085632 0.559474 0.078865
O O9 0.932955 0.236992 0.079729
O O10 0.607106 0.646856 0.700401
O O11 0.176226 0.800842 0.540821
O O12 0.500000 0.000000 0.500000
O O13 0.637612 0.040103 0.639571
O O14 0.819499 0.465610 0.565946
O O15 0.120783 0.172764 0.774202
O O16 0.500000 0.000000 0.000000
O O17 0.000000 0.500000 0.500000
#
# Coordination Sequence:
#
# PCOD9030372 Si02
#       8
#     2   2   1   2   2   2   2   2
#     4  12  27  46  69 106 146 179 235 295 356 415
#     4  11  26  44  69 100 138 184 237 280 348 417
#     4  10  22  42  70  96 136 182 234 278 340 412
#     4  12  23  44  76 100 137 185 231 290 350 418
#     4  11  24  44  72 101 143 182 235 287 353 417
#     4  12  27  44  70 109 141 183 234 293 357 418
#     4  11  25  43  69  99 138 180 237 281 349 418
#     4  12  24  44  77 102 138 185 239 288 353 424
#
# _framework density 21.663992
#
# number of rings (size 3 to 8) (size 9 to 14) (size 15 to 20)
#    0.000    0.533    5.333    2.800    7.467    2.133 
#    0.000    0.000    0.000    0.000    0.000    0.000 
#    0.000    0.000    0.000    0.000    0.000    0.000 
#
# Total GULP energy -83699.899524 kJ/mol
# GULP energy per Si atom -5579.993302 kJ/mol
# Density = 2.161468 g / cm^3
# Si number density = 21.663992 Si / 1000 Ang^3
#
#
#
# Elastic Constant Matrix: (Units=GPa)
#
#
# Indices 1 2 3 4 5 6 
#
# 1 75.8611 19.6807 30.9760 -0.7293 -9.8052 5.9951
# 2 19.6807 103.3423 37.4823 14.8183 -2.1419 22.2693
# 3 30.9760 37.4823 84.3780 2.3960 -15.4184 0.4191
# 4 -0.7293 14.8183 2.3960 43.7852 14.6325 -4.2926
# 5 -9.8052 -2.1419 -15.4184 14.6325 42.9676 -7.2013
# 6 5.9951 22.2693 0.4191 -4.2926 -7.2013 24.6643
#
#
#
# Elastic Compliance Matrix: (Units=1/GPa)
#
#
# Indices 1 2 3 4 5 6 
#
# 1 0.015894 -0.000350 -0.005458 -0.000001 0.001128 -0.003125
# 2 -0.000350 0.017006 -0.007674 -0.006085 -0.002764 -0.017005
# 3 -0.005458 -0.007674 0.018401 0.000285 0.006537 0.009901
# 4 -0.000001 -0.006085 0.000285 0.028531 -0.008585 0.007948
# 5 0.001128 -0.002764 0.006537 -0.008585 0.030246 0.009447
# 6 -0.003125 -0.017005 0.009901 0.007948 0.009447 0.060631
#
#
# Mechanical properties :
#
#
# Convention : Reuss Voigt Hill
#
# Bulk Modulus (GPa) = 41.08775 48.87328 44.98052
# Shear Modulus (GPa) = 24.29720 33.97958 29.13839
#
# Velocity S-wave (km/s) = 3.35259 3.96470 3.67142
# Velocity P-wave (km/s) = 5.83040 6.60054 6.22739
#
# Compressibility (1/GPa) = 0.02433815
#
# Stress axis : x y z
#
# Youngs Moduli (GPa) = 62.91641 58.80196 54.34494
#
# Poissons Ratio (x) = 0.02061 0.29659
# Poissons Ratio (y) = 0.02205 0.41702
# Poissons Ratio (z) = 0.34337 0.45122
#
# Static dielectric constant tensor:
#      x y z
#    x 1.828810 0.012900 -0.002560 
#    y 0.012900 1.791970 0.000880 
#    z -0.002560 0.000880 1.784330 
# 
# From -- ./inp_files/190541.got.cif
#   From: 2010.05.17/outbox.cif.g08.bks.cpg/sg2_96_cif.got.tgz:190541.got - 2010.06.03 11:33:40.
