data_PCOD9030168
_publ_section_title
;
Structure prediction by ZEFSAII (Michael W. Deem and Ramdas Pophale) SiO2 
 PCOD9030168
Probable space group: P -1
;
_chemical_formula_sum "Si O2"
_cell_formula_units_Z 16
_cell_length_a 9.476798
_cell_length_b 9.742537
_cell_length_c 12.148008
_cell_angle_alpha 96.271950
_cell_angle_beta 102.858237
_cell_angle_gamma 45.832490
_cell_volume 782.672315
_symmetry_space_group_name_H-M "P -1"
_symmetry_group_IT_number 2
_symmetry_cell_setting 'triclinic'
loop_
_space_group_symop_operation_xyz
x,y,z
-x,-y,-z
loop_
_atom_site_type_symbol
_atom_site_label
_atom_site_fract_x
_atom_site_fract_y
_atom_site_fract_z
Si Si1 0.622902 0.221866 0.253066
Si Si2 0.894824 0.399913 0.519433
Si Si3 0.814236 0.240134 0.095260
Si Si4 0.645442 0.765535 0.642235
Si Si5 0.732371 0.962479 0.556625
Si Si6 0.225009 0.815966 0.153823
Si Si7 0.070533 0.872913 0.355071
Si Si8 0.354591 0.479594 0.723218
O O1 0.687571 0.203921 0.135131
O O2 0.447987 0.236475 0.263319
O O3 0.829673 0.036049 0.329988
O O4 0.582595 0.407221 0.297433
O O5 0.306634 0.104500 0.348214
O O6 0.841868 0.287006 0.553959
O O7 0.772614 0.501659 0.394375
O O8 0.127239 0.228334 0.512003
O O9 0.774256 0.398331 0.179510
O O10 0.745076 0.290091 0.962019
O O11 0.048483 0.042930 0.120643
O O12 0.469563 0.865584 0.527794
O O13 0.832734 0.552477 0.612318
O O14 0.853805 0.020980 0.607614
O O15 0.138286 0.785008 0.237321
O O16 0.440169 0.728405 0.223678
#
# Coordination Sequence:
#
# PCOD9030168 Si02
#       8
#     2   2   2   2   2   2   2   2
#     4   9  18  35  50  79 103 142 172 219 265 309
#     4  12  21  35  55  80 109 144 181 215 262 325
#     4   8  19  32  48  75 113 131 172 223 277 294
#     4  11  23  34  53  76 110 148 179 210 271 320
#     4  11  22  38  49  76 115 145 172 223 263 318
#     4  10  17  32  51  78 104 137 175 222 265 314
#     4  11  20  35  58  77 112 141 177 222 266 309
#     4  10  19  30  52  78 106 136 176 220 263 309
#
# _framework density 20.442781
#
# number of rings (size 3 to 8) (size 9 to 14) (size 15 to 20)
#    0.750    1.000    2.500    3.375    0.000    1.500 
#    0.000    0.000    0.000    0.750    0.000    0.875 
#    0.000    0.000    0.000    0.000    0.000    0.000 
#
# Total GULP energy -89190.099030 kJ/mol
# GULP energy per Si atom -5574.381189 kJ/mol
# Density = 2.039625 g / cm^3
# Si number density = 20.442781 Si / 1000 Ang^3
#
#
#
# Elastic Constant Matrix: (Units=GPa)
#
#
# Indices 1 2 3 4 5 6 
#
# 1 62.3631 21.7234 14.8226 4.4618 -19.9686 10.3125
# 2 21.7234 73.9523 20.6898 5.5518 -5.1576 -14.7859
# 3 14.8226 20.6898 85.7662 6.9330 -14.0900 -2.8503
# 4 4.4618 5.5518 6.9330 20.4111 -9.0146 -0.4234
# 5 -19.9686 -5.1576 -14.0900 -9.0146 20.6784 -3.8379
# 6 10.3125 -14.7859 -2.8503 -0.4234 -3.8379 29.0939
#
#
#
# Elastic Compliance Matrix: (Units=1/GPa)
#
#
# Indices 1 2 3 4 5 6 
#
# 1 0.029623 -0.009913 0.000844 0.008094 0.028077 -0.011634
# 2 -0.009913 0.019709 -0.003358 -0.004785 -0.006759 0.012240
# 3 0.000844 -0.003358 0.013916 0.000305 0.009711 0.000643
# 4 0.008094 -0.004785 0.000305 0.063732 0.034656 0.000228
# 5 0.028077 -0.006759 0.009711 0.034656 0.095640 0.000684
# 6 -0.011634 0.012240 0.000643 0.000228 0.000684 0.044872
#
#
# Mechanical properties :
#
#
# Convention : Reuss Voigt Hill
#
# Bulk Modulus (GPa) = 26.04691 37.39480 31.72085
# Shear Modulus (GPa) = 16.38567 25.02639 20.70603
#
# Velocity S-wave (km/s) = 2.83422 3.50268 3.18603
# Velocity P-wave (km/s) = 4.84556 5.88986 5.39305
#
# Compressibility (1/GPa) = 0.03839227
#
# Stress axis : x y z
#
# Youngs Moduli (GPa) = 33.75775 50.73907 71.85923
#
# Poissons Ratio (x) = 0.50298 -0.06062
# Poissons Ratio (y) = 0.33465 0.24131
# Poissons Ratio (z) = -0.02848 0.17039
#
# Static dielectric constant tensor:
#      x y z
#    x 1.752230 -0.028460 -0.028710 
#    y -0.028460 1.775710 0.012620 
#    z -0.028710 0.012620 1.745760 
# 
# From -- ./inp_files/449097.got.cif
#   From: 2010.05.17/outbox.cif.g08.bks.cpg/sg2_225_cif.got.tgz:449097.got - 2010.06.03 11:33:40.
