data_PCOD9030602
_publ_section_title
;
Structure prediction by ZEFSAII (Michael W. Deem and Ramdas Pophale) SiO2 
 PCOD9030602
Probable space group: P -1
;
_chemical_formula_sum "Si O2"
_cell_formula_units_Z 10
_cell_length_a 15.538695
_cell_length_b 5.700000
_cell_length_c 11.930310
_cell_angle_alpha 122.927265
_cell_angle_beta 29.142543
_cell_angle_gamma 131.954390
_cell_volume 380.303186
_symmetry_space_group_name_H-M "P -1"
_symmetry_group_IT_number 2
_symmetry_cell_setting 'triclinic'
loop_
_space_group_symop_operation_xyz
x,y,z
-x,-y,-z
loop_
_atom_site_type_symbol
_atom_site_label
_atom_site_fract_x
_atom_site_fract_y
_atom_site_fract_z
Si Si1 0.596991 0.572357 0.529965
Si Si2 0.849528 0.269039 0.202972
Si Si3 0.510364 0.061023 0.872530
Si Si4 0.039225 0.172418 0.162444
Si Si5 0.831909 0.748386 0.709821
O O1 0.500000 0.500000 0.500000
O O2 0.651470 0.309499 0.450370
O O3 0.490338 0.737848 0.762007
O O4 0.822238 0.864057 0.339442
O O5 0.981265 0.370083 0.192399
O O6 0.000000 0.500000 0.000000
O O7 0.818169 0.934720 0.098857
O O8 0.713921 0.389408 0.702482
O O9 0.332192 0.130790 0.057870
O O10 0.500000 0.000000 0.000000
O O11 0.101002 0.277156 0.246518
O O12 0.000000 0.000000 0.500000
#
# Coordination Sequence:
#
# PCOD9030602 Si02
#       5
#     2   2   2   2   2
#     4  11  24  42  68 104 148 190 244 312 376 441
#     4   9  21  41  66 100 137 183 241 302 367 435
#     4  11  27  47  75 113 149 196 253 311 376 448
#     4  10  22  42  72 102 140 199 251 300 373 449
#     4  11  26  50  77 106 151 201 252 309 374 451
#
# _framework density 26.294809999999998
#
# number of rings (size 3 to 8) (size 9 to 14) (size 15 to 20)
#    0.000    1.600    0.000    2.400    0.000   18.400 
#    0.000    3.000    0.000    0.000    0.000    0.000 
#    0.000    0.000    0.000    0.000    0.000    0.000 
#
# Total GULP energy -55990.932963 kJ/mol
# GULP energy per Si atom -5599.093296 kJ/mol
# Density = 2.623496 g / cm^3
# Si number density = 26.294810 Si / 1000 Ang^3
#
#
#
# Elastic Constant Matrix: (Units=GPa)
#
#
# Indices 1 2 3 4 5 6 
#
# 1 226.4285 63.9469 75.6512 28.2072 -6.9875 3.0177
# 2 63.9469 146.0309 61.6414 11.7119 0.0164 15.3730
# 3 75.6512 61.6414 114.1515 31.2433 -3.4893 2.1666
# 4 28.2072 11.7119 31.2433 68.4146 -13.1712 3.2248
# 5 -6.9875 0.0164 -3.4893 -13.1712 55.8697 5.2296
# 6 3.0177 15.3730 2.1666 3.2248 5.2296 47.9797
#
#
#
# Elastic Compliance Matrix: (Units=1/GPa)
#
#
# Indices 1 2 3 4 5 6 
#
# 1 0.005880 -0.001270 -0.002989 -0.000784 0.000347 0.000187
# 2 -0.001270 0.009539 -0.004561 0.001124 0.000086 -0.002856
# 3 -0.002989 -0.004561 0.014469 -0.004801 -0.000732 0.001398
# 4 -0.000784 0.001124 -0.004801 0.017783 0.003955 -0.001720
# 5 0.000347 0.000086 -0.000732 0.003955 0.019050 -0.002358
# 6 0.000187 -0.002856 0.001398 -0.001720 -0.002358 0.022055
#
#
# Mechanical properties :
#
#
# Convention : Reuss Voigt Hill
#
# Bulk Modulus (GPa) = 81.64021 98.78777 90.21399
# Shear Modulus (GPa) = 45.24965 53.47755 49.36360
#
# Velocity S-wave (km/s) = 4.15282 4.51462 4.33750
# Velocity P-wave (km/s) = 7.35595 8.05150 7.71157
#
# Compressibility (1/GPa) = 0.01224887
#
# Stress axis : x y z
#
# Youngs Moduli (GPa) = 170.07981 104.82812 69.11115
#
# Poissons Ratio (x) = 0.13310 0.20660
# Poissons Ratio (y) = 0.21594 0.31520
# Poissons Ratio (z) = 0.50844 0.47809
#
# Static dielectric constant tensor:
#      x y z
#    x 2.070030 -0.113190 -0.029520 
#    y -0.113190 2.267870 -0.007760 
#    z -0.029520 -0.007760 2.117830 
# 
# From -- ./inp_files/374912.got.cif
#   From: 2010.05.17/outbox.cif.g08.bks.cpg/sg2_188_cif.got.tgz:374912.got - 2010.06.03 11:33:40.
