data_PCOD9030087
_publ_section_title
;
Structure prediction by ZEFSAII (Michael W. Deem and Ramdas Pophale) SiO2 
 PCOD9030087
Probable space group: P -1
;
_chemical_formula_sum "Si O2"
_cell_formula_units_Z 16
_cell_length_a 9.442781
_cell_length_b 11.752496
_cell_length_c 17.096348
_cell_angle_alpha 143.716429
_cell_angle_beta 75.746834
_cell_angle_gamma 128.612848
_cell_volume 729.536818
_symmetry_space_group_name_H-M "P -1"
_symmetry_group_IT_number 2
_symmetry_cell_setting 'triclinic'
loop_
_space_group_symop_operation_xyz
x,y,z
-x,-y,-z
loop_
_atom_site_type_symbol
_atom_site_label
_atom_site_fract_x
_atom_site_fract_y
_atom_site_fract_z
Si Si1 0.847139 0.350855 0.517393
Si Si2 0.629937 0.077717 0.701566
Si Si3 0.739354 0.781954 0.595557
Si Si4 0.962796 0.530618 0.779208
Si Si5 0.599732 0.895359 0.956013
Si Si6 0.176061 0.097358 0.767378
Si Si7 0.818471 0.667998 0.364486
Si Si8 0.508137 0.739036 0.055280
O O1 0.918526 0.502409 0.676116
O O2 0.000000 0.500000 0.500000
O O3 0.615027 0.217433 0.454088
O O4 0.808481 0.084328 0.384184
O O5 0.754048 0.305188 0.739249
O O6 0.595393 0.196950 0.841617
O O7 0.745775 0.000190 0.676647
O O8 0.500000 0.500000 0.500000
O O9 0.785379 0.669892 0.461085
O O10 0.931060 0.934987 0.716454
O O11 0.079135 0.438505 0.723935
O O12 0.144763 0.862549 0.966600
O O13 0.595866 0.903045 0.053951
O O14 0.424753 0.565876 0.769100
O O15 0.500000 0.000000 0.000000
O O16 0.296341 0.168234 0.871582
O O17 0.321450 0.402246 0.876952
O O18 0.000000 0.000000 0.500000
#
# Coordination Sequence:
#
# PCOD9030087 Si02
#       8
#     2   2   2   2   2   2   2   2
#     4  11  22  42  72  94 135 180 234 275 335 416
#     4  11  25  39  65 104 132 178 226 290 342 397
#     4  12  25  39  66 100 132 170 232 284 341 401
#     4  11  22  41  64  96 136 176 223 281 341 397
#     4  10  24  39  67  97 133 181 228 274 339 410
#     4  10  22  42  69  96 128 181 221 278 337 408
#     4  11  22  43  65  95 131 179 219 272 344 407
#     4  10  23  44  68  96 133 178 233 272 343 410
#
# _framework density 21.931723999999999
#
# number of rings (size 3 to 8) (size 9 to 14) (size 15 to 20)
#    0.000    1.250    2.500    3.375    5.250    1.500 
#    0.000    0.000    0.000    9.000    0.000    0.000 
#    0.000    0.000    0.000    0.000    0.000    0.000 
#
# Total GULP energy -89304.585277 kJ/mol
# GULP energy per Si atom -5581.536580 kJ/mol
# Density = 2.188181 g / cm^3
# Si number density = 21.931724 Si / 1000 Ang^3
#
#
#
# Elastic Constant Matrix: (Units=GPa)
#
#
# Indices 1 2 3 4 5 6 
#
# 1 67.5285 0.4692 13.9901 8.2459 16.0124 2.7131
# 2 0.4692 106.8366 19.0348 19.1022 14.8159 1.5468
# 3 13.9901 19.0348 104.5785 24.5381 10.5009 4.5971
# 4 8.2459 19.1022 24.5381 20.5222 7.1472 5.4012
# 5 16.0124 14.8159 10.5009 7.1472 25.1633 7.7168
# 6 2.7131 1.5468 4.5971 5.4012 7.7168 22.2825
#
#
#
# Elastic Compliance Matrix: (Units=1/GPa)
#
#
# Indices 1 2 3 4 5 6 
#
# 1 0.018446 0.002756 -0.000463 -0.005967 -0.012529 0.003444
# 2 0.002756 0.012296 0.000756 -0.012037 -0.007129 0.004042
# 3 -0.000463 0.000756 0.013441 -0.016495 -0.001624 0.001792
# 4 -0.005967 -0.012037 -0.016495 0.086852 -0.002201 -0.015325
# 5 -0.012529 -0.007129 -0.001624 -0.002201 0.058546 -0.017386
# 6 0.003444 0.004042 0.001792 -0.015325 -0.017386 0.053545
#
#
# Mechanical properties :
#
#
# Convention : Reuss Voigt Hill
#
# Bulk Modulus (GPa) = 19.88792 38.43687 29.16239
# Shear Modulus (GPa) = 19.70145 29.95690 24.82917
#
# Velocity S-wave (km/s) = 3.00043 3.69984 3.36834
# Velocity P-wave (km/s) = 4.59252 5.98460 5.33417
#
# Compressibility (1/GPa) = 0.05028177
#
# Stress axis : x y z
#
# Youngs Moduli (GPa) = 54.21102 81.32956 74.39810
#
# Poissons Ratio (x) = -0.22414 0.03441
# Poissons Ratio (y) = -0.14940 -0.05623
# Poissons Ratio (z) = 0.02507 -0.06147
#
# Static dielectric constant tensor:
#      x y z
#    x 1.802970 -0.020820 0.013760 
#    y -0.020820 1.815240 0.041760 
#    z 0.013760 0.041760 1.869150 
# 
# From -- ./inp_files/560030.got.cif
#   From: 2010.05.17/outbox.cif.g08.bks.cpg/sg2_281_cif.got.tgz:560030.got - 2010.06.03 11:33:40.
