data_PCOD9030910
_publ_section_title
;
Structure prediction by ZEFSAII (Michael W. Deem and Ramdas Pophale) SiO2 
 PCOD9030910
Probable space group: P -1
;
_chemical_formula_sum "Si O2"
_cell_formula_units_Z 16
_cell_length_a 15.228012
_cell_length_b 7.269183
_cell_length_c 7.423937
_cell_angle_alpha 67.904945
_cell_angle_beta 92.832113
_cell_angle_gamma 117.419997
_cell_volume 668.196196
_symmetry_space_group_name_H-M "P -1"
_symmetry_group_IT_number 2
_symmetry_cell_setting 'triclinic'
loop_
_space_group_symop_operation_xyz
x,y,z
-x,-y,-z
loop_
_atom_site_type_symbol
_atom_site_label
_atom_site_fract_x
_atom_site_fract_y
_atom_site_fract_z
Si Si1 0.858121 0.410823 0.936569
Si Si2 0.103190 0.434135 0.517734
Si Si3 0.247823 0.953489 0.387551
Si Si4 0.448418 0.649012 0.496517
Si Si5 0.249346 0.259020 0.587398
Si Si6 0.314106 0.036107 0.983871
Si Si7 0.466460 0.101075 0.251068
Si Si8 0.995762 0.760659 0.089060
O O1 0.895903 0.555367 0.702812
O O2 0.741073 0.228907 0.980646
O O3 0.917079 0.262839 0.000196
O O4 0.894965 0.576895 0.047082
O O5 0.175515 0.689526 0.493478
O O6 0.154211 0.279333 0.628813
O O7 0.005624 0.323347 0.674473
O O8 0.248743 0.032556 0.153343
O O9 0.363349 0.007420 0.393633
O O10 0.225769 0.097953 0.474292
O O11 0.500000 0.500000 0.500000
O O12 0.335755 0.512454 0.462881
O O13 0.494335 0.900280 0.326484
O O14 0.456386 0.689432 0.699524
O O15 0.298809 0.173107 0.774132
O O16 0.425008 0.129792 0.044022
O O17 0.000000 0.000000 0.000000
#
# Coordination Sequence:
#
# PCOD9030910 Si02
#       8
#     2   2   2   2   2   2   2   2
#     4  10  22  43  62  84 126 155 190 240 299 347
#     4  11  23  39  62  89 118 159 196 237 293 353
#     4   9  20  40  57  83 117 156 191 241 288 343
#     4  11  19  35  62  84 117 159 195 241 296 346
#     4  12  21  35  63  89 114 158 204 236 294 344
#     4   9  20  40  60  85 117 153 197 243 285 350
#     4   9  20  39  56  81 121 152 190 243 293 335
#     4  11  24  40  62  93 118 153 194 245 290 350
#
# _framework density 23.945063999999999
#
# number of rings (size 3 to 8) (size 9 to 14) (size 15 to 20)
#    0.750    1.000    2.500    1.875    0.000    5.000 
#    0.000    3.125    0.000    0.000    0.000    0.000 
#    0.000    0.000    0.000    0.000    0.000    0.000 
#
# Total GULP energy -89375.795830 kJ/mol
# GULP energy per Si atom -5585.987239 kJ/mol
# Density = 2.389056 g / cm^3
# Si number density = 23.945064 Si / 1000 Ang^3
#
#
#
# Elastic Constant Matrix: (Units=GPa)
#
#
# Indices 1 2 3 4 5 6 
#
# 1 39.2766 16.8984 -13.9818 5.4094 3.9741 -8.1360
# 2 16.8984 151.2057 42.5925 21.1028 10.5677 -17.3454
# 3 -13.9818 42.5925 71.5673 5.5975 8.4992 12.4627
# 4 5.4094 21.1028 5.5975 27.1188 5.1867 8.2181
# 5 3.9741 10.5677 8.4992 5.1867 32.4474 6.5752
# 6 -8.1360 -17.3454 12.4627 8.2181 6.5752 20.6957
#
#
#
# Elastic Compliance Matrix: (Units=1/GPa)
#
#
# Indices 1 2 3 4 5 6 
#
# 1 0.033627 -0.003215 0.007941 -0.007966 -0.006074 0.010836
# 2 -0.003215 0.017495 -0.014410 -0.018447 -0.004851 0.030942
# 3 0.007941 -0.014410 0.028494 0.013199 0.000535 -0.031525
# 4 -0.007966 -0.018447 0.013199 0.065664 0.003946 -0.053869
# 5 -0.006074 -0.004851 0.000535 0.003946 0.036406 -0.019909
# 6 0.010836 0.030942 -0.031525 -0.053869 -0.019909 0.125213
#
#
# Mechanical properties :
#
#
# Convention : Reuss Voigt Hill
#
# Bulk Modulus (GPa) = 16.59836 39.22974 27.91405
# Shear Modulus (GPa) = 14.43624 30.48841 22.46232
#
# Velocity S-wave (km/s) = 2.45805 3.57215 3.06613
# Velocity P-wave (km/s) = 3.87336 5.78209 4.92115
#
# Compressibility (1/GPa) = 0.06024690
#
# Stress axis : x y z
#
# Youngs Moduli (GPa) = 29.73806 57.15933 35.09543
#
# Poissons Ratio (x) = 0.18380 -0.27868
# Poissons Ratio (y) = 0.09562 0.50571
# Poissons Ratio (z) = -0.23614 0.82364
#
# Static dielectric constant tensor:
#      x y z
#    x 1.993250 0.019130 -0.036940 
#    y 0.019130 1.886720 -0.002800 
#    z -0.036940 -0.002800 1.987610 
# 
# From -- ./inp_files/323447.got.cif
#   From: 2010.05.17/outbox.cif.g08.bks.cpg/sg2_162_cif.got.tgz:323447.got - 2010.06.03 11:33:40.
