data_PCOD9030034
_publ_section_title
;
Structure prediction by ZEFSAII (Michael W. Deem and Ramdas Pophale) SiO2 
 PCOD9030034
Probable space group: P -1
;
_chemical_formula_sum "Si O2"
_cell_formula_units_Z 16
_cell_length_a 15.514933
_cell_length_b 9.857198
_cell_length_c 8.958442
_cell_angle_alpha 104.487631
_cell_angle_beta 133.074381
_cell_angle_gamma 106.122695
_cell_volume 749.145228
_symmetry_space_group_name_H-M "P -1"
_symmetry_group_IT_number 2
_symmetry_cell_setting 'triclinic'
loop_
_space_group_symop_operation_xyz
x,y,z
-x,-y,-z
loop_
_atom_site_type_symbol
_atom_site_label
_atom_site_fract_x
_atom_site_fract_y
_atom_site_fract_z
Si Si1 0.022899 0.908170 0.635364
Si Si2 0.365563 0.841916 0.631075
Si Si3 0.872829 0.016626 0.912827
Si Si4 0.343303 0.754621 0.008896
Si Si5 0.279619 0.247183 0.593172
Si Si6 0.111098 0.703076 0.502495
Si Si7 0.840394 0.322660 0.940443
Si Si8 0.540308 0.348532 0.105732
O O1 0.874550 0.803540 0.536097
O O2 0.047479 0.781914 0.545089
O O3 0.000000 0.000000 0.500000
O O4 0.151103 0.028172 0.950109
O O5 0.255498 0.851405 0.610173
O O6 0.249533 0.713864 0.327607
O O7 0.420501 0.748685 0.764949
O O8 0.515499 0.036715 0.808206
O O9 0.743538 0.883187 0.601265
O O10 0.897206 0.202993 0.978620
O O11 0.000000 0.000000 0.000000
O O12 0.287814 0.745575 0.104841
O O13 0.190806 0.662007 0.704784
O O14 0.399918 0.647422 0.989263
O O15 0.375238 0.447006 0.693238
O O16 0.365497 0.248805 0.838626
O O17 0.982038 0.529638 0.204974
#
# Coordination Sequence:
#
# PCOD9030034 Si02
#       8
#     2   2   2   2   2   2   2   2
#     4  11  25  40  66  95 131 173 218 272 326 391
#     4  11  26  40  69 101 136 172 219 278 334 393
#     4  10  24  39  65  93 135 167 217 269 334 391
#     4  11  23  41  70  93 135 174 222 271 333 393
#     4  10  23  43  66  93 131 179 217 263 335 397
#     4  11  24  42  68  99 133 173 225 276 328 391
#     4  12  24  43  69 103 132 172 226 281 329 385
#     4  10  22  42  69  92 130 175 220 263 327 406
#
# _framework density 21.357675
#
# number of rings (size 3 to 8) (size 9 to 14) (size 15 to 20)
#    0.000    1.250    1.250    4.125   14.000    1.000 
#    0.000    0.000    0.000    4.500    0.000    0.000 
#    0.000    0.000    0.000    0.000    0.000    0.000 
#
# Total GULP energy -89256.119442 kJ/mol
# GULP energy per Si atom -5578.507465 kJ/mol
# Density = 2.130906 g / cm^3
# Si number density = 21.357675 Si / 1000 Ang^3
#
#
#
# Elastic Constant Matrix: (Units=GPa)
#
#
# Indices 1 2 3 4 5 6 
#
# 1 85.7524 13.5349 36.3808 4.3747 1.3209 -3.1779
# 2 13.5349 53.1150 24.8518 4.8276 7.3222 1.8380
# 3 36.3808 24.8518 127.3287 -4.3563 -10.6120 8.6393
# 4 4.3747 4.8276 -4.3563 34.9558 -1.9419 -4.6837
# 5 1.3209 7.3222 -10.6120 -1.9419 26.4390 -6.0816
# 6 -3.1779 1.8380 8.6393 -4.6837 -6.0816 31.6210
#
#
#
# Elastic Compliance Matrix: (Units=1/GPa)
#
#
# Indices 1 2 3 4 5 6 
#
# 1 0.013762 -0.001306 -0.004010 -0.001868 -0.001620 0.001966
# 2 -0.001306 0.023238 -0.004914 -0.004521 -0.009271 -0.002592
# 3 -0.004010 -0.004914 0.010624 0.002612 0.005662 -0.001544
# 4 -0.001868 -0.004521 0.002612 0.030790 0.005815 0.005040
# 5 -0.001620 -0.009271 0.005662 0.005815 0.045095 0.008363
# 6 0.001966 -0.002592 -0.001544 0.005040 0.008363 0.034750
#
#
# Mechanical properties :
#
#
# Convention : Reuss Voigt Hill
#
# Bulk Modulus (GPa) = 36.81132 46.19235 41.50184
# Shear Modulus (GPa) = 26.62813 31.36507 28.99660
#
# Velocity S-wave (km/s) = 3.53479 3.83634 3.68865
# Velocity P-wave (km/s) = 5.82518 6.42637 6.13315
#
# Compressibility (1/GPa) = 0.02716555
#
# Stress axis : x y z
#
# Youngs Moduli (GPa) = 72.66506 43.03388 94.12243
#
# Poissons Ratio (x) = 0.05619 0.37739
# Poissons Ratio (y) = 0.09487 0.46251
# Poissons Ratio (z) = 0.29136 0.21146
#
# Static dielectric constant tensor:
#      x y z
#    x 1.858850 -0.019170 0.050880 
#    y -0.019170 1.796780 -0.038040 
#    z 0.050880 -0.038040 1.876630 
# 
# From -- ./inp_files/205519.got.cif
#   From: 2010.05.17/outbox.cif.g08.bks.cpg/sg2_103_cif.got.tgz:205519.got - 2010.06.03 11:33:40.
