data_PCOD9030969
_publ_section_title
;
Structure prediction by ZEFSAII (Michael W. Deem and Ramdas Pophale) SiO2 
 PCOD9030969
Probable space group: P -1
;
_chemical_formula_sum "Si O2"
_cell_formula_units_Z 12
_cell_length_a 15.470706
_cell_length_b 12.373929
_cell_length_c 5.160216
_cell_angle_alpha 104.540401
_cell_angle_beta 77.185786
_cell_angle_gamma 147.045148
_cell_volume 520.034697
_symmetry_space_group_name_H-M "P -1"
_symmetry_group_IT_number 2
_symmetry_cell_setting 'triclinic'
loop_
_space_group_symop_operation_xyz
x,y,z
-x,-y,-z
loop_
_atom_site_type_symbol
_atom_site_label
_atom_site_fract_x
_atom_site_fract_y
_atom_site_fract_z
Si Si1 0.928015 0.035584 0.442167
Si Si2 0.943586 0.285260 0.844127
Si Si3 0.512975 0.211502 0.736694
Si Si4 0.571468 0.633812 0.282075
Si Si5 0.882018 0.576298 0.675130
Si Si6 0.390807 0.984515 0.172658
O O1 0.762847 0.834442 0.291480
O O2 0.892241 0.102026 0.703739
O O3 0.000000 0.000000 0.500000
O O4 0.058346 0.233070 0.292324
O O5 0.079918 0.443828 0.633659
O O6 0.798345 0.215973 0.849225
O O7 0.009510 0.358151 0.131001
O O8 0.487750 0.302255 0.668059
O O9 0.698273 0.379309 0.742003
O O10 0.431110 0.044474 0.482188
O O11 0.437145 0.130207 0.023049
O O12 0.500000 0.500000 0.500000
O O13 0.500000 0.500000 0.000000
O O14 0.500000 0.000000 0.000000
#
# Coordination Sequence:
#
# PCOD9030969 Si02
#       6
#     2   2   2   2   2   2
#     4  10  23  40  64  91 135 175 220 258 333 392
#     4  10  22  43  63  91 130 169 214 269 331 385
#     4  12  24  46  66 102 137 169 226 284 320 401
#     4  12  26  39  65 101 137 179 221 264 327 401
#     4  10  23  40  67  90 135 171 209 268 339 378
#     4  12  25  46  73  96 128 179 227 279 340 387
#
# _framework density 23.075386000000002
#
# number of rings (size 3 to 8) (size 9 to 14) (size 15 to 20)
#    1.000    0.000    1.667    5.500    4.667    0.667 
#    0.000    5.000    0.000    0.000    0.000    0.000 
#    0.000    0.000    0.000    0.000    0.000    0.000 
#
# Total GULP energy -67107.371653 kJ/mol
# GULP energy per Si atom -5592.280971 kJ/mol
# Density = 2.302287 g / cm^3
# Si number density = 23.075386 Si / 1000 Ang^3
#
#
#
# Elastic Constant Matrix: (Units=GPa)
#
#
# Indices 1 2 3 4 5 6 
#
# 1 108.1910 6.6373 6.7766 19.8961 -0.6950 10.2123
# 2 6.6373 73.0571 -6.4297 -1.1645 14.0574 9.4308
# 3 6.7766 -6.4297 74.3569 3.6211 19.9464 -12.9743
# 4 19.8961 -1.1645 3.6211 40.8381 5.3452 6.2963
# 5 -0.6950 14.0574 19.9464 5.3452 33.3020 -2.2618
# 6 10.2123 9.4308 -12.9743 6.2963 -2.2618 37.2329
#
#
#
# Elastic Compliance Matrix: (Units=1/GPa)
#
#
# Indices 1 2 3 4 5 6 
#
# 1 0.010606 -0.001440 -0.001942 -0.005043 0.002652 -0.002207
# 2 -0.001440 0.016500 0.003394 0.002705 -0.009710 -0.003649
# 3 -0.001942 0.003394 0.018020 0.000209 -0.011947 0.005191
# 4 -0.005043 0.002705 0.000209 0.028503 -0.006248 -0.004429
# 5 0.002652 -0.009710 -0.011947 -0.006248 0.042423 0.001202
# 6 -0.002207 -0.003649 0.005191 -0.004429 0.001202 0.031018
#
#
# Mechanical properties :
#
#
# Convention : Reuss Voigt Hill
#
# Bulk Modulus (GPa) = 22.14856 29.95259 26.05057
# Shear Modulus (GPa) = 30.84619 38.84933 34.84776
#
# Velocity S-wave (km/s) = 3.66014 4.10760 3.89031
# Velocity P-wave (km/s) = 5.24226 5.95861 5.61188
#
# Compressibility (1/GPa) = 0.04514967
#
# Stress axis : x y z
#
# Youngs Moduli (GPa) = 94.28976 60.60606 55.49495
#
# Poissons Ratio (x) = 0.08728 0.10777
# Poissons Ratio (y) = 0.13580 -0.18837
# Poissons Ratio (z) = 0.18311 -0.20572
#
# Static dielectric constant tensor:
#      x y z
#    x 1.887740 -0.071590 -0.026300 
#    y -0.071590 1.812380 -0.022710 
#    z -0.026300 -0.022710 1.834650 
# 
# From -- ./inp_files/96525.got.cif
#   From: 2010.05.17/outbox.cif.g08.bks.cpg/sg2_49_cif.got.tgz:96525.got - 2010.06.03 11:33:40.
