data_PCOD9030432
_publ_section_title
;
Structure prediction by ZEFSAII (Michael W. Deem and Ramdas Pophale) SiO2 
 PCOD9030432
Probable space group: P -1
;
_chemical_formula_sum "Si O2"
_cell_formula_units_Z 16
_cell_length_a 8.845469
_cell_length_b 7.783820
_cell_length_c 17.296270
_cell_angle_alpha 32.571238
_cell_angle_beta 85.983595
_cell_angle_gamma 82.985443
_cell_volume 635.100927
_symmetry_space_group_name_H-M "P -1"
_symmetry_group_IT_number 2
_symmetry_cell_setting 'triclinic'
loop_
_space_group_symop_operation_xyz
x,y,z
-x,-y,-z
loop_
_atom_site_type_symbol
_atom_site_label
_atom_site_fract_x
_atom_site_fract_y
_atom_site_fract_z
Si Si1 0.434463 0.361126 0.203932
Si Si2 0.323855 0.054570 0.466394
Si Si3 0.084935 0.933844 0.149030
Si Si4 0.611854 0.756988 0.335323
Si Si5 0.092147 0.669608 0.653282
Si Si6 0.712606 0.434602 0.601977
Si Si7 0.739773 0.608736 0.102552
Si Si8 0.770506 0.292455 0.053095
O O1 0.319572 0.265914 0.309573
O O2 0.565447 0.576939 0.144889
O O3 0.529692 0.032115 0.293824
O O4 0.337365 0.524285 0.075681
O O5 0.254976 0.260490 0.463684
O O6 0.500000 0.000000 0.500000
O O7 0.253046 0.722536 0.587017
O O8 0.174076 0.855938 0.256353
O O9 0.002560 0.622074 0.250742
O O10 0.946087 0.216968 0.052130
O O11 0.203557 0.039932 0.040839
O O12 0.715190 0.519291 0.479554
O O13 0.462571 0.627387 0.354665
O O14 0.706633 0.953404 0.200159
O O15 0.146165 0.609349 0.762591
O O16 0.000000 0.000000 0.500000
O O17 0.753153 0.479082 0.063795
#
# Coordination Sequence:
#
# PCOD9030432 Si02
#       8
#     2   2   2   2   2   2   2   2
#     4  11  23  44  75 100 136 179 233 290 340 408
#     4  12  23  45  71 101 131 182 236 282 340 402
#     4  12  27  44  67 105 146 183 228 276 358 415
#     4  10  22  42  70  99 137 176 237 285 339 401
#     4  12  27  47  70 101 144 187 229 287 348 412
#     4  11  23  43  67 101 137 181 226 291 341 410
#     4  11  24  49  70 100 144 182 231 286 347 409
#     4  11  25  43  70 104 137 184 230 281 352 414
#
# _framework density 25.192844999999998
#
# number of rings (size 3 to 8) (size 9 to 14) (size 15 to 20)
#    0.000    0.750    3.750    4.500    3.500    1.500 
#    0.000    1.875    0.000    0.000    0.000    0.000 
#    0.000    0.000    0.000    0.000    0.000    0.000 
#
# Total GULP energy -89550.896647 kJ/mol
# GULP energy per Si atom -5596.931040 kJ/mol
# Density = 2.513551 g / cm^3
# Si number density = 25.192845 Si / 1000 Ang^3
#
#
#
# Elastic Constant Matrix: (Units=GPa)
#
#
# Indices 1 2 3 4 5 6 
#
# 1 106.2133 25.1279 66.1893 7.8672 1.6763 37.5835
# 2 25.1279 62.4259 38.4917 5.5823 -6.4795 26.0301
# 3 66.1893 38.4917 192.7646 21.9278 -0.5340 35.2843
# 4 7.8672 5.5823 21.9278 45.7065 22.4126 2.2596
# 5 1.6763 -6.4795 -0.5340 22.4126 74.2655 -4.1764
# 6 37.5835 26.0301 35.2843 2.2596 -4.1764 35.9862
#
#
#
# Elastic Compliance Matrix: (Units=1/GPa)
#
#
# Indices 1 2 3 4 5 6 
#
# 1 0.016474 0.001651 -0.003135 -0.000261 -0.001039 -0.015429
# 2 0.001651 0.023967 -0.002026 -0.002290 0.001790 -0.016722
# 3 -0.003135 -0.002026 0.007431 -0.003025 0.000733 -0.002271
# 4 -0.000261 -0.002290 -0.003025 0.027690 -0.008450 0.002175
# 5 -0.001039 0.001790 0.000733 -0.008450 0.016284 0.001493
# 6 -0.015429 -0.016722 -0.002271 0.002175 0.001493 0.058262
#
#
# Mechanical properties :
#
#
# Convention : Reuss Voigt Hill
#
# Bulk Modulus (GPa) = 24.47944 69.00241 46.74092
# Shear Modulus (GPa) = 29.28343 46.63130 37.95737
#
# Velocity S-wave (km/s) = 3.41305 4.30696 3.88580
# Velocity P-wave (km/s) = 5.02691 7.22374 6.22303
#
# Compressibility (1/GPa) = 0.04085062
#
# Stress axis : x y z
#
# Youngs Moduli (GPa) = 60.70350 41.72359 134.57958
#
# Poissons Ratio (x) = -0.06890 0.42194
# Poissons Ratio (y) = -0.10024 0.27271
# Poissons Ratio (z) = 0.19032 0.08455
#
# Static dielectric constant tensor:
#      x y z
#    x 2.058380 -0.062240 -0.050290 
#    y -0.062240 2.069300 -0.057340 
#    z -0.050290 -0.057340 2.019110 
# 
# From -- ./inp_files/556734.got.cif
#   From: 2010.05.17/outbox.cif.g08.bks.cpg/sg2_279_cif.got.tgz:556734.got - 2010.06.03 11:33:40.
