data_PCOD9030240
_publ_section_title
;
Structure prediction by ZEFSAII (Michael W. Deem and Ramdas Pophale) SiO2 
 PCOD9030240
Probable space group: P -1
;
_chemical_formula_sum "Si O2"
_cell_formula_units_Z 16
_cell_length_a 15.407968
_cell_length_b 10.084675
_cell_length_c 7.296485
_cell_angle_alpha 112.570826
_cell_angle_beta 128.722956
_cell_angle_gamma 101.967182
_cell_volume 640.140029
_symmetry_space_group_name_H-M "P -1"
_symmetry_group_IT_number 2
_symmetry_cell_setting 'triclinic'
loop_
_space_group_symop_operation_xyz
x,y,z
-x,-y,-z
loop_
_atom_site_type_symbol
_atom_site_label
_atom_site_fract_x
_atom_site_fract_y
_atom_site_fract_z
Si Si1 0.326874 0.471888 0.258228
Si Si2 0.460619 0.074105 0.758807
Si Si3 0.038217 0.400292 0.864274
Si Si4 0.184387 0.236723 0.610542
Si Si5 0.842865 0.099511 0.707685
Si Si6 0.418909 0.124570 0.301388
Si Si7 0.612953 0.484174 0.237450
Si Si8 0.097761 0.832641 0.765113
O O1 0.474369 0.663747 0.499153
O O2 0.339114 0.422672 0.452542
O O3 0.202769 0.494434 0.105279
O O4 0.277068 0.317967 0.959526
O O5 0.442855 0.108543 0.540240
O O6 0.302133 0.937365 0.556361
O O7 0.536036 0.982210 0.806226
O O8 0.546736 0.274056 0.065984
O O9 0.964642 0.211158 0.778009
O O10 0.959144 0.338862 0.532437
O O11 0.000000 0.500000 0.000000
O O12 0.252290 0.413150 0.664249
O O13 0.023312 0.143857 0.393913
O O14 0.196259 0.099400 0.442511
O O15 0.889040 0.193587 0.016752
O O16 0.251149 0.008467 0.996093
O O17 0.500000 0.500000 0.000000
#
# Coordination Sequence:
#
# PCOD9030240 Si02
#       8
#     2   2   2   2   2   2   2   2
#     4  11  26  44  72 105 144 187 232 298 350 415
#     4  10  22  42  70 102 140 182 236 292 345 419
#     4  11  26  46  68 108 140 180 236 291 354 423
#     4  11  24  47  68 104 143 182 236 287 353 421
#     4  11  23  45  70  99 137 190 228 290 348 419
#     4  10  22  45  71 104 140 184 235 288 354 416
#     4  12  25  44  69 103 141 185 240 291 349 415
#     4  10  25  43  72 100 138 187 229 282 348 421
#
# _framework density 24.994529
#
# number of rings (size 3 to 8) (size 9 to 14) (size 15 to 20)
#    0.000    1.250    2.500    1.875    3.500    4.500 
#    0.000    0.000    0.000    0.000    0.000    0.000 
#    0.000    0.000    0.000    0.000    0.000    0.000 
#
# Total GULP energy -89699.503644 kJ/mol
# GULP energy per Si atom -5606.218978 kJ/mol
# Density = 2.493764 g / cm^3
# Si number density = 24.994529 Si / 1000 Ang^3
#
#
#
# Elastic Constant Matrix: (Units=GPa)
#
#
# Indices 1 2 3 4 5 6 
#
# 1 131.1190 13.2919 75.4224 -4.4911 9.3093 -1.4925
# 2 13.2919 50.9139 38.8167 -8.0144 -0.4169 9.7007
# 3 75.4224 38.8167 157.9359 -17.2444 3.4903 7.2966
# 4 -4.4911 -8.0144 -17.2444 26.8540 10.2135 -11.6879
# 5 9.3093 -0.4169 3.4903 10.2135 66.0069 0.4192
# 6 -1.4925 9.7007 7.2966 -11.6879 0.4192 30.5106
#
#
#
# Elastic Compliance Matrix: (Units=1/GPa)
#
#
# Indices 1 2 3 4 5 6 
#
# 1 0.010753 0.001030 -0.005465 -0.000353 -0.001175 0.001386
# 2 0.001030 0.025577 -0.006399 0.000896 0.000256 -0.006212
# 3 -0.005465 -0.006399 0.011019 0.004939 -0.000623 0.001032
# 4 -0.000353 0.000896 0.004939 0.051839 -0.008344 0.018490
# 5 -0.001175 0.000256 -0.000623 -0.008344 0.016663 -0.003415
# 6 0.001386 -0.006212 0.001032 0.018490 -0.003415 0.041701
#
#
# Mechanical properties :
#
#
# Convention : Reuss Voigt Hill
#
# Bulk Modulus (GPa) = 38.93813 66.11454 52.52633
# Shear Modulus (GPa) = 26.62662 38.83681 32.73171
#
# Velocity S-wave (km/s) = 3.26743 3.94612 3.62270
# Velocity P-wave (km/s) = 5.46327 6.87543 6.20962
#
# Compressibility (1/GPa) = 0.02568177
#
# Stress axis : x y z
#
# Youngs Moduli (GPa) = 92.99871 39.09710 90.74899
#
# Poissons Ratio (x) = -0.04026 0.49592
# Poissons Ratio (y) = -0.09577 0.58069
# Poissons Ratio (z) = 0.50822 0.25018
#
# Static dielectric constant tensor:
#      x y z
#    x 1.960350 0.003910 -0.022380 
#    y 0.003910 1.964370 0.009670 
#    z -0.022380 0.009670 1.973820 
# 
# From -- ./inp_files/332408.got.cif
#   From: 2010.05.17/outbox.cif.g08.bks.cpg/sg2_167_cif.got.tgz:332408.got - 2010.06.03 11:33:40.
