data_PCOD9030615
_publ_section_title
;
Structure prediction by ZEFSAII (Michael W. Deem and Ramdas Pophale) SiO2 
 PCOD9030615
Probable space group: P -1
;
_chemical_formula_sum "Si O2"
_cell_formula_units_Z 15
_cell_length_a 5.530052
_cell_length_b 14.190462
_cell_length_c 9.060983
_cell_angle_alpha 110.200662
_cell_angle_beta 103.334549
_cell_angle_gamma 63.189169
_cell_volume 593.193066
_symmetry_space_group_name_H-M "P -1"
_symmetry_group_IT_number 2
_symmetry_cell_setting 'triclinic'
loop_
_space_group_symop_operation_xyz
x,y,z
-x,-y,-z
loop_
_atom_site_type_symbol
_atom_site_label
_atom_site_fract_x
_atom_site_fract_y
_atom_site_fract_z
Si Si1 0.733318 0.588780 0.089950
Si Si2 0.044665 0.331649 0.586054
Si Si3 0.196723 0.847284 0.575251
Si Si4 0.718105 0.395628 0.169383
Si Si5 0.327953 0.939938 0.368185
Si Si6 0.738660 0.756806 0.729721
Si Si7 0.273949 0.010733 0.096526
Si Si8 0.500000 0.500000 0.500000
O O1 0.805500 0.672365 0.242517
O O2 0.661557 0.515700 0.162496
O O3 0.481686 0.641416 0.972439
O O4 0.000000 0.500000 0.000000
O O5 0.211229 0.320308 0.451510
O O6 0.950204 0.232936 0.513125
O O7 0.782593 0.446114 0.606712
O O8 0.339852 0.849857 0.439907
O O9 0.413436 0.806035 0.716246
O O10 0.986580 0.972098 0.637420
O O11 0.645489 0.411339 0.339371
O O12 0.038826 0.317016 0.162189
O O13 0.500000 0.000000 0.500000
O O14 0.406576 0.923014 0.199138
O O15 0.796623 0.866493 0.781468
O O16 0.500000 0.000000 0.000000
O O17 0.000000 0.000000 0.000000
#
# Coordination Sequence:
#
# PCOD9030615 Si02
#       8
#     2   2   2   2   2   2   2   1
#     4  11  24  48  67 107 149 189 237 316 378 435
#     4  11  24  41  74 108 142 194 253 301 377 449
#     4  11  23  42  78 103 148 182 270 306 371 451
#     4  10  25  46  73 102 151 187 252 302 378 445
#     4  11  23  48  75 105 139 202 243 316 371 459
#     4  11  25  47  70 110 139 201 252 306 371 474
#     4  12  27  51  75 111 158 197 247 323 398 453
#     4  10  22  42  72 104 136 200 230 304 362 438
#
# _framework density 25.286875999999999
#
# number of rings (size 3 to 8) (size 9 to 14) (size 15 to 20)
#    0.000    1.067    4.000    0.800    5.600    1.067 
#    7.200    0.000    0.000    0.000    0.000    0.000 
#    0.000    0.000    0.000    0.000    0.000    0.000 
#
# Total GULP energy -83680.888934 kJ/mol
# GULP energy per Si atom -5578.725929 kJ/mol
# Density = 2.522932 g / cm^3
# Si number density = 25.286876 Si / 1000 Ang^3
#
#
#
# Elastic Constant Matrix: (Units=GPa)
#
#
# Indices 1 2 3 4 5 6 
#
# 1 97.5950 17.9720 62.6267 -6.9665 15.5559 -17.0983
# 2 17.9720 72.9050 20.3459 -19.4380 8.3479 -25.0607
# 3 62.6267 20.3459 156.3154 -18.2913 34.4908 -5.4642
# 4 -6.9665 -19.4380 -18.2913 47.0399 -4.6743 9.0415
# 5 15.5559 8.3479 34.4908 -4.6743 57.8697 -10.4177
# 6 -17.0983 -25.0607 -5.4642 9.0415 -10.4177 51.0568
#
#
#
# Elastic Compliance Matrix: (Units=1/GPa)
#
#
# Indices 1 2 3 4 5 6 
#
# 1 0.014771 -0.000952 -0.005863 -0.001250 0.000305 0.004135
# 2 -0.000952 0.018345 -0.001110 0.005556 0.000088 0.007601
# 3 -0.005863 -0.001110 0.010120 0.002698 -0.004588 -0.002839
# 4 -0.001250 0.005556 0.002698 0.024736 -0.000411 -0.001867
# 5 0.000305 0.000088 -0.004588 -0.000411 0.020594 0.003929
# 6 0.004135 0.007601 -0.002839 -0.001867 0.003929 0.025530
#
#
# Mechanical properties :
#
#
# Convention : Reuss Voigt Hill
#
# Bulk Modulus (GPa) = 36.51519 58.74496 47.63007
# Shear Modulus (GPa) = 35.95215 46.25132 41.10174
#
# Velocity S-wave (km/s) = 3.77473 4.28140 4.03602
# Velocity P-wave (km/s) = 5.78531 6.90813 6.37150
#
# Compressibility (1/GPa) = 0.02738586
#
# Stress axis : x y z
#
# Youngs Moduli (GPa) = 67.70231 54.51121 98.81847
#
# Poissons Ratio (x) = 0.05187 0.57935
# Poissons Ratio (y) = 0.06443 0.10970
# Poissons Ratio (z) = 0.39692 0.06052
#
# Static dielectric constant tensor:
#      x y z
#    x 2.097530 -0.008320 -0.048930 
#    y -0.008320 2.020430 -0.027560 
#    z -0.048930 -0.027560 2.038610 
# 
# From -- ./inp_files/43796.got.cif
#   From: 2010.05.17/outbox.cif.g08.bks.cpg/sg2_22_cif.got.tgz:43796.got - 2010.06.03 11:33:40.
