data_PCOD9030559
_publ_section_title
;
Structure prediction by ZEFSAII (Michael W. Deem and Ramdas Pophale) SiO2 
 PCOD9030559
Probable space group: P -1
;
_chemical_formula_sum "Si O2"
_cell_formula_units_Z 14
_cell_length_a 8.809415
_cell_length_b 12.069083
_cell_length_c 11.417697
_cell_angle_alpha 41.988553
_cell_angle_beta 57.313624
_cell_angle_gamma 44.122462
_cell_volume 565.331050
_symmetry_space_group_name_H-M "P -1"
_symmetry_group_IT_number 2
_symmetry_cell_setting 'triclinic'
loop_
_space_group_symop_operation_xyz
x,y,z
-x,-y,-z
loop_
_atom_site_type_symbol
_atom_site_label
_atom_site_fract_x
_atom_site_fract_y
_atom_site_fract_z
Si Si1 0.423917 0.691951 0.507140
Si Si2 0.935263 0.348536 0.950451
Si Si3 0.107503 0.992262 0.790736
Si Si4 0.868547 0.408772 0.671365
Si Si5 0.577036 0.708619 0.932569
Si Si6 0.305585 0.045932 0.454612
Si Si7 0.641633 0.640654 0.219187
O O1 0.653852 0.509042 0.606199
O O2 0.346771 0.865537 0.497220
O O3 0.484912 0.740332 0.318576
O O4 0.294197 0.587760 0.629564
O O5 0.820568 0.453868 0.792293
O O6 0.747040 0.471752 0.028041
O O7 0.143709 0.358058 0.864241
O O8 0.007382 0.121364 0.095709
O O9 0.349873 0.817657 0.872261
O O10 0.121362 0.089773 0.588603
O O11 0.004560 0.171142 0.785166
O O12 0.000000 0.500000 0.500000
O O13 0.708204 0.795968 0.754258
O O14 0.532268 0.744848 0.059803
O O15 0.500000 0.000000 0.500000
#
# Coordination Sequence:
#
# PCOD9030559 Si02
#       7
#     2   2   2   2   2   2   2
#     4  11  24  48  68  98 137 184 222 276 339 403
#     4  12  24  43  68 101 136 176 229 278 334 402
#     4  11  24  43  70 104 130 175 231 284 334 389
#     4  12  22  43  71 100 133 174 233 281 326 394
#     4  11  23  44  69  99 135 177 219 280 343 397
#     4  10  22  42  71  99 128 173 231 275 333 391
#     4  11  26  44  69  95 142 183 222 268 347 408
#
# _framework density 24.764251999999999
#
# number of rings (size 3 to 8) (size 9 to 14) (size 15 to 20)
#    0.000    0.857    1.429    7.286    0.000    0.571 
#    5.143    1.429    0.000    0.000    0.000    0.000 
#    0.000    0.000    0.000    0.000    0.000    0.000 
#
# Total GULP energy -78435.553971 kJ/mol
# GULP energy per Si atom -5602.539569 kJ/mol
# Density = 2.470789 g / cm^3
# Si number density = 24.764252 Si / 1000 Ang^3
#
#
#
# Elastic Constant Matrix: (Units=GPa)
#
#
# Indices 1 2 3 4 5 6 
#
# 1 110.9933 28.7121 56.1863 -0.8613 -24.5260 7.7797
# 2 28.7121 76.0234 -2.9380 0.1982 -7.4031 17.3629
# 3 56.1863 -2.9380 83.6848 13.3558 -2.0709 -4.1701
# 4 -0.8613 0.1982 13.3558 46.7744 20.5179 3.0138
# 5 -24.5260 -7.4031 -2.0709 20.5179 46.6490 2.4343
# 6 7.7797 17.3629 -4.1701 3.0138 2.4343 30.7365
#
#
#
# Elastic Compliance Matrix: (Units=1/GPa)
#
#
# Indices 1 2 3 4 5 6 
#
# 1 0.019648 -0.006172 -0.013512 0.000715 0.008649 -0.004075
# 2 -0.006172 0.017474 0.004607 -0.001326 0.000713 -0.007610
# 3 -0.013512 0.004607 0.022212 -0.005501 -0.003208 0.004624
# 4 0.000715 -0.001326 -0.005501 0.028605 -0.012557 -0.001989
# 5 0.008649 0.000713 -0.003208 -0.012557 0.031702 -0.004307
# 6 -0.004075 -0.007610 0.004624 -0.001989 -0.004307 0.039028
#
#
# Mechanical properties :
#
#
# Convention : Reuss Voigt Hill
#
# Bulk Modulus (GPa) = 34.26802 48.29137 41.27970
# Shear Modulus (GPa) = 25.18262 37.41474 31.29868
#
# Velocity S-wave (km/s) = 3.19234 3.89116 3.55895
# Velocity P-wave (km/s) = 5.23982 6.30325 5.79598
#
# Compressibility (1/GPa) = 0.02918172
#
# Stress axis : x y z
#
# Youngs Moduli (GPa) = 50.89511 57.22877 45.02034
#
# Poissons Ratio (x) = 0.35320 0.60830
# Poissons Ratio (y) = 0.31411 -0.20742
# Poissons Ratio (z) = 0.68768 -0.26366
#
# Static dielectric constant tensor:
#      x y z
#    x 2.033220 0.051550 -0.051080 
#    y 0.051550 1.950960 -0.031750 
#    z -0.051080 -0.031750 1.959300 
# 
# From -- ./inp_files/391828.got.cif
#   From: 2010.05.17/outbox.cif.g08.bks.cpg/sg2_196_cif.got.tgz:391828.got - 2010.06.03 11:33:40.
