data_PCOD9030217
_publ_section_title
;
Structure prediction by ZEFSAII (Michael W. Deem and Ramdas Pophale) SiO2 
 PCOD9030217
Probable space group: P -1
;
_chemical_formula_sum "Si O2"
_cell_formula_units_Z 16
_cell_length_a 20.543242
_cell_length_b 5.207957
_cell_length_c 11.586486
_cell_angle_alpha 81.526715
_cell_angle_beta 35.200787
_cell_angle_gamma 67.448569
_cell_volume 627.014785
_symmetry_space_group_name_H-M "P -1"
_symmetry_group_IT_number 2
_symmetry_cell_setting 'triclinic'
loop_
_space_group_symop_operation_xyz
x,y,z
-x,-y,-z
loop_
_atom_site_type_symbol
_atom_site_label
_atom_site_fract_x
_atom_site_fract_y
_atom_site_fract_z
Si Si1 0.126718 0.695830 0.320544
Si Si2 0.944692 0.782656 0.138128
Si Si3 0.649656 0.440551 0.678441
Si Si4 0.714716 0.267741 0.348899
Si Si5 0.389449 0.909135 0.686240
Si Si6 0.141956 0.507494 0.046949
Si Si7 0.619844 0.233386 0.030691
Si Si8 0.271067 0.184608 0.290410
O O1 0.137846 0.577008 0.182486
O O2 0.249542 0.745788 0.162691
O O3 0.142771 0.444344 0.404959
O O4 0.000000 0.000000 0.500000
O O5 0.797450 0.953925 0.309133
O O6 0.000000 0.500000 0.000000
O O7 0.000399 0.347177 0.808095
O O8 0.000000 0.000000 0.000000
O O9 0.686930 0.464747 0.489922
O O10 0.724333 0.110111 0.642389
O O11 0.675069 0.662912 0.706826
O O12 0.502398 0.514276 0.870961
O O13 0.607769 0.261455 0.423171
O O14 0.794934 0.334524 0.132372
O O15 0.500000 0.000000 0.500000
O O16 0.242864 0.171633 0.895427
O O17 0.410514 0.772238 0.791386
O O18 0.644012 0.945757 0.940709
#
# Coordination Sequence:
#
# PCOD9030217 Si02
#       8
#     2   2   2   2   2   2   2   2
#     4  12  29  52  80 116 159 216 275 333 398 470
#     4  10  22  42  70 101 146 198 251 308 379 461
#     4  12  30  47  82 117 163 206 269 331 403 483
#     4  11  26  47  72 117 155 205 258 325 404 477
#     4  12  26  44  79 119 161 203 260 327 411 484
#     4  11  24  47  75 110 156 207 265 327 399 473
#     4  12  27  52  81 114 162 211 270 335 399 476
#     4  12  28  53  79 117 159 212 273 327 397 472
#
# _framework density 25.517741999999998
#
# number of rings (size 3 to 8) (size 9 to 14) (size 15 to 20)
#    0.000    0.500    5.000    1.500    8.750    1.500 
#    4.500    0.000    0.000    0.000    0.000    0.000 
#    0.000    0.000    0.000    0.000    0.000    0.000 
#
# Total GULP energy -89485.677733 kJ/mol
# GULP energy per Si atom -5592.854858 kJ/mol
# Density = 2.545966 g / cm^3
# Si number density = 25.517742 Si / 1000 Ang^3
#
#
#
# Elastic Constant Matrix: (Units=GPa)
#
#
# Indices 1 2 3 4 5 6 
#
# 1 231.7403 67.9467 68.0906 3.5684 49.1285 -8.5558
# 2 67.9467 121.6008 47.5731 9.6450 17.2038 -2.7150
# 3 68.0906 47.5731 116.8011 3.6003 34.3836 -0.8291
# 4 3.5684 9.6450 3.6003 48.1858 -4.3082 0.7049
# 5 49.1285 17.2038 34.3836 -4.3082 40.5103 20.7457
# 6 -8.5558 -2.7150 -0.8291 0.7049 20.7457 53.8722
#
#
#
# Elastic Compliance Matrix: (Units=1/GPa)
#
#
# Indices 1 2 3 4 5 6 
#
# 1 0.007589 -0.002435 -0.000169 -0.001109 -0.010843 0.005270
# 2 -0.002435 0.010830 -0.003268 -0.001640 0.001104 -0.000295
# 3 -0.000169 -0.003268 0.013884 -0.001601 -0.012934 0.005024
# 4 -0.001109 -0.001640 -0.001601 0.022006 0.007514 -0.003465
# 5 -0.010843 0.001104 -0.012934 0.007514 0.062467 -0.026019
# 6 0.005270 -0.000295 0.005024 -0.003465 -0.026019 0.029527
#
#
# Mechanical properties :
#
#
# Convention : Reuss Voigt Hill
#
# Bulk Modulus (GPa) = 48.64105 93.04032 70.84068
# Shear Modulus (GPa) = 30.32154 47.61579 38.96866
#
# Velocity S-wave (km/s) = 3.45084 4.32439 3.91208
# Velocity P-wave (km/s) = 5.91446 7.84054 6.94460
#
# Compressibility (1/GPa) = 0.02055877
#
# Stress axis : x y z
#
# Youngs Moduli (GPa) = 131.77043 92.33582 72.02685
#
# Poissons Ratio (x) = 0.22482 0.01217
# Poissons Ratio (y) = 0.32083 0.23540
# Poissons Ratio (z) = 0.02227 0.30177
#
# Static dielectric constant tensor:
#      x y z
#    x 2.027930 0.012280 -0.015480 
#    y 0.012280 1.876020 -0.028090 
#    z -0.015480 -0.028090 2.087730 
# 
# From -- ./inp_files/468398.got.cif
#   From: 2010.05.17/outbox.cif.g08.bks.cpg/sg2_235_cif.got.tgz:468398.got - 2010.06.03 11:33:40.
