data_PCOD9030568
_publ_section_title
;
Structure prediction by ZEFSAII (Michael W. Deem and Ramdas Pophale) SiO2 
 PCOD9030568
Probable space group: P -1
;
_chemical_formula_sum "Si O2"
_cell_formula_units_Z 14
_cell_length_a 17.883153
_cell_length_b 8.330822
_cell_length_c 9.227192
_cell_angle_alpha 97.282654
_cell_angle_beta 56.834687
_cell_angle_gamma 50.761249
_cell_volume 609.844586
_symmetry_space_group_name_H-M "P -1"
_symmetry_group_IT_number 2
_symmetry_cell_setting 'triclinic'
loop_
_space_group_symop_operation_xyz
x,y,z
-x,-y,-z
loop_
_atom_site_type_symbol
_atom_site_label
_atom_site_fract_x
_atom_site_fract_y
_atom_site_fract_z
Si Si1 0.083816 0.456628 0.543646
Si Si2 0.318740 0.292192 0.082987
Si Si3 0.577280 0.724023 0.307213
Si Si4 0.318436 0.878623 0.442947
Si Si5 0.809341 0.345518 0.259041
Si Si6 0.030336 0.282087 0.010201
Si Si7 0.432588 0.355909 0.201782
O O1 0.176156 0.462461 0.365672
O O2 0.000000 0.500000 0.500000
O O3 0.210678 0.140520 0.462476
O O4 0.955646 0.719192 0.831511
O O5 0.423560 0.273390 0.050428
O O6 0.293480 0.406099 0.965731
O O7 0.414902 0.973678 0.922472
O O8 0.439755 0.818025 0.391058
O O9 0.685552 0.468148 0.284031
O O10 0.500000 0.000000 0.500000
O O11 0.422883 0.564554 0.234058
O O12 0.191095 0.990254 0.709106
O O13 0.726517 0.453195 0.513093
O O14 0.851413 0.468693 0.200447
O O15 0.000000 0.000000 0.000000
O O16 0.000000 0.500000 0.000000
#
# Coordination Sequence:
#
# PCOD9030568 Si02
#       7
#     2   2   2   2   2   2   2
#     4  11  25  43  70 105 142 187 231 292 362 419
#     4  11  25  44  72  97 142 189 239 290 361 425
#     4  12  26  46  75 103 140 193 236 285 359 432
#     4  11  25  46  71 107 141 183 242 291 342 434
#     4  12  24  46  69 104 143 182 232 295 353 417
#     4  10  22  42  71  99 142 182 231 287 350 421
#     4  11  23  46  71  99 142 186 238 298 354 414
#
# _framework density 22.956669000000002
#
# number of rings (size 3 to 8) (size 9 to 14) (size 15 to 20)
#    0.000    0.857    4.286    3.429    6.000    2.857 
#    5.143    1.429    0.000    0.000    0.000    0.000 
#    0.000    0.000    0.000    0.000    0.000    0.000 
#
# Total GULP energy -78002.703924 kJ/mol
# GULP energy per Si atom -5571.621709 kJ/mol
# Density = 2.290442 g / cm^3
# Si number density = 22.956669 Si / 1000 Ang^3
#
#
#
# Elastic Constant Matrix: (Units=GPa)
#
#
# Indices 1 2 3 4 5 6 
#
# 1 134.2941 40.2058 22.2448 -2.5687 0.2296 -14.5581
# 2 40.2058 71.0665 24.8713 0.0333 12.3822 -12.7696
# 3 22.2448 24.8713 118.1755 -29.4373 8.5411 -3.2133
# 4 -2.5687 0.0333 -29.4373 36.3567 4.2322 0.2615
# 5 0.2296 12.3822 8.5411 4.2322 28.9295 -1.2868
# 6 -14.5581 -12.7696 -3.2133 0.2615 -1.2868 40.2851
#
#
#
# Elastic Compliance Matrix: (Units=1/GPa)
#
#
# Indices 1 2 3 4 5 6 
#
# 1 0.009290 -0.005054 -0.000912 -0.000380 0.002493 0.001765
# 2 -0.005054 0.020004 -0.003171 -0.002146 -0.007092 0.004049
# 3 -0.000912 -0.003171 0.012085 0.010160 -0.003715 -0.000555
# 4 -0.000380 -0.002146 0.010160 0.036578 -0.007450 -0.000483
# 5 0.002493 -0.007092 -0.003715 -0.007450 0.039755 -0.000325
# 6 0.001765 0.004049 -0.000555 -0.000483 -0.000325 0.026693
#
#
# Mechanical properties :
#
#
# Convention : Reuss Voigt Hill
#
# Bulk Modulus (GPa) = 43.27780 55.35332 49.31556
# Shear Modulus (GPa) = 29.34613 36.86188 33.10400
#
# Velocity S-wave (km/s) = 3.57925 4.01149 3.80152
# Velocity P-wave (km/s) = 5.99785 6.75429 6.38728
#
# Compressibility (1/GPa) = 0.02310653
#
# Stress axis : x y z
#
# Youngs Moduli (GPa) = 107.64013 49.98892 82.74562
#
# Poissons Ratio (x) = 0.25263 0.07547
# Poissons Ratio (y) = 0.54399 0.26237
# Poissons Ratio (z) = 0.09817 0.15851
#
# Static dielectric constant tensor:
#      x y z
#    x 2.034460 0.134720 0.023950 
#    y 0.134720 2.082390 0.069320 
#    z 0.023950 0.069320 1.952790 
# 
# From -- ./inp_files/329141.got.cif
#   From: 2010.05.17/outbox.cif.g08.bks.cpg/sg2_165_cif.got.tgz:329141.got - 2010.06.03 11:33:40.
