data_PCOD9030862
_publ_section_title
;
Structure prediction by ZEFSAII (Michael W. Deem and Ramdas Pophale) SiO2 
 PCOD9030862
Probable space group: P -1
;
_chemical_formula_sum "Si O2"
_cell_formula_units_Z 15
_cell_length_a 9.832963
_cell_length_b 12.508761
_cell_length_c 9.231671
_cell_angle_alpha 123.637154
_cell_angle_beta 78.548932
_cell_angle_gamma 139.643957
_cell_volume 557.025466
_symmetry_space_group_name_H-M "P -1"
_symmetry_group_IT_number 2
_symmetry_cell_setting 'triclinic'
loop_
_space_group_symop_operation_xyz
x,y,z
-x,-y,-z
loop_
_atom_site_type_symbol
_atom_site_label
_atom_site_fract_x
_atom_site_fract_y
_atom_site_fract_z
Si Si1 0.869846 0.320694 0.184366
Si Si2 0.692318 0.534697 0.795806
Si Si3 0.945563 0.962366 0.149107
Si Si4 0.545583 0.816811 0.186694
Si Si5 0.500000 0.500000 0.500000
Si Si6 0.784779 0.527617 0.249246
Si Si7 0.456738 0.019204 0.262766
Si Si8 0.872872 0.021137 0.627422
O O1 0.921795 0.502474 0.254567
O O2 0.085567 0.390374 0.224018
O O3 0.699966 0.209788 0.273257
O O4 0.726129 0.146069 0.952784
O O5 0.532682 0.334325 0.784209
O O6 0.584469 0.512145 0.656486
O O7 0.774008 0.715524 0.013571
O O8 0.819185 0.997067 0.249808
O O9 0.162210 0.081447 0.287989
O O10 0.000000 0.000000 0.000000
O O11 0.471885 0.908580 0.281111
O O12 0.427666 0.682048 0.960995
O O13 0.678646 0.528877 0.404011
O O14 0.947736 0.732079 0.263721
O O15 0.364886 0.077188 0.404125
O O16 0.000000 0.000000 0.500000
#
# Coordination Sequence:
#
# PCOD9030862 Si02
#       8
#     2   2   2   2   1   2   2   2
#     4  10  22  42  77 104 145 186 247 293 361 437
#     4  12  23  45  71 105 141 191 243 300 353 434
#     4  12  25  42  69 103 141 194 237 293 361 434
#     4  11  22  45  77 101 139 185 249 294 362 435
#     4  12  28  40  72 102 146 180 248 294 360 410
#     4  11  24  44  71 107 138 191 232 300 360 434
#     4  10  22  43  72 113 139 188 238 302 362 436
#     4  12  27  44  70 107 151 184 237 299 364 427
#
# _framework density 26.928749
#
# number of rings (size 3 to 8) (size 9 to 14) (size 15 to 20)
#    0.000    0.800    4.000    2.800    7.467    2.667 
#    0.000    0.667    0.000    0.000    0.000    0.000 
#    0.000    0.000    0.000    0.000    0.000    0.000 
#
# Total GULP energy -83881.217911 kJ/mol
# GULP energy per Si atom -5592.081194 kJ/mol
# Density = 2.686746 g / cm^3
# Si number density = 26.928749 Si / 1000 Ang^3
#
#
#
# Elastic Constant Matrix: (Units=GPa)
#
#
# Indices 1 2 3 4 5 6 
#
# 1 246.0819 41.2421 32.0087 -6.1390 -17.1629 0.7310
# 2 41.2421 70.0079 -0.7567 -24.8413 -13.2706 2.7263
# 3 32.0087 -0.7567 65.8352 -6.3830 -13.1033 3.1087
# 4 -6.1390 -24.8413 -6.3830 35.7020 -1.0374 -1.0081
# 5 -17.1629 -13.2706 -13.1033 -1.0374 40.3682 -7.7559
# 6 0.7310 2.7263 3.1087 -1.0081 -7.7559 55.0911
#
#
#
# Elastic Compliance Matrix: (Units=1/GPa)
#
#
# Indices 1 2 3 4 5 6 
#
# 1 0.004991 -0.003777 -0.002700 -0.002247 -0.000010 0.000231
# 2 -0.003777 0.024472 0.005557 0.017627 0.008710 0.000074
# 3 -0.002700 0.005557 0.018612 0.006923 0.006860 -0.000197
# 4 -0.002247 0.017627 0.006923 0.041386 0.008283 0.000690
# 5 -0.000010 0.008710 0.006860 0.008283 0.030775 0.003666
# 6 0.000231 0.000074 -0.000197 0.000690 0.003666 0.018685
#
#
# Mechanical properties :
#
#
# Convention : Reuss Voigt Hill
#
# Bulk Modulus (GPa) = 21.62952 58.54592 40.08772
# Shear Modulus (GPa) = 32.01562 46.86098 39.43830
#
# Velocity S-wave (km/s) = 3.45179 4.17608 3.83109
# Velocity P-wave (km/s) = 4.89244 6.71126 5.87269
#
# Compressibility (1/GPa) = 0.04623310
#
# Stress axis : x y z
#
# Youngs Moduli (GPa) = 200.37811 40.86277 53.72818
#
# Poissons Ratio (x) = 0.15435 0.14509
# Poissons Ratio (y) = 0.75687 -0.29856
# Poissons Ratio (z) = 0.54112 -0.22707
#
# Static dielectric constant tensor:
#      x y z
#    x 2.153320 0.670570 0.336720 
#    y 0.670570 6.330210 1.783040 
#    z 0.336720 1.783040 2.887040 
# 
# From -- ./inp_files/190048.got.cif
#   From: 2010.05.17/outbox.cif.g08.bks.cpg/sg2_96_cif.got.tgz:190048.got - 2010.06.03 11:33:40.
