data_PCOD9030369
_publ_section_title
;
Structure prediction by ZEFSAII (Michael W. Deem and Ramdas Pophale) SiO2 
 PCOD9030369
Probable space group: P -1
;
_chemical_formula_sum "Si O2"
_cell_formula_units_Z 15
_cell_length_a 12.038214
_cell_length_b 11.865751
_cell_length_c 12.246459
_cell_angle_alpha 148.984273
_cell_angle_beta 63.108896
_cell_angle_gamma 97.328711
_cell_volume 662.794078
_symmetry_space_group_name_H-M "P -1"
_symmetry_group_IT_number 2
_symmetry_cell_setting 'triclinic'
loop_
_space_group_symop_operation_xyz
x,y,z
-x,-y,-z
loop_
_atom_site_type_symbol
_atom_site_label
_atom_site_fract_x
_atom_site_fract_y
_atom_site_fract_z
Si Si1 0.070467 0.894466 0.263911
Si Si2 0.673171 0.670403 0.359741
Si Si3 0.345971 0.522532 0.567431
Si Si4 0.369615 0.153736 0.824273
Si Si5 0.787254 0.923156 0.366938
Si Si6 0.913950 0.875527 0.759379
Si Si7 0.784226 0.557010 0.642376
Si Si8 0.500000 0.500000 0.000000
O O1 0.959747 0.826768 0.201660
O O2 0.067704 0.105110 0.361622
O O3 0.237494 0.628620 0.973344
O O4 0.000000 0.000000 0.500000
O O5 0.666230 0.649652 0.475929
O O6 0.758331 0.798752 0.382274
O O7 0.504115 0.848853 0.536307
O O8 0.500000 0.500000 0.500000
O O9 0.333666 0.440734 0.383577
O O10 0.205372 0.825665 0.899409
O O11 0.260674 0.167851 0.792771
O O12 0.288615 0.287081 0.084240
O O13 0.450279 0.292763 0.862594
O O14 0.678432 0.241455 0.687767
O O15 0.850965 0.699611 0.668128
O O16 0.075083 0.736264 0.631507
#
# Coordination Sequence:
#
# PCOD9030369 Si02
#       8
#     2   2   2   2   2   2   2   1
#     4  11  26  43  71 101 139 182 227 284 356 409
#     4  10  24  44  65  99 140 176 221 291 340 403
#     4  11  25  45  69 101 140 178 230 285 346 408
#     4  11  25  44  71 101 141 181 234 284 340 414
#     4  11  25  43  68 102 137 180 232 285 341 408
#     4  10  25  46  68 100 136 182 233 285 335 418
#     4  11  25  45  73 100 136 186 232 278 347 412
#     4  10  22  42  70  96 134 180 228 274 340 400
#
# _framework density 22.631464000000001
#
# number of rings (size 3 to 8) (size 9 to 14) (size 15 to 20)
#    0.000    1.333    0.000    4.000    7.467   11.733 
#    4.800    0.000    0.000    0.000    0.000    0.000 
#    0.000    0.000    0.000    0.000    0.000    0.000 
#
# Total GULP energy -83747.061047 kJ/mol
# GULP energy per Si atom -5583.137403 kJ/mol
# Density = 2.257995 g / cm^3
# Si number density = 22.631464 Si / 1000 Ang^3
#
#
#
# Elastic Constant Matrix: (Units=GPa)
#
#
# Indices 1 2 3 4 5 6 
#
# 1 123.1802 51.7586 43.9542 -5.9795 -10.7375 -17.0045
# 2 51.7586 117.6892 67.8308 -0.8131 -0.8782 -17.8969
# 3 43.9542 67.8308 82.0498 -3.1750 -13.0893 -19.9846
# 4 -5.9795 -0.8131 -3.1750 36.5034 0.3871 -2.2599
# 5 -10.7375 -0.8782 -13.0893 0.3871 22.3551 -4.3864
# 6 -17.0045 -17.8969 -19.9846 -2.2599 -4.3864 20.7479
#
#
#
# Elastic Compliance Matrix: (Units=1/GPa)
#
#
# Indices 1 2 3 4 5 6 
#
# 1 0.011506 -0.003902 0.000222 0.002238 0.007036 0.008010
# 2 -0.003902 0.019133 -0.017295 -0.001969 -0.012431 -0.006196
# 3 0.000222 -0.017295 0.037488 0.004330 0.026696 0.027488
# 4 0.002238 -0.001969 0.004330 0.028565 0.004689 0.008410
# 5 0.007036 -0.012431 0.026696 0.004689 0.070261 0.036123
# 6 0.008010 -0.006196 0.027488 0.008410 0.036123 0.084447
#
#
# Mechanical properties :
#
#
# Convention : Reuss Voigt Hill
#
# Bulk Modulus (GPa) = 38.20210 72.22294 55.21252
# Shear Modulus (GPa) = 16.55211 26.54632 21.54922
#
# Velocity S-wave (km/s) = 2.70733 3.42860 3.08909
# Velocity P-wave (km/s) = 5.16620 6.90331 6.09693
#
# Compressibility (1/GPa) = 0.02617657
#
# Stress axis : x y z
#
# Youngs Moduli (GPa) = 86.90842 52.26675 26.67531
#
# Poissons Ratio (x) = 0.20397 -0.00593
# Poissons Ratio (y) = 0.33916 0.46134
# Poissons Ratio (z) = -0.01931 0.90394
#
# Static dielectric constant tensor:
#      x y z
#    x 1.821040 -0.024530 -0.015770 
#    y -0.024530 1.842480 -0.004810 
#    z -0.015770 -0.004810 1.842260 
# 
# From -- ./inp_files/429218.got.cif
#   From: 2010.05.17/outbox.cif.g08.bks.cpg/sg2_215_cif.got.tgz:429218.got - 2010.06.03 11:33:40.
