data_PCOD9030146
_publ_section_title
;
Structure prediction by ZEFSAII (Michael W. Deem and Ramdas Pophale) SiO2 
 PCOD9030146
Probable space group: P -1
;
_chemical_formula_sum "Si O2"
_cell_formula_units_Z 14
_cell_length_a 9.190390
_cell_length_b 16.308930
_cell_length_c 7.770091
_cell_angle_alpha 75.544340
_cell_angle_beta 92.257674
_cell_angle_gamma 149.336759
_cell_volume 537.674501
_symmetry_space_group_name_H-M "P -1"
_symmetry_group_IT_number 2
_symmetry_cell_setting 'triclinic'
loop_
_space_group_symop_operation_xyz
x,y,z
-x,-y,-z
loop_
_atom_site_type_symbol
_atom_site_label
_atom_site_fract_x
_atom_site_fract_y
_atom_site_fract_z
Si Si1 0.927395 0.708485 0.842953
Si Si2 0.583846 0.817339 0.619798
Si Si3 0.960448 0.197198 0.800789
Si Si4 0.773480 0.754980 0.524989
Si Si5 0.466791 0.896300 0.368004
Si Si6 0.702397 0.903707 0.082037
Si Si7 0.274067 0.585031 0.040505
O O1 0.740966 0.675996 0.726822
O O2 0.801375 0.550917 0.892606
O O3 0.276876 0.901307 0.690893
O O4 0.930755 0.729568 0.037562
O O5 0.548122 0.718778 0.542497
O O6 0.360092 0.779607 0.575868
O O7 0.539022 0.746627 0.834236
O O8 0.904129 0.030982 0.542795
O O9 0.793975 0.192458 0.709552
O O10 0.204146 0.285242 0.630045
O O11 0.717387 0.995608 0.914881
O O12 0.670356 0.932598 0.248929
O O13 0.408439 0.694857 0.159370
O O14 0.000000 0.000000 0.000000
O O15 0.000000 0.500000 0.000000
#
# Coordination Sequence:
#
# PCOD9030146 Si02
#       7
#     2   2   2   2   2   2   2
#     4  10  24  40  66 101 139 175 232 290 352 406
#     4  10  23  42  67 101 136 181 243 282 344 432
#     4  11  21  42  71  97 138 183 239 284 344 419
#     4  10  22  43  69  98 137 185 237 286 345 423
#     4  10  22  42  69  99 134 187 244 284 333 437
#     4  11  23  43  73 101 137 192 240 280 352 430
#     4  12  25  43  68 106 147 178 228 300 368 404
#
# _framework density 26.038059000000001
#
# number of rings (size 3 to 8) (size 9 to 14) (size 15 to 20)
#    0.000    1.429    1.429    4.286    8.000    1.714 
#    2.571    2.143    0.000    0.000    0.000    0.000 
#    0.000    0.000    0.000    0.000    0.000    0.000 
#
# Total GULP energy -78269.045800 kJ/mol
# GULP energy per Si atom -5590.646129 kJ/mol
# Density = 2.597879 g / cm^3
# Si number density = 26.038059 Si / 1000 Ang^3
#
#
#
# Elastic Constant Matrix: (Units=GPa)
#
#
# Indices 1 2 3 4 5 6 
#
# 1 116.8050 34.6354 48.0516 -5.2580 29.1833 -34.5621
# 2 34.6354 124.7240 44.6477 -20.5050 15.5124 -31.3377
# 3 48.0516 44.6477 120.1242 -3.5822 53.7539 -20.2531
# 4 -5.2580 -20.5050 -3.5822 38.2438 -8.9560 5.8884
# 5 29.1833 15.5124 53.7539 -8.9560 50.9295 -9.0287
# 6 -34.5621 -31.3377 -20.2531 5.8884 -9.0287 34.8027
#
#
#
# Elastic Compliance Matrix: (Units=1/GPa)
#
#
# Indices 1 2 3 4 5 6 
#
# 1 0.013728 0.000126 -0.001695 -0.001009 -0.004194 0.011843
# 2 0.000126 0.012238 -0.004593 0.005680 0.003542 0.008429
# 3 -0.001695 -0.004593 0.019026 -0.005442 -0.018420 0.001395
# 4 -0.001009 0.005680 -0.005442 0.031103 0.009744 -0.001789
# 5 -0.004194 0.003542 -0.018420 0.009744 0.041665 -0.002535
# 6 0.011843 0.008429 0.001395 -0.001789 -0.002535 0.048541
#
#
# Mechanical properties :
#
#
# Convention : Reuss Voigt Hill
#
# Bulk Modulus (GPa) = 30.61196 68.48028 49.54612
# Shear Modulus (GPa) = 26.38324 40.41643 33.39984
#
# Velocity S-wave (km/s) = 3.18662 3.94408 3.58541
# Velocity P-wave (km/s) = 5.03205 6.86281 6.01746
#
# Compressibility (1/GPa) = 0.03266697
#
# Stress axis : x y z
#
# Youngs Moduli (GPa) = 72.84516 81.71006 52.56095
#
# Poissons Ratio (x) = -0.01027 0.08908
# Poissons Ratio (y) = -0.00916 0.24142
# Poissons Ratio (z) = 0.12346 0.37531
#
# Static dielectric constant tensor:
#      x y z
#    x 2.135740 -0.001800 -0.183070 
#    y -0.001800 2.055310 -0.001110 
#    z -0.183070 -0.001110 2.287200 
# 
# From -- ./inp_files/176462.got.cif
#   From: 2010.05.17/outbox.cif.g08.bks.cpg/sg2_89_cif.got.tgz:176462.got - 2010.06.03 11:33:40.
