data_PCOD9030179
_publ_section_title
;
Structure prediction by ZEFSAII (Michael W. Deem and Ramdas Pophale) SiO2 
 PCOD9030179
Probable space group: P -1
;
_chemical_formula_sum "Si O2"
_cell_formula_units_Z 15
_cell_length_a 6.801706
_cell_length_b 15.142051
_cell_length_c 9.519635
_cell_angle_alpha 52.892278
_cell_angle_beta 61.858763
_cell_angle_gamma 77.870744
_cell_volume 685.602622
_symmetry_space_group_name_H-M "P -1"
_symmetry_group_IT_number 2
_symmetry_cell_setting 'triclinic'
loop_
_space_group_symop_operation_xyz
x,y,z
-x,-y,-z
loop_
_atom_site_type_symbol
_atom_site_label
_atom_site_fract_x
_atom_site_fract_y
_atom_site_fract_z
Si Si1 0.436043 0.333576 0.074546
Si Si2 0.528322 0.416882 0.265704
Si Si3 0.075462 0.381120 0.548030
Si Si4 0.740847 0.175941 0.967670
Si Si5 0.050772 0.655989 0.692500
Si Si6 0.233236 0.976154 0.632526
Si Si7 0.145995 0.897912 0.427550
Si Si8 0.500000 0.000000 0.000000
O O1 0.505024 0.337675 0.212105
O O2 0.167218 0.323353 0.164646
O O3 0.521583 0.458188 0.875442
O O4 0.543844 0.240245 0.041075
O O5 0.341362 0.375311 0.483130
O O6 0.782736 0.424246 0.223495
O O7 0.000000 0.500000 0.500000
O O8 0.930932 0.275212 0.765915
O O9 0.040191 0.379434 0.394302
O O10 0.818281 0.096495 0.141206
O O11 0.660992 0.099143 0.936203
O O12 0.199584 0.772817 0.510510
O O13 0.141801 0.915766 0.579161
O O14 0.500000 0.000000 0.500000
O O15 0.095027 0.083803 0.576530
O O16 0.335506 0.981865 0.211435
#
# Coordination Sequence:
#
# PCOD9030179 Si02
#       8
#     2   2   2   2   2   2   2   1
#     4  10  22  42  70 100 136 179 236 292 343 423
#     4  10  22  43  71 100 137 183 234 284 354 420
#     4  11  24  46  67 102 145 180 233 288 355 420
#     4  12  24  48  72 100 145 190 229 300 354 414
#     4  11  23  42  68  98 137 185 228 291 344 417
#     4  11  24  45  72  96 135 186 237 285 350 412
#     4  11  25  45  68 102 136 177 238 291 338 427
#     4  12  26  46  70 104 140 186 236 286 360 416
#
# _framework density 21.878561999999999
#
# number of rings (size 3 to 8) (size 9 to 14) (size 15 to 20)
#    0.000    1.067    4.000    2.000    1.867    3.200 
#    2.400    0.000    0.000    0.000    0.000    0.000 
#    0.000    0.000    0.000    0.000    0.000    0.000 
#
# Total GULP energy -83555.866813 kJ/mol
# GULP energy per Si atom -5570.391121 kJ/mol
# Density = 2.182877 g / cm^3
# Si number density = 21.878562 Si / 1000 Ang^3
#
#
#
# Elastic Constant Matrix: (Units=GPa)
#
#
# Indices 1 2 3 4 5 6 
#
# 1 67.9939 8.6688 34.1187 -2.5228 0.5493 -6.4564
# 2 8.6688 85.5368 21.1089 3.7015 16.9386 3.4973
# 3 34.1187 21.1089 112.7539 -4.4606 -14.3291 2.7858
# 4 -2.5228 3.7015 -4.4606 31.8503 2.7044 -4.1728
# 5 0.5493 16.9386 -14.3291 2.7044 34.1930 -0.6425
# 6 -6.4564 3.4973 2.7858 -4.1728 -0.6425 23.5688
#
#
#
# Elastic Compliance Matrix: (Units=1/GPa)
#
#
# Indices 1 2 3 4 5 6 
#
# 1 0.018368 -0.000168 -0.005955 0.001655 -0.002726 0.005979
# 2 -0.000168 0.014535 -0.003788 -0.001798 -0.008687 -0.002310
# 3 -0.005955 -0.003788 0.012362 0.000814 0.007047 -0.002194
# 4 0.001655 -0.001798 0.000814 0.032797 -0.001268 0.006396
# 5 -0.002726 -0.008687 0.007047 -0.001268 0.036655 0.000484
# 6 0.005979 -0.002310 -0.002194 0.006396 0.000484 0.045815
#
#
# Mechanical properties :
#
#
# Convention : Reuss Voigt Hill
#
# Bulk Modulus (GPa) = 39.30496 43.78637 41.54566
# Shear Modulus (GPa) = 26.47795 31.41495 28.94645
#
# Velocity S-wave (km/s) = 3.48260 3.79341 3.64132
# Velocity P-wave (km/s) = 5.84597 6.26446 6.05883
#
# Compressibility (1/GPa) = 0.02544208
#
# Stress axis : x y z
#
# Youngs Moduli (GPa) = 54.44209 68.79835 80.89231
#
# Poissons Ratio (x) = 0.01157 0.48174
# Poissons Ratio (y) = 0.00916 0.30644
# Poissons Ratio (z) = 0.32422 0.26063
#
# Static dielectric constant tensor:
#      x y z
#    x 1.807460 0.003690 -0.019990 
#    y 0.003690 1.790330 -0.008150 
#    z -0.019990 -0.008150 1.833750 
# 
# From -- ./inp_files/134812.got.cif
#   From: 2010.05.17/outbox.cif.g08.bks.cpg/sg2_68_cif.got.tgz:134812.got - 2010.06.03 11:33:40.
