data_PCOD9030403
_publ_section_title
;
Structure prediction by ZEFSAII (Michael W. Deem and Ramdas Pophale) SiO2 
 PCOD9030403
Probable space group: P -1
;
_chemical_formula_sum "Si O2"
_cell_formula_units_Z 13
_cell_length_a 15.464217
_cell_length_b 12.082597
_cell_length_c 8.212858
_cell_angle_alpha 91.240054
_cell_angle_beta 104.690891
_cell_angle_gamma 152.316829
_cell_volume 576.904660
_symmetry_space_group_name_H-M "P -1"
_symmetry_group_IT_number 2
_symmetry_cell_setting 'triclinic'
loop_
_space_group_symop_operation_xyz
x,y,z
-x,-y,-z
loop_
_atom_site_type_symbol
_atom_site_label
_atom_site_fract_x
_atom_site_fract_y
_atom_site_fract_z
Si Si1 0.326912 0.662979 0.348832
Si Si2 0.500000 0.500000 0.500000
Si Si3 0.200582 0.612585 0.968008
Si Si4 0.927546 0.335933 0.315416
Si Si5 0.479187 0.737784 0.978188
Si Si6 0.685039 0.945033 0.727432
Si Si7 0.758489 0.662819 0.887947
O O1 0.559488 0.896188 0.558418
O O2 0.237869 0.445955 0.220757
O O3 0.137699 0.497350 0.373431
O O4 0.343052 0.765898 0.208155
O O5 0.633663 0.769133 0.616359
O O6 0.575183 0.534027 0.714268
O O7 0.146214 0.669614 0.871398
O O8 0.338776 0.692991 0.910826
O O9 0.953664 0.276430 0.873329
O O10 0.000000 0.500000 0.500000
O O11 0.695168 0.999446 0.213938
O O12 0.572337 0.816057 0.848327
O O13 0.313164 0.457143 0.969965
O O14 0.000000 0.000000 0.000000
#
# Coordination Sequence:
#
# PCOD9030403 Si02
#       7
#     2   1   2   2   2   2   2
#     4  10  23  44  68 102 139 183 229 276 346 407
#     4  10  22  42  70  98 130 180 224 282 346 400
#     4  11  24  45  70  97 146 183 227 280 342 407
#     4  12  26  43  69 105 140 187 231 283 338 409
#     4  11  25  46  69 103 139 180 234 285 336 418
#     4  11  24  46  71 103 139 183 230 283 347 408
#     4  10  23  46  70  98 136 177 229 288 345 405
#
# _framework density 22.534051999999999
#
# number of rings (size 3 to 8) (size 9 to 14) (size 15 to 20)
#    0.000    1.231    1.538    3.692    6.462    1.231 
#    2.769    3.846    0.000    0.000    0.000    0.000 
#    0.000    0.000    0.000    0.000    0.000    0.000 
#
# Total GULP energy -72498.623769 kJ/mol
# GULP energy per Si atom -5576.817213 kJ/mol
# Density = 2.248276 g / cm^3
# Si number density = 22.534052 Si / 1000 Ang^3
#
#
#
# Elastic Constant Matrix: (Units=GPa)
#
#
# Indices 1 2 3 4 5 6 
#
# 1 45.5430 12.4909 7.4852 0.4951 9.1585 -0.6214
# 2 12.4909 90.5510 20.6587 8.6384 -12.9251 0.3257
# 3 7.4852 20.6587 92.7247 -8.2881 5.1718 -3.8097
# 4 0.4951 8.6384 -8.2881 21.0495 -4.5904 6.0282
# 5 9.1585 -12.9251 5.1718 -4.5904 45.6818 -3.0550
# 6 -0.6214 0.3257 -3.8097 6.0282 -3.0550 43.6341
#
#
#
# Elastic Compliance Matrix: (Units=1/GPa)
#
#
# Indices 1 2 3 4 5 6 
#
# 1 0.024390 -0.003984 -0.000798 -0.000548 -0.005984 -0.000036
# 2 -0.003984 0.013602 -0.003473 -0.006078 0.004476 0.000692
# 3 -0.000798 -0.003473 0.012244 0.005868 -0.001608 0.000160
# 4 -0.000548 -0.006078 0.005868 0.054890 0.002784 -0.006838
# 5 -0.005984 0.004476 -0.001608 0.002784 0.024892 0.001099
# 6 -0.000036 0.000692 0.000160 -0.006838 0.001099 0.023948
#
#
# Mechanical properties :
#
#
# Convention : Reuss Voigt Hill
#
# Bulk Modulus (GPa) = 29.65185 34.45425 32.05305
# Shear Modulus (GPa) = 27.51514 34.61867 31.06691
#
# Velocity S-wave (km/s) = 3.49814 3.92380 3.71707
# Velocity P-wave (km/s) = 5.43169 5.98759 5.71640
#
# Compressibility (1/GPa) = 0.03372471
#
# Stress axis : x y z
#
# Youngs Moduli (GPa) = 41.00036 73.52010 81.67474
#
# Poissons Ratio (x) = 0.29292 0.06516
# Poissons Ratio (y) = 0.16335 0.28368
# Poissons Ratio (z) = 0.03271 0.25536
#
# Static dielectric constant tensor:
#      x y z
#    x 1.848430 -0.010350 -0.009370 
#    y -0.010350 1.852760 -0.001360 
#    z -0.009370 -0.001360 1.843600 
# 
# From -- ./inp_files/305273.got.cif
#   From: 2010.05.17/outbox.cif.g08.bks.cpg/sg2_153_cif.got.tgz:305273.got - 2010.06.03 11:33:40.
