data_PCOD9030397
_publ_section_title
;
Structure prediction by ZEFSAII (Michael W. Deem and Ramdas Pophale) SiO2 
 PCOD9030397
Probable space group: P -1
;
_chemical_formula_sum "Si O2"
_cell_formula_units_Z 13
_cell_length_a 10.270536
_cell_length_b 5.695326
_cell_length_c 11.149379
_cell_angle_alpha 57.302539
_cell_angle_beta 69.047730
_cell_angle_gamma 95.494402
_cell_volume 476.644075
_symmetry_space_group_name_H-M "P -1"
_symmetry_group_IT_number 2
_symmetry_cell_setting 'triclinic'
loop_
_space_group_symop_operation_xyz
x,y,z
-x,-y,-z
loop_
_atom_site_type_symbol
_atom_site_label
_atom_site_fract_x
_atom_site_fract_y
_atom_site_fract_z
Si Si1 0.411395 0.183983 0.181197
Si Si2 0.260432 0.402666 0.595534
Si Si3 0.000000 0.500000 0.500000
Si Si4 0.518713 0.384103 0.336707
Si Si5 0.143216 0.361890 0.255880
Si Si6 0.289838 0.015117 0.016238
Si Si7 0.997049 0.175530 0.125755
O O1 0.498420 0.186221 0.276139
O O2 0.256715 0.195421 0.278917
O O3 0.357081 0.983840 0.134523
O O4 0.500000 0.500000 0.000000
O O5 0.374691 0.350158 0.475701
O O6 0.354983 0.621003 0.609601
O O7 0.145059 0.515921 0.535400
O O8 0.155514 0.093355 0.780037
O O9 0.916601 0.565739 0.623674
O O10 0.586453 0.726871 0.169471
O O11 0.011340 0.166987 0.267129
O O12 0.232393 0.681892 0.074040
O O13 0.144648 0.110187 0.054663
O O14 0.000000 0.500000 0.000000
#
# Coordination Sequence:
#
# PCOD9030397 Si02
#       7
#     2   2   1   2   2   2   2
#     4   9  20  40  65 101 137 181 230 283 349 412
#     4  11  24  44  69 103 142 185 227 290 346 422
#     4  12  24  42  70 104 138 190 234 280 356 408
#     4  10  22  42  70  97 141 180 225 288 353 405
#     4  11  23  41  70 104 135 186 234 289 345 412
#     4  10  22  42  73 102 137 181 238 291 343 420
#     4  11  25  43  71 104 137 182 238 291 350 413
#
# _framework density 27.274017000000001
#
# number of rings (size 3 to 8) (size 9 to 14) (size 15 to 20)
#    0.000    1.538    3.077    0.923    2.154    5.538 
#    0.000    2.308    3.385    0.000    0.000    0.000 
#    0.000    0.000    0.000    0.000    0.000    0.000 
#
# Total GULP energy -72588.207969 kJ/mol
# GULP energy per Si atom -5583.708305 kJ/mol
# Density = 2.721194 g / cm^3
# Si number density = 27.274017 Si / 1000 Ang^3
#
#
#
# Elastic Constant Matrix: (Units=GPa)
#
#
# Indices 1 2 3 4 5 6 
#
# 1 190.2888 53.3592 53.1142 10.0191 9.3634 24.8342
# 2 53.3592 70.7646 42.2154 5.7239 1.7297 29.3039
# 3 53.1142 42.2154 142.0145 1.2929 -2.2250 -3.2090
# 4 10.0191 5.7239 1.2929 62.8885 3.2972 15.4764
# 5 9.3634 1.7297 -2.2250 3.2972 12.3418 15.6638
# 6 24.8342 29.3039 -3.2090 15.4764 15.6638 57.6567
#
#
#
# Elastic Compliance Matrix: (Units=1/GPa)
#
#
# Indices 1 2 3 4 5 6 
#
# 1 0.007193 -0.004991 -0.001273 -0.000646 -0.006459 0.001296
# 2 -0.004991 0.029829 -0.007108 0.001999 0.023636 -0.020364
# 3 -0.001273 -0.007108 0.009712 -0.000597 -0.003508 0.005815
# 4 -0.000646 0.001999 -0.000597 0.017213 0.003581 -0.006364
# 5 -0.006459 0.023636 -0.003508 0.003581 0.143784 -0.049450
# 6 0.001296 -0.020364 0.005815 -0.006364 -0.049450 0.042602
#
#
# Mechanical properties :
#
#
# Convention : Reuss Voigt Hill
#
# Bulk Modulus (GPa) = 50.02447 77.82726 63.92586
# Shear Modulus (GPa) = 17.62183 43.53601 30.57892
#
# Velocity S-wave (km/s) = 2.54461 3.99964 3.35203
# Velocity P-wave (km/s) = 5.19756 7.06588 6.20248
#
# Compressibility (1/GPa) = 0.01999022
#
# Stress axis : x y z
#
# Youngs Moduli (GPa) = 139.03307 33.52495 102.96152
#
# Poissons Ratio (x) = 0.16731 0.13102
# Poissons Ratio (y) = 0.69388 0.73188
# Poissons Ratio (z) = 0.17692 0.23831
#
# Static dielectric constant tensor:
#      x y z
#    x 2.178660 0.059860 0.066340 
#    y 0.059860 2.126740 -0.095550 
#    z 0.066340 -0.095550 2.153160 
# 
# From -- ./inp_files/408239.got.cif
#   From: 2010.05.17/outbox.cif.g08.bks.cpg/sg2_205_cif.got.tgz:408239.got - 2010.06.03 11:33:40.
