data_PCOD9030688
_publ_section_title
;
Structure prediction by ZEFSAII (Michael W. Deem and Ramdas Pophale) SiO2 
 PCOD9030688
Probable space group: P -1
;
_chemical_formula_sum "Si O2"
_cell_formula_units_Z 13
_cell_length_a 10.017764
_cell_length_b 8.465180
_cell_length_c 8.536666
_cell_angle_alpha 56.991399
_cell_angle_beta 91.338427
_cell_angle_gamma 77.891011
_cell_volume 585.148158
_symmetry_space_group_name_H-M "P -1"
_symmetry_group_IT_number 2
_symmetry_cell_setting 'triclinic'
loop_
_space_group_symop_operation_xyz
x,y,z
-x,-y,-z
loop_
_atom_site_type_symbol
_atom_site_label
_atom_site_fract_x
_atom_site_fract_y
_atom_site_fract_z
Si Si1 0.777495 0.615362 0.429911
Si Si2 0.415528 0.689848 0.982521
Si Si3 0.098830 0.766239 0.868089
Si Si4 0.493977 0.051687 0.656216
Si Si5 0.012140 0.513827 0.744994
Si Si6 0.000000 0.000000 0.000000
Si Si7 0.703493 0.231121 0.735925
O O1 0.642810 0.780902 0.386876
O O2 0.849568 0.619109 0.261672
O O3 0.745771 0.405418 0.555461
O O4 0.898604 0.606917 0.563281
O O5 0.261738 0.732319 0.883693
O O6 0.484595 0.862185 0.853973
O O7 0.500000 0.500000 0.000000
O O8 0.400587 0.671207 0.178487
O O9 0.043819 0.683792 0.757812
O O10 0.032588 0.979052 0.820458
O O11 0.051412 0.634541 0.075078
O O12 0.627369 0.118037 0.678896
O O13 0.500000 0.000000 0.500000
O O14 0.165642 0.907697 0.095689
#
# Coordination Sequence:
#
# PCOD9030688 Si02
#       7
#     2   2   2   2   2   1   2
#     4  11  24  46  67 104 141 180 229 283 360 406
#     4  11  25  46  70 100 134 185 236 279 346 416
#     4  10  23  41  70  98 136 181 235 289 327 416
#     4  12  29  43  70 105 141 184 228 286 355 416
#     4  10  23  41  70 100 134 185 227 288 345 402
#     4  10  22  42  72  98 134 172 242 274 340 394
#     4  11  25  47  70 101 139 184 227 294 336 419
#
# _framework density 22.216598000000001
#
# number of rings (size 3 to 8) (size 9 to 14) (size 15 to 20)
#    0.000    1.231    3.077    1.846   10.769    1.231 
#    0.000    1.538    0.000    0.000    0.000    0.000 
#    0.000    0.000    0.000    0.000    0.000    0.000 
#
# Total GULP energy -72473.648489 kJ/mol
# GULP energy per Si atom -5574.896038 kJ/mol
# Density = 2.216603 g / cm^3
# Si number density = 22.216598 Si / 1000 Ang^3
#
#
#
# Elastic Constant Matrix: (Units=GPa)
#
#
# Indices 1 2 3 4 5 6 
#
# 1 -18.4155 201.4592 -158.8694 -0.8451 101.9005 11.4893
# 2 201.4592 -6.4784 204.3307 41.1433 -88.3146 3.7668
# 3 -158.8694 204.3307 -216.3051 -22.1080 132.5039 1.6053
# 4 -0.8451 41.1433 -22.1080 32.9105 20.8320 0.9478
# 5 101.9005 -88.3146 132.5039 20.8320 -50.2195 7.0464
# 6 11.4893 3.7668 1.6053 0.9478 7.0464 53.8551
#
#
#
# Elastic Compliance Matrix: (Units=1/GPa)
#
#
# Indices 1 2 3 4 5 6 
#
# 1 0.012967 -0.003908 -0.010075 -0.004285 0.004444 -0.002699
# 2 -0.003908 0.008406 0.005122 -0.001192 -0.009502 0.001357
# 3 -0.010075 0.005122 0.018240 -0.004857 0.016545 -0.000832
# 4 -0.004285 -0.001192 -0.004857 0.032183 -0.005874 0.001345
# 5 0.004444 -0.009502 0.016545 -0.005874 0.046091 -0.006704
# 6 -0.002699 0.001357 -0.000832 0.001345 -0.006704 0.019927
#
#
# Mechanical properties :
#
#
# Convention : Reuss Voigt Hill
#
# Bulk Modulus (GPa) = 45.68368 28.07135 36.87751
# Shear Modulus (GPa) = 30.70625 -25.23208 2.73708
#
# Velocity S-wave (km/s) = 3.72174 -3.37372 1.11116
# Velocity P-wave (km/s) = 6.25107 1.58531 4.27567
#
# Compressibility (1/GPa) = 0.02188966
#
# Stress axis : x y z
#
# Youngs Moduli (GPa) = 77.12025 118.96822 54.82343
#
# Poissons Ratio (x) = 0.46493 0.55236
# Poissons Ratio (y) = 0.30138 -0.28079
# Poissons Ratio (z) = 0.77701 -0.60932
#
# Static dielectric constant tensor:
#      x y z
#    x 1.789140 -0.003020 -0.006460 
#    y -0.003020 1.918740 0.016280 
#    z -0.006460 0.016280 1.787230 
# 
# From -- ./inp_files/152900.got.cif
#   From: 2010.05.17/outbox.cif.g08.bks.cpg/sg2_77_cif.got.tgz:152900.got - 2010.06.03 11:33:40.
