data_PCOD9030389
_publ_section_title
;
Structure prediction by ZEFSAII (Michael W. Deem and Ramdas Pophale) SiO2 
 PCOD9030389
Probable space group: P -1
;
_chemical_formula_sum "Si O2"
_cell_formula_units_Z 16
_cell_length_a 8.480079
_cell_length_b 24.214029
_cell_length_c 12.066212
_cell_angle_alpha 147.876680
_cell_angle_beta 138.294593
_cell_angle_gamma 32.060006
_cell_volume 695.663838
_symmetry_space_group_name_H-M "P -1"
_symmetry_group_IT_number 2
_symmetry_cell_setting 'triclinic'
loop_
_space_group_symop_operation_xyz
x,y,z
-x,-y,-z
loop_
_atom_site_type_symbol
_atom_site_label
_atom_site_fract_x
_atom_site_fract_y
_atom_site_fract_z
Si Si1 0.244251 0.847913 0.344138
Si Si2 0.323268 0.986917 0.978313
Si Si3 0.763654 0.853502 0.595723
Si Si4 0.688789 0.354960 0.799180
Si Si5 0.771835 0.246347 0.045540
Si Si6 0.850875 0.405702 0.494420
Si Si7 0.645500 0.253285 0.383032
Si Si8 0.754813 0.651192 0.890652
O O1 0.500512 0.846897 0.415412
O O2 0.331298 0.751375 0.328904
O O3 0.161739 0.789016 0.106837
O O4 0.000000 0.000000 0.500000
O O5 0.406151 0.846945 0.768350
O O6 0.978856 0.107800 0.982102
O O7 0.500000 0.000000 0.000000
O O8 0.374949 0.020485 0.184351
O O9 0.975098 0.718744 0.546850
O O10 0.997196 0.838161 0.607473
O O11 0.594016 0.355397 0.622339
O O12 0.500000 0.500000 0.000000
O O13 0.031765 0.306758 0.908848
O O14 0.865731 0.340449 0.277078
O O15 0.448505 0.314066 0.047341
O O16 0.500000 0.500000 0.500000
O O17 0.958133 0.493802 0.713309
O O18 0.458646 0.300249 0.248728
#
# Coordination Sequence:
#
# PCOD9030389 Si02
#       8
#     2   2   2   2   2   2   2   2
#     4  12  27  46  66 103 145 191 232 290 359 422
#     4  11  23  41  67 104 139 178 227 286 352 417
#     4  11  22  42  73  98 139 181 235 294 339 423
#     4  12  30  48  66 106 147 185 236 294 360 422
#     4  10  22  42  70  97 134 183 234 280 348 421
#     4   9  18  40  65 100 129 166 231 282 346 406
#     4  12  25  45  73 105 137 183 238 290 351 420
#     4  11  24  45  74 102 136 182 235 294 348 424
#
# _framework density 22.999614000000001
#
# number of rings (size 3 to 8) (size 9 to 14) (size 15 to 20)
#    0.000    1.000    3.750    4.125    5.250    1.500 
#    0.000    5.625    0.000    0.000    0.000    0.000 
#    0.000    0.000    0.000    0.000    0.000    0.000 
#
# Total GULP energy -89248.032197 kJ/mol
# GULP energy per Si atom -5578.002012 kJ/mol
# Density = 2.294727 g / cm^3
# Si number density = 22.999614 Si / 1000 Ang^3
#
#
#
# Elastic Constant Matrix: (Units=GPa)
#
#
# Indices 1 2 3 4 5 6 
#
# 1 86.7383 7.2847 27.2420 11.3222 10.9853 -4.8766
# 2 7.2847 52.5182 21.5676 14.5038 0.0731 -8.1868
# 3 27.2420 21.5676 127.7117 19.1781 -15.3814 0.1517
# 4 11.3222 14.5038 19.1781 27.0757 -4.1244 -3.2566
# 5 10.9853 0.0731 -15.3814 -4.1244 42.5236 -1.5719
# 6 -4.8766 -8.1868 0.1517 -3.2566 -1.5719 24.7110
#
#
#
# Elastic Compliance Matrix: (Units=1/GPa)
#
#
# Indices 1 2 3 4 5 6 
#
# 1 0.013752 0.000943 -0.003002 -0.004638 -0.005012 0.002115
# 2 0.000943 0.024124 -0.002923 -0.010774 -0.002142 0.006640
# 3 -0.003002 -0.002923 0.010030 -0.003907 0.003960 -0.001885
# 4 -0.004638 -0.010774 -0.003907 0.048374 0.004577 0.002205
# 5 -0.005012 -0.002142 0.003960 0.004577 0.026712 0.000579
# 6 0.002115 0.006640 -0.001885 0.002205 0.000579 0.043424
#
#
# Mechanical properties :
#
#
# Convention : Reuss Voigt Hill
#
# Bulk Modulus (GPa) = 26.35647 42.12853 34.24250
# Shear Modulus (GPa) = 26.45105 32.92034 29.68570
#
# Velocity S-wave (km/s) = 3.39494 3.78741 3.59653
# Velocity P-wave (km/s) = 5.18188 6.12232 5.67163
#
# Compressibility (1/GPa) = 0.03794134
#
# Stress axis : x y z
#
# Youngs Moduli (GPa) = 72.71826 41.45200 99.70082
#
# Poissons Ratio (x) = -0.03909 0.29932
# Poissons Ratio (y) = -0.06857 0.29144
# Poissons Ratio (z) = 0.21832 0.12117
#
# Static dielectric constant tensor:
#      x y z
#    x 1.930930 0.029030 -0.036730 
#    y 0.029030 1.814460 0.039430 
#    z -0.036730 0.039430 1.821310 
# 
# From -- ./inp_files/407360.got.cif
#   From: 2010.05.17/outbox.cif.g08.bks.cpg/sg2_204_cif.got.tgz:407360.got - 2010.06.03 11:33:40.
