data_PCOD9030820
_publ_section_title
;
Structure prediction by ZEFSAII (Michael W. Deem and Ramdas Pophale) SiO2 
 PCOD9030820
Probable space group: P -1
;
_chemical_formula_sum "Si O2"
_cell_formula_units_Z 16
_cell_length_a 9.195041
_cell_length_b 8.634035
_cell_length_c 14.630033
_cell_angle_alpha 49.275203
_cell_angle_beta 72.152419
_cell_angle_gamma 100.527400
_cell_volume 710.270472
_symmetry_space_group_name_H-M "P -1"
_symmetry_group_IT_number 2
_symmetry_cell_setting 'triclinic'
loop_
_space_group_symop_operation_xyz
x,y,z
-x,-y,-z
loop_
_atom_site_type_symbol
_atom_site_label
_atom_site_fract_x
_atom_site_fract_y
_atom_site_fract_z
Si Si1 0.700442 0.222344 0.891963
Si Si2 0.711875 0.683602 0.788974
Si Si3 0.736768 0.084524 0.508146
Si Si4 0.287852 0.423729 0.969550
Si Si5 0.792114 0.892509 0.068924
Si Si6 0.689944 0.719802 0.345189
Si Si7 0.690077 0.134868 0.290086
Si Si8 0.973655 0.582226 0.376025
O O1 0.712640 0.465963 0.822260
O O2 0.831038 0.265673 0.765937
O O3 0.500000 0.000000 0.000000
O O4 0.767099 0.116592 0.997968
O O5 0.502807 0.598490 0.876143
O O6 0.787214 0.912569 0.619249
O O7 0.790340 0.702206 0.868781
O O8 0.764695 0.113953 0.382272
O O9 0.853707 0.347696 0.427278
O O10 0.524258 0.976833 0.608618
O O11 0.262985 0.235505 0.968978
O O12 0.228182 0.597498 0.869895
O O13 0.686817 0.706068 0.241361
O O14 0.000000 0.000000 0.000000
O O15 0.500000 0.500000 0.500000
O O16 0.859163 0.708492 0.352110
O O17 0.710167 0.964583 0.281292
O O18 0.000000 0.500000 0.500000
#
# Coordination Sequence:
#
# PCOD9030820 Si02
#       8
#     2   2   2   2   2   2   2   2
#     4  12  27  48  74 103 144 200 243 293 363 433
#     4  10  23  42  72 104 139 194 240 291 362 437
#     4  10  23  45  70 106 149 185 240 302 360 432
#     4  10  22  43  71 103 143 186 242 296 357 436
#     4  12  26  47  72 104 148 186 242 305 358 427
#     4  12  26  46  77 107 141 193 244 295 366 434
#     4  10  22  42  75 103 140 193 239 294 365 434
#     4  12  29  46  70 112 153 185 245 306 359 435
#
# _framework density 22.526630999999998
#
# number of rings (size 3 to 8) (size 9 to 14) (size 15 to 20)
#    0.000    1.000    3.750    1.500    8.750    1.500 
#    2.250    1.250    0.000    0.000    0.000    0.000 
#    0.000    0.000    0.000    0.000    0.000    0.000 
#
# Total GULP energy -89490.228411 kJ/mol
# GULP energy per Si atom -5593.139276 kJ/mol
# Density = 2.247536 g / cm^3
# Si number density = 22.526631 Si / 1000 Ang^3
#
#
#
# Elastic Constant Matrix: (Units=GPa)
#
#
# Indices 1 2 3 4 5 6 
#
# 1 76.0033 28.4404 63.3152 13.9227 27.8991 -19.7268
# 2 28.4404 108.6010 47.2723 8.0820 28.4179 -4.9494
# 3 63.3152 47.2723 144.6526 20.1331 26.8445 -2.5347
# 4 13.9227 8.0820 20.1331 37.8684 -1.3856 12.6088
# 5 27.8991 28.4179 26.8445 -1.3856 43.8409 -5.6471
# 6 -19.7268 -4.9494 -2.5347 12.6088 -5.6471 41.9132
#
#
#
# Elastic Compliance Matrix: (Units=1/GPa)
#
#
# Indices 1 2 3 4 5 6 
#
# 1 0.033227 0.001132 -0.010193 -0.013304 -0.013831 0.017295
# 2 0.001132 0.012161 -0.002885 -0.002244 -0.006706 0.001566
# 3 -0.010193 -0.002885 0.012307 -0.000799 0.000265 -0.004117
# 4 -0.013304 -0.002244 -0.000799 0.038133 0.009455 -0.016773
# 5 -0.013831 -0.006706 0.000265 0.009455 0.035404 -0.005360
# 6 0.017295 0.001566 -0.004117 -0.016773 -0.005360 0.036258
#
#
# Mechanical properties :
#
#
# Convention : Reuss Voigt Hill
#
# Bulk Modulus (GPa) = 29.58220 67.47920 48.53070
# Shear Modulus (GPa) = 24.67310 37.40645 31.03977
#
# Velocity S-wave (km/s) = 3.31310 4.07940 3.71605
# Velocity P-wave (km/s) = 5.27220 7.22558 6.32476
#
# Compressibility (1/GPa) = 0.03380411
#
# Stress axis : x y z
#
# Youngs Moduli (GPa) = 30.09563 82.23336 81.25222
#
# Poissons Ratio (x) = -0.09312 0.82816
# Poissons Ratio (y) = -0.03408 0.23445
# Poissons Ratio (z) = 0.30675 0.23728
#
# Static dielectric constant tensor:
#      x y z
#    x 1.842330 0.006450 0.060260 
#    y 0.006450 1.813580 -0.007390 
#    z 0.060260 -0.007390 1.832610 
# 
# From -- ./inp_files/494361.got.cif
#   From: 2010.05.17/outbox.cif.g08.bks.cpg/sg2_248_cif.got.tgz:494361.got - 2010.06.03 11:33:40.
