data_PCOD9030995
_publ_section_title
;
Structure prediction by ZEFSAII (Michael W. Deem and Ramdas Pophale) SiO2 
 PCOD9030995
Probable space group: P -1
;
_chemical_formula_sum "Si O2"
_cell_formula_units_Z 16
_cell_length_a 11.328377
_cell_length_b 5.809993
_cell_length_c 12.309397
_cell_angle_alpha 101.585545
_cell_angle_beta 103.713894
_cell_angle_gamma 59.144104
_cell_volume 672.620303
_symmetry_space_group_name_H-M "P -1"
_symmetry_group_IT_number 2
_symmetry_cell_setting 'triclinic'
loop_
_space_group_symop_operation_xyz
x,y,z
-x,-y,-z
loop_
_atom_site_type_symbol
_atom_site_label
_atom_site_fract_x
_atom_site_fract_y
_atom_site_fract_z
Si Si1 0.515590 0.570806 0.326120
Si Si2 0.976051 0.521393 0.249580
Si Si3 0.449665 0.400924 0.083637
Si Si4 0.628139 0.134368 0.489683
Si Si5 0.715537 0.849988 0.070953
Si Si6 0.929725 0.808204 0.959740
Si Si7 0.885315 0.216545 0.577374
Si Si8 0.786590 0.560908 0.388588
O O1 0.430486 0.576268 0.202922
O O2 0.529998 0.357631 0.401208
O O3 0.455622 0.837609 0.414101
O O4 0.673487 0.480580 0.314564
O O5 0.828696 0.695510 0.173164
O O6 0.929033 0.441766 0.342850
O O7 0.072224 0.266793 0.172970
O O8 0.042202 0.713276 0.303112
O O9 0.575657 0.099361 0.108885
O O10 0.500000 0.500000 0.000000
O O11 0.322139 0.358264 0.016172
O O12 0.758965 0.162762 0.567125
O O13 0.707211 0.878707 0.405540
O O14 0.785380 0.953008 0.006393
O O15 0.000000 0.500000 0.000000
O O16 0.000000 0.000000 0.000000
O O17 0.814404 0.481261 0.512200
O O18 0.000000 0.000000 0.500000
#
# Coordination Sequence:
#
# PCOD9030995 Si02
#       8
#     2   2   2   2   2   2   2   2
#     4  10  23  40  70  89 129 173 217 288 337 407
#     4  11  23  43  70  93 132 182 217 286 351 411
#     4  11  24  43  67  98 127 178 234 288 348 412
#     4  10  22  43  63  95 133 166 225 273 347 410
#     4  10  25  45  64  94 135 172 233 286 342 419
#     4  10  25  45  70 101 135 181 237 285 346 424
#     4  11  24  40  62 101 131 172 223 279 337 426
#     4  11  22  40  64  98 127 170 223 273 347 414
#
# _framework density 23.787568
#
# number of rings (size 3 to 8) (size 9 to 14) (size 15 to 20)
#    0.000    1.500    1.250    2.250    8.750    2.000 
#    2.250    0.000    0.000    0.000    0.000    0.000 
#    0.000    0.000    0.000    0.000    0.000    0.000 
#
# Total GULP energy -89336.362873 kJ/mol
# GULP energy per Si atom -5583.522680 kJ/mol
# Density = 2.373343 g / cm^3
# Si number density = 23.787568 Si / 1000 Ang^3
#
#
#
# Elastic Constant Matrix: (Units=GPa)
#
#
# Indices 1 2 3 4 5 6 
#
# 1 90.1426 -13.9286 16.4730 4.4864 8.0276 17.4426
# 2 -13.9286 39.1457 12.5248 7.8867 5.3202 1.7052
# 3 16.4730 12.5248 121.4020 21.7383 17.6652 12.1496
# 4 4.4864 7.8867 21.7383 30.9239 -6.5206 1.6665
# 5 8.0276 5.3202 17.6652 -6.5206 50.5194 2.1975
# 6 17.4426 1.7052 12.1496 1.6665 2.1975 35.3555
#
#
#
# Elastic Compliance Matrix: (Units=1/GPa)
#
#
# Indices 1 2 3 4 5 6 
#
# 1 0.013954 0.006577 -0.000936 -0.003264 -0.002719 -0.006557
# 2 0.006577 0.030892 -0.001502 -0.008584 -0.004728 -0.003520
# 3 -0.000936 -0.001502 0.010821 -0.007875 -0.004383 -0.002541
# 4 -0.003264 -0.008584 -0.007875 0.042437 0.009561 0.002136
# 5 -0.002719 -0.004728 -0.004383 0.009561 0.023440 0.001168
# 6 -0.006557 -0.003520 -0.002541 0.002136 0.001168 0.032389
#
#
# Mechanical properties :
#
#
# Convention : Reuss Voigt Hill
#
# Bulk Modulus (GPa) = 15.63821 31.20321 23.42071
# Shear Modulus (GPa) = 29.94551 39.06783 34.50667
#
# Velocity S-wave (km/s) = 3.55191 4.05700 3.81283
# Velocity P-wave (km/s) = 4.83837 5.92382 5.40839
#
# Compressibility (1/GPa) = 0.06394596
#
# Stress axis : x y z
#
# Youngs Moduli (GPa) = 71.66298 32.37102 92.41088
#
# Poissons Ratio (x) = -0.21291 0.08647
# Poissons Ratio (y) = -0.47135 0.13882
# Poissons Ratio (z) = 0.06705 0.04863
#
# Static dielectric constant tensor:
#      x y z
#    x 1.946030 0.026140 -0.001610 
#    y 0.026140 2.035270 0.025100 
#    z -0.001610 0.025100 1.962970 
# 
# From -- ./inp_files/69716.got.cif
#   From: 2010.05.17/outbox.cif.g08.bks.cpg/sg2_35_cif.got.tgz:69716.got - 2010.06.03 11:33:40.
