data_PCOD9030677
_publ_section_title
;
Structure prediction by ZEFSAII (Michael W. Deem and Ramdas Pophale) SiO2 
 PCOD9030677
Probable space group: P -1
;
_chemical_formula_sum "Si O2"
_cell_formula_units_Z 16
_cell_length_a 12.329237
_cell_length_b 9.146591
_cell_length_c 20.649257
_cell_angle_alpha 32.023869
_cell_angle_beta 138.126860
_cell_angle_gamma 131.000750
_cell_volume 822.194748
_symmetry_space_group_name_H-M "P -1"
_symmetry_group_IT_number 2
_symmetry_cell_setting 'triclinic'
loop_
_space_group_symop_operation_xyz
x,y,z
-x,-y,-z
loop_
_atom_site_type_symbol
_atom_site_label
_atom_site_fract_x
_atom_site_fract_y
_atom_site_fract_z
Si Si1 0.805685 0.410562 0.953519
Si Si2 0.818567 0.801117 0.144477
Si Si3 0.560836 0.190131 0.649264
Si Si4 0.359676 0.041141 0.368953
Si Si5 0.928102 0.248601 0.837444
Si Si6 0.125171 0.714965 0.822033
Si Si7 0.381699 0.673751 0.838791
Si Si8 0.018130 0.783649 0.366147
O O1 0.698495 0.649481 0.788038
O O2 0.789398 0.373756 0.038859
O O3 0.000000 0.500000 0.000000
O O4 0.771472 0.121753 0.007048
O O5 0.687887 0.558610 0.155986
O O6 0.971696 0.754752 0.183441
O O7 0.884036 0.762162 0.259085
O O8 0.500000 0.500000 0.500000
O O9 0.738258 0.215225 0.752060
O O10 0.581342 0.075377 0.629159
O O11 0.455179 0.952745 0.731874
O O12 0.500000 0.000000 0.500000
O O13 0.194923 0.870197 0.383395
O O14 0.983391 0.500143 0.813891
O O15 0.000000 0.000000 0.000000
O O16 0.247497 0.750046 0.803134
O O17 0.035572 0.983925 0.697188
O O18 0.500000 0.500000 0.000000
O O19 0.000000 0.500000 0.500000
#
# Coordination Sequence:
#
# PCOD9030677 Si02
#       8
#     2   2   2   2   2   2   2   2
#     4  11  19  43  73 103 130 168 234 277 332 404
#     4  10  22  42  72  97 127 180 222 278 326 404
#     4  12  28  45  66 102 144 176 224 283 348 402
#     4  12  27  44  68 101 138 176 223 290 340 394
#     4  11  21  40  72  98 128 174 228 271 332 406
#     4  10  23  41  73 100 126 179 226 276 328 409
#     4  11  25  45  67 103 143 175 225 283 344 401
#     4  11  25  45  67  94 134 177 232 267 336 409
#
# _framework density 19.46011
#
# number of rings (size 3 to 8) (size 9 to 14) (size 15 to 20)
#    0.000    1.000    3.750    3.750    5.250    1.000 
#    0.000    4.375    0.000    0.000    0.000    0.000 
#    0.000    0.000    0.000    0.000    0.000    0.000 
#
# Total GULP energy -89284.882646 kJ/mol
# GULP energy per Si atom -5580.305165 kJ/mol
# Density = 1.941582 g / cm^3
# Si number density = 19.460110 Si / 1000 Ang^3
#
#
#
# Elastic Constant Matrix: (Units=GPa)
#
#
# Indices 1 2 3 4 5 6 
#
# 1 91.5488 77.5263 63.8918 -16.0770 -5.0196 -1.6916
# 2 77.5263 172.8634 91.0362 -13.5819 -1.4829 -4.1592
# 3 63.8918 91.0362 169.8590 -17.0200 -3.8457 5.2675
# 4 -16.0770 -13.5819 -17.0200 34.0119 11.0006 4.4836
# 5 -5.0196 -1.4829 -3.8457 11.0006 18.0618 -7.2244
# 6 -1.6916 -4.1592 5.2675 4.4836 -7.2244 33.1213
#
#
#
# Elastic Compliance Matrix: (Units=1/GPa)
#
#
# Indices 1 2 3 4 5 6 
#
# 1 0.019894 -0.006763 -0.003397 0.004352 0.001804 0.000511
# 2 -0.006763 0.010481 -0.003186 -0.000515 -0.000838 0.001364
# 3 -0.003397 -0.003186 0.009192 0.002774 -0.002084 -0.002866
# 4 0.004352 -0.000515 0.002774 0.044122 -0.030257 -0.012856
# 5 0.001804 -0.000838 -0.002084 -0.030257 0.082769 0.022468
# 6 0.000511 0.001364 -0.002866 -0.012856 0.022468 0.037486
#
#
# Mechanical properties :
#
#
# Convention : Reuss Voigt Hill
#
# Bulk Modulus (GPa) = 77.67563 99.90888 88.79225
# Shear Modulus (GPa) = 21.28295 30.49345 25.88820
#
# Velocity S-wave (km/s) = 3.31066 3.96279 3.65131
# Velocity P-wave (km/s) = 7.39026 8.50824 7.96888
#
# Compressibility (1/GPa) = 0.01287405
#
# Stress axis : x y z
#
# Youngs Moduli (GPa) = 50.26622 95.40676 108.78521
#
# Poissons Ratio (x) = 0.64527 0.36956
# Poissons Ratio (y) = 0.33997 0.34663
# Poissons Ratio (z) = 0.17076 0.30400
#
# Static dielectric constant tensor:
#      x y z
#    x 1.659060 0.038040 -0.016300 
#    y 0.038040 1.655490 0.033520 
#    z -0.016300 0.033520 1.649090 
# 
# From -- ./inp_files/271913.got.cif
#   From: 2010.05.17/outbox.cif.g08.bks.cpg/sg2_136_cif.got.tgz:271913.got - 2010.06.03 11:33:40.
