data_PCOD9030813
_publ_section_title
;
Structure prediction by ZEFSAII (Michael W. Deem and Ramdas Pophale) SiO2 
 PCOD9030813
Probable space group: P -1
;
_chemical_formula_sum "Si O2"
_cell_formula_units_Z 15
_cell_length_a 13.496485
_cell_length_b 8.852881
_cell_length_c 11.806029
_cell_angle_alpha 72.101724
_cell_angle_beta 145.544823
_cell_angle_gamma 84.602340
_cell_volume 580.089123
_symmetry_space_group_name_H-M "P -1"
_symmetry_group_IT_number 2
_symmetry_cell_setting 'triclinic'
loop_
_space_group_symop_operation_xyz
x,y,z
-x,-y,-z
loop_
_atom_site_type_symbol
_atom_site_label
_atom_site_fract_x
_atom_site_fract_y
_atom_site_fract_z
Si Si1 0.715442 0.617463 0.870548
Si Si2 0.504792 0.310908 0.145365
Si Si3 0.460076 0.613626 0.271558
Si Si4 0.876267 0.321488 0.462771
Si Si5 0.725246 0.968314 0.248031
Si Si6 0.155973 0.408997 0.444862
Si Si7 0.869418 0.214551 0.893398
Si Si8 0.000000 0.500000 0.000000
O O1 0.989128 0.512318 0.153831
O O2 0.577323 0.761177 0.815736
O O3 0.669910 0.459524 0.891026
O O4 0.708342 0.659087 0.722696
O O5 0.704263 0.312836 0.374805
O O6 0.639940 0.158632 0.200802
O O7 0.286124 0.517061 0.828709
O O8 0.588549 0.676896 0.311614
O O9 0.671159 0.402868 0.582397
O O10 0.266303 0.789254 0.131554
O O11 0.942967 0.427545 0.583760
O O12 0.099187 0.106464 0.671317
O O13 0.856033 0.765740 0.495931
O O14 0.500000 0.000000 0.000000
O O15 0.004050 0.290572 0.049094
O O16 0.000000 0.000000 0.000000
#
# Coordination Sequence:
#
# PCOD9030813 Si02
#       8
#     2   2   2   2   2   2   2   1
#     4  11  22  43  69  96 132 182 220 272 348 403
#     4  11  23  42  66  94 133 177 226 279 342 406
#     4  10  23  45  67  98 138 175 222 286 344 404
#     4  11  23  43  65  91 135 181 218 284 343 394
#     4  12  24  40  63 100 131 174 236 278 329 413
#     4  12  22  43  69  92 137 182 216 282 343 398
#     4  10  22  46  73 100 135 179 232 290 347 413
#     4  10  22  42  74  98 140 176 222 292 340 408
#
# _framework density 25.858094999999999
#
# number of rings (size 3 to 8) (size 9 to 14) (size 15 to 20)
#    0.000    1.067    5.333    1.600    0.000    1.067 
#    9.600    6.000    0.000    0.000    0.000    0.000 
#    0.000    0.000    0.000    0.000    0.000    0.000 
#
# Total GULP energy -83506.603416 kJ/mol
# GULP energy per Si atom -5567.106894 kJ/mol
# Density = 2.579924 g / cm^3
# Si number density = 25.858095 Si / 1000 Ang^3
#
#
#
# Elastic Constant Matrix: (Units=GPa)
#
#
# Indices 1 2 3 4 5 6 
#
# 1 144.8668 20.4478 46.9817 -8.5348 57.7256 -2.4378
# 2 20.4478 102.8606 48.8353 0.1220 15.1215 -13.3192
# 3 46.9817 48.8353 104.4562 5.5930 43.2804 -7.3929
# 4 -8.5348 0.1220 5.5930 46.6221 -11.5569 15.6843
# 5 57.7256 15.1215 43.2804 -11.5569 55.1539 3.5547
# 6 -2.4378 -13.3192 -7.3929 15.6843 3.5547 35.4095
#
#
#
# Elastic Compliance Matrix: (Units=1/GPa)
#
#
# Indices 1 2 3 4 5 6 
#
# 1 0.012200 -0.000326 0.000908 -0.002543 -0.014147 0.003454
# 2 -0.000326 0.013006 -0.006278 -0.000154 0.001446 0.003482
# 3 0.000908 -0.006278 0.020552 -0.009372 -0.017831 0.007933
# 4 -0.002543 -0.000154 -0.009372 0.032848 0.018137 -0.018560
# 5 -0.014147 0.001446 -0.017831 0.018137 0.051453 -0.017352
# 6 0.003454 0.003482 0.007933 -0.018560 -0.017352 0.041408
#
#
# Mechanical properties :
#
#
# Convention : Reuss Voigt Hill
#
# Bulk Modulus (GPa) = 29.09985 64.96816 47.03400
# Shear Modulus (GPa) = 25.73144 43.16502 34.44823
#
# Velocity S-wave (km/s) = 3.15795 4.09014 3.65390
# Velocity P-wave (km/s) = 4.95731 6.89095 6.00250
#
# Compressibility (1/GPa) = 0.03436444
#
# Stress axis : x y z
#
# Youngs Moduli (GPa) = 81.96557 76.88789 48.65784
#
# Poissons Ratio (x) = 0.02508 -0.04416
# Poissons Ratio (y) = 0.02674 0.30548
# Poissons Ratio (z) = -0.07439 0.48271
#
# Static dielectric constant tensor:
#      x y z
#    x 2.431660 -0.059360 -0.070610 
#    y -0.059360 2.341570 0.044940 
#    z -0.070610 0.044940 2.128520 
# 
# From -- ./inp_files/529701.got.cif
#   From: 2010.05.17/outbox.cif.g08.bks.cpg/sg2_265_cif.got.tgz:529701.got - 2010.06.03 11:33:40.
