data_PCOD9030521
_publ_section_title
;
Structure prediction by ZEFSAII (Michael W. Deem and Ramdas Pophale) SiO2 
 PCOD9030521
Probable space group: P -1
;
_chemical_formula_sum "Si O2"
_cell_formula_units_Z 16
_cell_length_a 11.711520
_cell_length_b 13.439332
_cell_length_c 11.401785
_cell_angle_alpha 93.556219
_cell_angle_beta 93.523322
_cell_angle_gamma 21.673782
_cell_volume 661.466948
_symmetry_space_group_name_H-M "P -1"
_symmetry_group_IT_number 2
_symmetry_cell_setting 'triclinic'
loop_
_space_group_symop_operation_xyz
x,y,z
-x,-y,-z
loop_
_atom_site_type_symbol
_atom_site_label
_atom_site_fract_x
_atom_site_fract_y
_atom_site_fract_z
Si Si1 0.378377 0.687889 0.761863
Si Si2 0.819538 0.400742 0.569022
Si Si3 0.642670 0.176705 0.907674
Si Si4 0.671618 0.768118 0.056429
Si Si5 0.225473 0.582413 0.708022
Si Si6 0.535589 0.828512 0.565523
Si Si7 0.132040 0.786872 0.082895
Si Si8 0.439685 0.975479 0.311145
O O1 0.554300 0.566510 0.642939
O O2 0.240065 0.688616 0.743532
O O3 0.119964 0.970420 0.818730
O O4 0.659042 0.459692 0.854782
O O5 0.735052 0.455983 0.431732
O O6 0.782963 0.547768 0.600737
O O7 0.179774 0.081628 0.585777
O O8 0.447603 0.249428 0.964890
O O9 0.491154 0.309940 0.778338
O O10 0.974981 0.874950 0.961404
O O11 0.679658 0.265394 0.941925
O O12 0.651271 0.801477 0.197425
O O13 0.000000 0.500000 0.000000
O O14 0.500000 0.000000 0.000000
O O15 0.892204 0.803233 0.729433
O O16 0.556089 0.827277 0.426117
O O17 0.598862 0.880226 0.637962
#
# Coordination Sequence:
#
# PCOD9030521 Si02
#       8
#     2   2   2   2   2   2   2   2
#     4  11  23  41  64  99 133 168 211 266 330 388
#     4  11  23  41  65 103 136 168 212 267 336 390
#     4  10  23  45  66  93 126 169 227 266 318 391
#     4  12  27  42  64  95 130 170 210 271 333 381
#     4  10  22  42  71  96 131 176 216 272 322 387
#     4  10  24  42  70  95 130 179 219 270 319 386
#     4  10  24  42  69  91 124 175 219 269 316 379
#     4  10  23  45  67  96 131 173 229 266 321 396
#
# _framework density 24.188662000000001
#
# number of rings (size 3 to 8) (size 9 to 14) (size 15 to 20)
#    0.000    1.500    0.000    3.375    0.000   21.000 
#    0.000    6.250    0.000    0.000    0.000    0.000 
#    0.000    0.000    0.000    0.000    0.000    0.000 
#
# Total GULP energy -89436.216260 kJ/mol
# GULP energy per Si atom -5589.763516 kJ/mol
# Density = 2.413361 g / cm^3
# Si number density = 24.188662 Si / 1000 Ang^3
#
#
#
# Elastic Constant Matrix: (Units=GPa)
#
#
# Indices 1 2 3 4 5 6 
#
# 1 81.8507 18.7072 47.8321 4.9812 -3.4846 -19.0988
# 2 18.7072 124.7010 71.0610 13.9952 -9.3792 -1.8547
# 3 47.8321 71.0610 137.7743 30.8654 -5.7801 -25.2399
# 4 4.9812 13.9952 30.8654 46.2408 -11.7670 -0.7041
# 5 -3.4846 -9.3792 -5.7801 -11.7670 32.9272 1.9635
# 6 -19.0988 -1.8547 -25.2399 -0.7041 1.9635 34.7729
#
#
#
# Elastic Compliance Matrix: (Units=1/GPa)
#
#
# Indices 1 2 3 4 5 6 
#
# 1 0.016398 0.000629 -0.005530 0.002173 0.001423 0.004989
# 2 0.000629 0.012291 -0.007783 0.002164 0.003260 -0.004789
# 3 -0.005530 -0.007783 0.016624 -0.008927 -0.003589 0.008636
# 4 0.002173 0.002164 -0.008927 0.029164 0.010008 -0.005145
# 5 0.001423 0.003260 -0.003589 0.010008 0.034599 -0.003401
# 6 0.004989 -0.004789 0.008636 -0.005145 -0.003401 0.037599
#
#
# Mechanical properties :
#
#
# Convention : Reuss Voigt Hill
#
# Bulk Modulus (GPa) = 50.14074 68.83628 59.48851
# Shear Modulus (GPa) = 27.98102 36.56989 32.27545
#
# Velocity S-wave (km/s) = 3.40484 3.89248 3.65680
# Velocity P-wave (km/s) = 6.01924 6.98010 6.51740
#
# Compressibility (1/GPa) = 0.01994386
#
# Stress axis : x y z
#
# Youngs Moduli (GPa) = 60.98280 81.35876 60.15378
#
# Poissons Ratio (x) = -0.05117 0.33268
# Poissons Ratio (y) = -0.03835 0.46819
# Poissons Ratio (z) = 0.33726 0.63323
#
# Static dielectric constant tensor:
#      x y z
#    x 1.916790 0.013830 0.032520 
#    y 0.013830 1.998950 0.046360 
#    z 0.032520 0.046360 1.966000 
# 
# From -- ./inp_files/434047.got.cif
#   From: 2010.05.17/outbox.cif.g08.bks.cpg/sg2_218_cif.got.tgz:434047.got - 2010.06.03 11:33:40.
