data_PCOD9030623
_publ_section_title
;
Structure prediction by ZEFSAII (Michael W. Deem and Ramdas Pophale) SiO2 
 PCOD9030623
Probable space group: P -1
;
_chemical_formula_sum "Si O2"
_cell_formula_units_Z 10
_cell_length_a 5.786922
_cell_length_b 12.794222
_cell_length_c 7.301568
_cell_angle_alpha 131.738970
_cell_angle_beta 90.812360
_cell_angle_gamma 94.848103
_cell_volume 400.138155
_symmetry_space_group_name_H-M "P -1"
_symmetry_group_IT_number 2
_symmetry_cell_setting 'triclinic'
loop_
_space_group_symop_operation_xyz
x,y,z
-x,-y,-z
loop_
_atom_site_type_symbol
_atom_site_label
_atom_site_fract_x
_atom_site_fract_y
_atom_site_fract_z
Si Si1 0.291759 0.910510 0.500152
Si Si2 0.925547 0.538540 0.245217
Si Si3 0.743449 0.334648 0.300552
Si Si4 0.628659 0.786042 0.592238
Si Si5 0.944423 0.077085 0.857246
O O1 0.403832 0.788579 0.460691
O O2 0.106751 0.873046 0.292936
O O3 0.500000 0.000000 0.500000
O O4 0.181926 0.009434 0.759706
O O5 0.751468 0.419354 0.209924
O O6 0.798973 0.678772 0.400244
O O7 0.142837 0.564048 0.418945
O O8 0.000000 0.500000 0.000000
O O9 0.487892 0.265632 0.277386
O O10 0.907278 0.210031 0.134354
O O11 0.761146 0.944503 0.766400
#
# Coordination Sequence:
#
# PCOD9030623 Si02
#       5
#     2   2   2   2   2
#     4   9  21  38  68 107 138 180 219 283 348 407
#     4  11  28  48  69  97 143 189 232 284 341 411
#     4  11  26  46  71 103 137 185 232 285 345 412
#     4  11  23  44  71 105 136 185 229 284 351 407
#     4  10  22  42  72 105 142 172 233 288 346 410
#
# _framework density 24.99137
#
# number of rings (size 3 to 8) (size 9 to 14) (size 15 to 20)
#    0.000    1.600    0.000    2.400   11.200    7.200 
#    3.600    0.000    0.000    0.000    0.000    0.000 
#    0.000    0.000    0.000    0.000    0.000    0.000 
#
# Total GULP energy -56000.587809 kJ/mol
# GULP energy per Si atom -5600.058781 kJ/mol
# Density = 2.493449 g / cm^3
# Si number density = 24.991370 Si / 1000 Ang^3
#
#
#
# Elastic Constant Matrix: (Units=GPa)
#
#
# Indices 1 2 3 4 5 6 
#
# 1 78.3065 16.1361 36.5293 -7.5915 -20.5399 9.6141
# 2 16.1361 136.0987 49.5927 -17.7147 -2.6000 17.4158
# 3 36.5293 49.5927 158.4244 -11.0765 -26.0981 0.7072
# 4 -7.5915 -17.7147 -11.0765 37.5343 1.7999 -9.6143
# 5 -20.5399 -2.6000 -26.0981 1.7999 21.5077 -7.4180
# 6 9.6141 17.4158 0.7072 -9.6143 -7.4180 57.8325
#
#
#
# Elastic Compliance Matrix: (Units=1/GPa)
#
#
# Indices 1 2 3 4 5 6 
#
# 1 0.017722 -0.001118 -0.001100 0.001920 0.015181 -0.000330
# 2 -0.001118 0.009292 -0.003292 0.002722 -0.005125 -0.002777
# 3 -0.001100 -0.003292 0.009451 0.001170 0.010833 0.002643
# 4 0.001920 0.002722 0.001170 0.029587 0.002516 0.004088
# 5 0.015181 -0.005125 0.010833 0.002516 0.076451 0.009112
# 6 -0.000330 -0.002777 0.002643 0.004088 0.009112 0.019998
#
#
# Mechanical properties :
#
#
# Convention : Reuss Voigt Hill
#
# Bulk Modulus (GPa) = 39.30206 64.14952 51.72579
# Shear Modulus (GPa) = 27.47193 41.41301 34.44247
#
# Velocity S-wave (km/s) = 3.31910 4.07516 3.71640
# Velocity P-wave (km/s) = 5.51806 6.91859 6.25763
#
# Compressibility (1/GPa) = 0.02544396
#
# Stress axis : x y z
#
# Youngs Moduli (GPa) = 56.42575 107.62379 105.80835
#
# Poissons Ratio (x) = 0.12037 0.11637
# Poissons Ratio (y) = 0.06311 0.34836
# Poissons Ratio (z) = 0.06206 0.35434
#
# Static dielectric constant tensor:
#      x y z
#    x 1.996740 -0.005680 0.079840 
#    y -0.005680 1.998550 -0.042670 
#    z 0.079840 -0.042670 2.006830 
# 
# From -- ./inp_files/1580.got.cif
#   From: 2010.05.17/outbox.cif.g08.bks.cpg/sg2_1_cif.got.tgz:1580.got - 2010.06.03 11:33:40.
