data_PCOD9030122
_publ_section_title
;
Structure prediction by ZEFSAII (Michael W. Deem and Ramdas Pophale) SiO2 
 PCOD9030122
Probable space group: P -1
;
_chemical_formula_sum "Si O2"
_cell_formula_units_Z 15
_cell_length_a 9.106418
_cell_length_b 19.584653
_cell_length_c 4.888368
_cell_angle_alpha 110.955039
_cell_angle_beta 105.649107
_cell_angle_gamma 44.673372
_cell_volume 572.248899
_symmetry_space_group_name_H-M "P -1"
_symmetry_group_IT_number 2
_symmetry_cell_setting 'triclinic'
loop_
_space_group_symop_operation_xyz
x,y,z
-x,-y,-z
loop_
_atom_site_type_symbol
_atom_site_label
_atom_site_fract_x
_atom_site_fract_y
_atom_site_fract_z
Si Si1 0.803526 0.056086 0.280528
Si Si2 0.286553 0.483305 0.570508
Si Si3 0.664195 0.811415 0.660242
Si Si4 0.986802 0.129694 0.228672
Si Si5 0.302867 0.102100 0.690634
Si Si6 0.000000 0.500000 0.000000
Si Si7 0.247226 0.652873 0.508058
Si Si8 0.963326 0.646025 0.009813
O O1 0.575713 0.132664 0.402632
O O2 0.820208 0.120796 0.184937
O O3 0.000000 0.000000 0.500000
O O4 0.843096 0.968887 0.007199
O O5 0.178213 0.468191 0.275518
O O6 0.275556 0.572957 0.603099
O O7 0.534673 0.389856 0.567863
O O8 0.140601 0.524655 0.828099
O O9 0.729647 0.814703 0.395468
O O10 0.818261 0.711944 0.776900
O O11 0.667010 0.882186 0.964101
O O12 0.872578 0.241923 0.248997
O O13 0.107727 0.114510 0.543476
O O14 0.500000 0.000000 0.500000
O O15 0.130695 0.376324 0.844050
O O16 0.110076 0.663166 0.210119
#
# Coordination Sequence:
#
# PCOD9030122 Si02
#       8
#     2   2   2   2   2   1   2   2
#     4  11  27  46  64 102 147 190 231 304 360 439
#     4  10  22  43  66  99 137 177 228 296 354 423
#     4  12  27  44  76 106 142 187 248 295 363 432
#     4  11  24  43  69  97 141 184 238 291 359 429
#     4  12  24  46  74 103 139 188 241 303 354 427
#     4  10  24  42  66  94 142 178 230 284 362 418
#     4  10  22  42  69  98 130 179 238 289 354 425
#     4  11  23  43  69 101 137 182 234 297 351 426
#
# _framework density 26.212365999999999
#
# number of rings (size 3 to 8) (size 9 to 14) (size 15 to 20)
#    0.000    1.067    2.667    2.800    7.467    1.067 
#    2.400    0.000    0.000    0.000    0.000    0.000 
#    0.000    0.000    0.000    0.000    0.000    0.000 
#
# Total GULP energy -83741.985572 kJ/mol
# GULP energy per Si atom -5582.799038 kJ/mol
# Density = 2.615271 g / cm^3
# Si number density = 26.212366 Si / 1000 Ang^3
#
#
#
# Elastic Constant Matrix: (Units=GPa)
#
#
# Indices 1 2 3 4 5 6 
#
# 1 104.9545 29.1343 4.8156 -7.2206 18.4390 -11.5147
# 2 29.1343 115.7962 7.2582 1.6517 25.3998 10.0375
# 3 4.8156 7.2582 99.8103 -8.9582 12.0816 3.3281
# 4 -7.2206 1.6517 -8.9582 39.7397 10.8309 8.1319
# 5 18.4390 25.3998 12.0816 10.8309 39.1675 4.7710
# 6 -11.5147 10.0375 3.3281 8.1319 4.7710 60.4623
#
#
#
# Elastic Compliance Matrix: (Units=1/GPa)
#
#
# Indices 1 2 3 4 5 6 
#
# 1 0.011520 -0.001987 0.000462 0.003264 -0.005483 0.002492
# 2 -0.001987 0.010613 0.000249 0.001311 -0.006161 -0.001844
# 3 0.000462 0.000249 0.010937 0.003985 -0.004768 -0.000715
# 4 0.003264 0.001311 0.003985 0.030388 -0.011656 -0.002983
# 5 -0.005483 -0.006161 -0.004768 -0.011656 0.036937 -0.001106
# 6 0.002492 -0.001844 -0.000715 -0.002983 -0.001106 0.017848
#
#
# Mechanical properties :
#
#
# Convention : Reuss Voigt Hill
#
# Bulk Modulus (GPa) = 32.76726 44.77525 38.77125
# Shear Modulus (GPa) = 38.17777 46.49742 42.33760
#
# Velocity S-wave (km/s) = 3.82053 4.21631 4.02329
# Velocity P-wave (km/s) = 5.65594 6.38919 6.03372
#
# Compressibility (1/GPa) = 0.03051827
#
# Stress axis : x y z
#
# Youngs Moduli (GPa) = 86.80819 94.22515 91.43122
#
# Poissons Ratio (x) = 0.18724 -0.04227
# Poissons Ratio (y) = 0.17250 -0.02277
# Poissons Ratio (z) = -0.04014 -0.02347
#
# Static dielectric constant tensor:
#      x y z
#    x 1.104090 -0.450350 0.124240 
#    y -0.450350 2.016410 0.226900 
#    z 0.124240 0.226900 2.013940 
# 
# From -- ./inp_files/38150.got.cif
#   From: 2010.05.17/outbox.cif.g08.bks.cpg/sg2_20_cif.got.tgz:38150.got - 2010.06.03 11:33:40.
