data_PCOD9030746
_publ_section_title
;
Structure prediction by ZEFSAII (Michael W. Deem and Ramdas Pophale) SiO2 
 PCOD9030746
Probable space group: P -1
;
_chemical_formula_sum "Si O2"
_cell_formula_units_Z 15
_cell_length_a 15.481509
_cell_length_b 5.494292
_cell_length_c 12.017195
_cell_angle_alpha 112.846784
_cell_angle_beta 137.417887
_cell_angle_gamma 82.760041
_cell_volume 616.090664
_symmetry_space_group_name_H-M "P -1"
_symmetry_group_IT_number 2
_symmetry_cell_setting 'triclinic'
loop_
_space_group_symop_operation_xyz
x,y,z
-x,-y,-z
loop_
_atom_site_type_symbol
_atom_site_label
_atom_site_fract_x
_atom_site_fract_y
_atom_site_fract_z
Si Si1 0.490169 0.104052 0.884246
Si Si2 0.311695 0.565928 0.539238
Si Si3 0.000000 0.000000 0.500000
Si Si4 0.761718 0.718024 0.375276
Si Si5 0.894504 0.685313 0.137861
Si Si6 0.264066 0.895954 0.019162
Si Si7 0.637124 0.920862 0.624738
Si Si8 0.141083 0.782339 0.269566
O O1 0.419449 0.850470 0.692883
O O2 0.383339 0.282201 0.807456
O O3 0.633556 0.198340 0.981878
O O4 0.500000 0.000000 0.000000
O O5 0.258252 0.543888 0.611217
O O6 0.379874 0.343520 0.515946
O O7 0.190445 0.549890 0.339198
O O8 0.871160 0.776976 0.395807
O O9 0.994185 0.795199 0.353070
O O10 0.807787 0.949459 0.555790
O O11 0.983071 0.705010 0.113273
O O12 0.816785 0.382855 0.047038
O O13 0.815455 0.921969 0.092985
O O14 0.332060 0.096848 0.219266
O O15 0.500000 0.000000 0.500000
O O16 0.766942 0.135284 0.735492
#
# Coordination Sequence:
#
# PCOD9030746 Si02
#       8
#     2   2   1   2   2   2   2   2
#     4  11  25  43  66 102 144 184 239 307 368 426
#     4  10  22  42  73  94 136 188 241 292 366 436
#     4  10  22  46  74  98 148 194 244 286 372 432
#     4   9  20  40  65 102 130 186 239 291 353 438
#     4  11  28  47  71 110 146 191 241 302 357 438
#     4  12  29  46  72 111 147 186 251 298 361 426
#     4  11  25  45  74 102 142 192 243 296 363 436
#     4   9  22  43  67 100 135 183 235 289 361 423
#
# _framework density 24.347065000000001
#
# number of rings (size 3 to 8) (size 9 to 14) (size 15 to 20)
#    0.000    1.600    0.000    3.200   13.067    3.200 
#    0.000    0.000    0.000    0.000    0.000    0.000 
#    0.000    0.000    0.000    0.000    0.000    0.000 
#
# Total GULP energy -83505.768095 kJ/mol
# GULP energy per Si atom -5567.051206 kJ/mol
# Density = 2.429165 g / cm^3
# Si number density = 24.347065 Si / 1000 Ang^3
#
#
#
# Elastic Constant Matrix: (Units=GPa)
#
#
# Indices 1 2 3 4 5 6 
#
# 1 157.6585 23.2155 12.0844 4.2120 10.7881 16.3031
# 2 23.2155 70.8372 3.7066 1.0865 16.1672 0.7620
# 3 12.0844 3.7066 38.3839 18.4296 0.5996 2.3773
# 4 4.2120 1.0865 18.4296 26.5466 4.1576 1.1950
# 5 10.7881 16.1672 0.5996 4.1576 38.8250 2.2380
# 6 16.3031 0.7620 2.3773 1.1950 2.2380 32.2726
#
#
#
# Elastic Compliance Matrix: (Units=1/GPa)
#
#
# Indices 1 2 3 4 5 6 
#
# 1 0.007206 -0.001985 -0.002238 0.000806 -0.001032 -0.003387
# 2 -0.001985 0.016299 -0.001817 0.001872 -0.006473 0.001131
# 3 -0.002238 -0.001817 0.040494 -0.028238 0.003836 -0.001030
# 4 0.000806 0.001872 -0.028238 0.058135 -0.006790 -0.000053
# 5 -0.001032 -0.006473 0.003836 -0.006790 0.029488 -0.001402
# 6 -0.003387 0.001131 -0.001030 -0.000053 -0.001402 0.032845
#
#
# Mechanical properties :
#
#
# Convention : Reuss Voigt Hill
#
# Bulk Modulus (GPa) = 19.26034 38.32142 28.79088
# Shear Modulus (GPa) = 23.38058 34.72036 29.05047
#
# Velocity S-wave (km/s) = 3.10224 3.78042 3.45799
# Velocity P-wave (km/s) = 4.55629 5.90163 5.27205
#
# Compressibility (1/GPa) = 0.05192016
#
# Stress axis : x y z
#
# Youngs Moduli (GPa) = 138.77396 61.35373 24.69475
#
# Poissons Ratio (x) = 0.12178 0.05527
# Poissons Ratio (y) = 0.27545 0.04486
# Poissons Ratio (z) = 0.31057 0.11147
#
# Static dielectric constant tensor:
#      x y z
#    x 1.968310 0.066780 0.006110 
#    y 0.066780 2.152700 -0.014260 
#    z 0.006110 -0.014260 2.008470 
# 
# From -- ./inp_files/64747.got.cif
#   From: 2010.05.17/outbox.cif.g08.bks.cpg/sg2_33_cif.got.tgz:64747.got - 2010.06.03 11:33:40.
