data_PCOD9030119
_publ_section_title
;
Structure prediction by ZEFSAII (Michael W. Deem and Ramdas Pophale) SiO2 
 PCOD9030119
Probable space group: P -1
;
_chemical_formula_sum "Si O2"
_cell_formula_units_Z 12
_cell_length_a 7.268169
_cell_length_b 14.160307
_cell_length_c 14.467097
_cell_angle_alpha 38.309906
_cell_angle_beta 120.516121
_cell_angle_gamma 142.662510
_cell_volume 532.465464
_symmetry_space_group_name_H-M "P -1"
_symmetry_group_IT_number 2
_symmetry_cell_setting 'triclinic'
loop_
_space_group_symop_operation_xyz
x,y,z
-x,-y,-z
loop_
_atom_site_type_symbol
_atom_site_label
_atom_site_fract_x
_atom_site_fract_y
_atom_site_fract_z
Si Si1 0.778418 0.884158 0.943575
Si Si2 0.828332 0.320839 0.010322
Si Si3 0.329729 0.465192 0.257076
Si Si4 0.675314 0.958680 0.520398
Si Si5 0.359441 0.645852 0.501189
Si Si6 0.970117 0.059220 0.229738
O O1 0.532908 0.894774 0.879607
O O2 0.542264 0.613228 0.106802
O O3 0.959738 0.972587 0.827404
O O4 0.000000 0.000000 0.000000
O O5 0.998581 0.256172 0.080096
O O6 0.780718 0.418611 0.840357
O O7 0.000000 0.500000 0.000000
O O8 0.560880 0.492446 0.361353
O O9 0.000775 0.198046 0.373405
O O10 0.792778 0.894656 0.672516
O O11 0.500000 0.000000 0.500000
O O12 0.463654 0.775010 0.526696
O O13 0.613471 0.835677 0.344604
O O14 0.000000 0.500000 0.500000
#
# Coordination Sequence:
#
# PCOD9030119 Si02
#       6
#     2   2   2   2   2   2
#     4  10  26  44  69 102 146 176 232 289 349 406
#     4  10  22  42  69  97 140 174 235 282 343 410
#     4   9  23  45  64 101 140 175 230 285 331 420
#     4  11  25  45  71 102 139 186 236 282 342 421
#     4  11  25  46  71 101 142 183 233 288 348 412
#     4  11  25  44  75 102 136 189 230 282 352 413
#
# _framework density 22.536670999999998
#
# number of rings (size 3 to 8) (size 9 to 14) (size 15 to 20)
#    1.000    0.667    0.000    4.000    7.000    4.000 
#    0.000    3.333    0.000    0.000    0.000    0.000 
#    0.000    0.000    0.000    0.000    0.000    0.000 
#
# Total GULP energy -66985.060299 kJ/mol
# GULP energy per Si atom -5582.088358 kJ/mol
# Density = 2.248538 g / cm^3
# Si number density = 22.536671 Si / 1000 Ang^3
#
#
#
# Elastic Constant Matrix: (Units=GPa)
#
#
# Indices 1 2 3 4 5 6 
#
# 1 164.1331 80.0128 46.4862 -1.4489 17.1376 28.4165
# 2 80.0128 140.9438 61.4282 2.8667 -27.0698 18.0810
# 3 46.4862 61.4282 77.5293 11.4117 11.1213 12.1895
# 4 -1.4489 2.8667 11.4117 23.7026 4.4785 -9.6645
# 5 17.1376 -27.0698 11.1213 4.4785 43.9335 -0.0807
# 6 28.4165 18.0810 12.1895 -9.6645 -0.0807 42.6283
#
#
#
# Elastic Compliance Matrix: (Units=1/GPa)
#
#
# Indices 1 2 3 4 5 6 
#
# 1 0.011975 -0.009520 0.002543 0.000968 -0.011288 -0.004474
# 2 -0.009520 0.024093 -0.016966 0.000868 0.022767 0.001218
# 3 0.002543 -0.016966 0.029894 -0.011085 -0.017893 -0.005594
# 4 0.000968 0.000868 -0.011085 0.053803 -0.002495 0.014350
# 5 -0.011288 0.022767 -0.017893 -0.002495 0.045981 0.002506
# 6 -0.004474 0.001218 -0.005594 0.014350 0.002506 0.030782
#
#
# Mechanical properties :
#
#
# Convention : Reuss Voigt Hill
#
# Bulk Modulus (GPa) = 55.32376 84.27339 69.79858
# Shear Modulus (GPa) = 19.96495 35.03150 27.49822
#
# Velocity S-wave (km/s) = 2.97961 3.94689 3.49686
# Velocity P-wave (km/s) = 6.03648 7.63189 6.88058
#
# Compressibility (1/GPa) = 0.01807542
#
# Stress axis : x y z
#
# Youngs Moduli (GPa) = 83.50741 41.50665 33.45150
#
# Poissons Ratio (x) = 0.39515 -0.08507
# Poissons Ratio (y) = 0.79500 0.56754
# Poissons Ratio (z) = -0.21236 0.70420
#
# Static dielectric constant tensor:
#      x y z
#    x 1.880860 0.031870 0.045090 
#    y 0.031870 1.839270 -0.019260 
#    z 0.045090 -0.019260 1.904870 
# 
# From -- ./inp_files/558528.got.cif
#   From: 2010.05.17/outbox.cif.g08.bks.cpg/sg2_280_cif.got.tgz:558528.got - 2010.06.03 11:33:40.
