data_PCOD9030875
_publ_section_title
;
Structure prediction by ZEFSAII (Michael W. Deem and Ramdas Pophale) SiO2 
 PCOD9030875
Probable space group: P -1
;
_chemical_formula_sum "Si O2"
_cell_formula_units_Z 11
_cell_length_a 9.852111
_cell_length_b 10.870517
_cell_length_c 9.007553
_cell_angle_alpha 50.159191
_cell_angle_beta 45.880392
_cell_angle_gamma 41.460594
_cell_volume 443.942343
_symmetry_space_group_name_H-M "P -1"
_symmetry_group_IT_number 2
_symmetry_cell_setting 'triclinic'
loop_
_space_group_symop_operation_xyz
x,y,z
-x,-y,-z
loop_
_atom_site_type_symbol
_atom_site_label
_atom_site_fract_x
_atom_site_fract_y
_atom_site_fract_z
Si Si1 0.030235 0.151568 0.444622
Si Si2 0.306773 0.497058 0.063783
Si Si3 0.922212 0.863209 0.226163
Si Si4 0.500000 0.000000 0.000000
Si Si5 0.756849 0.537996 0.192604
Si Si6 0.508168 0.924853 0.779101
O O1 0.829190 0.367117 0.386812
O O2 0.054549 0.137119 0.614409
O O3 0.292454 0.089681 0.251354
O O4 0.000000 0.000000 0.500000
O O5 0.356355 0.289087 0.215585
O O6 0.076150 0.661226 0.184888
O O7 0.500000 0.500000 0.000000
O O8 0.319303 0.510606 0.866189
O O9 0.666323 0.941478 0.314125
O O10 0.000000 0.000000 0.000000
O O11 0.393875 0.238011 0.828968
O O12 0.351386 0.970142 0.006489
O O13 0.000000 0.500000 0.000000
#
# Coordination Sequence:
#
# PCOD9030875 Si02
#       6
#     2   2   2   1   2   2
#     4  12  28  48  75 114 154 199 255 313 372 453
#     4  11  23  44  75 105 143 194 251 305 378 441
#     4  12  26  47  76 105 152 202 247 307 383 447
#     4  10  22  42  82 100 138 200 248 292 394 418
#     4  11  22  48  73 105 147 193 248 313 369 443
#     4  11  25  46  75 106 150 194 249 312 370 447
#
# _framework density 24.777992000000001
#
# number of rings (size 3 to 8) (size 9 to 14) (size 15 to 20)
#    0.000    0.727    5.455    2.727    2.545    0.727 
#    3.273    1.818    0.000    0.000    0.000    0.000 
#    0.000    0.000    0.000    0.000    0.000    0.000 
#
# Total GULP energy -61268.171793 kJ/mol
# GULP energy per Si atom -5569.833799 kJ/mol
# Density = 2.472160 g / cm^3
# Si number density = 24.777992 Si / 1000 Ang^3
#
#
#
# Elastic Constant Matrix: (Units=GPa)
#
#
# Indices 1 2 3 4 5 6 
#
# 1 190.2416 71.6181 45.9346 -18.8585 23.5536 -6.7800
# 2 71.6181 244.2915 48.4151 -11.8472 19.1363 -11.4005
# 3 45.9346 48.4151 100.2507 -8.1994 34.5951 -6.9969
# 4 -18.8585 -11.8472 -8.1994 33.7041 -6.7871 0.6232
# 5 23.5536 19.1363 34.5951 -6.7871 51.2806 -10.0497
# 6 -6.7800 -11.4005 -6.9969 0.6232 -10.0497 43.0361
#
#
#
# Elastic Compliance Matrix: (Units=1/GPa)
#
#
# Indices 1 2 3 4 5 6 
#
# 1 0.006584 -0.001367 -0.001820 0.002573 -0.000921 0.000127
# 2 -0.001367 0.004881 -0.001691 0.000562 0.000185 0.000838
# 3 -0.001820 -0.001691 0.014503 0.000241 -0.008351 -0.000330
# 4 0.002573 0.000562 0.000241 0.031920 0.002826 0.000791
# 5 -0.000921 0.000185 -0.008351 0.002826 0.026795 0.004763
# 6 0.000127 0.000838 -0.000330 0.000791 0.004763 0.024525
#
#
# Mechanical properties :
#
#
# Convention : Reuss Voigt Hill
#
# Bulk Modulus (GPa) = 61.67202 96.30215 78.98709
# Shear Modulus (GPa) = 40.20335 50.19190 45.19763
#
# Velocity S-wave (km/s) = 4.03245 4.50562 4.27559
# Velocity P-wave (km/s) = 6.82823 8.12514 7.50475
#
# Compressibility (1/GPa) = 0.01621481
#
# Stress axis : x y z
#
# Youngs Moduli (GPa) = 151.88444 204.87545 68.94907
#
# Poissons Ratio (x) = 0.28001 0.12545
# Poissons Ratio (y) = 0.20758 0.11656
# Poissons Ratio (z) = 0.27636 0.34635
#
# Static dielectric constant tensor:
#      x y z
#    x 2.026020 0.043520 -0.015180 
#    y 0.043520 2.152090 0.119520 
#    z -0.015180 0.119520 2.275300 
# 
# From -- ./inp_files/152746.got.cif
#   From: 2010.05.17/outbox.cif.g08.bks.cpg/sg2_77_cif.got.tgz:152746.got - 2010.06.03 11:33:40.
