data_PCOD9030211
_publ_section_title
;
Structure prediction by ZEFSAII (Michael W. Deem and Ramdas Pophale) SiO2 
 PCOD9030211
Probable space group: P -1
;
_chemical_formula_sum "Si O2"
_cell_formula_units_Z 16
_cell_length_a 13.836311
_cell_length_b 9.635887
_cell_length_c 14.274192
_cell_angle_alpha 81.457672
_cell_angle_beta 30.961439
_cell_angle_gamma 102.592305
_cell_volume 710.902357
_symmetry_space_group_name_H-M "P -1"
_symmetry_group_IT_number 2
_symmetry_cell_setting 'triclinic'
loop_
_space_group_symop_operation_xyz
x,y,z
-x,-y,-z
loop_
_atom_site_type_symbol
_atom_site_label
_atom_site_fract_x
_atom_site_fract_y
_atom_site_fract_z
Si Si1 0.586387 0.722953 0.473855
Si Si2 0.897696 0.516703 0.987101
Si Si3 0.798685 0.544408 0.337533
Si Si4 0.856017 0.325994 0.563882
Si Si5 0.208773 0.018096 0.384489
Si Si6 0.085599 0.904104 0.721165
Si Si7 0.474526 0.345707 0.804984
Si Si8 0.381426 0.537460 0.013001
O O1 0.788878 0.699568 0.295623
O O2 0.420436 0.644604 0.524727
O O3 0.380510 0.574825 0.740053
O O4 0.715035 0.924149 0.390568
O O5 0.055565 0.726219 0.793385
O O6 0.936957 0.404115 0.897914
O O7 0.000000 0.500000 0.000000
O O8 0.694770 0.487498 0.533342
O O9 0.779816 0.125722 0.662869
O O10 0.594726 0.275159 0.765658
O O11 0.000000 0.500000 0.500000
O O12 0.084406 0.419719 0.288720
O O13 0.146549 0.962936 0.553788
O O14 0.461937 0.240332 0.147128
O O15 0.000000 0.000000 0.500000
O O16 0.807422 0.831071 0.980191
O O17 0.426297 0.458378 0.896264
O O18 0.500000 0.500000 0.000000
#
# Coordination Sequence:
#
# PCOD9030211 Si02
#       8
#     2   2   2   2   2   2   2   2
#     4  10  23  46  68 102 140 190 235 299 359 424
#     4  10  23  47  71 100 141 187 238 302 357 421
#     4  10  22  42  70 101 141 181 240 292 363 423
#     4  12  26  47  73 106 142 188 242 297 360 436
#     4  12  25  45  74 106 142 190 236 294 365 426
#     4  12  25  45  73 102 147 190 243 291 363 431
#     4  12  24  45  69 103 147 186 236 303 357 426
#     4  12  24  50  73  98 146 189 237 303 361 423
#
# _framework density 22.506606999999999
#
# number of rings (size 3 to 8) (size 9 to 14) (size 15 to 20)
#    0.000    0.750    5.000    1.500    0.000    3.000 
#    9.000    0.000    0.000    0.000    0.000    0.000 
#    0.000    0.000    0.000    0.000    0.000    0.000 
#
# Total GULP energy -89273.010354 kJ/mol
# GULP energy per Si atom -5579.563147 kJ/mol
# Density = 2.245538 g / cm^3
# Si number density = 22.506607 Si / 1000 Ang^3
#
#
#
# Elastic Constant Matrix: (Units=GPa)
#
#
# Indices 1 2 3 4 5 6 
#
# 1 71.0398 26.7495 -8.3451 -2.9023 8.2506 -9.9291
# 2 26.7495 157.5302 36.0472 3.5121 -5.3494 -11.3157
# 3 -8.3451 36.0472 60.5670 -3.1725 12.1508 1.1162
# 4 -2.9023 3.5121 -3.1725 44.8877 1.2276 4.9537
# 5 8.2506 -5.3494 12.1508 1.2276 25.9314 3.7943
# 6 -9.9291 -11.3157 1.1162 4.9537 3.7943 39.3267
#
#
#
# Elastic Compliance Matrix: (Units=1/GPa)
#
#
# Indices 1 2 3 4 5 6 
#
# 1 0.018973 -0.005231 0.008088 0.002093 -0.011577 0.003909
# 2 -0.005231 0.009417 -0.007900 -0.001959 0.007232 0.001162
# 3 0.008088 -0.007900 0.025808 0.003394 -0.016486 0.000199
# 4 0.002093 -0.001959 0.003394 0.023199 -0.003359 -0.002730
# 5 -0.011577 0.007232 -0.016486 -0.003359 0.052354 -0.005002
# 6 0.003909 0.001162 0.000199 -0.002730 -0.005002 0.027570
#
#
# Mechanical properties :
#
#
# Convention : Reuss Voigt Hill
#
# Bulk Modulus (GPa) = 22.67039 44.22667 33.44853
# Shear Modulus (GPa) = 27.45546 37.67486 32.56516
#
# Velocity S-wave (km/s) = 3.49647 4.09583 3.80796
# Velocity P-wave (km/s) = 5.13761 6.48544 5.85047
#
# Compressibility (1/GPa) = 0.04411041
#
# Stress axis : x y z
#
# Youngs Moduli (GPa) = 52.70687 106.19294 38.74703
#
# Poissons Ratio (x) = 0.55554 -0.31338
# Poissons Ratio (y) = 0.27573 0.30611
# Poissons Ratio (z) = -0.42628 0.83895
#
# Static dielectric constant tensor:
#      x y z
#    x 1.925040 0.019080 0.040370 
#    y 0.019080 1.817750 -0.016840 
#    z 0.040370 -0.016840 1.824530 
# 
# From -- ./inp_files/529608.got.cif
#   From: 2010.05.17/outbox.cif.g08.bks.cpg/sg2_265_cif.got.tgz:529608.got - 2010.06.03 11:33:40.
