data_PCOD9030239
_publ_section_title
;
Structure prediction by ZEFSAII (Michael W. Deem and Ramdas Pophale) SiO2 
 PCOD9030239
Probable space group: P -1
;
_chemical_formula_sum "Si O2"
_cell_formula_units_Z 11
_cell_length_a 8.584587
_cell_length_b 7.708576
_cell_length_c 11.875220
_cell_angle_alpha 82.710468
_cell_angle_beta 105.836283
_cell_angle_gamma 145.670623
_cell_volume 419.273417
_symmetry_space_group_name_H-M "P -1"
_symmetry_group_IT_number 2
_symmetry_cell_setting 'triclinic'
loop_
_space_group_symop_operation_xyz
x,y,z
-x,-y,-z
loop_
_atom_site_type_symbol
_atom_site_label
_atom_site_fract_x
_atom_site_fract_y
_atom_site_fract_z
Si Si1 0.195461 0.831719 0.892277
Si Si2 0.934495 0.214186 0.876947
Si Si3 0.213822 0.313629 0.582633
Si Si4 0.500000 0.500000 0.000000
Si Si5 0.671331 0.999511 0.598820
Si Si6 0.605789 0.431009 0.799744
O O1 0.116849 0.558883 0.899489
O O2 0.917794 0.671640 0.792534
O O3 0.474554 0.137021 0.852776
O O4 0.218818 0.937227 0.015189
O O5 0.715920 0.039730 0.741672
O O6 0.184954 0.295931 0.897711
O O7 0.475549 0.658497 0.554762
O O8 0.379171 0.320566 0.688510
O O9 0.000000 0.000000 0.500000
O O10 0.000505 0.266257 0.600929
O O11 0.362759 0.413561 0.101698
O O12 0.500000 0.000000 0.500000
#
# Coordination Sequence:
#
# PCOD9030239 Si02
#       6
#     2   2   2   1   2   2
#     4  10  25  42  71 104 143 187 223 298 359 437
#     4  10  24  45  72 107 147 185 242 287 370 420
#     4  12  28  49  73 105 144 194 247 298 362 423
#     4  10  22  42  70 102 140 178 232 292 354 420
#     4  12  28  48  76 106 144 193 244 302 352 434
#     4  11  24  43  71 102 140 186 234 295 359 424
#
# _framework density 26.235863999999999
#
# number of rings (size 3 to 8) (size 9 to 14) (size 15 to 20)
#    0.000    1.091    1.818    2.182    7.636    9.455 
#    0.000    0.000    0.000    0.000    0.000    0.000 
#    0.000    0.000    0.000    0.000    0.000    0.000 
#
# Total GULP energy -61349.457398 kJ/mol
# GULP energy per Si atom -5577.223400 kJ/mol
# Density = 2.617615 g / cm^3
# Si number density = 26.235864 Si / 1000 Ang^3
#
#
#
# Elastic Constant Matrix: (Units=GPa)
#
#
# Indices 1 2 3 4 5 6 
#
# 1 90.5089 32.7202 36.8645 10.7111 30.5553 17.5481
# 2 32.7202 110.6499 21.5757 12.7564 11.7668 7.5458
# 3 36.8645 21.5757 166.3264 37.4146 52.8809 2.0669
# 4 10.7111 12.7564 37.4146 40.5459 7.4335 4.6647
# 5 30.5553 11.7668 52.8809 7.4335 48.5435 15.9176
# 6 17.5481 7.5458 2.0669 4.6647 15.9176 46.2134
#
#
#
# Elastic Compliance Matrix: (Units=1/GPa)
#
#
# Indices 1 2 3 4 5 6 
#
# 1 0.015637 -0.003450 -0.000324 -0.001045 -0.007633 -0.002625
# 2 -0.003450 0.010332 -0.000154 -0.002217 0.000250 -0.000233
# 3 -0.000324 -0.000154 0.012528 -0.009525 -0.013672 0.005258
# 4 -0.001045 -0.002217 -0.009525 0.033519 0.008071 -0.004978
# 5 -0.007633 0.000250 -0.013672 0.008071 0.042986 -0.012152
# 6 -0.002625 -0.000233 0.005258 -0.004978 -0.012152 0.027127
#
#
# Mechanical properties :
#
#
# Convention : Reuss Voigt Hill
#
# Bulk Modulus (GPa) = 32.63353 61.08957 46.86155
# Shear Modulus (GPa) = 31.21125 45.48220 38.34673
#
# Velocity S-wave (km/s) = 3.45286 4.16816 3.82725
# Velocity P-wave (km/s) = 5.32558 6.81909 6.11808
#
# Compressibility (1/GPa) = 0.03064333
#
# Stress axis : x y z
#
# Youngs Moduli (GPa) = 63.95029 96.78279 79.82059
#
# Poissons Ratio (x) = 0.33387 0.02585
# Poissons Ratio (y) = 0.22061 0.01227
# Poissons Ratio (z) = 0.02071 0.01487
#
# Static dielectric constant tensor:
#      x y z
#    x 2.552170 -0.278130 0.198260 
#    y -0.278130 2.194800 -0.164370 
#    z 0.198260 -0.164370 2.137910 
# 
# From -- ./inp_files/103616.got.cif
#   From: 2010.05.17/outbox.cif.g08.bks.cpg/sg2_52_cif.got.tgz:103616.got - 2010.06.03 11:33:40.
