data_PCOD9030453
_publ_section_title
;
Structure prediction by ZEFSAII (Michael W. Deem and Ramdas Pophale) SiO2 
 PCOD9030453
Probable space group: P -1
;
_chemical_formula_sum "Si O2"
_cell_formula_units_Z 15
_cell_length_a 9.311015
_cell_length_b 11.997191
_cell_length_c 12.277578
_cell_angle_alpha 44.490077
_cell_angle_beta 132.443635
_cell_angle_gamma 129.997642
_cell_volume 673.850676
_symmetry_space_group_name_H-M "P -1"
_symmetry_group_IT_number 2
_symmetry_cell_setting 'triclinic'
loop_
_space_group_symop_operation_xyz
x,y,z
-x,-y,-z
loop_
_atom_site_type_symbol
_atom_site_label
_atom_site_fract_x
_atom_site_fract_y
_atom_site_fract_z
Si Si1 0.589974 0.149107 0.024859
Si Si2 0.590969 0.673729 0.358737
Si Si3 0.598022 0.785731 0.511369
Si Si4 0.156238 0.516670 0.469661
Si Si5 0.044543 0.324123 0.133819
Si Si6 0.528162 0.761139 0.874028
Si Si7 0.165573 0.422342 0.891674
Si Si8 0.500000 0.000000 0.500000
O O1 0.551287 0.301777 0.828787
O O2 0.829128 0.186150 0.140845
O O3 0.478386 0.137046 0.091242
O O4 0.500000 0.000000 0.000000
O O5 0.500000 0.500000 0.500000
O O6 0.611103 0.809019 0.370672
O O7 0.794068 0.651700 0.422531
O O8 0.372042 0.654566 0.511746
O O9 0.776486 0.705025 0.683293
O O10 0.610507 0.936467 0.494626
O O11 0.000000 0.500000 0.500000
O O12 0.043303 0.575122 0.272073
O O13 0.000000 0.500000 0.000000
O O14 0.112990 0.323857 0.045145
O O15 0.312734 0.611244 0.856211
O O16 0.561475 0.868833 0.706162
O O17 0.699710 0.668669 0.043256
#
# Coordination Sequence:
#
# PCOD9030453 Si02
#       8
#     2   2   2   2   2   2   2   1
#     4  12  26  47  69 110 147 187 235 298 366 435
#     4  10  22  42  71 100 139 187 239 295 350 426
#     4  11  24  44  67 102 140 192 231 285 367 430
#     4  11  22  39  68 106 137 176 242 303 343 410
#     4  12  22  44  77 102 140 188 245 296 352 418
#     4  11  25  44  73 101 145 184 246 295 353 435
#     4  11  23  43  73 106 130 188 251 294 346 420
#     4  12  24  48  66  98 150 194 220 304 368 432
#
# _framework density 22.260124999999999
#
# number of rings (size 3 to 8) (size 9 to 14) (size 15 to 20)
#    0.000    0.800    2.667    6.400    1.867    0.000 
#    7.200    2.667    0.000    0.000    0.000    0.000 
#    0.000    0.000    0.000    0.000    0.000    0.000 
#
# Total GULP energy -83578.292634 kJ/mol
# GULP energy per Si atom -5571.886176 kJ/mol
# Density = 2.220946 g / cm^3
# Si number density = 22.260125 Si / 1000 Ang^3
#
#
#
# Elastic Constant Matrix: (Units=GPa)
#
#
# Indices 1 2 3 4 5 6 
#
# 1 126.0612 33.6677 23.2988 13.5698 7.7603 -26.4475
# 2 33.6677 60.4854 6.8128 3.5743 22.1477 -19.0461
# 3 23.2988 6.8128 101.5506 20.3173 14.5090 0.7703
# 4 13.5698 3.5743 20.3173 31.8267 -0.9013 5.1353
# 5 7.7603 22.1477 14.5090 -0.9013 53.3755 9.6036
# 6 -26.4475 -19.0461 0.7703 5.1353 9.6036 42.4458
#
#
#
# Elastic Compliance Matrix: (Units=1/GPa)
#
#
# Indices 1 2 3 4 5 6 
#
# 1 0.010882 -0.003381 -0.001285 -0.004444 -0.000993 0.006049
# 2 -0.003381 0.028498 0.002004 -0.005817 -0.014613 0.014654
# 3 -0.001285 0.002004 0.012204 -0.007889 -0.004425 0.001833
# 4 -0.004444 -0.005817 -0.007889 0.041176 0.008066 -0.012042
# 5 -0.000993 -0.014613 -0.004425 0.008066 0.028912 -0.014613
# 6 0.006049 0.014654 0.001833 -0.012042 -0.014613 0.038634
#
#
# Mechanical properties :
#
#
# Convention : Reuss Voigt Hill
#
# Bulk Modulus (GPa) = 21.61645 46.18399 33.90022
# Shear Modulus (GPa) = 27.61669 40.48413 34.05041
#
# Velocity S-wave (km/s) = 3.52609 4.26923 3.91533
# Velocity P-wave (km/s) = 5.12929 6.71522 5.97511
#
# Compressibility (1/GPa) = 0.04626105
#
# Stress axis : x y z
#
# Youngs Moduli (GPa) = 91.89781 35.08959 81.93759
#
# Poissons Ratio (x) = 0.11865 0.10526
# Poissons Ratio (y) = 0.31075 -0.16423
# Poissons Ratio (z) = 0.11806 -0.07033
#
# Static dielectric constant tensor:
#      x y z
#    x 1.850960 -0.037750 -0.006540 
#    y -0.037750 1.894180 -0.031200 
#    z -0.006540 -0.031200 1.842620 
# 
# From -- ./inp_files/174063.got.cif
#   From: 2010.05.17/outbox.cif.g08.bks.cpg/sg2_88_cif.got.tgz:174063.got - 2010.06.03 11:33:40.
