data_PCOD9030073
_publ_section_title
;
Structure prediction by ZEFSAII (Michael W. Deem and Ramdas Pophale) SiO2 
 PCOD9030073
Probable space group: P -1
;
_chemical_formula_sum "Si O2"
_cell_formula_units_Z 16
_cell_length_a 24.234757
_cell_length_b 8.639469
_cell_length_c 9.452112
_cell_angle_alpha 129.675409
_cell_angle_beta 29.631688
_cell_angle_gamma 130.392222
_cell_volume 730.239662
_symmetry_space_group_name_H-M "P -1"
_symmetry_group_IT_number 2
_symmetry_cell_setting 'triclinic'
loop_
_space_group_symop_operation_xyz
x,y,z
-x,-y,-z
loop_
_atom_site_type_symbol
_atom_site_label
_atom_site_fract_x
_atom_site_fract_y
_atom_site_fract_z
Si Si1 0.752103 0.210096 0.353412
Si Si2 0.425680 0.415769 0.258127
Si Si3 0.415374 0.780745 0.024844
Si Si4 0.376561 0.853498 0.661821
Si Si5 0.283477 0.953536 0.204885
Si Si6 0.918588 0.602471 0.141085
Si Si7 0.972014 0.021866 0.739061
Si Si8 0.020064 0.710520 0.666898
O O1 0.698991 0.241216 0.638829
O O2 0.653819 0.097620 0.401676
O O3 0.800665 0.434240 0.306039
O O4 0.855973 0.099959 0.058001
O O5 0.376766 0.610316 0.530467
O O6 0.336731 0.191091 0.283384
O O7 0.500000 0.500000 0.000000
O O8 0.512711 0.374977 0.164198
O O9 0.367208 0.811225 0.995055
O O10 0.500000 0.000000 0.000000
O O11 0.500000 0.000000 0.500000
O O12 0.291374 0.926280 0.002881
O O13 0.151633 0.843667 0.473814
O O14 0.918851 0.809272 0.343923
O O15 0.000000 0.500000 0.000000
O O16 0.966741 0.657720 0.910127
O O17 0.000000 0.000000 0.500000
O O18 0.958545 0.839171 0.774257
O O19 0.000000 0.500000 0.500000
#
# Coordination Sequence:
#
# PCOD9030073 Si02
#       8
#     2   2   2   2   2   2   2   2
#     4  11  23  45  71  94 134 186 223 279 354 411
#     4  11  22  44  71 100 134 180 230 284 350 417
#     4  10  22  44  68  99 137 170 228 287 345 419
#     4  12  23  42  70 104 134 175 237 286 339 425
#     4  11  24  43  70  97 141 181 221 293 351 402
#     4  10  22  42  69  95 132 179 232 280 338 414
#     4  11  24  43  67 102 139 180 232 288 343 420
#     4  12  25  46  65 102 144 180 236 291 342 421
#
# _framework density 21.910615
#
# number of rings (size 3 to 8) (size 9 to 14) (size 15 to 20)
#    0.000    1.000    2.500    5.625    1.750    0.500 
#   13.500    0.000    0.000    0.000    0.000    0.000 
#    0.000    0.000    0.000    0.000    0.000    0.000 
#
# Total GULP energy -89262.994561 kJ/mol
# GULP energy per Si atom -5578.937160 kJ/mol
# Density = 2.186075 g / cm^3
# Si number density = 21.910615 Si / 1000 Ang^3
#
#
#
# Elastic Constant Matrix: (Units=GPa)
#
#
# Indices 1 2 3 4 5 6 
#
# 1 108.4890 45.1110 11.2927 12.5936 5.0890 -4.0535
# 2 45.1110 130.4793 46.9454 0.7468 -2.7081 2.7748
# 3 11.2927 46.9454 80.4696 -2.4254 12.7062 4.0226
# 4 12.5936 0.7468 -2.4254 43.7159 -6.5025 -2.5808
# 5 5.0890 -2.7081 12.7062 -6.5025 46.0572 -1.3955
# 6 -4.0535 2.7748 4.0226 -2.5808 -1.3955 40.7170
#
#
#
# Elastic Compliance Matrix: (Units=1/GPa)
#
#
# Indices 1 2 3 4 5 6 
#
# 1 0.011493 -0.004454 0.001196 -0.003452 -0.002318 0.001031
# 2 -0.004454 0.011651 -0.006615 0.001163 0.003154 -0.000402
# 3 0.001196 -0.006615 0.017012 -0.000149 -0.005275 -0.001301
# 4 -0.003452 0.001163 -0.000149 0.024511 0.003990 0.001282
# 5 -0.002318 0.003154 -0.005275 0.003990 0.024207 0.001158
# 6 0.001031 -0.000402 -0.001301 0.001282 0.001158 0.024939
#
#
# Mechanical properties :
#
#
# Convention : Reuss Voigt Hill
#
# Bulk Modulus (GPa) = 48.99600 58.45956 53.72778
# Shear Modulus (GPa) = 35.62171 40.50393 38.06282
#
# Velocity S-wave (km/s) = 4.03646 4.30420 4.17248
# Velocity P-wave (km/s) = 6.64337 7.17219 6.91284
#
# Compressibility (1/GPa) = 0.02040983
#
# Stress axis : x y z
#
# Youngs Moduli (GPa) = 87.00842 85.82611 58.78234
#
# Poissons Ratio (x) = 0.38228 -0.07031
# Poissons Ratio (y) = 0.38755 0.38886
# Poissons Ratio (z) = -0.10406 0.56776
#
# Static dielectric constant tensor:
#      x y z
#    x 2.736230 -1.031210 0.273450 
#    y -1.031210 2.754790 -0.386250 
#    z 0.273450 -0.386250 1.896000 
# 
# From -- ./inp_files/352380.got.cif
#   From: 2010.05.17/outbox.cif.g08.bks.cpg/sg2_177_cif.got.tgz:352380.got - 2010.06.03 11:33:40.
