data_PCOD9030739
_publ_section_title
;
Structure prediction by ZEFSAII (Michael W. Deem and Ramdas Pophale) SiO2 
 PCOD9030739
Probable space group: P -1
;
_chemical_formula_sum "Si O2"
_cell_formula_units_Z 10
_cell_length_a 13.385087
_cell_length_b 6.035674
_cell_length_c 15.567645
_cell_angle_alpha 63.608410
_cell_angle_beta 29.356665
_cell_angle_gamma 46.949923
_cell_volume 408.892738
_symmetry_space_group_name_H-M "P -1"
_symmetry_group_IT_number 2
_symmetry_cell_setting 'triclinic'
loop_
_space_group_symop_operation_xyz
x,y,z
-x,-y,-z
loop_
_atom_site_type_symbol
_atom_site_label
_atom_site_fract_x
_atom_site_fract_y
_atom_site_fract_z
Si Si1 0.469056 0.073387 0.296893
Si Si2 0.173429 0.782640 0.994440
Si Si3 0.995370 0.479581 0.291973
Si Si4 0.737818 0.032598 0.684755
Si Si5 0.630716 0.659161 0.399685
O O1 0.679001 0.098760 0.096929
O O2 0.251625 0.342784 0.484618
O O3 0.269527 0.115441 0.370911
O O4 0.663370 0.744180 0.266529
O O5 0.444018 0.405831 0.832061
O O6 0.028701 0.727371 0.183736
O O7 0.000000 0.000000 0.000000
O O8 0.905131 0.388214 0.294485
O O9 0.244557 0.162386 0.213235
O O10 0.000000 0.000000 0.500000
O O11 0.500000 0.500000 0.500000
O O12 0.500000 0.000000 0.500000
#
# Coordination Sequence:
#
# PCOD9030739 Si02
#       5
#     2   2   2   2   2
#     4  11  25  47  77 106 152 202 251 317 389 469
#     4  12  27  49  73 112 151 195 263 315 386 469
#     4  11  24  48  75 110 151 198 256 321 386 456
#     4  12  26  48  76 108 153 199 254 321 392 462
#     4  10  22  42  73 108 148 204 254 309 387 464
#
# _framework density 24.456292999999999
#
# number of rings (size 3 to 8) (size 9 to 14) (size 15 to 20)
#    0.000    0.800    4.000    2.400    2.800    1.600 
#   10.800    0.000    0.000    0.000    0.000    0.000 
#    0.000    0.000    0.000    0.000    0.000    0.000 
#
# Total GULP energy -55682.336346 kJ/mol
# GULP energy per Si atom -5568.233635 kJ/mol
# Density = 2.440063 g / cm^3
# Si number density = 24.456293 Si / 1000 Ang^3
#
#
#
# Elastic Constant Matrix: (Units=GPa)
#
#
# Indices 1 2 3 4 5 6 
#
# 1 190.2948 66.7444 37.7285 -21.3859 -23.8805 -31.0023
# 2 66.7444 114.0339 32.8531 -8.3502 8.9840 -34.7919
# 3 37.7285 32.8531 120.6415 -25.8716 -5.4806 2.5490
# 4 -21.3859 -8.3502 -25.8716 54.5770 0.6948 -9.0113
# 5 -23.8805 8.9840 -5.4806 0.6948 23.9334 -6.9469
# 6 -31.0023 -34.7919 2.5490 -9.0113 -6.9469 50.0203
#
#
#
# Elastic Compliance Matrix: (Units=1/GPa)
#
#
# Indices 1 2 3 4 5 6 
#
# 1 0.009967 -0.004816 -0.000548 0.003621 0.013067 0.005322
# 2 -0.004816 0.015232 -0.003177 0.000129 -0.009370 0.006494
# 3 -0.000548 -0.003177 0.010290 0.003806 0.002291 -0.002070
# 4 0.003621 0.000129 0.003806 0.022652 0.005819 0.007029
# 5 0.013067 -0.009370 0.002291 0.005819 0.061919 0.011113
# 6 0.005322 0.006494 -0.002070 0.007029 0.011113 0.030723
#
#
# Mechanical properties :
#
#
# Convention : Reuss Voigt Hill
#
# Bulk Modulus (GPa) = 54.32782 77.73579 66.03181
# Shear Modulus (GPa) = 28.73560 44.88243 36.80901
#
# Velocity S-wave (km/s) = 3.43151 4.28858 3.88376
# Velocity P-wave (km/s) = 6.16140 7.50847 6.86804
#
# Compressibility (1/GPa) = 0.01840677
#
# Stress axis : x y z
#
# Youngs Moduli (GPa) = 100.33412 65.64928 97.18644
#
# Poissons Ratio (x) = 0.31618 0.05322
# Poissons Ratio (y) = 0.48322 0.30878
# Poissons Ratio (z) = 0.05494 0.20858
#
# Static dielectric constant tensor:
#      x y z
#    x 1.963170 0.064980 -0.032560 
#    y 0.064980 2.308570 0.054870 
#    z -0.032560 0.054870 1.999900 
# 
# From -- ./inp_files/60587.got.cif
#   From: 2010.05.17/outbox.cif.g08.bks.cpg/sg2_31_cif.got.tgz:60587.got - 2010.06.03 11:33:40.
