data_PCOD9030023
_publ_section_title
;
Structure prediction by ZEFSAII (Michael W. Deem and Ramdas Pophale) SiO2 
 PCOD9030023
Probable space group: P -1
;
_chemical_formula_sum "Si O2"
_cell_formula_units_Z 14
_cell_length_a 18.581573
_cell_length_b 8.839155
_cell_length_c 12.354231
_cell_angle_alpha 73.667046
_cell_angle_beta 42.297110
_cell_angle_gamma 40.387164
_cell_volume 674.579482
_symmetry_space_group_name_H-M "P -1"
_symmetry_group_IT_number 2
_symmetry_cell_setting 'triclinic'
loop_
_space_group_symop_operation_xyz
x,y,z
-x,-y,-z
loop_
_atom_site_type_symbol
_atom_site_label
_atom_site_fract_x
_atom_site_fract_y
_atom_site_fract_z
Si Si1 0.431027 0.935324 0.882642
Si Si2 0.273964 0.976594 0.242878
Si Si3 0.916062 0.076634 0.959013
Si Si4 0.348272 0.364837 0.987955
Si Si5 0.896538 0.744029 0.979029
Si Si6 0.044694 0.001722 0.607796
Si Si7 0.093185 0.590787 0.569829
O O1 0.665010 0.694780 0.658254
O O2 0.323104 0.219151 0.005907
O O3 0.395864 0.829597 0.021651
O O4 0.321114 0.041935 0.869819
O O5 0.226083 0.874775 0.379033
O O6 0.043062 0.317151 0.390849
O O7 0.422013 0.892795 0.171408
O O8 0.716427 0.435459 0.077533
O O9 0.077710 0.924290 0.714635
O O10 0.000000 0.000000 0.000000
O O11 0.872029 0.949243 0.013429
O O12 0.175910 0.627345 0.217528
O O13 0.039307 0.576954 0.746175
O O14 0.000000 0.500000 0.000000
O O15 0.013938 0.872191 0.612143
#
# Coordination Sequence:
#
# PCOD9030023 Si02
#       7
#     2   2   2   2   2   2   2
#     4  11  24  39  63  95 130 160 207 253 309 364
#     4  11  22  38  64  91 129 166 209 241 320 361
#     4   9  20  43  64  87 123 157 207 258 304 358
#     4  10  23  39  61  91 126 167 201 258 302 366
#     4  10  22  42  69  89 122 167 205 255 312 367
#     4   9  22  38  61  90 123 163 205 255 305 365
#     4  10  23  39  61  97 126 160 205 260 303 370
#
# _framework density 20.753671000000001
#
# number of rings (size 3 to 8) (size 9 to 14) (size 15 to 20)
#    0.857    1.143    0.000    2.571    2.000    5.143 
#    0.000    0.714    0.000    0.000    0.000    0.000 
#    0.000    0.000    0.000    0.000    0.000    0.000 
#
# Total GULP energy -78055.802102 kJ/mol
# GULP energy per Si atom -5575.414436 kJ/mol
# Density = 2.070643 g / cm^3
# Si number density = 20.753671 Si / 1000 Ang^3
#
#
#
# Elastic Constant Matrix: (Units=GPa)
#
#
# Indices 1 2 3 4 5 6 
#
# 1 152.5149 71.4077 40.8539 -0.8463 -18.8154 -22.5027
# 2 71.4077 111.4653 47.6862 -16.6061 -3.1213 -14.9169
# 3 40.8539 47.6862 85.9575 2.3354 -23.2285 -3.1402
# 4 -0.8463 -16.6061 2.3354 33.6502 0.6048 4.1327
# 5 -18.8154 -3.1213 -23.2285 0.6048 26.7187 4.9078
# 6 -22.5027 -14.9169 -3.1402 4.1327 4.9078 45.6144
#
#
#
# Elastic Compliance Matrix: (Units=1/GPa)
#
#
# Indices 1 2 3 4 5 6 
#
# 1 0.011139 -0.007721 0.001264 -0.004075 0.007655 0.002603
# 2 -0.007721 0.020420 -0.011595 0.010617 -0.013849 0.002599
# 3 0.001264 -0.011595 0.023034 -0.007272 0.020296 -0.003108
# 4 -0.004075 0.010617 -0.007272 0.035679 -0.008510 -0.001356
# 5 0.007655 -0.013849 0.020296 -0.008510 0.059962 -0.005036
# 6 0.002603 0.002599 -0.003108 -0.001356 -0.005036 0.024508
#
#
# Mechanical properties :
#
#
# Convention : Reuss Voigt Hill
#
# Bulk Modulus (GPa) = 54.08698 74.42593 64.25646
# Shear Modulus (GPa) = 23.04068 33.86265 28.45167
#
# Velocity S-wave (km/s) = 3.33558 4.04375 3.70661
# Velocity P-wave (km/s) = 6.39943 7.59881 7.02477
#
# Compressibility (1/GPa) = 0.01848874
#
# Stress axis : x y z
#
# Youngs Moduli (GPa) = 89.77479 48.97250 43.41403
#
# Poissons Ratio (x) = 0.37811 -0.05485
# Poissons Ratio (y) = 0.69314 0.50337
# Poissons Ratio (z) = -0.11343 0.56781
#
# Static dielectric constant tensor:
#      x y z
#    x 1.726440 0.008210 0.022760 
#    y 0.008210 1.777200 -0.001270 
#    z 0.022760 -0.001270 1.771410 
# 
# From -- ./inp_files/460478.got.cif
#   From: 2010.05.17/outbox.cif.g08.bks.cpg/sg2_231_cif.got.tgz:460478.got - 2010.06.03 11:33:40.
