data_PCOD9030787
_publ_section_title
;
Structure prediction by ZEFSAII (Michael W. Deem and Ramdas Pophale) SiO2 
 PCOD9030787
Probable space group: P -1
;
_chemical_formula_sum "Si O2"
_cell_formula_units_Z 14
_cell_length_a 13.573154
_cell_length_b 6.406845
_cell_length_c 20.797947
_cell_angle_alpha 90.216933
_cell_angle_beta 154.516824
_cell_angle_gamma 74.220366
_cell_volume 607.989199
_symmetry_space_group_name_H-M "P -1"
_symmetry_group_IT_number 2
_symmetry_cell_setting 'triclinic'
loop_
_space_group_symop_operation_xyz
x,y,z
-x,-y,-z
loop_
_atom_site_type_symbol
_atom_site_label
_atom_site_fract_x
_atom_site_fract_y
_atom_site_fract_z
Si Si1 0.833011 0.342935 0.020684
Si Si2 0.500000 0.500000 0.500000
Si Si3 0.749950 0.246520 0.784199
Si Si4 0.799316 0.928600 0.202977
Si Si5 0.151594 0.059280 0.331408
Si Si6 0.799263 0.681594 0.516400
Si Si7 0.168476 0.783589 0.655148
Si Si8 0.000000 0.500000 0.000000
O O1 0.956788 0.295474 0.166200
O O2 0.483462 0.528411 0.816737
O O3 0.937128 0.477278 0.039409
O O4 0.982171 0.043396 0.084406
O O5 0.586620 0.441100 0.627453
O O6 0.433126 0.792734 0.465533
O O7 0.526046 0.214879 0.687413
O O8 0.840111 0.374326 0.885628
O O9 0.002987 0.625280 0.346595
O O10 0.770862 0.103044 0.246655
O O11 0.961211 0.963123 0.241301
O O12 0.500000 0.000000 0.000000
O O13 0.217254 0.151016 0.433453
O O14 0.958818 0.715554 0.554204
O O15 0.000000 0.000000 0.500000
#
# Coordination Sequence:
#
# PCOD9030787 Si02
#       8
#     2   1   2   2   2   2   2   1
#     4  11  27  47  73 106 149 198 242 301 375 437
#     4  10  22  42  74 106 142 186 240 292 364 430
#     4  11  27  48  75 109 146 196 243 308 368 436
#     4  11  23  45  74 109 146 189 240 307 368 431
#     4  10  23  44  72 111 146 184 243 305 362 430
#     4  11  25  46  80 109 146 193 250 304 366 436
#     4  11  28  49  74 106 148 197 249 301 363 443
#     4  12  30  48  72 104 160 190 246 302 376 432
#
# _framework density 23.026724000000002
#
# number of rings (size 3 to 8) (size 9 to 14) (size 15 to 20)
#    0.000    1.143    1.429    2.143    8.000    7.429 
#    2.571    0.000    0.000    0.000    0.000    0.000 
#    0.000    0.000    0.000    0.000    0.000    0.000 
#
# Total GULP energy -77936.520199 kJ/mol
# GULP energy per Si atom -5566.894300 kJ/mol
# Density = 2.297431 g / cm^3
# Si number density = 23.026724 Si / 1000 Ang^3
#
#
#
# Elastic Constant Matrix: (Units=GPa)
#
#
# Indices 1 2 3 4 5 6 
#
# 1 98.6753 24.2954 44.6786 4.8321 -10.8999 38.5048
# 2 24.2954 81.9552 51.9700 15.2591 21.4933 3.1711
# 3 44.6786 51.9700 135.9037 8.0290 9.0114 3.7860
# 4 4.8321 15.2591 8.0290 51.7793 3.3663 0.7808
# 5 -10.8999 21.4933 9.0114 3.3663 22.3343 -4.2483
# 6 38.5048 3.1711 3.7860 0.7808 -4.2483 33.0893
#
#
#
# Elastic Compliance Matrix: (Units=1/GPa)
#
#
# Indices 1 2 3 4 5 6 
#
# 1 0.028849 -0.008027 -0.006844 -0.000051 0.018945 -0.029585
# 2 -0.008027 0.024785 -0.005109 -0.004258 -0.024202 0.004543
# 3 -0.006844 -0.005109 0.011466 0.000379 -0.001793 0.006902
# 4 -0.000051 -0.004258 0.000379 0.020458 0.000846 0.000050
# 5 0.018945 -0.024202 -0.001793 0.000846 0.076047 -0.009778
# 6 -0.029585 0.004543 0.006902 0.000050 -0.009778 0.062166
#
#
# Mechanical properties :
#
#
# Convention : Reuss Voigt Hill
#
# Bulk Modulus (GPa) = 39.77609 62.04692 50.91151
# Shear Modulus (GPa) = 18.37479 34.47993 26.42736
#
# Velocity S-wave (km/s) = 2.82791 3.87381 3.39142
# Velocity P-wave (km/s) = 5.28906 6.85658 6.12319
#
# Compressibility (1/GPa) = 0.02514073
#
# Stress axis : x y z
#
# Youngs Moduli (GPa) = 34.66318 40.34626 87.21303
#
# Poissons Ratio (x) = 0.32385 0.59687
# Poissons Ratio (y) = 0.27823 0.44561
# Poissons Ratio (z) = 0.23723 0.20615
#
# Static dielectric constant tensor:
#      x y z
#    x 2.079550 -0.014930 0.367030 
#    y -0.014930 1.861720 0.007300 
#    z 0.367030 0.007300 2.435860 
# 
# From -- ./inp_files/611279.got.cif
#   From: 2010.05.17/outbox.cif.g08.bks.cpg/sg2_306_cif.got.tgz:611279.got - 2010.06.03 11:33:40.
