data_PCOD9030729
_publ_section_title
;
Structure prediction by ZEFSAII (Michael W. Deem and Ramdas Pophale) SiO2 
 PCOD9030729
Probable space group: P -1
;
_chemical_formula_sum "Si O2"
_cell_formula_units_Z 12
_cell_length_a 9.701309
_cell_length_b 9.251655
_cell_length_c 12.787184
_cell_angle_alpha 80.639911
_cell_angle_beta 36.649844
_cell_angle_gamma 59.689455
_cell_volume 521.997377
_symmetry_space_group_name_H-M "P -1"
_symmetry_group_IT_number 2
_symmetry_cell_setting 'triclinic'
loop_
_space_group_symop_operation_xyz
x,y,z
-x,-y,-z
loop_
_atom_site_type_symbol
_atom_site_label
_atom_site_fract_x
_atom_site_fract_y
_atom_site_fract_z
Si Si1 0.714181 0.226590 0.844421
Si Si2 0.287549 0.186801 0.035797
Si Si3 0.243277 0.292031 0.826456
Si Si4 0.157263 0.793524 0.574024
Si Si5 0.858057 0.191372 0.001320
Si Si6 0.785937 0.448605 0.621810
O O1 0.768182 0.364675 0.750179
O O2 0.380733 0.309608 0.005292
O O3 0.773754 0.185117 0.935019
O O4 0.942980 0.022040 0.673056
O O5 0.959339 0.258416 0.252121
O O6 0.359772 0.155902 0.873524
O O7 0.500000 0.000000 0.000000
O O8 0.509593 0.277343 0.616185
O O9 0.000000 0.500000 0.000000
O O10 0.084681 0.236690 0.857697
O O11 0.119622 0.703786 0.507362
O O12 0.548750 0.364302 0.222731
O O13 0.000000 0.000000 0.000000
O O14 0.000000 0.500000 0.500000
#
# Coordination Sequence:
#
# PCOD9030729 Si02
#       6
#     2   2   2   2   2   2
#     4  11  24  48  76 105 146 191 247 303 357 437
#     4  10  22  42  73 105 136 183 241 292 354 431
#     4  12  25  47  70 103 152 188 236 302 363 431
#     4  11  24  45  77 106 138 194 244 291 367 429
#     4  12  27  48  70 108 154 188 236 311 368 422
#     4  12  26  46  75 108 144 194 251 298 358 440
#
# _framework density 22.988620000000001
#
# number of rings (size 3 to 8) (size 9 to 14) (size 15 to 20)
#    0.000    0.667    3.333    4.000    4.667    2.667 
#    6.000    0.000    0.000    0.000    0.000    0.000 
#    0.000    0.000    0.000    0.000    0.000    0.000 
#
# Total GULP energy -67163.140114 kJ/mol
# GULP energy per Si atom -5596.928343 kJ/mol
# Density = 2.293630 g / cm^3
# Si number density = 22.988620 Si / 1000 Ang^3
#
#
#
# Elastic Constant Matrix: (Units=GPa)
#
#
# Indices 1 2 3 4 5 6 
#
# 1 101.4810 22.5859 29.6004 -10.2249 -14.0824 23.7383
# 2 22.5859 122.2881 44.0108 -3.4297 -14.2325 5.4037
# 3 29.6004 44.0108 123.7628 -20.3327 -36.9034 21.1094
# 4 -10.2249 -3.4297 -20.3327 51.0803 16.7164 -9.9682
# 5 -14.0824 -14.2325 -36.9034 16.7164 48.8831 -15.0810
# 6 23.7383 5.4037 21.1094 -9.9682 -15.0810 44.7956
#
#
#
# Elastic Compliance Matrix: (Units=1/GPa)
#
#
# Indices 1 2 3 4 5 6 
#
# 1 0.011883 -0.001471 -0.001245 0.000688 0.000178 -0.005320
# 2 -0.001471 0.009605 -0.003229 -0.000908 0.000597 0.001142
# 3 -0.001245 -0.003229 0.012146 0.001802 0.006624 -0.002043
# 4 0.000688 -0.000908 0.001802 0.022670 -0.005850 0.001971
# 5 0.000178 0.000597 0.006624 -0.005850 0.029312 0.005278
# 6 -0.005320 0.001142 -0.002043 0.001971 0.005278 0.028183
#
#
# Mechanical properties :
#
#
# Convention : Reuss Voigt Hill
#
# Bulk Modulus (GPa) = 45.99482 59.99179 52.99330
# Shear Modulus (GPa) = 37.61121 45.70745 41.65933
#
# Velocity S-wave (km/s) = 4.04924 4.46383 4.26158
# Velocity P-wave (km/s) = 6.47401 7.26090 6.87872
#
# Compressibility (1/GPa) = 0.02174158
#
# Stress axis : x y z
#
# Youngs Moduli (GPa) = 84.15210 104.11180 82.33291
#
# Poissons Ratio (x) = 0.15320 0.10253
# Poissons Ratio (y) = 0.12383 0.26589
# Poissons Ratio (z) = 0.10480 0.33623
#
# Static dielectric constant tensor:
#      x y z
#    x 1.853930 -0.002010 -0.016490 
#    y -0.002010 1.904770 0.010930 
#    z -0.016490 0.010930 1.900770 
# 
# From -- ./inp_files/156299.got.cif
#   From: 2010.05.17/outbox.cif.g08.bks.cpg/sg2_79_cif.got.tgz:156299.got - 2010.06.03 11:33:40.
