data_PCOD9030502
_publ_section_title
;
Structure prediction by ZEFSAII (Michael W. Deem and Ramdas Pophale) SiO2 
 PCOD9030502
Probable space group: P -1
;
_chemical_formula_sum "Si O2"
_cell_formula_units_Z 16
_cell_length_a 23.619694
_cell_length_b 12.415908
_cell_length_c 15.499942
_cell_angle_alpha 30.290844
_cell_angle_beta 161.712566
_cell_angle_gamma 155.656130
_cell_volume 587.897415
_symmetry_space_group_name_H-M "P -1"
_symmetry_group_IT_number 2
_symmetry_cell_setting 'triclinic'
loop_
_space_group_symop_operation_xyz
x,y,z
-x,-y,-z
loop_
_atom_site_type_symbol
_atom_site_label
_atom_site_fract_x
_atom_site_fract_y
_atom_site_fract_z
Si Si1 0.935231 0.900468 0.878495
Si Si2 0.023038 0.654363 0.041470
Si Si3 0.520741 0.536356 0.124268
Si Si4 0.296354 0.282207 0.557938
Si Si5 0.446812 0.031184 0.304286
Si Si6 0.310508 0.892755 0.032322
Si Si7 0.671818 0.342192 0.949134
Si Si8 0.000336 0.250352 0.570966
O O1 0.097278 0.843910 0.100665
O O2 0.730560 0.604463 0.806011
O O3 0.926237 0.092739 0.665208
O O4 0.000000 0.000000 0.000000
O O5 0.182880 0.807182 0.088029
O O6 0.792609 0.602717 0.715731
O O7 0.941856 0.365853 0.148503
O O8 0.598897 0.531640 0.337498
O O9 0.528255 0.332867 0.216087
O O10 0.677765 0.844992 0.123177
O O11 0.264616 0.435679 0.827002
O O12 0.480361 0.260988 0.794844
O O13 0.086345 0.979134 0.467623
O O14 0.500000 0.000000 0.500000
O O15 0.482485 0.952725 0.317112
O O16 0.390501 0.860648 0.078219
O O17 0.877367 0.382223 0.272898
#
# Coordination Sequence:
#
# PCOD9030502 Si02
#       8
#     2   2   2   2   2   2   2   2
#     4  10  22  42  71 109 145 200 249 303 371 454
#     4  10  24  50  72 105 152 198 249 314 388 434
#     4  12  25  47  75 114 146 194 254 312 385 442
#     4  11  23  48  74 105 156 195 245 315 379 452
#     4  12  26  51  76 108 148 194 258 314 378 454
#     4  11  26  46  75 108 146 200 254 308 375 463
#     4  11  25  47  72 112 153 206 251 303 389 449
#     4  11  24  47  70 109 159 195 247 314 377 447
#
# _framework density 27.215634000000001
#
# number of rings (size 3 to 8) (size 9 to 14) (size 15 to 20)
#    0.000    1.000    3.750    2.625    0.000    8.500 
#   11.250    3.125    0.000    0.000    0.000    0.000 
#    0.000    0.000    0.000    0.000    0.000    0.000 
#
# Total GULP energy -89393.840248 kJ/mol
# GULP energy per Si atom -5587.115016 kJ/mol
# Density = 2.715369 g / cm^3
# Si number density = 27.215634 Si / 1000 Ang^3
#
#
#
# Elastic Constant Matrix: (Units=GPa)
#
#
# Indices 1 2 3 4 5 6 
#
# 1 124.4488 34.3183 31.8168 12.7527 -41.3773 -23.2369
# 2 34.3183 149.9312 19.8669 3.3017 -10.0692 -6.7738
# 3 31.8168 19.8669 116.5425 5.4848 -28.7742 1.8834
# 4 12.7527 3.3017 5.4848 28.4840 -0.3801 -9.4879
# 5 -41.3773 -10.0692 -28.7742 -0.3801 42.1985 10.4207
# 6 -23.2369 -6.7738 1.8834 -9.4879 10.4207 49.1024
#
#
#
# Elastic Compliance Matrix: (Units=1/GPa)
#
#
# Indices 1 2 3 4 5 6 
#
# 1 0.013657 -0.002060 -0.000226 -0.004768 0.012033 0.002712
# 2 -0.002060 0.007205 -0.000942 0.000370 -0.001025 0.000344
# 3 -0.000226 -0.000942 0.010858 -0.002710 0.007623 -0.002795
# 4 -0.004768 0.000370 -0.002710 0.040051 -0.007879 0.007309
# 5 0.012033 -0.001025 0.007623 -0.007879 0.041638 -0.005098
# 6 0.002712 0.000344 -0.002795 0.007309 -0.005098 0.024298
#
#
# Mechanical properties :
#
#
# Convention : Reuss Voigt Hill
#
# Bulk Modulus (GPa) = 39.58234 62.54742 51.06488
# Shear Modulus (GPa) = 32.76896 44.28502 38.52699
#
# Velocity S-wave (km/s) = 3.47371 4.03822 3.76655
# Velocity P-wave (km/s) = 5.53754 6.69141 6.14164
#
# Compressibility (1/GPa) = 0.02526379
#
# Stress axis : x y z
#
# Youngs Moduli (GPa) = 73.22128 138.79837 92.10174
#
# Poissons Ratio (x) = 0.28599 0.02079
# Poissons Ratio (y) = 0.15087 0.08673
# Poissons Ratio (z) = 0.01653 0.13070
#
# Static dielectric constant tensor:
#      x y z
#    x 2.182230 0.104240 -0.013700 
#    y 0.104240 2.328050 -0.030320 
#    z -0.013700 -0.030320 2.289940 
# 
# From -- ./inp_files/580145.got.cif
#   From: 2010.05.17/outbox.cif.g08.bks.cpg/sg2_291_cif.got.tgz:580145.got - 2010.06.03 11:33:40.
