data_PCOD9030709
_publ_section_title
;
Structure prediction by ZEFSAII (Michael W. Deem and Ramdas Pophale) SiO2 
 PCOD9030709
Probable space group: P -1
;
_chemical_formula_sum "Si O2"
_cell_formula_units_Z 14
_cell_length_a 7.978754
_cell_length_b 10.192799
_cell_length_c 7.397413
_cell_angle_alpha 88.558097
_cell_angle_beta 106.839518
_cell_angle_gamma 94.605999
_cell_volume 573.943393
_symmetry_space_group_name_H-M "P -1"
_symmetry_group_IT_number 2
_symmetry_cell_setting 'triclinic'
loop_
_space_group_symop_operation_xyz
x,y,z
-x,-y,-z
loop_
_atom_site_type_symbol
_atom_site_label
_atom_site_fract_x
_atom_site_fract_y
_atom_site_fract_z
Si Si1 0.393421 0.627307 0.474245
Si Si2 0.670984 0.601641 0.031162
Si Si3 0.559809 0.824684 0.255574
Si Si4 0.815649 0.001317 0.540231
Si Si5 0.125442 0.236841 0.183298
Si Si6 0.810572 0.220223 0.816095
Si Si7 0.886707 0.417541 0.320752
O O1 0.500000 0.500000 0.500000
O O2 0.524259 0.745636 0.436170
O O3 0.242117 0.635994 0.269514
O O4 0.292661 0.634656 0.631158
O O5 0.651403 0.724973 0.156848
O O6 0.828288 0.516105 0.145697
O O7 0.500000 0.500000 0.000000
O O8 0.716756 0.667250 0.850669
O O9 0.669201 0.956363 0.347148
O O10 0.361190 0.837694 0.123653
O O11 0.815129 0.895039 0.705654
O O12 0.805460 0.138946 0.631395
O O13 0.000000 0.000000 0.500000
O O14 0.006225 0.308607 0.286569
O O15 0.989734 0.209677 0.975361
O O16 0.000000 0.500000 0.500000
#
# Coordination Sequence:
#
# PCOD9030709 Si02
#       7
#     2   2   2   2   2   2   2
#     4  10  22  42  73 100 142 176 234 276 347 415
#     4  12  26  42  67 102 147 181 221 284 355 415
#     4  10  24  44  71 100 136 180 238 276 344 412
#     4  12  25  47  74  97 136 188 242 286 340 410
#     4  12  27  44  67 105 142 182 232 291 351 407
#     4  10  23  46  69 102 138 180 233 291 342 402
#     4  12  24  39  66  97 140 184 223 275 342 417
#
# _framework density 24.39265
#
# number of rings (size 3 to 8) (size 9 to 14) (size 15 to 20)
#    0.857    0.000    1.429    5.571    4.000    0.000 
#    0.000    1.429    0.000    0.000    0.000    0.000 
#    0.000    0.000    0.000    0.000    0.000    0.000 
#
# Total GULP energy -78304.496770 kJ/mol
# GULP energy per Si atom -5593.178341 kJ/mol
# Density = 2.433713 g / cm^3
# Si number density = 24.392650 Si / 1000 Ang^3
#
#
#
# Elastic Constant Matrix: (Units=GPa)
#
#
# Indices 1 2 3 4 5 6 
#
# 1 99.0586 27.2155 17.3641 1.9992 -13.7042 10.6050
# 2 27.2155 70.2576 31.9224 13.9112 -1.9436 -6.2546
# 3 17.3641 31.9224 75.7700 0.1878 -6.7155 3.9051
# 4 1.9992 13.9112 0.1878 50.0681 -2.2461 -3.2441
# 5 -13.7042 -1.9436 -6.7155 -2.2461 56.3415 3.7675
# 6 10.6050 -6.2546 3.9051 -3.2441 3.7675 41.6816
#
#
#
# Elastic Compliance Matrix: (Units=1/GPa)
#
#
# Indices 1 2 3 4 5 6 
#
# 1 0.012404 -0.005167 -0.000178 0.000813 0.003127 -0.004134
# 2 -0.005167 0.021489 -0.008300 -0.005497 -0.002063 0.005076
# 3 -0.000178 -0.008300 0.017050 0.002156 0.001976 -0.002809
# 4 0.000813 -0.005497 0.002156 0.021531 0.001101 0.000342
# 5 0.003127 -0.002063 0.001976 0.001101 0.018913 -0.002914
# 6 -0.004134 0.005076 -0.002809 0.000342 -0.002914 0.026358
#
#
# Mechanical properties :
#
#
# Convention : Reuss Voigt Hill
#
# Bulk Modulus (GPa) = 42.27612 44.23224 43.25418
# Shear Modulus (GPa) = 32.69678 40.85719 36.77698
#
# Velocity S-wave (km/s) = 3.66517 4.09709 3.88713
# Velocity P-wave (km/s) = 5.93973 6.36823 6.15771
#
# Compressibility (1/GPa) = 0.02365402
#
# Stress axis : x y z
#
# Youngs Moduli (GPa) = 80.61615 46.53461 58.65053
#
# Poissons Ratio (x) = 0.24044 0.01042
# Poissons Ratio (y) = 0.41654 0.48682
# Poissons Ratio (z) = 0.01433 0.38625
#
# Static dielectric constant tensor:
#      x y z
#    x 2.024600 0.025610 0.002920 
#    y 0.025610 1.968020 0.001540 
#    z 0.002920 0.001540 1.978520 
# 
# From -- ./inp_files/158683.got.cif
#   From: 2010.05.17/outbox.cif.g08.bks.cpg/sg2_80_cif.got.tgz:158683.got - 2010.06.03 11:33:40.
