data_PCOD9030381
_publ_section_title
;
Structure prediction by ZEFSAII (Michael W. Deem and Ramdas Pophale) SiO2 
 PCOD9030381
Probable space group: P -1
;
_chemical_formula_sum "Si O2"
_cell_formula_units_Z 16
_cell_length_a 7.760156
_cell_length_b 9.699592
_cell_length_c 15.920804
_cell_angle_alpha 142.446321
_cell_angle_beta 74.684660
_cell_angle_gamma 101.806720
_cell_volume 704.445889
_symmetry_space_group_name_H-M "P -1"
_symmetry_group_IT_number 2
_symmetry_cell_setting 'triclinic'
loop_
_space_group_symop_operation_xyz
x,y,z
-x,-y,-z
loop_
_atom_site_type_symbol
_atom_site_label
_atom_site_fract_x
_atom_site_fract_y
_atom_site_fract_z
Si Si1 0.399877 0.096331 0.979364
Si Si2 0.894847 0.528342 0.757308
Si Si3 0.233272 0.930610 0.529657
Si Si4 0.905174 0.543510 0.944891
Si Si5 0.776055 0.948678 0.241123
Si Si6 0.386354 0.203353 0.496194
Si Si7 0.590496 0.183377 0.820589
Si Si8 0.764248 0.313400 0.291697
O O1 0.275546 0.309495 0.123824
O O2 0.529749 0.155046 0.911637
O O3 0.500000 0.000000 0.000000
O O4 0.287604 0.881667 0.860121
O O5 0.838899 0.286889 0.612840
O O6 0.991086 0.507988 0.825882
O O7 0.029843 0.629932 0.721765
O O8 0.419546 0.853574 0.514662
O O9 0.128078 0.027579 0.670871
O O10 0.260418 0.119214 0.547166
O O11 0.729203 0.384229 0.888235
O O12 0.876888 0.813157 0.089800
O O13 0.000000 0.500000 0.000000
O O14 0.597927 0.793019 0.194660
O O15 0.732804 0.195606 0.328657
O O16 0.351266 0.461662 0.601397
O O17 0.343722 0.046796 0.344790
#
# Coordination Sequence:
#
# PCOD9030381 Si02
#       8
#     2   2   2   2   2   2   2   2
#     4  11  25  41  70  97 129 180 224 271 331 398
#     4  12  25  44  66  99 140 170 221 279 331 398
#     4  10  23  42  69 100 127 171 236 274 324 389
#     4  12  26  41  67 100 133 178 219 277 338 387
#     4  10  24  44  68  96 133 179 218 278 327 402
#     4  10  22  42  70  97 131 175 224 278 329 395
#     4  10  22  44  69  94 131 170 230 275 319 390
#     4  11  25  42  64  96 144 177 210 270 345 398
#
# _framework density 22.712888
#
# number of rings (size 3 to 8) (size 9 to 14) (size 15 to 20)
#    0.000    1.250    3.750    1.500    3.500    7.500 
#    0.000    0.000    0.000    0.000    0.000    0.000 
#    0.000    0.000    0.000    0.000    0.000    0.000 
#
# Total GULP energy -89292.258057 kJ/mol
# GULP energy per Si atom -5580.766129 kJ/mol
# Density = 2.266119 g / cm^3
# Si number density = 22.712888 Si / 1000 Ang^3
#
#
#
# Elastic Constant Matrix: (Units=GPa)
#
#
# Indices 1 2 3 4 5 6 
#
# 1 28.1884 24.4500 18.9375 -5.1705 -3.8198 -14.5259
# 2 24.4500 90.8831 31.3973 9.7378 -0.4815 -6.7759
# 3 18.9375 31.3973 132.5505 -1.5643 12.0522 -8.7637
# 4 -5.1705 9.7378 -1.5643 40.4454 -6.7803 0.0489
# 5 -3.8198 -0.4815 12.0522 -6.7803 23.3573 -2.9115
# 6 -14.5259 -6.7759 -8.7637 0.0489 -2.9115 30.9214
#
#
#
# Elastic Compliance Matrix: (Units=1/GPa)
#
#
# Indices 1 2 3 4 5 6 
#
# 1 0.081407 -0.018779 -0.007073 0.019041 0.026413 0.034580
# 2 -0.018779 0.016832 -0.001339 -0.007319 -0.004901 -0.005963
# 3 -0.007073 -0.001339 0.009351 -0.001323 -0.006591 -0.001584
# 4 0.019041 -0.007319 -0.001323 0.031159 0.013714 0.008208
# 5 0.026413 -0.004901 -0.006591 0.013714 0.056251 0.014741
# 6 0.034580 -0.005963 -0.001584 0.008208 0.014741 0.048204
#
#
# Mechanical properties :
#
#
# Convention : Reuss Voigt Hill
#
# Bulk Modulus (GPa) = 18.79445 44.57686 31.68565
# Shear Modulus (GPa) = 15.85683 30.73397 23.29540
#
# Velocity S-wave (km/s) = 2.64510 3.68251 3.20605
# Velocity P-wave (km/s) = 4.19780 6.14411 5.26173
#
# Compressibility (1/GPa) = 0.05320720
#
# Stress axis : x y z
#
# Youngs Moduli (GPa) = 12.28390 59.41222 106.94195
#
# Poissons Ratio (x) = 1.11573 0.75640
# Poissons Ratio (y) = 0.23068 0.14318
# Poissons Ratio (z) = 0.08688 0.07954
#
# Static dielectric constant tensor:
#      x y z
#    x 1.984340 -0.021580 -0.101920 
#    y -0.021580 1.864810 -0.027010 
#    z -0.101920 -0.027010 1.888400 
# 
# From -- ./inp_files/205538.got.cif
#   From: 2010.05.17/outbox.cif.g08.bks.cpg/sg2_103_cif.got.tgz:205538.got - 2010.06.03 11:33:40.
