data_PCOD9030571
_publ_section_title
;
Structure prediction by ZEFSAII (Michael W. Deem and Ramdas Pophale) SiO2 
 PCOD9030571
Probable space group: P -1
;
_chemical_formula_sum "Si O2"
_cell_formula_units_Z 16
_cell_length_a 11.874091
_cell_length_b 17.420701
_cell_length_c 9.156882
_cell_angle_alpha 29.815016
_cell_angle_beta 56.724774
_cell_angle_gamma 46.963108
_cell_volume 683.412070
_symmetry_space_group_name_H-M "P -1"
_symmetry_group_IT_number 2
_symmetry_cell_setting 'triclinic'
loop_
_space_group_symop_operation_xyz
x,y,z
-x,-y,-z
loop_
_atom_site_type_symbol
_atom_site_label
_atom_site_fract_x
_atom_site_fract_y
_atom_site_fract_z
Si Si1 0.735763 0.393145 0.275426
Si Si2 0.668638 0.580556 0.712357
Si Si3 0.508839 0.279669 0.672316
Si Si4 0.000074 0.994317 0.684030
Si Si5 0.043063 0.635212 0.325735
Si Si6 0.190138 0.420802 0.842709
Si Si7 0.381425 0.085876 0.660320
Si Si8 0.274265 0.045036 0.485265
O O1 0.604285 0.376946 0.484339
O O2 0.794503 0.509709 0.126216
O O3 0.664315 0.484348 0.020966
O O4 0.873291 0.192073 0.495103
O O5 0.524793 0.691519 0.524086
O O6 0.792560 0.430428 0.765775
O O7 0.709920 0.727998 0.498774
O O8 0.351161 0.356895 0.748075
O O9 0.596280 0.073049 0.989785
O O10 0.167903 0.956109 0.686565
O O11 0.959131 0.845090 0.013334
O O12 0.000000 0.000000 0.500000
O O13 0.065165 0.578332 0.572549
O O14 0.000000 0.500000 0.500000
O O15 0.178709 0.243286 0.156413
O O16 0.306038 0.070177 0.589503
O O17 0.553892 0.054981 0.545461
#
# Coordination Sequence:
#
# PCOD9030571 Si02
#       8
#     2   2   2   2   2   2   2   2
#     4  12  25  42  68 101 137 182 224 277 342 404
#     4  11  23  43  67 100 128 185 226 279 343 394
#     4  10  24  41  67 103 138 171 233 286 331 397
#     4  12  27  44  66 102 137 181 224 279 340 408
#     4  11  26  46  68  95 138 178 222 281 342 404
#     4  10  23  45  67  97 134 182 220 282 336 395
#     4  10  22  42  72 100 130 184 223 288 335 391
#     4  10  23  44  68  99 142 173 228 278 339 402
#
# _framework density 23.411936000000001
#
# number of rings (size 3 to 8) (size 9 to 14) (size 15 to 20)
#    0.000    1.250    2.500    1.875    5.250    4.000 
#    0.000    0.000    0.000    0.000    0.000    0.000 
#    0.000    0.000    0.000    0.000    0.000    0.000 
#
# Total GULP energy -89476.316025 kJ/mol
# GULP energy per Si atom -5592.269752 kJ/mol
# Density = 2.335865 g / cm^3
# Si number density = 23.411936 Si / 1000 Ang^3
#
#
#
# Elastic Constant Matrix: (Units=GPa)
#
#
# Indices 1 2 3 4 5 6 
#
# 1 81.1650 16.8853 43.9594 6.6612 -3.0110 12.7830
# 2 16.8853 66.9857 27.8808 -10.7979 8.8747 15.4753
# 3 43.9594 27.8808 142.8968 -11.6273 3.6405 -3.3908
# 4 6.6612 -10.7979 -11.6273 26.0515 7.5753 -1.3224
# 5 -3.0110 8.8747 3.6405 7.5753 37.9532 1.8556
# 6 12.7830 15.4753 -3.3908 -1.3224 1.8556 26.2910
#
#
#
# Elastic Compliance Matrix: (Units=1/GPa)
#
#
# Indices 1 2 3 4 5 6 
#
# 1 0.018993 -0.002214 -0.006652 -0.010773 0.005287 -0.009704
# 2 -0.002214 0.021611 -0.002863 0.009518 -0.006312 -0.011089
# 3 -0.006652 -0.002863 0.010326 0.006165 -0.002408 0.006732
# 4 -0.010773 0.009518 0.006165 0.052198 -0.014289 0.004065
# 5 0.005287 -0.006312 -0.002408 -0.014289 0.031429 -0.002103
# 6 -0.009704 -0.011089 0.006732 0.004065 -0.002103 0.050503
#
#
# Mechanical properties :
#
#
# Convention : Reuss Voigt Hill
#
# Bulk Modulus (GPa) = 36.40295 52.05539 44.22917
# Shear Modulus (GPa) = 22.97000 31.54727 27.25863
#
# Velocity S-wave (km/s) = 3.13569 3.67479 3.41589
# Velocity P-wave (km/s) = 5.35656 6.34731 5.87286
#
# Compressibility (1/GPa) = 0.02747030
#
# Stress axis : x y z
#
# Youngs Moduli (GPa) = 52.65151 46.27342 96.84365
#
# Poissons Ratio (x) = 0.10244 0.64424
# Poissons Ratio (y) = 0.11656 0.27729
# Poissons Ratio (z) = 0.35026 0.13250
#
# Static dielectric constant tensor:
#      x y z
#    x 1.940650 -0.075620 -0.011230 
#    y -0.075620 1.885010 0.005610 
#    z -0.011230 0.005610 1.858890 
# 
# From -- ./inp_files/278663.got.cif
#   From: 2010.05.17/outbox.cif.g08.bks.cpg/sg2_140_cif.got.tgz:278663.got - 2010.06.03 11:33:40.
