data_PCOD9030261
_publ_section_title
;
Structure prediction by ZEFSAII (Michael W. Deem and Ramdas Pophale) SiO2 
 PCOD9030261
Probable space group: P -1
;
_chemical_formula_sum "Si O2"
_cell_formula_units_Z 15
_cell_length_a 9.068366
_cell_length_b 12.035708
_cell_length_c 15.375893
_cell_angle_alpha 61.955032
_cell_angle_beta 151.381386
_cell_angle_gamma 113.479965
_cell_volume 709.023830
_symmetry_space_group_name_H-M "P -1"
_symmetry_group_IT_number 2
_symmetry_cell_setting 'triclinic'
loop_
_space_group_symop_operation_xyz
x,y,z
-x,-y,-z
loop_
_atom_site_type_symbol
_atom_site_label
_atom_site_fract_x
_atom_site_fract_y
_atom_site_fract_z
Si Si1 0.500000 0.500000 0.500000
Si Si2 0.692643 0.057617 0.656571
Si Si3 0.321966 0.466420 0.726552
Si Si4 0.628661 0.048170 0.956555
Si Si5 0.306849 0.673280 0.169914
Si Si6 0.639668 0.700843 0.880239
Si Si7 0.002844 0.683530 0.254886
Si Si8 0.653871 0.041927 0.327349
O O1 0.420072 0.614434 0.342406
O O2 0.232600 0.563800 0.400855
O O3 0.799052 0.200632 0.652702
O O4 0.500000 0.000000 0.500000
O O5 0.507124 0.049088 0.653953
O O6 0.005590 0.973738 0.849861
O O7 0.584222 0.427159 0.808571
O O8 0.442967 0.578966 0.806630
O O9 0.000000 0.500000 0.500000
O O10 0.247009 0.348952 0.790849
O O11 0.555721 0.192702 0.836584
O O12 0.507389 0.963062 0.847408
O O13 0.500000 0.000000 0.000000
O O14 0.936164 0.694312 0.972843
O O15 0.410818 0.822305 0.712263
O O16 0.808700 0.707782 0.058031
O O17 0.000000 0.000000 0.500000
#
# Coordination Sequence:
#
# PCOD9030261 Si02
#       8
#     1   2   2   2   2   2   2   2
#     4  10  22  42  70 104 140 198 234 298 366 428
#     4  12  26  47  75 108 145 196 248 313 380 452
#     4  12  26  43  71 106 139 188 245 302 358 433
#     4  12  25  48  75 109 148 200 250 311 385 451
#     4  11  24  45  74 103 152 190 247 305 371 447
#     4  11  25  47  71 100 145 193 239 300 372 447
#     4  11  24  47  70 100 149 185 244 297 368 442
#     4  12  26  45  73 108 146 194 252 311 380 450
#
# _framework density 21.155847999999999
#
# number of rings (size 3 to 8) (size 9 to 14) (size 15 to 20)
#    0.000    0.533    4.000    4.400    3.733    1.067 
#    4.800    0.000    0.000    0.000    0.000    0.000 
#    0.000    0.000    0.000    0.000    0.000    0.000 
#
# Total GULP energy -83526.608322 kJ/mol
# GULP energy per Si atom -5568.440555 kJ/mol
# Density = 2.110770 g / cm^3
# Si number density = 21.155848 Si / 1000 Ang^3
#
#
#
# Elastic Constant Matrix: (Units=GPa)
#
#
# Indices 1 2 3 4 5 6 
#
# 1 138.2079 43.8514 41.7378 10.0846 7.2349 13.1219
# 2 43.8514 122.1332 45.7970 4.2100 5.7123 6.6651
# 3 41.7378 45.7970 106.5356 4.4475 19.4372 -10.8553
# 4 10.0846 4.2100 4.4475 39.2711 -10.1426 0.1466
# 5 7.2349 5.7123 19.4372 -10.1426 31.5689 -4.0231
# 6 13.1219 6.6651 -10.8553 0.1466 -4.0231 37.7631
#
#
#
# Elastic Compliance Matrix: (Units=1/GPa)
#
#
# Indices 1 2 3 4 5 6 
#
# 1 0.009304 -0.001909 -0.002913 -0.002143 -0.001172 -0.003850
# 2 -0.001909 0.010519 -0.004160 0.000054 0.000820 -0.002302
# 3 -0.002913 -0.004160 0.014301 -0.002383 -0.007505 0.005067
# 4 -0.002143 0.000054 -0.002383 0.029242 0.011491 0.001161
# 5 -0.001172 0.000820 -0.007505 0.011491 0.040411 0.002366
# 6 -0.003850 -0.002302 0.005067 0.001161 0.002366 0.029929
#
#
# Mechanical properties :
#
#
# Convention : Reuss Voigt Hill
#
# Bulk Modulus (GPa) = 61.88618 69.96101 65.92360
# Shear Modulus (GPa) = 31.83529 37.41999 34.62764
#
# Velocity S-wave (km/s) = 3.88338 4.21025 4.05011
# Velocity P-wave (km/s) = 7.03019 7.53499 7.28696
#
# Compressibility (1/GPa) = 0.01615870
#
# Stress axis : x y z
#
# Youngs Moduli (GPa) = 107.47592 95.06903 69.92429
#
# Poissons Ratio (x) = 0.18153 0.20371
# Poissons Ratio (y) = 0.20522 0.29088
# Poissons Ratio (z) = 0.31311 0.39548
#
# Static dielectric constant tensor:
#      x y z
#    x 1.772440 0.025490 0.002540 
#    y 0.025490 1.727180 -0.115040 
#    z 0.002540 -0.115040 1.628180 
# 
# From -- ./inp_files/347731.got.cif
#   From: 2010.05.17/outbox.cif.g08.bks.cpg/sg2_174_cif.got.tgz:347731.got - 2010.06.03 11:33:40.
