data_PCOD9030737
_publ_section_title
;
Structure prediction by ZEFSAII (Michael W. Deem and Ramdas Pophale) SiO2 
 PCOD9030737
Probable space group: P -1
;
_chemical_formula_sum "Si O2"
_cell_formula_units_Z 16
_cell_length_a 19.230580
_cell_length_b 7.149294
_cell_length_c 8.848069
_cell_angle_alpha 132.381758
_cell_angle_beta 54.733764
_cell_angle_gamma 120.371362
_cell_volume 719.870215
_symmetry_space_group_name_H-M "P -1"
_symmetry_group_IT_number 2
_symmetry_cell_setting 'triclinic'
loop_
_space_group_symop_operation_xyz
x,y,z
-x,-y,-z
loop_
_atom_site_type_symbol
_atom_site_label
_atom_site_fract_x
_atom_site_fract_y
_atom_site_fract_z
Si Si1 0.005395 0.790306 0.254889
Si Si2 0.655498 0.080740 0.825067
Si Si3 0.483450 0.663022 0.752854
Si Si4 0.434127 0.183382 0.723216
Si Si5 0.942659 0.733790 0.997173
Si Si6 0.837016 0.927090 0.999269
Si Si7 0.693922 0.733080 0.824868
Si Si8 0.289870 0.828591 0.526415
O O1 0.928272 0.767188 0.213644
O O2 0.016178 0.525157 0.181243
O O3 0.087671 0.906034 0.107692
O O4 0.000000 0.000000 0.500000
O O5 0.564704 0.896455 0.787061
O O6 0.712632 0.929553 0.771228
O O7 0.705442 0.173557 0.661077
O O8 0.613516 0.277755 0.086787
O O9 0.500000 0.500000 0.500000
O O10 0.481776 0.473707 0.792824
O O11 0.500000 0.000000 0.500000
O O12 0.357158 0.072845 0.642019
O O13 0.389688 0.190230 0.945004
O O14 0.864256 0.718540 0.968293
O O15 0.000000 0.000000 0.000000
O O16 0.798514 0.129418 0.262845
O O17 0.767592 0.784080 0.888017
O O18 0.683985 0.444321 0.616587
#
# Coordination Sequence:
#
# PCOD9030737 Si02
#       8
#     2   2   2   2   2   2   2   2
#     4  10  22  42  73 107 131 168 218 258 311 379
#     4  11  24  38  61  88 113 165 216 271 324 385
#     4  11  21  38  61  85 117 151 218 279 331 373
#     4  11  22  39  62  87 122 163 214 283 331 382
#     4   9  21  43  70 101 135 168 210 260 312 377
#     4  10  25  42  61  96 136 175 204 260 321 382
#     4  11  25  41  59  91 127 168 217 264 325 389
#     4  11  24  43  59  88 128 169 215 260 331 386
#
# _framework density 22.226227000000002
#
# number of rings (size 3 to 8) (size 9 to 14) (size 15 to 20)
#    0.000    1.500    2.500    1.500    1.750   11.000 
#    0.000    0.000    0.000    0.000    0.000    0.000 
#    0.000    0.000    0.000    0.000    0.000    0.000 
#
# Total GULP energy -89184.173375 kJ/mol
# GULP energy per Si atom -5574.010836 kJ/mol
# Density = 2.217564 g / cm^3
# Si number density = 22.226227 Si / 1000 Ang^3
#
#
#
# Elastic Constant Matrix: (Units=GPa)
#
#
# Indices 1 2 3 4 5 6 
#
# 1 76.1803 25.6650 26.0025 -6.3171 3.5330 -26.8895
# 2 25.6650 104.7727 50.2881 5.8992 -17.0364 -26.5864
# 3 26.0025 50.2881 132.2708 -2.5613 0.7634 -9.6665
# 4 -6.3171 5.8992 -2.5613 32.5091 3.0765 -5.8553
# 5 3.5330 -17.0364 0.7634 3.0765 25.7173 1.3004
# 6 -26.8895 -26.5864 -9.6665 -5.8553 1.3004 38.0461
#
#
#
# Elastic Compliance Matrix: (Units=1/GPa)
#
#
# Indices 1 2 3 4 5 6 
#
# 1 0.020111 -0.001666 -0.002147 0.007026 -0.005339 0.013768
# 2 -0.001666 0.016779 -0.005584 -0.003418 0.011504 0.008210
# 3 -0.002147 -0.005584 0.009964 0.001271 -0.003723 -0.002565
# 4 0.007026 -0.003418 0.001271 0.035140 -0.007905 0.008578
# 5 -0.005339 0.011504 -0.003723 -0.007905 0.048272 0.000453
# 6 0.013768 0.008210 -0.002565 0.008578 0.000453 0.042404
#
#
# Mechanical properties :
#
#
# Convention : Reuss Voigt Hill
#
# Bulk Modulus (GPa) = 35.63903 57.45944 46.54924
# Shear Modulus (GPa) = 24.89825 33.33903 29.11864
#
# Velocity S-wave (km/s) = 3.35060 3.87717 3.62346
# Velocity P-wave (km/s) = 5.57119 6.77875 6.20442
#
# Compressibility (1/GPa) = 0.02805913
#
# Stress axis : x y z
#
# Youngs Moduli (GPa) = 49.72479 59.59769 100.36036
#
# Poissons Ratio (x) = 0.09929 0.21548
# Poissons Ratio (y) = 0.08284 0.56045
# Poissons Ratio (z) = 0.10676 0.33282
#
# Static dielectric constant tensor:
#      x y z
#    x 2.001160 -0.031840 -0.012690 
#    y -0.031840 1.932940 -0.012220 
#    z -0.012690 -0.012220 1.846180 
# 
# From -- ./inp_files/340740.got.cif
#   From: 2010.05.17/outbox.cif.g08.bks.cpg/sg2_171_cif.got.tgz:340740.got - 2010.06.03 11:33:40.
