data_PCOD9031765
_publ_section_title
;
Structure prediction by ZEFSAII (Michael W. Deem and Ramdas Pophale) SiO2 
 PCOD9031765
Probable space group: P -1
;
_chemical_formula_sum "Si O2"
_cell_formula_units_Z 14
_cell_length_a 9.420091
_cell_length_b 8.962116
_cell_length_c 14.004095
_cell_angle_alpha 50.234236
_cell_angle_beta 49.484587
_cell_angle_gamma 49.013745
_cell_volume 629.750620
_symmetry_space_group_name_H-M "P -1"
_symmetry_group_IT_number 2
_symmetry_cell_setting 'triclinic'
loop_
_space_group_symop_operation_xyz
x,y,z
-x,-y,-z
loop_
_atom_site_type_symbol
_atom_site_label
_atom_site_fract_x
_atom_site_fract_y
_atom_site_fract_z
Si Si1 0.450185 0.345198 0.517394
Si Si2 0.017277 0.559550 0.272395
Si Si3 0.390308 0.852904 0.647978
Si Si4 0.454058 0.909310 0.154923
Si Si5 0.078579 0.925113 0.208538
Si Si6 0.906691 0.662218 0.062819
Si Si7 0.621725 0.875115 0.706569
O O1 0.500000 0.500000 0.500000
O O2 0.214646 0.381096 0.616369
O O3 0.509825 0.351933 0.378372
O O4 0.593599 0.107436 0.588649
O O5 0.016446 0.583938 0.147992
O O6 0.095113 0.721683 0.223463
O O7 0.164646 0.317255 0.331287
O O8 0.450411 0.824917 0.744515
O O9 0.500000 0.000000 0.500000
O O10 0.149473 0.969984 0.692175
O O11 0.252343 0.871135 0.235658
O O12 0.667895 0.712844 0.164506
O O13 0.412140 0.086768 0.181926
O O14 0.500000 0.000000 0.000000
O O15 0.088770 0.113008 0.060659
O O16 0.000000 0.500000 0.000000
#
# Coordination Sequence:
#
# PCOD9031765 Si02
#       7
#     2   2   2   2   2   2   2
#     4  11  26  46  72  98 143 182 238 291 344 413
#     4  12  24  45  69 104 137 189 230 291 352 411
#     4  10  22  48  68 100 140 182 232 290 342 412
#     4  10  22  43  68 104 140 178 233 286 342 420
#     4  11  23  42  73 100 144 183 234 287 349 407
#     4  11  24  44  70 101 144 184 230 293 351 417
#     4  11  24  45  70 100 142 176 238 282 349 416
#
# _framework density 22.231020000000001
#
# number of rings (size 3 to 8) (size 9 to 14) (size 15 to 20)
#    0.000    1.143    4.286    2.143    4.000    4.571 
#    2.571    4.286    0.000    0.000    0.000    0.000 
#    0.000    0.000    0.000    0.000    0.000    0.000 
#
# Total GULP energy -78236.808379 kJ/mol
# GULP energy per Si atom -5588.343456 kJ/mol
# Density = 2.218042 g / cm^3
# Si number density = 22.231020 Si / 1000 Ang^3
#
#
#
# Elastic Constant Matrix: (Units=GPa)
#
#
# Indices 1 2 3 4 5 6 
#
# 1 158.5942 80.0171 40.7559 31.8834 -9.9827 23.1961
# 2 80.0171 177.3011 42.8265 12.8057 -7.2133 10.5591
# 3 40.7559 42.8265 61.4255 19.2389 -13.2313 8.7107
# 4 31.8834 12.8057 19.2389 37.8640 7.3103 4.4871
# 5 -9.9827 -7.2133 -13.2313 7.3103 37.5834 15.6348
# 6 23.1961 10.5591 8.7107 4.4871 15.6348 53.6944
#
#
#
# Elastic Compliance Matrix: (Units=1/GPa)
#
#
# Indices 1 2 3 4 5 6 
#
# 1 0.011086 -0.003843 0.000031 -0.008609 0.006000 -0.005066
# 2 -0.003843 0.008134 -0.004798 0.003218 -0.002289 0.001236
# 3 0.000031 -0.004798 0.028412 -0.014897 0.014792 -0.006742
# 4 -0.008609 0.003218 -0.014897 0.042806 -0.018252 0.007240
# 5 0.006000 -0.002289 0.014792 -0.018252 0.042981 -0.015532
# 6 -0.005066 0.001236 -0.006742 0.007240 -0.015532 0.025580
#
#
# Mechanical properties :
#
#
# Convention : Reuss Voigt Hill
#
# Bulk Modulus (GPa) = 32.88042 80.50220 56.69131
# Shear Modulus (GPa) = 26.83028 41.40980 34.12004
#
# Velocity S-wave (km/s) = 3.47779 4.32059 3.92189
# Velocity P-wave (km/s) = 5.56320 7.82178 6.78710
#
# Compressibility (1/GPa) = 0.03041324
#
# Stress axis : x y z
#
# Youngs Moduli (GPa) = 90.20666 122.93823 35.19579
#
# Poissons Ratio (x) = 0.47245 -0.00110
# Poissons Ratio (y) = 0.34666 0.16886
# Poissons Ratio (z) = -0.00281 0.58983
#
# Static dielectric constant tensor:
#      x y z
#    x 1.842410 -0.049960 0.027970 
#    y -0.049960 1.744560 -0.036800 
#    z 0.027970 -0.036800 1.850780 
# 
# From -- ./inp_files/356548.got.cif
#   From: 2010.05.17/outbox.cif.g08.bks.cpg/sg2_179_cif.got.tgz:356548.got - 2010.06.03 11:33:40.
