data_PCOD9031902
_publ_section_title
;
Structure prediction by ZEFSAII (Michael W. Deem and Ramdas Pophale) SiO2 
 PCOD9031902
Probable space group: P -1
;
_chemical_formula_sum "Si O2"
_cell_formula_units_Z 14
_cell_length_a 7.737585
_cell_length_b 5.452337
_cell_length_c 17.518387
_cell_angle_alpha 92.421606
_cell_angle_beta 122.432770
_cell_angle_gamma 118.001087
_cell_volume 506.078251
_symmetry_space_group_name_H-M "P -1"
_symmetry_group_IT_number 2
_symmetry_cell_setting 'triclinic'
loop_
_space_group_symop_operation_xyz
x,y,z
-x,-y,-z
loop_
_atom_site_type_symbol
_atom_site_label
_atom_site_fract_x
_atom_site_fract_y
_atom_site_fract_z
Si Si1 0.327535 0.045578 0.230568
Si Si2 0.131287 0.327194 0.304595
Si Si3 0.433529 0.510578 0.831183
Si Si4 0.899444 0.540100 0.899589
Si Si5 0.022218 0.131711 0.613756
Si Si6 0.699371 0.953382 0.087328
Si Si7 0.370354 0.047322 0.594379
O O1 0.237277 0.197816 0.267275
O O2 0.400929 0.155598 0.161292
O O3 0.114740 0.687083 0.168444
O O4 0.577817 0.120038 0.332294
O O5 0.350154 0.681874 0.362462
O O6 0.851675 0.173593 0.199710
O O7 0.110285 0.192968 0.381084
O O8 0.611651 0.419246 0.838057
O O9 0.171529 0.348535 0.722944
O O10 0.391707 0.371672 0.903856
O O11 0.081154 0.890198 0.922598
O O12 0.000000 0.500000 0.000000
O O13 0.229686 0.175384 0.604338
O O14 0.816420 0.146231 0.521115
O O15 0.500000 0.000000 0.000000
#
# Coordination Sequence:
#
# PCOD9031902 Si02
#       7
#     2   2   2   2   2   2   2
#     4  12  23  44  70  97 136 181 214 287 337 388
#     4  11  23  45  64  98 142 167 231 275 332 399
#     4  11  23  45  64  99 137 168 229 273 328 402
#     4  12  24  47  69  93 137 178 218 275 347 394
#     4  10  22  43  68  98 135 181 219 277 325 404
#     4  11  22  44  69  92 130 177 219 275 329 400
#     4  11  22  44  69  96 138 180 222 269 342 390
#
# _framework density 27.663705
#
# number of rings (size 3 to 8) (size 9 to 14) (size 15 to 20)
#    0.000    0.857    7.143    0.429    0.000    1.714 
#   10.286    1.429    0.000    0.000    0.000    0.000 
#    0.000    0.000    0.000    0.000    0.000    0.000 
#
# Total GULP energy -78261.261188 kJ/mol
# GULP energy per Si atom -5590.090085 kJ/mol
# Density = 2.760074 g / cm^3
# Si number density = 27.663705 Si / 1000 Ang^3
#
#
#
# Elastic Constant Matrix: (Units=GPa)
#
#
# Indices 1 2 3 4 5 6 
#
# 1 85.4568 23.0171 44.0707 11.3581 3.6156 13.9276
# 2 23.0171 120.5200 32.6956 -24.6296 -6.4515 39.1144
# 3 44.0707 32.6956 214.7504 -24.8675 16.5712 -1.0024
# 4 11.3581 -24.6296 -24.8675 36.0754 7.0309 -8.5508
# 5 3.6156 -6.4515 16.5712 7.0309 40.0676 -4.2685
# 6 13.9276 39.1144 -1.0024 -8.5508 -4.2685 50.5323
#
#
#
# Elastic Compliance Matrix: (Units=1/GPa)
#
#
# Indices 1 2 3 4 5 6 
#
# 1 0.017081 -0.002939 -0.004567 -0.011867 0.001487 -0.004406
# 2 -0.002939 0.013223 -0.000614 0.007513 0.000464 -0.008127
# 3 -0.004567 -0.000614 0.006777 0.007013 -0.003425 0.002766
# 4 -0.011867 0.007513 0.007013 0.043991 -0.007874 0.004373
# 5 0.001487 0.000464 -0.003425 -0.007874 0.027715 0.000172
# 6 -0.004406 -0.008127 0.002766 0.004373 0.000172 0.028104
#
#
# Mechanical properties :
#
#
# Convention : Reuss Voigt Hill
#
# Bulk Modulus (GPa) = 47.98243 68.92154 58.45199
# Shear Modulus (GPa) = 31.23494 46.73133 38.98313
#
# Velocity S-wave (km/s) = 3.36385 4.11453 3.75798
# Velocity P-wave (km/s) = 5.69823 6.89497 6.32497
#
# Compressibility (1/GPa) = 0.02084096
#
# Stress axis : x y z
#
# Youngs Moduli (GPa) = 58.54382 75.62667 147.56335
#
# Poissons Ratio (x) = 0.22223 0.67400
# Poissons Ratio (y) = 0.17203 0.09059
# Poissons Ratio (z) = 0.26740 0.04643
#
# Static dielectric constant tensor:
#      x y z
#    x 2.132810 -0.015040 0.020040 
#    y -0.015040 2.205060 -0.039590 
#    z 0.020040 -0.039590 2.164770 
# 
# From -- ./inp_files/585659.got.cif
#   From: 2010.05.17/outbox.cif.g08.bks.cpg/sg2_293_cif.got.tgz:585659.got - 2010.06.03 11:33:40.
