data_PCOD9031201
_publ_section_title
;
Structure prediction by ZEFSAII (Michael W. Deem and Ramdas Pophale) SiO2 
 PCOD9031201
Probable space group: P -1
;
_chemical_formula_sum "Si O2"
_cell_formula_units_Z 14
_cell_length_a 6.536290
_cell_length_b 9.881480
_cell_length_c 14.207453
_cell_angle_alpha 101.569636
_cell_angle_beta 95.868053
_cell_angle_gamma 41.669025
_cell_volume 596.075181
_symmetry_space_group_name_H-M "P -1"
_symmetry_group_IT_number 2
_symmetry_cell_setting 'triclinic'
loop_
_space_group_symop_operation_xyz
x,y,z
-x,-y,-z
loop_
_atom_site_type_symbol
_atom_site_label
_atom_site_fract_x
_atom_site_fract_y
_atom_site_fract_z
Si Si1 0.221214 0.943229 0.366300
Si Si2 0.029678 0.868780 0.905659
Si Si3 0.921140 0.935827 0.204976
Si Si4 0.693159 0.793783 0.679382
Si Si5 0.541904 0.312290 0.476762
Si Si6 0.308972 0.200368 0.924619
Si Si7 0.004813 0.598419 0.868268
O O1 0.445131 0.767932 0.431557
O O2 0.212839 0.835653 0.265747
O O3 0.257617 0.082617 0.351089
O O4 0.879300 0.118198 0.420119
O O5 0.196925 0.642660 0.901855
O O6 0.671801 0.000177 0.895553
O O7 0.165291 0.876711 0.822962
O O8 0.000000 0.000000 0.000000
O O9 0.904308 0.825617 0.110343
O O10 0.655414 0.020910 0.273566
O O11 0.696476 0.659136 0.592282
O O12 0.893003 0.661407 0.764039
O O13 0.500000 0.500000 0.500000
O O14 0.202395 0.367537 0.869549
O O15 0.249969 0.277477 0.040452
#
# Coordination Sequence:
#
# PCOD9031201 Si02
#       7
#     2   2   2   2   2   2   2
#     4  10  22  43  65  94 126 161 208 256 317 377
#     4  12  22  41  65  88 127 175 209 255 313 365
#     4  11  21  40  65  91 126 168 209 254 311 366
#     4  11  22  43  66  92 129 166 207 262 311 375
#     4  10  24  43  66  96 123 161 206 261 319 377
#     4  11  24  41  59  95 131 169 209 264 302 364
#     4  11  23  41  61  93 130 166 214 255 311 365
#
# _framework density 23.486971
#
# number of rings (size 3 to 8) (size 9 to 14) (size 15 to 20)
#    0.000    1.143    4.286    1.714    2.000    1.143 
#    7.714    0.000    0.000    0.000    0.000    0.000 
#    0.000    0.000    0.000    0.000    0.000    0.000 
#
# Total GULP energy -78098.602024 kJ/mol
# GULP energy per Si atom -5578.471573 kJ/mol
# Density = 2.343351 g / cm^3
# Si number density = 23.486971 Si / 1000 Ang^3
#
#
#
# Elastic Constant Matrix: (Units=GPa)
#
#
# Indices 1 2 3 4 5 6 
#
# 1 105.6679 36.5725 62.4265 -24.0227 7.6675 34.1499
# 2 36.5725 87.2595 38.5180 -26.4371 14.6893 38.4703
# 3 62.4265 38.5180 120.2217 -31.4965 23.7468 19.8726
# 4 -24.0227 -26.4371 -31.4965 39.1176 9.2730 -18.1960
# 5 7.6675 14.6893 23.7468 9.2730 55.1957 6.7912
# 6 34.1499 38.4703 19.8726 -18.1960 6.7912 37.7896
#
#
#
# Elastic Compliance Matrix: (Units=1/GPa)
#
#
# Indices 1 2 3 4 5 6 
#
# 1 0.018201 0.001709 -0.008756 -0.002624 0.003120 -0.015408
# 2 0.001709 0.023379 -0.002631 0.006224 -0.003879 -0.020267
# 3 -0.008756 -0.002631 0.017439 0.013451 -0.009017 0.009517
# 4 -0.002624 0.006224 0.013451 0.050934 -0.017687 0.016666
# 5 0.003120 -0.003879 -0.009017 -0.017687 0.026478 -0.007403
# 6 -0.015408 -0.020267 0.009517 0.016666 -0.007403 0.065369
#
#
# Mechanical properties :
#
#
# Convention : Reuss Voigt Hill
#
# Bulk Modulus (GPa) = 25.21139 65.35368 45.28253
# Shear Modulus (GPa) = 21.33308 38.12937 29.73123
#
# Velocity S-wave (km/s) = 3.01706 4.03355 3.56175
# Velocity P-wave (km/s) = 4.78481 7.04121 6.01967
#
# Compressibility (1/GPa) = 0.03966461
#
# Stress axis : x y z
#
# Youngs Moduli (GPa) = 54.94075 42.77346 57.34129
#
# Poissons Ratio (x) = -0.07310 0.50206
# Poissons Ratio (y) = -0.09389 0.15086
# Poissons Ratio (z) = 0.48105 0.11253
#
# Static dielectric constant tensor:
#      x y z
#    x 1.912180 0.018310 0.067540 
#    y 0.018310 1.938400 0.072300 
#    z 0.067540 0.072300 2.039780 
# 
# From -- ./inp_files/39114.got.cif
#   From: 2010.05.17/outbox.cif.g08.bks.cpg/sg2_20_cif.got.tgz:39114.got - 2010.06.03 11:33:40.
