data_PCOD9031356
_publ_section_title
;
Structure prediction by ZEFSAII (Michael W. Deem and Ramdas Pophale) SiO2 
 PCOD9031356
Probable space group: P -1
;
_chemical_formula_sum "Si O2"
_cell_formula_units_Z 16
_cell_length_a 9.506422
_cell_length_b 8.971231
_cell_length_c 13.460732
_cell_angle_alpha 122.031109
_cell_angle_beta 134.642431
_cell_angle_gamma 70.331686
_cell_volume 691.209339
_symmetry_space_group_name_H-M "P -1"
_symmetry_group_IT_number 2
_symmetry_cell_setting 'triclinic'
loop_
_space_group_symop_operation_xyz
x,y,z
-x,-y,-z
loop_
_atom_site_type_symbol
_atom_site_label
_atom_site_fract_x
_atom_site_fract_y
_atom_site_fract_z
Si Si1 0.291770 0.889312 0.426248
Si Si2 0.932942 0.538633 0.590894
Si Si3 0.907211 0.923212 0.776891
Si Si4 0.248987 0.172914 0.114742
Si Si5 0.389716 0.563710 0.066578
Si Si6 0.519622 0.464456 0.676581
Si Si7 0.537715 0.924709 0.227095
Si Si8 0.893726 0.708207 0.244644
O O1 0.397450 0.716227 0.384062
O O2 0.606766 0.012786 0.395313
O O3 0.074366 0.824920 0.332956
O O4 0.254906 0.016315 0.360300
O O5 0.992119 0.742593 0.716248
O O6 0.032501 0.406747 0.668058
O O7 0.000000 0.500000 0.500000
O O8 0.693784 0.511429 0.469489
O O9 0.815775 0.868997 0.818941
O O10 0.072446 0.083381 0.929834
O O11 0.319510 0.375649 0.209009
O O12 0.445203 0.064835 0.159164
O O13 0.506549 0.545699 0.220504
O O14 0.368829 0.769787 0.111681
O O15 0.500000 0.500000 0.000000
O O16 0.193728 0.436753 0.928444
O O17 0.721706 0.831436 0.237795
#
# Coordination Sequence:
#
# PCOD9031356 Si02
#       8
#     2   2   2   2   2   2   2   2
#     4  12  25  43  68  97 133 173 219 270 326 390
#     4  12  25  44  68  97 134 172 217 270 329 392
#     4  11  25  44  67  98 132 174 219 270 328 384
#     4  11  25  44  68  98 134 171 220 274 322 386
#     4  10  22  43  66  92 127 170 215 261 324 389
#     4  12  26  44  68  98 131 174 220 271 329 386
#     4  11  23  43  67  96 132 173 218 267 326 388
#     4  11  24  43  67  96 133 174 217 268 325 388
#
# _framework density 23.147835000000001
#
# number of rings (size 3 to 8) (size 9 to 14) (size 15 to 20)
#    0.000    0.750    0.000    7.875    0.000    9.000 
#    0.000    3.750    0.000    0.000    0.000    0.000 
#    0.000    0.000    0.000    0.000    0.000    0.000 
#
# Total GULP energy -89660.679414 kJ/mol
# GULP energy per Si atom -5603.792463 kJ/mol
# Density = 2.309515 g / cm^3
# Si number density = 23.147835 Si / 1000 Ang^3
#
#
#
# Elastic Constant Matrix: (Units=GPa)
#
#
# Indices 1 2 3 4 5 6 
#
# 1 87.8520 32.3249 25.7952 20.3853 3.2897 -9.4042
# 2 32.3249 103.9637 20.2887 21.5368 -6.9299 -5.6787
# 3 25.7952 20.2887 104.0197 26.1798 5.9290 -2.6362
# 4 20.3853 21.5368 26.1798 44.3303 -3.3896 15.0706
# 5 3.2897 -6.9299 5.9290 -3.3896 15.1242 10.3150
# 6 -9.4042 -5.6787 -2.6362 15.0706 10.3150 38.9449
#
#
#
# Elastic Compliance Matrix: (Units=1/GPa)
#
#
# Indices 1 2 3 4 5 6 
#
# 1 0.017451 -0.003392 0.000926 -0.012863 -0.017782 0.013470
# 2 -0.003392 0.011997 -0.000824 -0.003728 0.005055 0.000979
# 3 0.000926 -0.000824 0.014004 -0.013041 -0.016050 0.010349
# 4 -0.012863 -0.003728 -0.013041 0.053837 0.043409 -0.036864
# 5 -0.017782 0.005055 -0.016050 0.043409 0.125643 -0.054720
# 6 0.013470 0.000979 0.010349 -0.036864 -0.054720 0.058532
#
#
# Mechanical properties :
#
#
# Convention : Reuss Voigt Hill
#
# Bulk Modulus (GPa) = 27.11977 50.29478 38.70728
# Shear Modulus (GPa) = 16.64813 34.17501 25.41157
#
# Velocity S-wave (km/s) = 2.68472 3.84654 3.31689
# Velocity P-wave (km/s) = 4.62078 6.44225 5.60599
#
# Compressibility (1/GPa) = 0.03687347
#
# Stress axis : x y z
#
# Youngs Moduli (GPa) = 57.30238 83.35555 71.40862
#
# Poissons Ratio (x) = 0.28272 -0.06614
# Poissons Ratio (y) = 0.19435 0.05883
# Poissons Ratio (z) = -0.05308 0.06867
#
# Static dielectric constant tensor:
#      x y z
#    x 1.908490 -0.027090 0.028810 
#    y -0.027090 1.891790 -0.002880 
#    z 0.028810 -0.002880 1.850820 
# 
# From -- ./inp_files/380077.got.cif
#   From: 2010.05.17/outbox.cif.g08.bks.cpg/sg2_191_cif.got.tgz:380077.got - 2010.06.03 11:33:40.
