data_PCOD9031722
_publ_section_title
;
Structure prediction by ZEFSAII (Michael W. Deem and Ramdas Pophale) SiO2 
 PCOD9031722
Probable space group: P -1
;
_chemical_formula_sum "Si O2"
_cell_formula_units_Z 14
_cell_length_a 7.888719
_cell_length_b 11.117358
_cell_length_c 14.909526
_cell_angle_alpha 139.650947
_cell_angle_beta 131.922985
_cell_angle_gamma 42.971682
_cell_volume 558.685501
_symmetry_space_group_name_H-M "P -1"
_symmetry_group_IT_number 2
_symmetry_cell_setting 'triclinic'
loop_
_space_group_symop_operation_xyz
x,y,z
-x,-y,-z
loop_
_atom_site_type_symbol
_atom_site_label
_atom_site_fract_x
_atom_site_fract_y
_atom_site_fract_z
Si Si1 0.293398 0.457485 0.810998
Si Si2 0.031735 0.711228 0.495629
Si Si3 0.988322 0.543544 0.125852
Si Si4 0.724547 0.035793 0.348137
Si Si5 0.134166 0.855782 0.880973
Si Si6 0.651416 0.973599 0.656651
Si Si7 0.548948 0.255674 0.233137
O O1 0.201233 0.514834 0.913825
O O2 0.322063 0.632072 0.863577
O O3 0.049627 0.444509 0.670175
O O4 0.528398 0.225411 0.756533
O O5 0.105988 0.843132 0.526579
O O6 0.222417 0.130864 0.451236
O O7 0.274077 0.635569 0.606768
O O8 0.272494 0.416079 0.193447
O O9 0.878812 0.790541 0.243799
O O10 0.000000 0.500000 0.000000
O O11 0.561093 0.076909 0.403017
O O12 0.546556 0.129758 0.249418
O O13 0.295542 0.893746 0.880229
O O14 0.891135 0.870938 0.749828
O O15 0.000000 0.000000 0.000000
#
# Coordination Sequence:
#
# PCOD9031722 Si02
#       7
#     2   2   2   2   2   2   2
#     4  11  25  44  66 101 131 176 226 273 335 400
#     4   9  22  46  67 100 136 172 224 274 338 395
#     4  11  25  40  67  98 131 181 223 270 330 399
#     4   9  22  44  66  99 137 172 218 274 337 385
#     4  11  26  42  67  96 135 182 224 273 335 395
#     4  10  22  43  68 101 131 178 217 280 331 392
#     4   9  23  43  64  96 130 177 216 279 330 383
#
# _framework density 25.058820000000001
#
# number of rings (size 3 to 8) (size 9 to 14) (size 15 to 20)
#    0.857    1.143    0.000    1.286    8.000    6.286 
#    5.143    0.000    0.000    0.000    0.000    0.000 
#    0.000    0.000    0.000    0.000    0.000    0.000 
#
# Total GULP energy -78328.470967 kJ/mol
# GULP energy per Si atom -5594.890783 kJ/mol
# Density = 2.500179 g / cm^3
# Si number density = 25.058820 Si / 1000 Ang^3
#
#
#
# Elastic Constant Matrix: (Units=GPa)
#
#
# Indices 1 2 3 4 5 6 
#
# 1 140.2675 39.4806 31.2474 4.0247 -38.0957 0.5876
# 2 39.4806 152.3373 14.0644 -22.0604 -7.2091 -2.6643
# 3 31.2474 14.0644 68.8334 -16.9106 -27.0641 5.7234
# 4 4.0247 -22.0604 -16.9106 32.8160 1.6382 0.3374
# 5 -38.0957 -7.2091 -27.0641 1.6382 37.4703 -3.4282
# 6 0.5876 -2.6643 5.7234 0.3374 -3.4282 39.1376
#
#
#
# Elastic Compliance Matrix: (Units=1/GPa)
#
#
# Indices 1 2 3 4 5 6 
#
# 1 0.011141 -0.002937 -0.001904 -0.004813 0.009670 0.000800
# 2 -0.002937 0.008114 0.000736 0.006247 -0.001136 0.000336
# 3 -0.001904 0.000736 0.024476 0.012610 0.015124 -0.002285
# 4 -0.004813 0.006247 0.012610 0.041602 0.003469 -0.001401
# 5 0.009670 -0.001136 0.015124 0.003469 0.047226 0.001673
# 6 0.000800 0.000336 -0.002285 -0.001401 0.001673 0.026054
#
#
# Mechanical properties :
#
#
# Convention : Reuss Voigt Hill
#
# Bulk Modulus (GPa) = 28.15272 59.00256 43.57764
# Shear Modulus (GPa) = 27.98514 40.32783 34.15649
#
# Velocity S-wave (km/s) = 3.34545 4.01599 3.69596
# Velocity P-wave (km/s) = 5.11681 6.71573 5.97004
#
# Compressibility (1/GPa) = 0.03552055
#
# Stress axis : x y z
#
# Youngs Moduli (GPa) = 89.75645 123.23689 40.85586
#
# Poissons Ratio (x) = 0.36195 0.07780
# Poissons Ratio (y) = 0.26361 -0.03005
# Poissons Ratio (z) = 0.17092 -0.09065
#
# Static dielectric constant tensor:
#      x y z
#    x 2.030630 0.022290 0.015300 
#    y 0.022290 1.971130 -0.044700 
#    z 0.015300 -0.044700 2.025600 
# 
# From -- ./inp_files/498552.got.cif
#   From: 2010.05.17/outbox.cif.g08.bks.cpg/sg2_250_cif.got.tgz:498552.got - 2010.06.03 11:33:40.
