data_PCOD9031970
_publ_section_title
;
Structure prediction by ZEFSAII (Michael W. Deem and Ramdas Pophale) SiO2 
 PCOD9031970
Probable space group: P -1
;
_chemical_formula_sum "Si O2"
_cell_formula_units_Z 14
_cell_length_a 14.187373
_cell_length_b 7.521131
_cell_length_c 5.684299
_cell_angle_alpha 105.923067
_cell_angle_beta 100.170820
_cell_angle_gamma 114.810754
_cell_volume 498.994895
_symmetry_space_group_name_H-M "P -1"
_symmetry_group_IT_number 2
_symmetry_cell_setting 'triclinic'
loop_
_space_group_symop_operation_xyz
x,y,z
-x,-y,-z
loop_
_atom_site_type_symbol
_atom_site_label
_atom_site_fract_x
_atom_site_fract_y
_atom_site_fract_z
Si Si1 0.928333 0.661907 0.362313
Si Si2 0.252693 0.872112 0.278226
Si Si3 0.581079 0.525918 0.835879
Si Si4 0.517430 0.840197 0.677203
Si Si5 0.718579 0.364971 0.398102
Si Si6 0.244877 0.238681 0.650371
Si Si7 0.032643 0.813601 0.961143
O O1 0.812693 0.437758 0.265462
O O2 0.882544 0.830513 0.415707
O O3 0.995122 0.697490 0.647887
O O4 0.980315 0.685728 0.137892
O O5 0.299317 0.360993 0.957171
O O6 0.369652 0.947107 0.237520
O O7 0.271315 0.054112 0.546464
O O8 0.228874 0.673486 0.360453
O O9 0.564506 0.691928 0.737571
O O10 0.540141 0.293717 0.632807
O O11 0.500000 0.500000 0.000000
O O12 0.408928 0.818754 0.749802
O O13 0.710040 0.582076 0.471315
O O14 0.160404 0.883152 0.082839
O O15 0.000000 0.000000 0.000000
#
# Coordination Sequence:
#
# PCOD9031970 Si02
#       7
#     2   2   2   2   2   2   2
#     4  10  26  47  76 101 149 189 244 306 364 422
#     4  12  25  42  74 105 145 188 243 294 374 430
#     4  11  19  39  70  98 136 190 236 284 371 424
#     4  11  23  40  68 106 143 185 238 301 358 444
#     4  10  24  46  68 106 145 187 240 304 358 434
#     4  10  22  43  69 101 136 189 237 299 355 432
#     4  12  25  47  77 110 143 194 246 304 363 438
#
# _framework density 28.056398000000002
#
# number of rings (size 3 to 8) (size 9 to 14) (size 15 to 20)
#    0.857    0.286    4.286    1.714    4.000    1.143 
#    0.000    7.143    0.000    0.000    0.000    0.000 
#    0.000    0.000    0.000    0.000    0.000    0.000 
#
# Total GULP energy -78279.455004 kJ/mol
# GULP energy per Si atom -5591.389643 kJ/mol
# Density = 2.799254 g / cm^3
# Si number density = 28.056398 Si / 1000 Ang^3
#
#
#
# Elastic Constant Matrix: (Units=GPa)
#
#
# Indices 1 2 3 4 5 6 
#
# 1 175.7541 75.1220 86.2783 -7.8472 41.9459 4.3973
# 2 75.1220 79.6951 55.2385 -26.0866 5.0762 8.5213
# 3 86.2783 55.2385 159.3977 -6.0776 11.8607 9.9087
# 4 -7.8472 -26.0866 -6.0776 39.5403 1.5299 1.6387
# 5 41.9459 5.0762 11.8607 1.5299 60.4777 4.6171
# 6 4.3973 8.5213 9.9087 1.6387 4.6171 60.1123
#
#
#
# Elastic Compliance Matrix: (Units=1/GPa)
#
#
# Indices 1 2 3 4 5 6 
#
# 1 0.014519 -0.013315 -0.002988 -0.006126 -0.008374 0.002128
# 2 -0.013315 0.034335 -0.004214 0.019268 0.007017 -0.004263
# 3 -0.002988 -0.004214 0.009268 -0.001947 0.000712 -0.000713
# 4 -0.006126 0.019268 -0.001947 0.036527 0.002329 -0.003137
# 5 -0.008374 0.007017 0.000712 0.002329 0.021726 -0.002232
# 6 0.002128 -0.004263 -0.000713 -0.003137 -0.002232 0.017459
#
#
# Mechanical properties :
#
#
# Convention : Reuss Voigt Hill
#
# Bulk Modulus (GPa) = 58.51504 94.23605 76.37554
# Shear Modulus (GPa) = 27.69090 45.23995 36.46543
#
# Velocity S-wave (km/s) = 3.14502 4.01991 3.60907
# Velocity P-wave (km/s) = 5.83864 7.43015 6.68195
#
# Compressibility (1/GPa) = 0.01708962
#
# Stress axis : x y z
#
# Youngs Moduli (GPa) = 68.87358 29.12451 107.89518
#
# Poissons Ratio (x) = 0.38779 0.32234
# Poissons Ratio (y) = 0.91705 0.45469
# Poissons Ratio (z) = 0.20576 0.12274
#
# Static dielectric constant tensor:
#      x y z
#    x 2.055770 0.106560 -0.088220 
#    y 0.106560 2.250840 0.029460 
#    z -0.088220 0.029460 2.268390 
# 
# From -- ./inp_files/103932.got.cif
#   From: 2010.05.17/outbox.cif.g08.bks.cpg/sg2_52_cif.got.tgz:103932.got - 2010.06.03 11:33:40.
