data_PCOD9031099
_publ_section_title
;
Structure prediction by ZEFSAII (Michael W. Deem and Ramdas Pophale) SiO2 
 PCOD9031099
Probable space group: P -1
;
_chemical_formula_sum "Si O2"
_cell_formula_units_Z 14
_cell_length_a 12.914133
_cell_length_b 15.126426
_cell_length_c 11.694778
_cell_angle_alpha 33.146192
_cell_angle_beta 132.690841
_cell_angle_gamma 151.160217
_cell_volume 589.090375
_symmetry_space_group_name_H-M "P -1"
_symmetry_group_IT_number 2
_symmetry_cell_setting 'triclinic'
loop_
_space_group_symop_operation_xyz
x,y,z
-x,-y,-z
loop_
_atom_site_type_symbol
_atom_site_label
_atom_site_fract_x
_atom_site_fract_y
_atom_site_fract_z
Si Si1 0.658360 0.123460 0.095346
Si Si2 0.115355 0.319693 0.555117
Si Si3 0.743010 0.298781 0.591609
Si Si4 0.506834 0.681658 0.748030
Si Si5 0.934691 0.693866 0.722638
Si Si6 0.459670 0.467550 0.288374
Si Si7 0.238716 0.011595 0.186006
O O1 0.851140 0.158127 0.201447
O O2 0.498545 0.953064 0.267077
O O3 0.789340 0.403362 0.913195
O O4 0.500000 0.000000 0.000000
O O5 0.131239 0.515234 0.406550
O O6 0.011182 0.217195 0.464510
O O7 0.362914 0.470120 0.568691
O O8 0.975784 0.106724 0.780187
O O9 0.709739 0.413383 0.350755
O O10 0.818840 0.201181 0.695529
O O11 0.599228 0.705918 0.669424
O O12 0.619597 0.896515 0.692324
O O13 0.500000 0.500000 0.000000
O O14 0.762660 0.667673 0.675360
O O15 0.608416 0.742275 0.046139
#
# Coordination Sequence:
#
# PCOD9031099 Si02
#       7
#     2   2   2   2   2   2   2
#     4  11  23  44  68 101 135 171 230 288 328 407
#     4  11  23  40  65 100 138 176 228 278 333 409
#     4  11  21  40  66  94 136 178 225 281 333 397
#     4   9  21  39  60  91 132 172 225 277 327 397
#     4  11  23  43  70  97 135 181 221 277 349 393
#     4  10  22  43  64  96 138 181 222 278 339 405
#     4  11  21  40  64  98 133 181 224 277 337 397
#
# _framework density 23.765454999999999
#
# number of rings (size 3 to 8) (size 9 to 14) (size 15 to 20)
#    0.000    1.429    2.857    2.571    0.000    0.000 
#    5.143    6.429    0.000    0.000    0.000    0.000 
#    0.000    0.000    0.000    0.000    0.000    0.000 
#
# Total GULP energy -78105.409885 kJ/mol
# GULP energy per Si atom -5578.957849 kJ/mol
# Density = 2.371136 g / cm^3
# Si number density = 23.765455 Si / 1000 Ang^3
#
#
#
# Elastic Constant Matrix: (Units=GPa)
#
#
# Indices 1 2 3 4 5 6 
#
# 1 143.8447 59.3611 33.7974 14.5691 10.4594 17.2511
# 2 59.3611 160.8691 33.4317 24.1294 5.3124 3.4460
# 3 33.7974 33.4317 87.8672 4.6689 -2.2032 5.9533
# 4 14.5691 24.1294 4.6689 32.4714 0.8399 -6.8128
# 5 10.4594 5.3124 -2.2032 0.8399 21.7158 -7.2016
# 6 17.2511 3.4460 5.9533 -6.8128 -7.2016 41.0785
#
#
#
# Elastic Compliance Matrix: (Units=1/GPa)
#
#
# Indices 1 2 3 4 5 6 
#
# 1 0.009907 -0.002320 -0.002553 -0.003289 -0.006062 -0.005204
# 2 -0.002320 0.008261 -0.001989 -0.004873 -0.001057 -0.000424
# 3 -0.002553 -0.001989 0.013163 0.000646 0.003016 -0.000033
# 4 -0.003289 -0.004873 0.000646 0.037508 0.004265 0.008665
# 5 -0.006062 -0.001057 0.003016 0.004265 0.053439 0.012273
# 6 -0.005204 -0.000424 -0.000033 0.008665 0.012273 0.030158
#
#
# Mechanical properties :
#
#
# Convention : Reuss Voigt Hill
#
# Bulk Modulus (GPa) = 56.79715 71.75127 64.27421
# Shear Modulus (GPa) = 29.06477 36.78585 32.92531
#
# Velocity S-wave (km/s) = 3.50091 3.93857 3.72617
# Velocity P-wave (km/s) = 6.34766 7.13723 6.75399
#
# Compressibility (1/GPa) = 0.01760652
#
# Stress axis : x y z
#
# Youngs Moduli (GPa) = 100.93614 121.05368 75.97003
#
# Poissons Ratio (x) = 0.28089 0.19392
# Poissons Ratio (y) = 0.23421 0.15114
# Poissons Ratio (z) = 0.25764 0.24083
#
# Static dielectric constant tensor:
#      x y z
#    x 1.898690 0.038080 -0.001780 
#    y 0.038080 1.967960 -0.045390 
#    z -0.001780 -0.045390 1.998320 
# 
# From -- ./inp_files/222931.got.cif
#   From: 2010.05.17/outbox.cif.g08.bks.cpg/sg2_112_cif.got.tgz:222931.got - 2010.06.03 11:33:40.
