data_PCOD9031127
_publ_section_title
;
Structure prediction by ZEFSAII (Michael W. Deem and Ramdas Pophale) SiO2 
 PCOD9031127
Probable space group: P -1
;
_chemical_formula_sum "Si O2"
_cell_formula_units_Z 14
_cell_length_a 10.725885
_cell_length_b 18.626612
_cell_length_c 15.088836
_cell_angle_alpha 19.297293
_cell_angle_beta 132.261778
_cell_angle_gamma 142.062279
_cell_volume 572.902986
_symmetry_space_group_name_H-M "P -1"
_symmetry_group_IT_number 2
_symmetry_cell_setting 'triclinic'
loop_
_space_group_symop_operation_xyz
x,y,z
-x,-y,-z
loop_
_atom_site_type_symbol
_atom_site_label
_atom_site_fract_x
_atom_site_fract_y
_atom_site_fract_z
Si Si1 0.372456 0.096366 0.440821
Si Si2 0.749738 0.847159 0.049013
Si Si3 0.756979 0.451567 0.618665
Si Si4 0.959992 0.710276 0.801583
Si Si5 0.422656 0.914713 0.202337
Si Si6 0.462953 0.442763 0.242004
Si Si7 0.183255 0.758463 0.576963
O O1 0.434294 0.360562 0.220225
O O2 0.596207 0.150173 0.469172
O O3 0.257815 0.003205 0.398102
O O4 0.177209 0.823196 0.721829
O O5 0.655577 0.595622 0.368012
O O6 0.671352 0.721944 0.059645
O O7 0.683698 0.029224 0.837560
O O8 0.000000 0.000000 0.000000
O O9 0.990689 0.662430 0.530273
O O10 0.755329 0.305500 0.698356
O O11 0.599068 0.201327 0.901999
O O12 0.730674 0.556007 0.822276
O O13 0.912496 0.519492 0.084999
O O14 0.000000 0.000000 0.500000
O O15 0.537099 0.794392 0.436456
#
# Coordination Sequence:
#
# PCOD9031127 Si02
#       7
#     2   2   2   2   2   2   2
#     4  10  24  42  67 100 135 177 227 272 333 400
#     4  11  26  41  69 101 126 176 223 272 341 398
#     4  10  23  44  66 100 132 174 220 277 332 397
#     4  10  22  43  65 101 134 178 222 271 336 397
#     4  10  23  45  70  94 132 174 223 278 332 396
#     4  10  24  42  71  95 133 176 224 274 336 395
#     4  11  24  41  70 102 137 180 220 276 339 397
#
# _framework density 24.436945000000001
#
# number of rings (size 3 to 8) (size 9 to 14) (size 15 to 20)
#    0.000    1.714    0.000    2.571    8.000    4.571 
#    5.143    0.000    0.000    0.000    0.000    0.000 
#    0.000    0.000    0.000    0.000    0.000    0.000 
#
# Total GULP energy -78240.612269 kJ/mol
# GULP energy per Si atom -5588.615162 kJ/mol
# Density = 2.438133 g / cm^3
# Si number density = 24.436945 Si / 1000 Ang^3
#
#
#
# Elastic Constant Matrix: (Units=GPa)
#
#
# Indices 1 2 3 4 5 6 
#
# 1 148.1889 64.9175 56.2719 -5.9857 5.2297 -7.9051
# 2 64.9175 202.7201 55.0807 -23.8450 3.9590 -23.3850
# 3 56.2719 55.0807 113.6415 7.4223 2.3091 -7.1703
# 4 -5.9857 -23.8450 7.4223 54.6554 -5.1395 1.1205
# 5 5.2297 3.9590 2.3091 -5.1395 45.1508 -4.4043
# 6 -7.9051 -23.3850 -7.1703 1.1205 -4.4043 33.9464
#
#
#
# Elastic Compliance Matrix: (Units=1/GPa)
#
#
# Indices 1 2 3 4 5 6 
#
# 1 0.008947 -0.001809 -0.003582 0.000619 -0.000626 -0.000021
# 2 -0.001809 0.006984 -0.002463 0.003148 0.000454 0.003825
# 3 -0.003582 -0.002463 0.011982 -0.003126 -0.000332 0.000060
# 4 0.000619 0.003148 -0.003126 0.020348 0.002253 0.001273
# 5 -0.000626 0.000454 -0.000332 0.002253 0.022744 0.002974
# 6 -0.000021 0.003825 0.000060 0.001273 0.002974 0.032445
#
#
# Mechanical properties :
#
#
# Convention : Reuss Voigt Hill
#
# Bulk Modulus (GPa) = 81.93852 90.78786 86.36319
# Shear Modulus (GPa) = 40.57585 45.96921 43.27253
#
# Velocity S-wave (km/s) = 4.07926 4.34191 4.21263
# Velocity P-wave (km/s) = 7.46931 7.89739 7.68633
#
# Compressibility (1/GPa) = 0.01220427
#
# Stress axis : x y z
#
# Youngs Moduli (GPa) = 111.76920 143.18505 83.45939
#
# Poissons Ratio (x) = 0.25905 0.29899
# Poissons Ratio (y) = 0.20221 0.20553
# Poissons Ratio (z) = 0.40040 0.35262
#
# Static dielectric constant tensor:
#      x y z
#    x 1.963330 -0.030600 -0.023710 
#    y -0.030600 1.930830 -0.029810 
#    z -0.023710 -0.029810 2.064610 
# 
# From -- ./inp_files/570690.got.cif
#   From: 2010.05.17/outbox.cif.g08.bks.cpg/sg2_286_cif.got.tgz:570690.got - 2010.06.03 11:33:40.
