data_PCOD9031702
_publ_section_title
;
Structure prediction by ZEFSAII (Michael W. Deem and Ramdas Pophale) SiO2 
 PCOD9031702
Probable space group: P -1
;
_chemical_formula_sum "Si O2"
_cell_formula_units_Z 14
_cell_length_a 24.525905
_cell_length_b 6.409881
_cell_length_c 12.188999
_cell_angle_alpha 96.226279
_cell_angle_beta 149.566866
_cell_angle_gamma 60.268596
_cell_volume 579.993022
_symmetry_space_group_name_H-M "P -1"
_symmetry_group_IT_number 2
_symmetry_cell_setting 'triclinic'
loop_
_space_group_symop_operation_xyz
x,y,z
-x,-y,-z
loop_
_atom_site_type_symbol
_atom_site_label
_atom_site_fract_x
_atom_site_fract_y
_atom_site_fract_z
Si Si1 0.826324 0.793437 0.383900
Si Si2 0.861960 0.027516 0.271050
Si Si3 0.942143 0.499570 0.018001
Si Si4 0.297924 0.829869 0.215774
Si Si5 0.408102 0.228097 0.072866
Si Si6 0.465197 0.593905 0.818891
Si Si7 0.277497 0.554308 0.354813
O O1 0.931234 0.762884 0.471121
O O2 0.756007 0.663098 0.246677
O O3 0.903589 0.713413 0.634418
O O4 0.642288 0.203567 0.060336
O O5 0.833152 0.950817 0.103040
O O6 0.678601 0.449345 0.990440
O O7 0.000000 0.000000 0.500000
O O8 0.884437 0.348676 0.896216
O O9 0.771041 0.884252 0.801879
O O10 0.000000 0.500000 0.000000
O O11 0.500000 0.500000 0.500000
O O12 0.263667 0.673179 0.217170
O O13 0.520334 0.182784 0.172666
O O14 0.544663 0.865303 0.351227
O O15 0.306505 0.702946 0.498073
O O16 0.500000 0.500000 0.000000
#
# Coordination Sequence:
#
# PCOD9031702 Si02
#       7
#     2   2   2   2   2   2   2
#     4  10  24  43  68 105 138 190 233 294 353 421
#     4  11  23  42  69 103 140 180 240 295 348 414
#     4  12  29  46  69 106 153 187 231 292 370 428
#     4  12  26  46  73 104 142 187 242 295 349 423
#     4  10  22  43  68 100 135 177 243 288 342 416
#     4  10  23  41  70  95 133 184 240 284 339 419
#     4  11  25  44  69 103 142 187 235 293 356 422
#
# _framework density 24.138221000000001
#
# number of rings (size 3 to 8) (size 9 to 14) (size 15 to 20)
#    0.000    1.143    0.000    6.000    6.000    9.714 
#    0.000    0.000    0.000    0.000    0.000    0.000 
#    0.000    0.000    0.000    0.000    0.000    0.000 
#
# Total GULP energy -78106.072518 kJ/mol
# GULP energy per Si atom -5579.005180 kJ/mol
# Density = 2.408328 g / cm^3
# Si number density = 24.138221 Si / 1000 Ang^3
#
#
#
# Elastic Constant Matrix: (Units=GPa)
#
#
# Indices 1 2 3 4 5 6 
#
# 1 163.3185 66.8196 63.0110 31.5585 -23.1218 42.6930
# 2 66.8196 121.7651 53.0644 13.0483 -7.3901 20.9689
# 3 63.0110 53.0644 133.3699 30.3227 -16.1088 18.9876
# 4 31.5585 13.0483 30.3227 51.6915 -0.7399 4.0335
# 5 -23.1218 -7.3901 -16.1088 -0.7399 48.9509 -3.6249
# 6 42.6930 20.9689 18.9876 4.0335 -3.6249 42.3527
#
#
#
# Elastic Compliance Matrix: (Units=1/GPa)
#
#
# Indices 1 2 3 4 5 6 
#
# 1 0.011946 -0.003695 -0.001349 -0.004825 0.003915 -0.008813
# 2 -0.003695 0.011551 -0.003148 0.001233 -0.001077 -0.000793
# 3 -0.001349 -0.003148 0.010913 -0.004646 0.002310 -0.001334
# 4 -0.004825 0.001233 -0.004646 0.024370 -0.002975 0.003761
# 5 0.003915 -0.001077 0.002310 -0.002975 0.022666 -0.002226
# 6 -0.008813 -0.000793 -0.001334 0.003761 -0.002226 0.032937
#
#
# Mechanical properties :
#
#
# Convention : Reuss Voigt Hill
#
# Bulk Modulus (GPa) = 55.47515 87.13818 71.30666
# Shear Modulus (GPa) = 36.55662 44.30292 40.42977
#
# Velocity S-wave (km/s) = 3.89584 4.28879 4.09703
# Velocity P-wave (km/s) = 6.57791 7.79121 7.21013
#
# Compressibility (1/GPa) = 0.01802609
#
# Stress axis : x y z
#
# Youngs Moduli (GPa) = 83.71178 86.57282 91.63410
#
# Poissons Ratio (x) = 0.31990 0.12361
# Poissons Ratio (y) = 0.30932 0.28844
# Poissons Ratio (z) = 0.11293 0.27251
#
# Static dielectric constant tensor:
#      x y z
#    x 1.787810 0.022480 0.105700 
#    y 0.022480 1.923070 -0.061360 
#    z 0.105700 -0.061360 2.012160 
# 
# From -- ./inp_files/410684.got.cif
#   From: 2010.05.17/outbox.cif.g08.bks.cpg/sg2_206_cif.got.tgz:410684.got - 2010.06.03 11:33:40.
