data_PCOD9031481
_publ_section_title
;
Structure prediction by ZEFSAII (Michael W. Deem and Ramdas Pophale) SiO2 
 PCOD9031481
Probable space group: P -1
;
_chemical_formula_sum "Si O2"
_cell_formula_units_Z 14
_cell_length_a 5.213422
_cell_length_b 20.614772
_cell_length_c 15.650646
_cell_angle_alpha 29.329032
_cell_angle_beta 119.805601
_cell_angle_gamma 99.587631
_cell_volume 556.526433
_symmetry_space_group_name_H-M "P -1"
_symmetry_group_IT_number 2
_symmetry_cell_setting 'triclinic'
loop_
_space_group_symop_operation_xyz
x,y,z
-x,-y,-z
loop_
_atom_site_type_symbol
_atom_site_label
_atom_site_fract_x
_atom_site_fract_y
_atom_site_fract_z
Si Si1 0.687183 0.200959 0.225174
Si Si2 0.319721 0.305719 0.858219
Si Si3 0.507603 0.022870 0.732552
Si Si4 0.550005 0.642200 0.353476
Si Si5 0.381230 0.812564 0.588649
Si Si6 0.634183 0.700748 0.487193
Si Si7 0.481853 0.465020 0.190114
O O1 0.466848 0.220119 0.252382
O O2 0.493519 0.256548 0.037298
O O3 0.766101 0.335073 0.099066
O O4 0.000000 0.000000 0.500000
O O5 0.570260 0.259314 0.868701
O O6 0.016004 0.509530 0.577632
O O7 0.215713 0.179448 0.974721
O O8 0.570019 0.073668 0.593173
O O9 0.554493 0.123886 0.694904
O O10 0.071884 0.093079 0.585923
O O11 0.500000 0.500000 0.500000
O O12 0.470540 0.724601 0.338160
O O13 0.560879 0.636829 0.771245
O O14 0.587681 0.585556 0.672301
O O15 0.080400 0.610071 0.657778
#
# Coordination Sequence:
#
# PCOD9031481 Si02
#       7
#     2   2   2   2   2   2   2
#     4  12  23  42  69 102 138 179 219 274 339 395
#     4  11  25  44  65 100 136 173 227 277 331 401
#     4  10  23  44  67 101 133 174 222 278 332 396
#     4  11  25  44  71  94 132 182 224 277 336 392
#     4  10  23  42  67  97 138 178 218 270 336 399
#     4  10  22  44  73  94 132 176 227 274 334 393
#     4  10  22  43  67 100 133 177 224 270 329 407
#
# _framework density 25.156037999999999
#
# number of rings (size 3 to 8) (size 9 to 14) (size 15 to 20)
#    0.000    1.429    2.857    1.286    4.000    3.429 
#    2.571    5.000    0.000    0.000    0.000    0.000 
#    0.000    0.000    0.000    0.000    0.000    0.000 
#
# Total GULP energy -78302.664943 kJ/mol
# GULP energy per Si atom -5593.047496 kJ/mol
# Density = 2.509878 g / cm^3
# Si number density = 25.156038 Si / 1000 Ang^3
#
#
#
# Elastic Constant Matrix: (Units=GPa)
#
#
# Indices 1 2 3 4 5 6 
#
# 1 134.9559 24.3239 17.8715 9.0227 -36.4468 -25.2800
# 2 24.3239 151.8597 55.6694 23.3261 -31.1799 -39.3221
# 3 17.8715 55.6694 74.3422 -16.0733 -17.5761 -8.5920
# 4 9.0227 23.3261 -16.0733 49.8895 2.0438 -16.9108
# 5 -36.4468 -31.1799 -17.5761 2.0438 48.3319 12.6404
# 6 -25.2800 -39.3221 -8.5920 -16.9108 12.6404 36.1633
#
#
#
# Elastic Compliance Matrix: (Units=1/GPa)
#
#
# Indices 1 2 3 4 5 6 
#
# 1 0.010502 0.002655 -0.002589 -0.002215 0.007199 0.006060
# 2 0.002655 0.015327 -0.011417 -0.008120 0.005437 0.010111
# 3 -0.002589 -0.011417 0.025221 0.013278 -0.000196 -0.001954
# 4 -0.002215 -0.008120 0.013278 0.032124 -0.006030 0.009907
# 5 0.007199 0.005437 -0.000196 -0.006030 0.030484 -0.002578
# 6 0.006060 0.010111 -0.001954 0.009907 -0.002578 0.047953
#
#
# Mechanical properties :
#
#
# Convention : Reuss Voigt Hill
#
# Bulk Modulus (GPa) = 35.27636 61.87639 48.57637
# Shear Modulus (GPa) = 25.80479 44.42980 35.11730
#
# Velocity S-wave (km/s) = 3.20627 4.20714 3.74033
# Velocity P-wave (km/s) = 5.26881 6.94626 6.16485
#
# Compressibility (1/GPa) = 0.02834760
#
# Stress axis : x y z
#
# Youngs Moduli (GPa) = 95.22224 65.24545 39.64882
#
# Poissons Ratio (x) = -0.17320 0.10265
# Poissons Ratio (y) = -0.25278 0.45266
# Poissons Ratio (z) = 0.24652 0.74490
#
# Static dielectric constant tensor:
#      x y z
#    x 2.190860 0.040680 0.168770 
#    y 0.040680 1.958290 0.016440 
#    z 0.168770 0.016440 2.052350 
# 
# From -- ./inp_files/65587.got.cif
#   From: 2010.05.17/outbox.cif.g08.bks.cpg/sg2_33_cif.got.tgz:65587.got - 2010.06.03 11:33:40.
