data_PCOD9031097
_publ_section_title
;
Structure prediction by ZEFSAII (Michael W. Deem and Ramdas Pophale) SiO2 
 PCOD9031097
Probable space group: P -1
;
_chemical_formula_sum "Si O2"
_cell_formula_units_Z 14
_cell_length_a 19.270943
_cell_length_b 6.842653
_cell_length_c 14.688348
_cell_angle_alpha 71.092366
_cell_angle_beta 19.545639
_cell_angle_gamma 73.972996
_cell_volume 610.401321
_symmetry_space_group_name_H-M "P -1"
_symmetry_group_IT_number 2
_symmetry_cell_setting 'triclinic'
loop_
_space_group_symop_operation_xyz
x,y,z
-x,-y,-z
loop_
_atom_site_type_symbol
_atom_site_label
_atom_site_fract_x
_atom_site_fract_y
_atom_site_fract_z
Si Si1 0.331315 0.356043 0.425417
Si Si2 0.795123 0.902903 0.213068
Si Si3 0.868335 0.273811 0.950128
Si Si4 0.390455 0.832050 0.033700
Si Si5 0.302666 0.353679 0.799856
Si Si6 0.265524 0.800014 0.391758
Si Si7 0.833564 0.004195 0.870167
O O1 0.349093 0.228838 0.516346
O O2 0.510143 0.318550 0.138017
O O3 0.298430 0.598262 0.442134
O O4 0.112066 0.259259 0.669378
O O5 0.821458 0.743781 0.120621
O O6 0.733380 0.106065 0.205690
O O7 0.000000 0.000000 0.000000
O O8 0.835259 0.210923 0.896948
O O9 0.820386 0.497141 0.007777
O O10 0.567543 0.014770 0.812074
O O11 0.311700 0.733408 0.240764
O O12 0.211542 0.939698 0.185113
O O13 0.500000 0.500000 0.500000
O O14 0.344102 0.160508 0.842190
O O15 0.045098 0.898038 0.644739
#
# Coordination Sequence:
#
# PCOD9031097 Si02
#       7
#     2   2   2   2   2   2   2
#     4  11  22  42  69  95 134 172 222 275 337 400
#     4   9  23  39  64  96 130 177 221 265 334 402
#     4  10  22  43  64  96 138 176 217 274 336 403
#     4  11  26  42  71  99 130 175 230 283 339 397
#     4  11  25  40  65 102 138 178 228 274 330 420
#     4  11  24  47  67  99 131 174 231 284 334 402
#     4  11  24  45  69  96 140 177 218 282 346 394
#
# _framework density 22.935731000000001
#
# number of rings (size 3 to 8) (size 9 to 14) (size 15 to 20)
#    0.000    1.429    2.857    0.857    6.000    3.429 
#    0.000    0.714    0.000    0.000    0.000    0.000 
#    0.000    0.000    0.000    0.000    0.000    0.000 
#
# Total GULP energy -78181.771824 kJ/mol
# GULP energy per Si atom -5584.412273 kJ/mol
# Density = 2.288353 g / cm^3
# Si number density = 22.935731 Si / 1000 Ang^3
#
#
#
# Elastic Constant Matrix: (Units=GPa)
#
#
# Indices 1 2 3 4 5 6 
#
# 1 89.6943 34.9555 11.2661 3.8446 2.6896 0.3351
# 2 34.9555 110.3743 17.7349 12.6236 -1.5963 11.8787
# 3 11.2661 17.7349 53.7346 15.1068 0.4941 8.3536
# 4 3.8446 12.6236 15.1068 35.1497 3.1788 5.0870
# 5 2.6896 -1.5963 0.4941 3.1788 28.8101 0.4538
# 6 0.3351 11.8787 8.3536 5.0870 0.4538 24.1961
#
#
#
# Elastic Compliance Matrix: (Units=1/GPa)
#
#
# Indices 1 2 3 4 5 6 
#
# 1 0.013024 -0.004179 -0.001905 0.000684 -0.001528 0.002414
# 2 -0.004179 0.011416 -0.001506 -0.002465 0.001392 -0.004534
# 3 -0.001905 -0.001506 0.022656 -0.008280 0.000703 -0.005328
# 4 0.000684 -0.002465 -0.008280 0.033579 -0.003717 -0.002930
# 5 -0.001528 0.001392 0.000703 -0.003717 0.035340 -0.000786
# 6 0.002414 -0.004534 -0.005328 -0.002930 -0.000786 0.045992
#
#
# Mechanical properties :
#
#
# Convention : Reuss Voigt Hill
#
# Bulk Modulus (GPa) = 31.33227 42.41288 36.87257
# Shear Modulus (GPa) = 26.62028 30.28765 28.45396
#
# Velocity S-wave (km/s) = 3.41052 3.63787 3.52603
# Velocity P-wave (km/s) = 5.40365 6.01479 5.71739
#
# Compressibility (1/GPa) = 0.03191598
#
# Stress axis : x y z
#
# Youngs Moduli (GPa) = 76.77964 87.59961 44.13762
#
# Poissons Ratio (x) = 0.36606 0.08408
# Poissons Ratio (y) = 0.32084 0.06649
# Poissons Ratio (z) = 0.14626 0.13196
#
# Static dielectric constant tensor:
#      x y z
#    x 1.838930 -0.009820 -0.007180 
#    y -0.009820 1.848810 0.005780 
#    z -0.007180 0.005780 1.929830 
# 
# From -- ./inp_files/119469.got.cif
#   From: 2010.05.17/outbox.cif.g08.bks.cpg/sg2_60_cif.got.tgz:119469.got - 2010.06.03 11:33:40.
