data_PCOD9031644
_publ_section_title
;
Structure prediction by ZEFSAII (Michael W. Deem and Ramdas Pophale) SiO2 
 PCOD9031644
Probable space group: P -1
;
_chemical_formula_sum "Si O2"
_cell_formula_units_Z 14
_cell_length_a 5.954587
_cell_length_b 6.564837
_cell_length_c 21.808265
_cell_angle_alpha 130.654622
_cell_angle_beta 111.454515
_cell_angle_gamma 77.131887
_cell_volume 601.791725
_symmetry_space_group_name_H-M "P -1"
_symmetry_group_IT_number 2
_symmetry_cell_setting 'triclinic'
loop_
_space_group_symop_operation_xyz
x,y,z
-x,-y,-z
loop_
_atom_site_type_symbol
_atom_site_label
_atom_site_fract_x
_atom_site_fract_y
_atom_site_fract_z
Si Si1 0.646907 0.218960 0.518856
Si Si2 0.037179 0.631125 0.676506
Si Si3 0.796836 0.161974 0.786034
Si Si4 0.245670 0.510572 0.904111
Si Si5 0.316005 0.862656 0.091058
Si Si6 0.755085 0.335823 0.425525
Si Si7 0.563018 0.400878 0.186726
O O1 0.702053 0.135226 0.437632
O O2 0.462298 0.461885 0.551282
O O3 0.896294 0.348951 0.595148
O O4 0.500000 0.000000 0.500000
O O5 0.197978 0.730643 0.653620
O O6 0.209761 0.611992 0.748302
O O7 0.839823 0.860648 0.710702
O O8 0.811414 0.169098 0.862743
O O9 0.556226 0.306911 0.769293
O O10 0.018457 0.348426 0.822860
O O11 0.429589 0.290093 0.905387
O O12 0.369336 0.660967 0.888898
O O13 0.185181 0.713119 0.992409
O O14 0.372886 0.172649 0.144477
O O15 0.000000 0.500000 0.500000
#
# Coordination Sequence:
#
# PCOD9031644 Si02
#       7
#     2   2   2   2   2   2   2
#     4  10  23  49  75 100 128 177 223 263 340 410
#     4  11  25  47  68  99 146 170 217 291 330 400
#     4  11  25  43  66 101 136 179 231 276 342 392
#     4  10  22  43  67  97 135 186 229 283 332 396
#     4  10  22  43  68  94 140 180 234 282 329 399
#     4   9  22  47  69  99 134 169 214 271 335 403
#     4  11  25  43  66 102 135 179 233 273 343 395
#
# _framework density 23.263862
#
# number of rings (size 3 to 8) (size 9 to 14) (size 15 to 20)
#    0.000    1.714    1.429    0.857    4.000    2.857 
#   20.571    0.000    0.000    0.000    0.000    0.000 
#    0.000    0.000    0.000    0.000    0.000    0.000 
#
# Total GULP energy -78273.130774 kJ/mol
# GULP energy per Si atom -5590.937912 kJ/mol
# Density = 2.321091 g / cm^3
# Si number density = 23.263862 Si / 1000 Ang^3
#
#
#
# Elastic Constant Matrix: (Units=GPa)
#
#
# Indices 1 2 3 4 5 6 
#
# 1 60.4047 29.1211 15.1830 -0.5905 -15.0202 12.4350
# 2 29.1211 115.5754 50.1768 -10.7133 -10.7190 14.3713
# 3 15.1830 50.1768 84.9403 -0.0103 -9.8078 -1.5592
# 4 -0.5905 -10.7133 -0.0103 17.2564 7.3106 -1.5478
# 5 -15.0202 -10.7190 -9.8078 7.3106 42.4015 2.6388
# 6 12.4350 14.3713 -1.5592 -1.5478 2.6388 39.1458
#
#
#
# Elastic Compliance Matrix: (Units=1/GPa)
#
#
# Indices 1 2 3 4 5 6 
#
# 1 0.021978 -0.004328 -0.000568 -0.005860 0.007955 -0.006183
# 2 -0.004328 0.014373 -0.007903 0.008862 -0.001019 -0.003798
# 3 -0.000568 -0.007903 0.016890 -0.005663 0.002475 0.003364
# 4 -0.005860 0.008862 -0.005663 0.069005 -0.013167 0.001999
# 5 0.007955 -0.001019 0.002475 -0.013167 0.029270 -0.004548
# 6 -0.006183 -0.003798 0.003364 0.001999 -0.004548 0.029423
#
#
# Mechanical properties :
#
#
# Convention : Reuss Voigt Hill
#
# Bulk Modulus (GPa) = 36.17494 49.98690 43.08092
# Shear Modulus (GPa) = 23.17484 30.85672 27.01578
#
# Velocity S-wave (km/s) = 3.15965 3.64590 3.41145
# Velocity P-wave (km/s) = 5.37538 6.26554 5.83746
#
# Compressibility (1/GPa) = 0.02764345
#
# Stress axis : x y z
#
# Youngs Moduli (GPa) = 45.50041 69.57400 59.20650
#
# Poissons Ratio (x) = 0.30110 0.03361
# Poissons Ratio (y) = 0.19692 0.46793
# Poissons Ratio (z) = 0.02583 0.54987
#
# Static dielectric constant tensor:
#      x y z
#    x 1.855770 0.024410 -0.002730 
#    y 0.024410 1.909810 -0.013820 
#    z -0.002730 -0.013820 1.894250 
# 
# From -- ./inp_files/7568.got.cif
#   From: 2010.05.17/outbox.cif.g08.bks.cpg/sg2_4_cif.got.tgz:7568.got - 2010.06.03 11:33:40.
