data_PCOD9031718
_publ_section_title
;
Structure prediction by ZEFSAII (Michael W. Deem and Ramdas Pophale) SiO2 
 PCOD9031718
Probable space group: P -1
;
_chemical_formula_sum "Si O2"
_cell_formula_units_Z 14
_cell_length_a 6.551378
_cell_length_b 22.908432
_cell_length_c 5.409927
_cell_angle_alpha 103.373168
_cell_angle_beta 108.091583
_cell_angle_gamma 121.568832
_cell_volume 574.576373
_symmetry_space_group_name_H-M "P -1"
_symmetry_group_IT_number 2
_symmetry_cell_setting 'triclinic'
loop_
_space_group_symop_operation_xyz
x,y,z
-x,-y,-z
loop_
_atom_site_type_symbol
_atom_site_label
_atom_site_fract_x
_atom_site_fract_y
_atom_site_fract_z
Si Si1 0.390041 0.512639 0.721105
Si Si2 0.801534 0.384652 0.591371
Si Si3 0.593291 0.663696 0.193172
Si Si4 0.339431 0.990687 0.176827
Si Si5 0.139230 0.717639 0.256652
Si Si6 0.701015 0.876352 0.825177
Si Si7 0.431956 0.756609 0.991771
O O1 0.500000 0.500000 0.500000
O O2 0.053001 0.450434 0.576637
O O3 0.500000 0.500000 0.000000
O O4 0.478112 0.598615 0.869695
O O5 0.586563 0.384431 0.676144
O O6 0.940709 0.367159 0.838707
O O7 0.639223 0.301675 0.314228
O O8 0.562157 0.728761 0.191545
O O9 0.921472 0.710404 0.345107
O O10 0.310532 0.057356 0.203198
O O11 0.500000 0.000000 0.500000
O O12 0.500000 0.000000 0.000000
O O13 0.018206 0.909510 0.957454
O O14 0.447412 0.800531 0.505698
O O15 0.143334 0.728674 0.975024
O O16 0.615988 0.843967 0.044070
#
# Coordination Sequence:
#
# PCOD9031718 Si02
#       7
#     2   2   2   2   2   2   2
#     4  12  26  44  71  96 141 192 246 307 373 428
#     4  10  23  43  63 100 139 183 246 307 361 432
#     4  11  24  40  70  99 140 191 250 295 382 437
#     4  11  28  48  78 112 149 195 239 288 366 435
#     4  10  22  43  68 100 144 185 240 301 363 430
#     4  10  26  45  74 108 149 185 246 300 352 443
#     4  10  24  41  70 102 140 186 242 302 365 429
#
# _framework density 24.365779
#
# number of rings (size 3 to 8) (size 9 to 14) (size 15 to 20)
#    0.000    1.429    1.429    1.286   10.000    6.286 
#    0.000    0.000    0.000    0.000    0.000    0.000 
#    0.000    0.000    0.000    0.000    0.000    0.000 
#
# Total GULP energy -77938.460948 kJ/mol
# GULP energy per Si atom -5567.032925 kJ/mol
# Density = 2.431032 g / cm^3
# Si number density = 24.365779 Si / 1000 Ang^3
#
#
#
# Elastic Constant Matrix: (Units=GPa)
#
#
# Indices 1 2 3 4 5 6 
#
# 1 147.5036 67.0251 72.8038 -11.2442 -12.2813 44.7936
# 2 67.0251 129.6636 32.2002 -12.2373 2.2976 25.5000
# 3 72.8038 32.2002 99.0578 -8.5998 -13.6259 22.4733
# 4 -11.2442 -12.2373 -8.5998 41.9462 6.9162 -4.3816
# 5 -12.2813 2.2976 -13.6259 6.9162 33.8441 -11.9284
# 6 44.7936 25.5000 22.4733 -4.3816 -11.9284 56.5667
#
#
#
# Elastic Compliance Matrix: (Units=1/GPa)
#
#
# Indices 1 2 3 4 5 6 
#
# 1 0.014585 -0.004295 -0.007814 0.000366 0.000086 -0.006463
# 2 -0.004295 0.010616 -0.000146 0.002291 -0.003469 -0.001881
# 3 -0.007814 -0.000146 0.016327 0.000643 0.003837 0.000626
# 4 0.000366 0.002291 0.000643 0.025527 -0.005228 -0.000703
# 5 0.000086 -0.003469 0.003837 -0.005228 0.034866 0.006919
# 6 -0.006463 -0.001881 0.000626 -0.000703 0.006919 0.024800
#
#
# Mechanical properties :
#
#
# Convention : Reuss Voigt Hill
#
# Bulk Modulus (GPa) = 58.75655 80.03145 69.39400
# Shear Modulus (GPa) = 31.86660 40.08445 35.97553
#
# Velocity S-wave (km/s) = 3.62033 4.06040 3.84666
# Velocity P-wave (km/s) = 6.45310 7.40943 6.94774
#
# Compressibility (1/GPa) = 0.01701938
#
# Stress axis : x y z
#
# Youngs Moduli (GPa) = 68.56125 94.19519 61.24786
#
# Poissons Ratio (x) = 0.40457 0.47858
# Poissons Ratio (y) = 0.29447 0.00893
# Poissons Ratio (z) = 0.53573 0.01374
#
# Static dielectric constant tensor:
#      x y z
#    x 2.153690 -0.082870 0.171810 
#    y -0.082870 2.100220 -0.323490 
#    z 0.171810 -0.323490 2.502840 
# 
# From -- ./inp_files/8066.got.cif
#   From: 2010.05.17/outbox.cif.g08.bks.cpg/sg2_5_cif.got.tgz:8066.got - 2010.06.03 11:33:40.
