data_PCOD9031894
_publ_section_title
;
Structure prediction by ZEFSAII (Michael W. Deem and Ramdas Pophale) SiO2 
 PCOD9031894
Probable space group: P -1
;
_chemical_formula_sum "Si O2"
_cell_formula_units_Z 10
_cell_length_a 12.079501
_cell_length_b 7.956478
_cell_length_c 10.213433
_cell_angle_alpha 64.561023
_cell_angle_beta 33.149597
_cell_angle_gamma 48.110398
_cell_volume 378.840665
_symmetry_space_group_name_H-M "P -1"
_symmetry_group_IT_number 2
_symmetry_cell_setting 'triclinic'
loop_
_space_group_symop_operation_xyz
x,y,z
-x,-y,-z
loop_
_atom_site_type_symbol
_atom_site_label
_atom_site_fract_x
_atom_site_fract_y
_atom_site_fract_z
Si Si1 0.233399 0.439728 0.179035
Si Si2 0.787401 0.321340 0.334992
Si Si3 0.409786 0.470946 0.282349
Si Si4 0.311355 0.054833 0.787131
Si Si5 0.753121 0.918047 0.565567
O O1 0.295627 0.491481 0.246054
O O2 0.237427 0.216112 0.269124
O O3 0.951725 0.689248 0.349637
O O4 0.462639 0.397239 0.883091
O O5 0.500000 0.500000 0.500000
O O6 0.780605 0.440709 0.436372
O O7 0.839497 0.079864 0.411730
O O8 0.007302 0.259630 0.036785
O O9 0.642168 0.192639 0.163824
O O10 0.460062 0.067283 0.755784
O O11 0.500000 0.000000 0.500000
#
# Coordination Sequence:
#
# PCOD9031894 Si02
#       5
#     2   2   2   2   2
#     4   9  20  44  69  99 129 181 208 275 338 396
#     4  12  27  43  67 103 133 176 227 275 325 392
#     4  10  22  43  70  95 138 169 224 270 335 395
#     4  11  25  45  67  95 138 180 223 273 327 395
#     4  10  22  43  68  98 131 172 224 263 342 389
#
# _framework density 26.396318000000001
#
# number of rings (size 3 to 8) (size 9 to 14) (size 15 to 20)
#    0.000    1.600    2.000    1.200    2.800    6.400 
#    7.200    0.000    0.000    0.000    0.000    0.000 
#    0.000    0.000    0.000    0.000    0.000    0.000 
#
# Total GULP energy -55875.451263 kJ/mol
# GULP energy per Si atom -5587.545126 kJ/mol
# Density = 2.633624 g / cm^3
# Si number density = 26.396318 Si / 1000 Ang^3
#
#
#
# Elastic Constant Matrix: (Units=GPa)
#
#
# Indices 1 2 3 4 5 6 
#
# 1 69.1079 10.3273 40.6734 12.5296 5.8815 -12.5989
# 2 10.3273 104.1682 33.1932 -4.3490 -3.9123 15.7847
# 3 40.6734 33.1932 216.8056 1.4492 -8.2875 -15.9376
# 4 12.5296 -4.3490 1.4492 38.2795 -4.4656 -8.4176
# 5 5.8815 -3.9123 -8.2875 -4.4656 35.0318 6.6168
# 6 -12.5989 15.7847 -15.9376 -8.4176 6.6168 29.2431
#
#
#
# Elastic Compliance Matrix: (Units=1/GPa)
#
#
# Indices 1 2 3 4 5 6 
#
# 1 0.019651 -0.002768 -0.002868 -0.005584 -0.006561 0.008274
# 2 -0.002768 0.012022 -0.001883 0.000685 0.003193 -0.009233
# 3 -0.002868 -0.001883 0.005696 0.001308 0.001222 0.002985
# 4 -0.005584 0.000685 0.001308 0.029676 0.004056 0.005562
# 5 -0.006561 0.003193 0.001222 0.004056 0.032721 -0.010121
# 6 0.008274 -0.009233 0.002985 0.005562 -0.010121 0.048262
#
#
# Mechanical properties :
#
#
# Convention : Reuss Voigt Hill
#
# Bulk Modulus (GPa) = 44.77842 62.05216 53.41529
# Shear Modulus (GPa) = 29.32396 40.90341 35.11369
#
# Velocity S-wave (km/s) = 3.33665 3.94075 3.65122
# Velocity P-wave (km/s) = 5.64314 6.65319 6.16887
#
# Compressibility (1/GPa) = 0.02233219
#
# Stress axis : x y z
#
# Youngs Moduli (GPa) = 50.88789 83.18304 175.55901
#
# Poissons Ratio (x) = 0.23023 0.50352
# Poissons Ratio (y) = 0.14084 0.33049
# Poissons Ratio (z) = 0.14595 0.15659
#
# Static dielectric constant tensor:
#      x y z
#    x 2.101600 -0.017590 -0.017670 
#    y -0.017590 2.113000 -0.036200 
#    z -0.017670 -0.036200 2.103130 
# 
# From -- ./inp_files/30254.got.cif
#   From: 2010.05.17/outbox.cif.g08.bks.cpg/sg2_16_cif.got.tgz:30254.got - 2010.06.03 11:33:40.
