data_PCOD9031023
_publ_section_title
;
Structure prediction by ZEFSAII (Michael W. Deem and Ramdas Pophale) SiO2 
 PCOD9031023
Probable space group: P -1
;
_chemical_formula_sum "Si O2"
_cell_formula_units_Z 15
_cell_length_a 16.437791
_cell_length_b 6.188249
_cell_length_c 7.990894
_cell_angle_alpha 121.108381
_cell_angle_beta 98.540814
_cell_angle_gamma 58.552873
_cell_volume 585.521987
_symmetry_space_group_name_H-M "P -1"
_symmetry_group_IT_number 2
_symmetry_cell_setting 'triclinic'
loop_
_space_group_symop_operation_xyz
x,y,z
-x,-y,-z
loop_
_atom_site_type_symbol
_atom_site_label
_atom_site_fract_x
_atom_site_fract_y
_atom_site_fract_z
Si Si1 0.073307 0.662787 0.945756
Si Si2 0.218023 0.364487 0.387561
Si Si3 0.690151 0.331155 0.279751
Si Si4 0.437140 0.280788 0.915788
Si Si5 0.264547 0.293472 0.996589
Si Si6 0.982331 0.319207 0.675723
Si Si7 0.593708 0.176782 0.695025
Si Si8 0.500000 0.500000 0.500000
O O1 0.187114 0.545219 0.949004
O O2 0.058090 0.428274 0.742482
O O3 0.047680 0.650437 0.126835
O O4 0.000000 0.000000 0.000000
O O5 0.239949 0.560892 0.594201
O O6 0.109074 0.451468 0.372344
O O7 0.293085 0.029709 0.332482
O O8 0.246689 0.406645 0.225671
O O9 0.630887 0.492534 0.158489
O O10 0.606791 0.418231 0.427183
O O11 0.750387 0.981633 0.126992
O O12 0.375756 0.158067 0.926817
O O13 0.541483 0.096176 0.789512
O O14 0.443356 0.479087 0.145036
O O15 0.000000 0.000000 0.500000
O O16 0.554036 0.189168 0.505663
#
# Coordination Sequence:
#
# PCOD9031023 Si02
#       8
#     2   2   2   2   2   2   2   1
#     4  10  24  43  69 100 132 173 226 278 343 401
#     4  11  24  41  69  96 134 173 224 270 332 396
#     4  11  24  42  62 100 130 174 223 270 322 394
#     4  10  23  41  67  91 135 176 218 268 328 388
#     4  11  24  42  67  96 133 175 219 275 331 392
#     4  10  23  46  69  97 138 176 216 287 338 399
#     4  10  22  43  63  99 133 176 221 269 326 394
#     4  10  24  40  64  94 138 174 220 272 326 386
#
# _framework density 25.618168000000001
#
# number of rings (size 3 to 8) (size 9 to 14) (size 15 to 20)
#    0.000    1.600    1.333    1.600    5.600    4.267 
#    0.000    0.000    0.000    0.000    0.000    0.000 
#    0.000    0.000    0.000    0.000    0.000    0.000 
#
# Total GULP energy -83707.419671 kJ/mol
# GULP energy per Si atom -5580.494645 kJ/mol
# Density = 2.555986 g / cm^3
# Si number density = 25.618168 Si / 1000 Ang^3
#
#
#
# Elastic Constant Matrix: (Units=GPa)
#
#
# Indices 1 2 3 4 5 6 
#
# 1 54.3939 11.3464 13.7566 -7.8547 17.7289 -11.2737
# 2 11.3464 117.8414 -0.6944 2.4059 3.0997 -36.6478
# 3 13.7566 -0.6944 85.4281 18.5701 13.3644 7.2714
# 4 -7.8547 2.4059 18.5701 23.6856 10.2632 0.9095
# 5 17.7289 3.0997 13.3644 10.2632 34.3013 -7.9904
# 6 -11.2737 -36.6478 7.2714 0.9095 -7.9904 41.0646
#
#
#
# Elastic Compliance Matrix: (Units=1/GPa)
#
#
# Indices 1 2 3 4 5 6 
#
# 1 0.031685 -0.001834 -0.007862 0.025267 -0.019765 0.004049
# 2 -0.001834 0.012106 -0.000351 -0.003577 0.003659 0.011154
# 3 -0.007862 -0.000351 0.016658 -0.015997 0.001269 -0.004820
# 4 0.025267 -0.003577 -0.015997 0.076339 -0.029546 -0.000863
# 5 -0.019765 0.003659 0.001269 -0.029546 0.049212 0.007845
# 6 0.004049 0.011154 -0.004820 -0.000863 0.007845 0.037816
#
#
# Mechanical properties :
#
#
# Convention : Reuss Voigt Hill
#
# Bulk Modulus (GPa) = 24.77966 34.05340 29.41653
# Shear Modulus (GPa) = 19.42787 35.36062 27.39425
#
# Velocity S-wave (km/s) = 2.75683 3.71926 3.27361
# Velocity P-wave (km/s) = 4.45277 5.63608 5.07900
#
# Compressibility (1/GPa) = 0.04035568
#
# Stress axis : x y z
#
# Youngs Moduli (GPa) = 31.56046 82.60388 60.03089
#
# Poissons Ratio (x) = 0.15149 0.47198
# Poissons Ratio (y) = 0.05788 0.02104
# Poissons Ratio (z) = 0.24814 0.02896
#
# Static dielectric constant tensor:
#      x y z
#    x 2.012490 -0.004750 0.010320 
#    y -0.004750 2.011260 0.025230 
#    z 0.010320 0.025230 2.117530 
# 
# From -- ./inp_files/324132.got.cif
#   From: 2010.05.17/outbox.cif.g08.bks.cpg/sg2_163_cif.got.tgz:324132.got - 2010.06.03 11:33:40.
