data_PCOD9031535
_publ_section_title
;
Structure prediction by ZEFSAII (Michael W. Deem and Ramdas Pophale) SiO2 
 PCOD9031535
Probable space group: P -1
;
_chemical_formula_sum "Si O2"
_cell_formula_units_Z 16
_cell_length_a 7.826353
_cell_length_b 5.273799
_cell_length_c 22.128997
_cell_angle_alpha 101.504195
_cell_angle_beta 134.353429
_cell_angle_gamma 82.222608
_cell_volume 639.962560
_symmetry_space_group_name_H-M "P -1"
_symmetry_group_IT_number 2
_symmetry_cell_setting 'triclinic'
loop_
_space_group_symop_operation_xyz
x,y,z
-x,-y,-z
loop_
_atom_site_type_symbol
_atom_site_label
_atom_site_fract_x
_atom_site_fract_y
_atom_site_fract_z
Si Si1 0.411626 0.919114 0.408626
Si Si2 0.589247 0.143560 0.829834
Si Si3 0.059000 0.207211 0.255788
Si Si4 0.082199 0.334968 0.689956
Si Si5 0.207220 0.394768 0.588784
Si Si6 0.265455 0.765798 0.997510
Si Si7 0.654383 0.589494 0.770307
Si Si8 0.815799 0.791388 0.090985
O O1 0.626738 0.798924 0.417595
O O2 0.179919 0.741017 0.356006
O O3 0.500000 0.000000 0.500000
O O4 0.290368 0.141469 0.349583
O O5 0.302636 0.177446 0.764130
O O6 0.714753 0.237644 0.926015
O O7 0.653082 0.327011 0.796857
O O8 0.654546 0.846910 0.822075
O O9 0.146950 0.384306 0.230659
O O10 0.884330 0.371974 0.263111
O O11 0.950600 0.951701 0.184786
O O12 0.092289 0.295462 0.618396
O O13 0.401400 0.597878 0.672124
O O14 0.000000 0.500000 0.500000
O O15 0.539685 0.773747 0.042561
O O16 0.137745 0.503925 0.931028
O O17 0.161986 0.023093 0.953304
#
# Coordination Sequence:
#
# PCOD9031535 Si02
#       8
#     2   2   2   2   2   2   2   2
#     4  12  28  47  76 111 150 201 250 316 372 453
#     4  11  25  46  74 107 149 197 253 307 379 448
#     4  12  26  47  71 106 152 190 258 305 382 450
#     4  11  27  44  75 106 145 204 246 307 381 442
#     4  11  26  48  73 107 150 193 256 310 374 448
#     4  10  22  43  67 109 146 187 257 307 372 452
#     4  11  26  47  72 105 149 201 240 318 379 445
#     4  10  24  38  72 106 144 198 240 318 374 441
#
# _framework density 25.001466000000001
#
# number of rings (size 3 to 8) (size 9 to 14) (size 15 to 20)
#    0.000    1.000    1.250    3.750   17.500    1.500 
#    0.000    3.750    0.000    0.000    0.000    0.000 
#    0.000    0.000    0.000    0.000    0.000    0.000 
#
# Total GULP energy -89618.466096 kJ/mol
# GULP energy per Si atom -5601.154131 kJ/mol
# Density = 2.494456 g / cm^3
# Si number density = 25.001466 Si / 1000 Ang^3
#
#
#
# Elastic Constant Matrix: (Units=GPa)
#
#
# Indices 1 2 3 4 5 6 
#
# 1 124.3385 56.2715 35.9543 -3.2496 -23.5897 -12.8745
# 2 56.2715 127.1452 33.7755 0.8019 -24.4070 3.5059
# 3 35.9543 33.7755 152.8507 -8.3828 -32.2574 6.9021
# 4 -3.2496 0.8019 -8.3828 42.6236 5.8546 -1.6687
# 5 -23.5897 -24.4070 -32.2574 5.8546 42.3063 3.3206
# 6 -12.8745 3.5059 6.9021 -1.6687 3.3206 45.1953
#
#
#
# Elastic Compliance Matrix: (Units=1/GPa)
#
#
# Indices 1 2 3 4 5 6 
#
# 1 0.011182 -0.004231 -0.001313 0.000477 0.002448 0.003552
# 2 -0.004231 0.010668 -0.000539 -0.001231 0.003732 -0.002270
# 3 -0.001313 -0.000539 0.008210 0.000725 0.005269 -0.001946
# 4 0.000477 -0.001231 0.000725 0.024171 -0.003335 0.001258
# 5 0.002448 0.003732 0.005269 -0.003335 0.031859 -0.002861
# 6 0.003552 -0.002270 -0.001946 0.001258 -0.002861 0.023868
#
#
# Mechanical properties :
#
#
# Convention : Reuss Voigt Hill
#
# Bulk Modulus (GPa) = 55.88782 72.92632 64.40707
# Shear Modulus (GPa) = 39.03575 44.58058 41.80817
#
# Velocity S-wave (km/s) = 3.95566 4.22728 4.09373
# Velocity P-wave (km/s) = 6.57764 7.28414 6.93989
#
# Compressibility (1/GPa) = 0.01789299
#
# Stress axis : x y z
#
# Youngs Moduli (GPa) = 89.43195 93.74121 121.80336
#
# Poissons Ratio (x) = 0.39662 0.15991
# Poissons Ratio (y) = 0.37838 0.06569
# Poissons Ratio (z) = 0.11741 0.05056
#
# Static dielectric constant tensor:
#      x y z
#    x 2.013630 0.011700 0.035040 
#    y 0.011700 2.011620 0.007730 
#    z 0.035040 0.007730 1.934430 
# 
# From -- ./inp_files/585754.got.cif
#   From: 2010.05.17/outbox.cif.g08.bks.cpg/sg2_293_cif.got.tgz:585754.got - 2010.06.03 11:33:40.
