data_PCOD9031100
_publ_section_title
;
Structure prediction by ZEFSAII (Michael W. Deem and Ramdas Pophale) SiO2 
 PCOD9031100
Probable space group: P -1
;
_chemical_formula_sum "Si O2"
_cell_formula_units_Z 16
_cell_length_a 20.329177
_cell_length_b 8.631535
_cell_length_c 5.912838
_cell_angle_alpha 98.136800
_cell_angle_beta 130.654026
_cell_angle_gamma 60.393576
_cell_volume 658.296127
_symmetry_space_group_name_H-M "P -1"
_symmetry_group_IT_number 2
_symmetry_cell_setting 'triclinic'
loop_
_space_group_symop_operation_xyz
x,y,z
-x,-y,-z
loop_
_atom_site_type_symbol
_atom_site_label
_atom_site_fract_x
_atom_site_fract_y
_atom_site_fract_z
Si Si1 0.938504 0.171790 0.728864
Si Si2 0.451914 0.882996 0.962039
Si Si3 0.612114 0.737124 0.638150
Si Si4 0.256157 0.139123 0.809427
Si Si5 0.432661 0.470704 0.156885
Si Si6 0.230545 0.834978 0.894611
Si Si7 0.924061 0.465401 0.468064
Si Si8 0.783222 0.387057 0.805439
O O1 0.882620 0.118555 0.410148
O O2 0.980001 0.288707 0.726177
O O3 0.844357 0.317989 0.700950
O O4 0.000000 0.000000 0.000000
O O5 0.498810 0.841646 0.311106
O O6 0.491611 0.685315 0.888725
O O7 0.500000 0.000000 0.000000
O O8 0.330100 0.018973 0.742690
O O9 0.614669 0.635593 0.850289
O O10 0.677811 0.578817 0.569897
O O11 0.673295 0.831430 0.852596
O O12 0.158737 0.337878 0.562106
O O13 0.224263 0.020730 0.858300
O O14 0.500000 0.500000 0.500000
O O15 0.329809 0.675553 0.938449
O O16 0.243443 0.750510 0.157213
O O17 0.000000 0.500000 0.500000
O O18 0.853305 0.424344 0.138870
#
# Coordination Sequence:
#
# PCOD9031100 Si02
#       8
#     2   2   2   2   2   2   2   2
#     4  11  25  44  71 101 134 185 244 296 365 435
#     4  12  25  39  70  99 144 187 238 295 355 431
#     4  10  22  43  64  96 138 184 234 288 358 422
#     4  11  24  43  68 104 138 188 238 298 363 429
#     4  11  24  43  69 100 142 190 234 287 359 430
#     4  10  24  43  66 100 145 178 237 293 359 431
#     4  10  25  46  71  98 141 179 231 305 366 424
#     4   9  22  43  69  92 133 185 226 295 360 427
#
# _framework density 24.305171000000001
#
# number of rings (size 3 to 8) (size 9 to 14) (size 15 to 20)
#    0.000    1.500    1.250    2.625    7.000    5.500 
#    0.000    0.000    0.000    0.000    0.000    0.000 
#    0.000    0.000    0.000    0.000    0.000    0.000 
#
# Total GULP energy -89316.990403 kJ/mol
# GULP energy per Si atom -5582.311900 kJ/mol
# Density = 2.424985 g / cm^3
# Si number density = 24.305171 Si / 1000 Ang^3
#
#
#
# Elastic Constant Matrix: (Units=GPa)
#
#
# Indices 1 2 3 4 5 6 
#
# 1 121.6225 47.7514 3.3736 -6.9170 9.7288 24.6800
# 2 47.7514 102.7560 33.2803 -14.3736 2.7572 31.7222
# 3 3.3736 33.2803 59.0612 -17.3051 10.9695 9.8253
# 4 -6.9170 -14.3736 -17.3051 33.8368 -3.1452 1.4273
# 5 9.7288 2.7572 10.9695 -3.1452 22.8209 -2.1141
# 6 24.6800 31.7222 9.8253 1.4273 -2.1141 52.5002
#
#
#
# Elastic Compliance Matrix: (Units=1/GPa)
#
#
# Indices 1 2 3 4 5 6 
#
# 1 0.011538 -0.005404 0.004765 0.002030 -0.006589 -0.003371
# 2 -0.005404 0.017067 -0.008290 0.002537 0.004008 -0.006128
# 3 0.004765 -0.008290 0.027301 0.010338 -0.013020 -0.003146
# 4 0.002030 0.002537 0.010338 0.036413 -0.001630 -0.005477
# 5 -0.006589 0.004008 -0.013020 -0.001630 0.052667 0.005277
# 6 -0.003371 -0.006128 -0.003146 -0.005477 0.005277 0.025285
#
#
# Mechanical properties :
#
#
# Convention : Reuss Voigt Hill
#
# Bulk Modulus (GPa) = 26.28177 50.25006 38.26591
# Shear Modulus (GPa) = 24.89898 35.10054 29.99976
#
# Velocity S-wave (km/s) = 3.20415 3.80433 3.51707
# Velocity P-wave (km/s) = 4.95232 6.32588 5.68077
#
# Compressibility (1/GPa) = 0.03804919
#
# Stress axis : x y z
#
# Youngs Moduli (GPa) = 86.66839 58.59231 36.62841
#
# Poissons Ratio (x) = 0.31662 -0.17455
# Poissons Ratio (y) = 0.46833 0.30366
# Poissons Ratio (z) = -0.41300 0.48574
#
# Static dielectric constant tensor:
#      x y z
#    x 3.746860 0.231330 0.703540 
#    y 0.231330 2.120780 0.080230 
#    z 0.703540 0.080230 2.270950 
# 
# From -- ./inp_files/99875.got.cif
#   From: 2010.05.17/outbox.cif.g08.bks.cpg/sg2_50_cif.got.tgz:99875.got - 2010.06.03 11:33:40.
