data_PCOD9031588
_publ_section_title
;
Structure prediction by ZEFSAII (Michael W. Deem and Ramdas Pophale) SiO2 
 PCOD9031588
Probable space group: P -1
;
_chemical_formula_sum "Si O2"
_cell_formula_units_Z 16
_cell_length_a 9.205996
_cell_length_b 6.137361
_cell_length_c 16.347591
_cell_angle_alpha 118.249134
_cell_angle_beta 111.079890
_cell_angle_gamma 76.636097
_cell_volume 757.103389
_symmetry_space_group_name_H-M "P -1"
_symmetry_group_IT_number 2
_symmetry_cell_setting 'triclinic'
loop_
_space_group_symop_operation_xyz
x,y,z
-x,-y,-z
loop_
_atom_site_type_symbol
_atom_site_label
_atom_site_fract_x
_atom_site_fract_y
_atom_site_fract_z
Si Si1 0.596480 0.164780 0.179001
Si Si2 0.823836 0.666925 0.107998
Si Si3 0.568805 0.204976 0.484037
Si Si4 0.558443 0.030502 0.738877
Si Si5 0.574226 0.529261 0.930515
Si Si6 0.866921 0.433629 0.242741
Si Si7 0.090414 0.984670 0.252509
Si Si8 0.926709 0.131962 0.588048
O O1 0.501627 0.235589 0.091017
O O2 0.720784 0.368159 0.255841
O O3 0.708370 0.913407 0.146223
O O4 0.475274 0.147347 0.224164
O O5 0.806065 0.485993 0.148538
O O6 0.756533 0.554425 0.992316
O O7 0.000458 0.745758 0.164185
O O8 0.500000 0.500000 0.500000
O O9 0.747463 0.227032 0.551372
O O10 0.500000 0.000000 0.500000
O O11 0.555567 0.050256 0.369774
O O12 0.541573 0.300615 0.824897
O O13 0.730752 0.012296 0.733770
O O14 0.500000 0.500000 0.000000
O O15 0.993583 0.204995 0.226830
O O16 0.957073 0.658095 0.332646
O O17 0.072867 0.017957 0.352884
O O18 0.000000 0.000000 0.500000
#
# Coordination Sequence:
#
# PCOD9031588 Si02
#       8
#     2   2   2   2   2   2   2   2
#     4  11  23  40  71  98 143 180 244 294 370 434
#     4  10  22  43  68  97 136 187 228 298 356 442
#     4  12  29  53  77 110 158 202 256 317 388 454
#     4  12  27  43  71 107 141 195 237 303 375 444
#     4  12  24  42  70 106 142 181 245 301 368 438
#     4  10  22  43  67  94 138 180 238 304 359 437
#     4  10  24  46  65  97 143 183 238 294 370 442
#     4  11  26  43  74 105 140 191 252 309 379 442
#
# _framework density 21.133175999999999
#
# number of rings (size 3 to 8) (size 9 to 14) (size 15 to 20)
#    0.000    1.000    3.750    1.125    8.750    3.000 
#    0.000    1.250    0.000    0.000    0.000    0.000 
#    0.000    0.000    0.000    0.000    0.000    0.000 
#
# Total GULP energy -89197.111449 kJ/mol
# GULP energy per Si atom -5574.819466 kJ/mol
# Density = 2.108508 g / cm^3
# Si number density = 21.133176 Si / 1000 Ang^3
#
#
#
# Elastic Constant Matrix: (Units=GPa)
#
#
# Indices 1 2 3 4 5 6 
#
# 1 85.9123 26.2005 23.0716 -10.4735 4.5461 13.4427
# 2 26.2005 102.9087 46.9904 -27.1047 -6.6365 0.9885
# 3 23.0716 46.9904 120.7722 -8.7803 12.1132 -1.2654
# 4 -10.4735 -27.1047 -8.7803 30.3759 -1.5811 6.3548
# 5 4.5461 -6.6365 12.1132 -1.5811 37.8554 -8.8636
# 6 13.4427 0.9885 -1.2654 6.3548 -8.8636 30.7958
#
#
#
# Elastic Compliance Matrix: (Units=1/GPa)
#
#
# Indices 1 2 3 4 5 6 
#
# 1 0.014661 -0.002085 -0.001417 0.004337 -0.003429 -0.008273
# 2 -0.002085 0.016585 -0.005654 0.012931 0.005272 -0.001006
# 3 -0.001417 -0.005654 0.010994 -0.002699 -0.004319 0.000566
# 4 0.004337 0.012931 -0.002699 0.047726 0.001856 -0.011734
# 5 -0.003429 0.005272 -0.004319 0.001856 0.031515 0.009838
# 6 -0.008273 -0.001006 0.000566 -0.011734 0.009838 0.041391
#
#
# Mechanical properties :
#
#
# Convention : Reuss Voigt Hill
#
# Bulk Modulus (GPa) = 41.79215 55.79090 48.79153
# Shear Modulus (GPa) = 26.43274 34.02747 30.23011
#
# Velocity S-wave (km/s) = 3.54046 4.01701 3.78624
# Velocity P-wave (km/s) = 6.04414 6.92620 6.50015
#
# Compressibility (1/GPa) = 0.02392794
#
# Stress axis : x y z
#
# Youngs Moduli (GPa) = 68.20945 60.29434 90.96284
#
# Poissons Ratio (x) = 0.12570 0.12890
# Poissons Ratio (y) = 0.14220 0.51430
# Poissons Ratio (z) = 0.09665 0.34090
#
# Static dielectric constant tensor:
#      x y z
#    x 1.805890 0.056120 0.033210 
#    y 0.056120 1.844330 0.042800 
#    z 0.033210 0.042800 1.785850 
# 
# From -- ./inp_files/488686.got.cif
#   From: 2010.05.17/outbox.cif.g08.bks.cpg/sg2_245_cif.got.tgz:488686.got - 2010.06.03 11:33:40.
