data_PCOD9031663
_publ_section_title
;
Structure prediction by ZEFSAII (Michael W. Deem and Ramdas Pophale) SiO2 
 PCOD9031663
Probable space group: P -1
;
_chemical_formula_sum "Si O2"
_cell_formula_units_Z 14
_cell_length_a 6.839946
_cell_length_b 28.943218
_cell_length_c 11.656815
_cell_angle_alpha 161.095829
_cell_angle_beta 59.456115
_cell_angle_gamma 120.910660
_cell_volume 639.422096
_symmetry_space_group_name_H-M "P -1"
_symmetry_group_IT_number 2
_symmetry_cell_setting 'triclinic'
loop_
_space_group_symop_operation_xyz
x,y,z
-x,-y,-z
loop_
_atom_site_type_symbol
_atom_site_label
_atom_site_fract_x
_atom_site_fract_y
_atom_site_fract_z
Si Si1 0.220363 0.256914 0.242718
Si Si2 0.399767 0.513962 0.245101
Si Si3 0.294014 0.956736 0.626320
Si Si4 0.256044 0.650613 0.379229
Si Si5 0.390124 0.087963 0.141558
Si Si6 0.879899 0.752758 0.221464
Si Si7 0.209141 0.120431 0.697814
O O1 0.460856 0.346196 0.412444
O O2 0.001490 0.325719 0.518300
O O3 0.188353 0.246313 0.090871
O O4 0.214033 0.095177 0.912656
O O5 0.277133 0.555651 0.262997
O O6 0.603170 0.419408 0.926363
O O7 0.215328 0.414358 0.140342
O O8 0.557361 0.943732 0.494943
O O9 0.145952 0.811080 0.287467
O O10 0.275229 0.988471 0.842098
O O11 0.404507 0.803770 0.719294
O O12 0.221038 0.180686 0.477038
O O13 0.500000 0.000000 0.000000
O O14 0.789187 0.823880 0.301607
O O15 0.000000 0.000000 0.500000
#
# Coordination Sequence:
#
# PCOD9031663 Si02
#       7
#     2   2   2   2   2   2   2
#     4  12  24  41  73  95 130 185 220 258 333 396
#     4  10  24  44  66  97 136 172 220 270 329 388
#     4  12  24  43  71 100 129 175 219 272 338 383
#     4  10  22  43  67  98 135 171 216 276 324 391
#     4  11  20  41  69 100 133 163 220 280 329 382
#     4  11  25  42  65 101 134 170 217 281 322 388
#     4  12  26  44  68  97 135 172 226 274 318 394
#
# _framework density 21.894770000000001
#
# number of rings (size 3 to 8) (size 9 to 14) (size 15 to 20)
#    0.000    0.857    4.286    3.000    0.000    1.714 
#    0.000    1.429    0.000    0.000    0.000    0.000 
#    0.000    0.000    0.000    0.000    0.000    0.000 
#
# Total GULP energy -78292.460912 kJ/mol
# GULP energy per Si atom -5592.318637 kJ/mol
# Density = 2.184494 g / cm^3
# Si number density = 21.894770 Si / 1000 Ang^3
#
#
#
# Elastic Constant Matrix: (Units=GPa)
#
#
# Indices 1 2 3 4 5 6 
#
# 1 86.6900 45.5033 3.9573 14.0790 4.3134 14.5303
# 2 45.5033 94.8284 27.9992 26.2926 -1.6321 7.3886
# 3 3.9573 27.9992 27.9440 10.6447 10.6441 3.3038
# 4 14.0790 26.2926 10.6447 40.8649 3.6521 7.3880
# 5 4.3134 -1.6321 10.6441 3.6521 41.5997 -2.2868
# 6 14.5303 7.3886 3.3038 7.3880 -2.2868 36.5454
#
#
#
# Elastic Compliance Matrix: (Units=1/GPa)
#
#
# Indices 1 2 3 4 5 6 
#
# 1 0.018899 -0.012448 0.012950 -0.000151 -0.006107 -0.006520
# 2 -0.012448 0.025986 -0.025672 -0.007359 0.009751 0.004114
# 3 0.012950 -0.025672 0.069308 -0.002946 -0.020204 -0.006893
# 4 -0.000151 -0.007359 -0.002946 0.031085 -0.002503 -0.004627
# 5 -0.006107 0.009751 -0.020204 -0.002503 0.030703 0.004710
# 6 -0.006520 0.004114 -0.006893 -0.004627 0.004710 0.030977
#
#
# Mechanical properties :
#
#
# Convention : Reuss Voigt Hill
#
# Bulk Modulus (GPa) = 15.66066 40.48690 28.07378
# Shear Modulus (GPa) = 17.94813 32.60217 25.27515
#
# Velocity S-wave (km/s) = 2.86623 3.86299 3.40132
# Velocity P-wave (km/s) = 4.25698 6.19909 5.31745
#
# Compressibility (1/GPa) = 0.06385427
#
# Stress axis : x y z
#
# Youngs Moduli (GPa) = 52.91251 38.48236 14.42844
#
# Poissons Ratio (x) = 0.47901 -0.18685
# Poissons Ratio (y) = 0.65863 0.37041
# Poissons Ratio (z) = -0.68523 0.98791
#
# Static dielectric constant tensor:
#      x y z
#    x 1.789610 0.019930 0.016560 
#    y 0.019930 1.817230 -0.026850 
#    z 0.016560 -0.026850 1.834410 
# 
# From -- ./inp_files/69073.got.cif
#   From: 2010.05.17/outbox.cif.g08.bks.cpg/sg2_35_cif.got.tgz:69073.got - 2010.06.03 11:33:40.
