data_PCOD9031333
_publ_section_title
;
Structure prediction by ZEFSAII (Michael W. Deem and Ramdas Pophale) SiO2 
 PCOD9031333
Probable space group: P -1
;
_chemical_formula_sum "Si O2"
_cell_formula_units_Z 16
_cell_length_a 19.032974
_cell_length_b 8.955547
_cell_length_c 6.094706
_cell_angle_alpha 44.302515
_cell_angle_beta 86.310037
_cell_angle_gamma 85.668420
_cell_volume 723.427459
_symmetry_space_group_name_H-M "P -1"
_symmetry_group_IT_number 2
_symmetry_cell_setting 'triclinic'
loop_
_space_group_symop_operation_xyz
x,y,z
-x,-y,-z
loop_
_atom_site_type_symbol
_atom_site_label
_atom_site_fract_x
_atom_site_fract_y
_atom_site_fract_z
Si Si1 0.475531 0.345872 0.974540
Si Si2 0.727574 0.188756 0.041063
Si Si3 0.602394 0.313391 0.673573
Si Si4 0.642475 0.959296 0.675236
Si Si5 0.899375 0.531068 0.297632
Si Si6 0.221325 0.130032 0.014046
Si Si7 0.854308 0.199979 0.302818
Si Si8 0.027987 0.813258 0.030342
O O1 0.543935 0.255903 0.925233
O O2 0.429269 0.483043 0.663248
O O3 0.500000 0.500000 0.000000
O O4 0.423056 0.171659 0.252523
O O5 0.791946 0.277615 0.069441
O O6 0.677348 0.083125 0.339941
O O7 0.676727 0.346094 0.743716
O O8 0.758532 0.006136 0.062732
O O9 0.615387 0.125412 0.692535
O O10 0.706917 0.822544 0.920515
O O11 0.881629 0.395548 0.230629
O O12 0.927253 0.363513 0.651420
O O13 0.961522 0.693350 0.075157
O O14 0.829403 0.666602 0.238226
O O15 0.178490 0.972299 0.347160
O O16 0.919694 0.103637 0.251078
O O17 0.000000 0.000000 0.000000
#
# Coordination Sequence:
#
# PCOD9031333 Si02
#       8
#     2   2   2   2   2   2   2   2
#     4  11  24  40  64  96 127 165 212 260 312 373
#     4  10  22  43  66  89 126 168 207 260 316 369
#     4  10  23  42  63  92 128 165 209 257 315 375
#     4  10  23  42  64  90 125 166 208 258 315 373
#     4  11  24  41  65  96 126 164 210 257 313 370
#     4  10  24  43  63  91 125 165 209 258 312 373
#     4  11  23  42  66  92 126 163 208 260 312 372
#     4  11  25  43  65  94 130 167 207 257 311 372
#
# _framework density 22.116937
#
# number of rings (size 3 to 8) (size 9 to 14) (size 15 to 20)
#    0.000    1.500    0.000    3.750    0.000   17.000 
#    0.000    2.500    0.000    0.000    0.000    0.000 
#    0.000    0.000    0.000    0.000    0.000    0.000 
#
# Total GULP energy -89562.688124 kJ/mol
# GULP energy per Si atom -5597.668008 kJ/mol
# Density = 2.206660 g / cm^3
# Si number density = 22.116937 Si / 1000 Ang^3
#
#
#
# Elastic Constant Matrix: (Units=GPa)
#
#
# Indices 1 2 3 4 5 6 
#
# 1 126.6897 68.6261 44.4753 8.2163 -2.0263 -11.7806
# 2 68.6261 103.0521 38.2367 23.7168 -12.7653 -13.0688
# 3 44.4753 38.2367 60.4159 11.6085 -3.7680 -9.1099
# 4 8.2163 23.7168 11.6085 29.8473 -11.1424 1.3712
# 5 -2.0263 -12.7653 -3.7680 -11.1424 59.7273 -2.3662
# 6 -11.7806 -13.0688 -9.1099 1.3712 -2.3662 50.5501
#
#
#
# Elastic Compliance Matrix: (Units=1/GPa)
#
#
# Indices 1 2 3 4 5 6 
#
# 1 0.014318 -0.008490 -0.006183 0.004915 -0.000808 -0.000144
# 2 -0.008490 0.019946 -0.003595 -0.011614 0.001697 0.002925
# 3 -0.006183 -0.003595 0.024705 -0.005269 -0.000315 0.002210
# 4 0.004915 -0.011614 -0.005269 0.045744 0.005736 -0.003779
# 5 -0.000808 0.001697 -0.000315 0.005736 0.018164 0.000888
# 6 -0.000144 0.002925 0.002210 -0.003779 0.000888 0.021047
#
#
# Mechanical properties :
#
#
# Convention : Reuss Voigt Hill
#
# Bulk Modulus (GPa) = 44.57927 65.87043 55.22485
# Shear Modulus (GPa) = 26.60469 37.27960 31.94214
#
# Velocity S-wave (km/s) = 3.47206 4.11002 3.80444
# Velocity P-wave (km/s) = 6.02275 7.23675 6.65748
#
# Compressibility (1/GPa) = 0.02243195
#
# Stress axis : x y z
#
# Youngs Moduli (GPa) = 69.84319 50.13654 40.47759
#
# Poissons Ratio (x) = 0.42565 0.25028
# Poissons Ratio (y) = 0.59295 0.14552
# Poissons Ratio (z) = 0.43186 0.18025
#
# Static dielectric constant tensor:
#      x y z
#    x 1.816280 -0.001600 0.017050 
#    y -0.001600 1.753580 -0.000380 
#    z 0.017050 -0.000380 1.826360 
# 
# From -- ./inp_files/13451.got.cif
#   From: 2010.05.17/outbox.cif.g08.bks.cpg/sg2_7_cif.got.tgz:13451.got - 2010.06.03 11:33:40.
