data_PCOD9031013
_publ_section_title
;
Structure prediction by ZEFSAII (Michael W. Deem and Ramdas Pophale) SiO2 
 PCOD9031013
Probable space group: P -1
;
_chemical_formula_sum "Si O2"
_cell_formula_units_Z 14
_cell_length_a 10.502359
_cell_length_b 17.539991
_cell_length_c 9.239759
_cell_angle_alpha 148.160250
_cell_angle_beta 120.782153
_cell_angle_gamma 39.865854
_cell_volume 523.699265
_symmetry_space_group_name_H-M "P -1"
_symmetry_group_IT_number 2
_symmetry_cell_setting 'triclinic'
loop_
_space_group_symop_operation_xyz
x,y,z
-x,-y,-z
loop_
_atom_site_type_symbol
_atom_site_label
_atom_site_fract_x
_atom_site_fract_y
_atom_site_fract_z
Si Si1 0.256355 0.251117 0.960081
Si Si2 0.000000 0.500000 0.500000
Si Si3 0.902094 0.110065 0.779249
Si Si4 0.388411 0.447837 0.768054
Si Si5 0.711468 0.780160 0.539193
Si Si6 0.500666 0.686491 0.948189
Si Si7 0.693908 0.227897 0.335353
Si Si8 0.000000 0.500000 0.000000
O O1 0.481021 0.014153 0.741784
O O2 0.308424 0.329509 0.982237
O O3 0.156474 0.385252 0.262875
O O4 0.061685 0.319302 0.868234
O O5 0.818599 0.732868 0.680018
O O6 0.828409 0.330787 0.073694
O O7 0.681659 0.185869 0.826983
O O8 0.000000 0.000000 0.500000
O O9 0.069351 0.969074 0.780087
O O10 0.336483 0.355984 0.693313
O O11 0.538625 0.282190 0.460502
O O12 0.500000 0.500000 0.000000
O O13 0.885964 0.678125 0.351818
O O14 0.626586 0.444530 0.636849
O O15 0.371494 0.788310 0.884123
#
# Coordination Sequence:
#
# PCOD9031013 Si02
#       8
#     2   1   2   2   2   2   2   1
#     4  11  24  46  68 100 134 181 225 289 345 403
#     4  10  24  46  68 102 130 180 230 282 338 422
#     4  11  23  39  65  99 131 177 221 274 340 401
#     4  11  24  42  64  98 135 173 225 284 332 403
#     4  11  25  44  69  99 141 178 232 281 348 405
#     4  10  24  41  67  93 137 171 223 278 336 411
#     4  10  22  43  63  98 129 178 219 277 338 397
#     4  10  26  42  64 100 134 182 228 278 332 416
#
# _framework density 26.732899
#
# number of rings (size 3 to 8) (size 9 to 14) (size 15 to 20)
#    0.000    1.429    1.429    2.143    4.000    6.857 
#    2.571    0.000    0.000    0.000    0.000    0.000 
#    0.000    0.000    0.000    0.000    0.000    0.000 
#
# Total GULP energy -77938.266481 kJ/mol
# GULP energy per Si atom -5567.019034 kJ/mol
# Density = 2.667205 g / cm^3
# Si number density = 26.732899 Si / 1000 Ang^3
#
#
#
# Elastic Constant Matrix: (Units=GPa)
#
#
# Indices 1 2 3 4 5 6 
#
# 1 124.7168 34.0231 53.5777 -5.5873 -23.7756 12.5613
# 2 34.0231 201.7149 44.1276 25.5778 -14.9967 12.5786
# 3 53.5777 44.1276 100.9300 21.2897 -40.1437 10.7091
# 4 -5.5873 25.5778 21.2897 63.6340 4.6030 2.5759
# 5 -23.7756 -14.9967 -40.1437 4.6030 49.2205 -11.7329
# 6 12.5613 12.5786 10.7091 2.5759 -11.7329 37.3073
#
#
#
# Elastic Compliance Matrix: (Units=1/GPa)
#
#
# Indices 1 2 3 4 5 6 
#
# 1 0.011262 -0.000874 -0.006559 0.003700 -0.001046 -0.002199
# 2 -0.000874 0.005742 -0.001562 -0.001816 -0.000035 -0.001078
# 3 -0.006559 -0.001562 0.021740 -0.008407 0.015324 0.001895
# 4 0.003700 -0.001816 -0.008407 0.020250 -0.008027 -0.002143
# 5 -0.001046 -0.000035 0.015324 -0.008027 0.034832 0.007474
# 6 -0.002199 -0.001078 0.001895 -0.002143 0.007474 0.029863
#
#
# Mechanical properties :
#
#
# Convention : Reuss Voigt Hill
#
# Bulk Modulus (GPa) = 48.18834 76.75760 62.47297
# Shear Modulus (GPa) = 33.64782 49.74123 41.69452
#
# Velocity S-wave (km/s) = 3.55162 4.31823 3.95355
# Velocity P-wave (km/s) = 5.90624 7.32380 6.65288
#
# Compressibility (1/GPa) = 0.02075191
#
# Stress axis : x y z
#
# Youngs Moduli (GPa) = 88.79142 174.16397 45.99756
#
# Poissons Ratio (x) = 0.15230 0.30171
# Poissons Ratio (y) = 0.07764 0.07187
# Poissons Ratio (z) = 0.58241 0.27212
#
# Static dielectric constant tensor:
#      x y z
#    x 1.474120 0.743870 0.233240 
#    y 0.743870 1.228500 -0.022740 
#    z 0.233240 -0.022740 2.239530 
# 
# From -- ./inp_files/60586.got.cif
#   From: 2010.05.17/outbox.cif.g08.bks.cpg/sg2_31_cif.got.tgz:60586.got - 2010.06.03 11:33:40.
