data_PCOD9031634
_publ_section_title
;
Structure prediction by ZEFSAII (Michael W. Deem and Ramdas Pophale) SiO2 
 PCOD9031634
Probable space group: P -1
;
_chemical_formula_sum "Si O2"
_cell_formula_units_Z 13
_cell_length_a 11.240231
_cell_length_b 7.962514
_cell_length_c 6.791603
_cell_angle_alpha 91.228934
_cell_angle_beta 95.184701
_cell_angle_gamma 109.797624
_cell_volume 568.705110
_symmetry_space_group_name_H-M "P -1"
_symmetry_group_IT_number 2
_symmetry_cell_setting 'triclinic'
loop_
_space_group_symop_operation_xyz
x,y,z
-x,-y,-z
loop_
_atom_site_type_symbol
_atom_site_label
_atom_site_fract_x
_atom_site_fract_y
_atom_site_fract_z
Si Si1 0.102929 0.420174 0.100803
Si Si2 0.500000 0.000000 0.000000
Si Si3 0.442217 0.231738 0.319688
Si Si4 0.319993 0.524405 0.414512
Si Si5 0.841504 0.744107 0.282848
Si Si6 0.044742 0.710361 0.559326
Si Si7 0.299073 0.986618 0.630958
O O1 0.222326 0.555237 0.241797
O O2 0.023668 0.276923 0.245948
O O3 0.157956 0.335533 0.932948
O O4 0.000000 0.500000 0.000000
O O5 0.462498 0.163603 0.107413
O O6 0.587152 0.998191 0.205775
O O7 0.385265 0.393157 0.317066
O O8 0.569658 0.308786 0.474197
O O9 0.348639 0.067478 0.427397
O O10 0.240626 0.408790 0.581998
O O11 0.782700 0.898219 0.291545
O O12 0.985812 0.800444 0.385974
O O13 0.000000 0.500000 0.500000
O O14 0.194926 0.790429 0.598965
#
# Coordination Sequence:
#
# PCOD9031634 Si02
#       7
#     2   1   2   2   2   2   2
#     4  11  22  37  66  99 126 168 217 268 320 381
#     4  12  26  40  66 100 134 166 222 266 326 388
#     4  10  23  46  64  96 127 181 208 274 320 386
#     4   9  22  42  69  90 136 167 224 256 326 393
#     4  10  22  43  67  97 128 174 215 269 325 384
#     4  11  24  43  65  95 129 172 219 267 320 387
#     4  11  26  44  65  95 138 171 213 269 334 382
#
# _framework density 22.858948999999999
#
# number of rings (size 3 to 8) (size 9 to 14) (size 15 to 20)
#    0.000    1.538    1.538    1.846    4.308    4.308 
#    2.769    4.615    0.000    0.000    0.000    0.000 
#    0.000    0.000    0.000    0.000    0.000    0.000 
#
# Total GULP energy -72476.044944 kJ/mol
# GULP energy per Si atom -5575.080380 kJ/mol
# Density = 2.280692 g / cm^3
# Si number density = 22.858949 Si / 1000 Ang^3
#
#
#
# Elastic Constant Matrix: (Units=GPa)
#
#
# Indices 1 2 3 4 5 6 
#
# 1 80.8428 15.6484 19.4554 9.2049 5.2556 -9.1974
# 2 15.6484 69.1636 25.5864 20.4806 -5.7843 -1.2810
# 3 19.4554 25.5864 116.8306 26.3848 -4.1310 -0.4617
# 4 9.2049 20.4806 26.3848 23.7365 -16.9186 1.9188
# 5 5.2556 -5.7843 -4.1310 -16.9186 49.5718 3.3204
# 6 -9.1974 -1.2810 -0.4617 1.9188 3.3204 34.4506
#
#
#
# Elastic Compliance Matrix: (Units=1/GPa)
#
#
# Indices 1 2 3 4 5 6 
#
# 1 0.014430 -0.001064 -0.000566 -0.007749 -0.004660 0.004686
# 2 -0.001064 0.020519 0.000333 -0.021317 -0.004884 0.002142
# 3 -0.000566 0.000333 0.012345 -0.017411 -0.004913 0.001470
# 4 -0.007749 -0.021317 -0.017411 0.108713 0.034824 -0.012506
# 5 -0.004660 -0.004884 -0.004913 0.034824 0.032009 -0.006516
# 6 0.004686 0.002142 0.001470 -0.012506 -0.006516 0.031702
#
#
# Mechanical properties :
#
#
# Convention : Reuss Voigt Hill
#
# Bulk Modulus (GPa) = 22.37092 43.13527 32.75310
# Shear Modulus (GPa) = 21.07814 35.29491 28.18653
#
# Velocity S-wave (km/s) = 3.03990 3.93368 3.51531
# Velocity P-wave (km/s) = 4.70415 6.28832 5.55302
#
# Compressibility (1/GPa) = 0.04470088
#
# Stress axis : x y z
#
# Youngs Moduli (GPa) = 69.29906 48.73432 81.00559
#
# Poissons Ratio (x) = 0.05184 0.04588
# Poissons Ratio (y) = 0.07371 -0.02700
# Poissons Ratio (z) = 0.03925 -0.01624
#
# Static dielectric constant tensor:
#      x y z
#    x 1.932610 -0.005910 0.000280 
#    y -0.005910 1.869690 0.013840 
#    z 0.000280 0.013840 1.823480 
# 
# From -- ./inp_files/59721.got.cif
#   From: 2010.05.17/outbox.cif.g08.bks.cpg/sg2_30_cif.got.tgz:59721.got - 2010.06.03 11:33:40.
