data_PCOD9031586
_publ_section_title
;
Structure prediction by ZEFSAII (Michael W. Deem and Ramdas Pophale) SiO2 
 PCOD9031586
Probable space group: P -1
;
_chemical_formula_sum "Si O2"
_cell_formula_units_Z 16
_cell_length_a 20.679521
_cell_length_b 7.775135
_cell_length_c 8.556816
_cell_angle_alpha 102.028379
_cell_angle_beta 113.136301
_cell_angle_gamma 36.376188
_cell_volume 735.500717
_symmetry_space_group_name_H-M "P -1"
_symmetry_group_IT_number 2
_symmetry_cell_setting 'triclinic'
loop_
_space_group_symop_operation_xyz
x,y,z
-x,-y,-z
loop_
_atom_site_type_symbol
_atom_site_label
_atom_site_fract_x
_atom_site_fract_y
_atom_site_fract_z
Si Si1 0.039604 0.125285 0.543605
Si Si2 0.212134 0.328351 0.665568
Si Si3 0.266441 0.830788 0.535130
Si Si4 0.996950 0.700101 0.102734
Si Si5 0.777195 0.260671 0.816618
Si Si6 0.244085 0.352458 0.345981
Si Si7 0.520503 0.142536 0.638256
Si Si8 0.381063 0.209874 0.023788
O O1 0.039284 0.209259 0.732358
O O2 0.927979 0.419642 0.392633
O O3 0.163225 0.927490 0.543528
O O4 0.000000 0.000000 0.500000
O O5 0.225226 0.396103 0.521770
O O6 0.265812 0.027186 0.640494
O O7 0.280049 0.311730 0.850552
O O8 0.234635 0.887150 0.330869
O O9 0.397709 0.487986 0.604137
O O10 0.131311 0.492188 0.187056
O O11 0.000000 0.500000 0.000000
O O12 0.904172 0.000905 0.970876
O O13 0.756277 0.459585 0.708731
O O14 0.678584 0.496703 0.900051
O O15 0.367812 0.002242 0.374058
O O16 0.500000 0.000000 0.500000
O O17 0.574146 0.997602 0.830411
O O18 0.500000 0.000000 0.000000
#
# Coordination Sequence:
#
# PCOD9031586 Si02
#       8
#     2   2   2   2   2   2   2   2
#     4  11  25  44  72  98 137 182 220 281 339 415
#     4  11  25  44  67 104 134 176 226 290 342 387
#     4  12  25  44  69 102 140 175 224 283 348 399
#     4  11  24  43  67 104 135 172 226 287 338 396
#     4  11  23  41  71  97 128 186 224 275 338 406
#     4  10  22  43  67  94 137 176 229 267 338 408
#     4  11  23  44  68  98 133 182 225 276 334 413
#     4  11  25  42  69  97 134 179 233 277 327 420
#
# _framework density 21.753888
#
# number of rings (size 3 to 8) (size 9 to 14) (size 15 to 20)
#    0.000    1.000    2.500    5.250    3.500    5.000 
#    2.250    0.000    0.000    0.000    0.000    0.000 
#    0.000    0.000    0.000    0.000    0.000    0.000 
#
# Total GULP energy -89350.020371 kJ/mol
# GULP energy per Si atom -5584.376273 kJ/mol
# Density = 2.170437 g / cm^3
# Si number density = 21.753888 Si / 1000 Ang^3
#
#
#
# Elastic Constant Matrix: (Units=GPa)
#
#
# Indices 1 2 3 4 5 6 
#
# 1 60.5747 36.5705 14.0736 4.7134 -3.5038 -19.3532
# 2 36.5705 150.5640 23.7075 -10.3528 6.5262 -24.0140
# 3 14.0736 23.7075 117.7541 -9.1842 4.1368 -7.2584
# 4 4.7134 -10.3528 -9.1842 54.7581 -0.0918 5.2243
# 5 -3.5038 6.5262 4.1368 -0.0918 10.3114 -3.3178
# 6 -19.3532 -24.0140 -7.2584 5.2243 -3.3178 38.9364
#
#
#
# Elastic Compliance Matrix: (Units=1/GPa)
#
#
# Indices 1 2 3 4 5 6 
#
# 1 0.024690 -0.004924 -0.002197 -0.004425 0.015813 0.010767
# 2 -0.004924 0.008652 -0.000676 0.001745 -0.006219 0.001999
# 3 -0.002197 -0.000676 0.009138 0.001623 -0.004090 -0.000371
# 4 -0.004425 0.001745 0.001623 0.019602 -0.004313 -0.003818
# 5 0.015813 -0.006219 -0.004090 -0.004313 0.112204 0.013401
# 6 0.010767 0.001999 -0.000371 -0.003818 0.013401 0.033853
#
#
# Mechanical properties :
#
#
# Convention : Reuss Voigt Hill
#
# Bulk Modulus (GPa) = 37.18953 53.06622 45.12788
# Shear Modulus (GPa) = 21.48735 37.77058 29.62896
#
# Velocity S-wave (km/s) = 3.14625 4.17138 3.69454
# Velocity P-wave (km/s) = 5.50738 6.90271 6.24414
#
# Compressibility (1/GPa) = 0.02688928
#
# Stress axis : x y z
#
# Youngs Moduli (GPa) = 40.50144 115.57511 109.43071
#
# Poissons Ratio (x) = 0.56904 0.24038
# Poissons Ratio (y) = 0.19941 0.07394
# Poissons Ratio (z) = 0.08897 0.07809
#
# Static dielectric constant tensor:
#      x y z
#    x 1.684910 0.145840 0.013370 
#    y 0.145840 1.641220 -0.071380 
#    z 0.013370 -0.071380 1.717920 
# 
# From -- ./inp_files/352348.got.cif
#   From: 2010.05.17/outbox.cif.g08.bks.cpg/sg2_177_cif.got.tgz:352348.got - 2010.06.03 11:33:40.
