data_PCOD9031744
_publ_section_title
;
Structure prediction by ZEFSAII (Michael W. Deem and Ramdas Pophale) SiO2 
 PCOD9031744
Probable space group: P -1
;
_chemical_formula_sum "Si O2"
_cell_formula_units_Z 16
_cell_length_a 13.425727
_cell_length_b 11.349338
_cell_length_c 11.931075
_cell_angle_alpha 133.094645
_cell_angle_beta 145.834737
_cell_angle_gamma 35.322164
_cell_volume 590.097509
_symmetry_space_group_name_H-M "P -1"
_symmetry_group_IT_number 2
_symmetry_cell_setting 'triclinic'
loop_
_space_group_symop_operation_xyz
x,y,z
-x,-y,-z
loop_
_atom_site_type_symbol
_atom_site_label
_atom_site_fract_x
_atom_site_fract_y
_atom_site_fract_z
Si Si1 0.825282 0.264510 0.587654
Si Si2 0.416915 0.736418 0.005305
Si Si3 0.684251 0.050005 0.173429
Si Si4 0.912294 0.937177 0.639821
Si Si5 0.680433 0.652739 0.815672
Si Si6 0.686097 0.031482 0.725619
Si Si7 0.961021 0.645301 0.876963
Si Si8 0.878740 0.599594 0.335622
O O1 0.851210 0.119508 0.619139
O O2 0.744341 0.203472 0.368636
O O3 0.668742 0.501097 0.626158
O O4 0.081571 0.174088 0.742701
O O5 0.683669 0.572022 0.122973
O O6 0.422649 0.778126 0.169395
O O7 0.377149 0.895205 0.976935
O O8 0.183036 0.769276 0.794401
O O9 0.494584 0.133488 0.145280
O O10 0.800029 0.025629 0.713933
O O11 0.811959 0.824434 0.427233
O O12 0.809045 0.690892 0.871509
O O13 0.800849 0.502681 0.937135
O O14 0.874355 0.850137 0.865465
O O15 0.500000 0.000000 0.500000
O O16 0.956305 0.517016 0.690469
O O17 0.000000 0.500000 0.500000
#
# Coordination Sequence:
#
# PCOD9031744 Si02
#       8
#     2   2   2   2   2   2   2   2
#     4  10  24  45  70 108 145 188 249 302 363 446
#     4  11  24  45  73 104 140 189 244 295 368 432
#     4  10  22  43  68 102 144 188 238 295 368 432
#     4  11  25  45  76 103 144 193 237 305 363 438
#     4  11  24  45  71 105 148 192 240 311 363 439
#     4  12  24  48  71 104 148 191 245 303 368 437
#     4  11  25  43  69 105 145 189 247 299 368 442
#     4  12  24  48  69 101 150 186 241 304 355 443
#
# _framework density 27.114162
#
# number of rings (size 3 to 8) (size 9 to 14) (size 15 to 20)
#    0.000    1.000    3.750    2.250    7.000    0.500 
#    0.000    2.500    0.000    0.000    0.000    0.000 
#    0.000    0.000    0.000    0.000    0.000    0.000 
#
# Total GULP energy -89361.797604 kJ/mol
# GULP energy per Si atom -5585.112350 kJ/mol
# Density = 2.705245 g / cm^3
# Si number density = 27.114162 Si / 1000 Ang^3
#
#
#
# Elastic Constant Matrix: (Units=GPa)
#
#
# Indices 1 2 3 4 5 6 
#
# 1 143.3707 43.0690 21.3320 -7.3857 -19.5079 -29.0600
# 2 43.0690 94.6818 1.4560 15.3055 -6.2115 -11.3650
# 3 21.3320 1.4560 80.0406 -5.5823 -7.7643 -11.4111
# 4 -7.3857 15.3055 -5.5823 51.1349 -13.4990 -8.9217
# 5 -19.5079 -6.2115 -7.7643 -13.4990 41.8130 6.4882
# 6 -29.0600 -11.3650 -11.4111 -8.9217 6.4882 52.8563
#
#
#
# Elastic Compliance Matrix: (Units=1/GPa)
#
#
# Indices 1 2 3 4 5 6 
#
# 1 0.010388 -0.004611 -0.001218 0.004823 0.004765 0.004686
# 2 -0.004611 0.013338 0.000434 -0.005099 -0.001701 -0.000226
# 3 -0.001218 0.000434 0.013540 0.002217 0.002349 0.002433
# 4 0.004823 -0.005099 0.002217 0.025378 0.009294 0.005177
# 5 0.004765 -0.001701 0.002349 0.009294 0.029208 0.000745
# 6 0.004686 -0.000226 0.002433 0.005177 0.000745 0.022755
#
#
# Mechanical properties :
#
#
# Convention : Reuss Voigt Hill
#
# Bulk Modulus (GPa) = 37.77195 49.97857 43.87526
# Shear Modulus (GPa) = 37.25169 45.97657 41.61413
#
# Velocity S-wave (km/s) = 3.71061 4.12231 3.92187
# Velocity P-wave (km/s) = 5.68499 6.41332 6.06011
#
# Compressibility (1/GPa) = 0.02647467
#
# Stress axis : x y z
#
# Youngs Moduli (GPa) = 96.26461 74.97246 73.85738
#
# Poissons Ratio (x) = 0.34571 0.08996
# Poissons Ratio (y) = 0.44389 -0.03202
# Poissons Ratio (z) = 0.11725 -0.03250
#
# Static dielectric constant tensor:
#      x y z
#    x 2.208900 -0.039720 0.246860 
#    y -0.039720 2.200430 -0.044680 
#    z 0.246860 -0.044680 2.316980 
# 
# From -- ./inp_files/455007.got.cif
#   From: 2010.05.17/outbox.cif.g08.bks.cpg/sg2_228_cif.got.tgz:455007.got - 2010.06.03 11:33:40.
