data_PCOD9031864
_publ_section_title
;
Structure prediction by ZEFSAII (Michael W. Deem and Ramdas Pophale) SiO2 
 PCOD9031864
Probable space group: P -1
;
_chemical_formula_sum "Si O2"
_cell_formula_units_Z 14
_cell_length_a 9.794108
_cell_length_b 10.150410
_cell_length_c 6.260828
_cell_angle_alpha 71.982816
_cell_angle_beta 110.429907
_cell_angle_gamma 105.242497
_cell_volume 546.216375
_symmetry_space_group_name_H-M "P -1"
_symmetry_group_IT_number 2
_symmetry_cell_setting 'triclinic'
loop_
_space_group_symop_operation_xyz
x,y,z
-x,-y,-z
loop_
_atom_site_type_symbol
_atom_site_label
_atom_site_fract_x
_atom_site_fract_y
_atom_site_fract_z
Si Si1 0.955603 0.223293 0.385552
Si Si2 0.617259 0.342289 0.565572
Si Si3 0.347098 0.144319 0.963867
Si Si4 0.804869 0.595920 0.305371
Si Si5 0.381060 0.447333 0.148123
Si Si6 0.323604 0.841046 0.970155
Si Si7 0.115069 0.048220 0.231898
O O1 0.043421 0.345051 0.521376
O O2 0.060143 0.160998 0.302967
O O3 0.817087 0.255813 0.159927
O O4 0.889184 0.093531 0.566521
O O5 0.735362 0.444056 0.436260
O O6 0.459162 0.332998 0.370987
O O7 0.616937 0.433393 0.735766
O O8 0.656476 0.199442 0.750544
O O9 0.264225 0.109721 0.159125
O O10 0.476282 0.830923 0.941284
O O11 0.290287 0.278318 0.763348
O O12 0.302650 0.003019 0.871566
O O13 0.776781 0.587788 0.038646
O O14 0.500000 0.500000 0.000000
O O15 0.000000 0.000000 0.000000
#
# Coordination Sequence:
#
# PCOD9031864 Si02
#       7
#     2   2   2   2   2   2   2
#     4  11  24  42  69 103 147 175 237 286 349 417
#     4  10  22  43  68  96 144 178 227 291 343 406
#     4  11  23  43  73 100 137 181 242 278 348 403
#     4  11  23  42  72 101 129 195 236 272 335 439
#     4   9  19  40  65  93 128 183 237 271 324 420
#     4  11  24  45  66 113 147 173 221 304 359 402
#     4  11  21  45  69  97 138 196 233 281 334 427
#
# _framework density 25.630866999999999
#
# number of rings (size 3 to 8) (size 9 to 14) (size 15 to 20)
#    0.000    1.429    2.857    3.429    2.000    1.143 
#   12.857    0.714    0.000    0.000    0.000    0.000 
#    0.000    0.000    0.000    0.000    0.000    0.000 
#
# Total GULP energy -78343.228477 kJ/mol
# GULP energy per Si atom -5595.944891 kJ/mol
# Density = 2.557253 g / cm^3
# Si number density = 25.630867 Si / 1000 Ang^3
#
#
#
# Elastic Constant Matrix: (Units=GPa)
#
#
# Indices 1 2 3 4 5 6 
#
# 1 118.3419 25.6888 37.2255 6.8841 -9.5721 18.7376
# 2 25.6888 92.6112 20.8151 21.5969 6.6257 9.8065
# 3 37.2255 20.8151 126.4880 14.9397 4.7411 16.0379
# 4 6.8841 21.5969 14.9397 63.3904 12.9659 5.5865
# 5 -9.5721 6.6257 4.7411 12.9659 42.3185 4.5893
# 6 18.7376 9.8065 16.0379 5.5865 4.5893 40.0348
#
#
#
# Elastic Compliance Matrix: (Units=1/GPa)
#
#
# Indices 1 2 3 4 5 6 
#
# 1 0.010572 -0.002193 -0.002370 -0.000217 0.003482 -0.003831
# 2 -0.002193 0.012616 -0.000830 -0.003526 -0.001178 -0.001104
# 3 -0.002370 -0.000830 0.009187 -0.001273 -0.000818 -0.002096
# 4 -0.000217 -0.003526 -0.001273 0.018353 -0.004921 -0.000522
# 5 0.003482 -0.001178 -0.000818 -0.004921 0.026568 -0.003372
# 6 -0.003831 -0.001104 -0.002096 -0.000522 -0.003372 0.028341
#
#
# Mechanical properties :
#
#
# Convention : Reuss Voigt Hill
#
# Bulk Modulus (GPa) = 46.31804 56.09997 51.20900
# Shear Modulus (GPa) = 40.44709 46.06285 43.25497
#
# Velocity S-wave (km/s) = 3.97679 4.24389 4.11251
# Velocity P-wave (km/s) = 6.26075 6.77860 6.52481
#
# Compressibility (1/GPa) = 0.02158986
#
# Stress axis : x y z
#
# Youngs Moduli (GPa) = 94.58657 79.26314 108.85273
#
# Poissons Ratio (x) = 0.17381 0.25795
# Poissons Ratio (y) = 0.20741 0.09036
# Poissons Ratio (z) = 0.22415 0.06580
#
# Static dielectric constant tensor:
#      x y z
#    x 2.041750 -0.013060 0.027480 
#    y -0.013060 2.088550 -0.004260 
#    z 0.027480 -0.004260 2.046280 
# 
# From -- ./inp_files/94501.got.cif
#   From: 2010.05.17/outbox.cif.g08.bks.cpg/sg2_48_cif.got.tgz:94501.got - 2010.06.03 11:33:40.
