data_PCOD9031581
_publ_section_title
;
Structure prediction by ZEFSAII (Michael W. Deem and Ramdas Pophale) SiO2 
 PCOD9031581
Probable space group: P -1
;
_chemical_formula_sum "Si O2"
_cell_formula_units_Z 14
_cell_length_a 15.047251
_cell_length_b 5.148313
_cell_length_c 9.317832
_cell_angle_alpha 60.394943
_cell_angle_beta 63.813000
_cell_angle_gamma 79.493752
_cell_volume 562.592490
_symmetry_space_group_name_H-M "P -1"
_symmetry_group_IT_number 2
_symmetry_cell_setting 'triclinic'
loop_
_space_group_symop_operation_xyz
x,y,z
-x,-y,-z
loop_
_atom_site_type_symbol
_atom_site_label
_atom_site_fract_x
_atom_site_fract_y
_atom_site_fract_z
Si Si1 0.907052 0.319587 0.184973
Si Si2 0.697290 0.651387 0.744213
Si Si3 0.480800 0.440483 0.299332
Si Si4 0.808450 0.247611 0.553283
Si Si5 0.602491 0.875533 0.281658
Si Si6 0.040929 0.809564 0.320428
Si Si7 0.786615 0.253031 0.012078
O O1 0.861788 0.424353 0.337561
O O2 0.820410 0.299816 0.136938
O O3 0.952486 0.008234 0.282412
O O4 0.000000 0.500000 0.000000
O O5 0.588135 0.557615 0.791713
O O6 0.765919 0.478397 0.631863
O O7 0.724844 0.004281 0.625803
O O8 0.725212 0.516551 0.914362
O O9 0.540860 0.735629 0.230203
O O10 0.411185 0.346441 0.512062
O O11 0.555779 0.178332 0.289641
O O12 0.888454 0.060236 0.637120
O O13 0.714369 0.959239 0.135252
O O14 0.000000 0.500000 0.500000
O O15 0.113578 0.775172 0.143359
#
# Coordination Sequence:
#
# PCOD9031581 Si02
#       7
#     2   2   2   2   2   2   2
#     4  12  24  40  66 100 137 179 231 291 343 400
#     4  11  24  44  69  99 135 179 222 275 343 412
#     4  10  22  43  67  94 134 176 215 270 346 409
#     4  11  24  43  68  97 136 180 228 275 339 411
#     4  10  23  41  66  98 130 171 223 278 333 402
#     4  11  24  46  69  97 139 187 230 280 347 412
#     4  11  25  41  67 103 135 173 230 285 334 400
#
# _framework density 24.884799999999998
#
# number of rings (size 3 to 8) (size 9 to 14) (size 15 to 20)
#    0.000    1.143    0.000    6.000    0.000    9.143 
#    0.000    0.000    0.000    0.000    0.000    0.000 
#    0.000    0.000    0.000    0.000    0.000    0.000 
#
# Total GULP energy -78477.866143 kJ/mol
# GULP energy per Si atom -5605.561867 kJ/mol
# Density = 2.482816 g / cm^3
# Si number density = 24.884800 Si / 1000 Ang^3
#
#
#
# Elastic Constant Matrix: (Units=GPa)
#
#
# Indices 1 2 3 4 5 6 
#
# 1 104.9570 11.7657 37.5290 -4.3576 17.6084 24.5453
# 2 11.7657 85.2305 37.3524 -5.0667 -7.1292 21.7838
# 3 37.5290 37.3524 116.7611 -2.3062 -0.5100 3.6782
# 4 -4.3576 -5.0667 -2.3062 30.9742 13.6792 -3.6059
# 5 17.6084 -7.1292 -0.5100 13.6792 45.1620 -1.4408
# 6 24.5453 21.7838 3.6782 -3.6059 -1.4408 43.0230
#
#
#
# Elastic Compliance Matrix: (Units=1/GPa)
#
#
# Indices 1 2 3 4 5 6 
#
# 1 0.014442 0.002099 -0.004988 0.004008 -0.006850 -0.008769
# 2 0.002099 0.016308 -0.005588 0.001031 0.001098 -0.008854
# 3 -0.004988 -0.005588 0.011798 -0.000912 0.001620 0.004644
# 4 0.004008 0.001031 -0.000912 0.038766 -0.013150 0.000078
# 5 -0.006850 0.001098 0.001620 -0.013150 0.029086 0.003085
# 6 -0.008769 -0.008854 0.004644 0.000078 0.003085 0.032442
#
#
# Mechanical properties :
#
#
# Convention : Reuss Voigt Hill
#
# Bulk Modulus (GPa) = 39.07007 53.36033 46.21520
# Shear Modulus (GPa) = 29.70404 38.51862 34.11133
#
# Velocity S-wave (km/s) = 3.45869 3.93858 3.70641
# Velocity P-wave (km/s) = 5.62890 6.49405 6.07689
#
# Compressibility (1/GPa) = 0.02559504
#
# Stress axis : x y z
#
# Youngs Moduli (GPa) = 69.24101 61.31974 84.76042
#
# Poissons Ratio (x) = -0.12871 0.42278
# Poissons Ratio (y) = -0.14533 0.47360
# Poissons Ratio (z) = 0.34537 0.34263
#
# Static dielectric constant tensor:
#      x y z
#    x 2.008600 0.001690 -0.006960 
#    y 0.001690 1.938800 -0.009470 
#    z -0.006960 -0.009470 1.984900 
# 
# From -- ./inp_files/288349.got.cif
#   From: 2010.05.17/outbox.cif.g08.bks.cpg/sg2_145_cif.got.tgz:288349.got - 2010.06.03 11:33:40.
