data_PCOD9031453
_publ_section_title
;
Structure prediction by ZEFSAII (Michael W. Deem and Ramdas Pophale) SiO2 
 PCOD9031453
Probable space group: P -1
;
_chemical_formula_sum "Si O2"
_cell_formula_units_Z 12
_cell_length_a 6.982433
_cell_length_b 20.802139
_cell_length_c 7.939986
_cell_angle_alpha 41.476486
_cell_angle_beta 115.544630
_cell_angle_gamma 135.240008
_cell_volume 525.133572
_symmetry_space_group_name_H-M "P -1"
_symmetry_group_IT_number 2
_symmetry_cell_setting 'triclinic'
loop_
_space_group_symop_operation_xyz
x,y,z
-x,-y,-z
loop_
_atom_site_type_symbol
_atom_site_label
_atom_site_fract_x
_atom_site_fract_y
_atom_site_fract_z
Si Si1 0.712237 0.644695 0.862046
Si Si2 0.405648 0.113511 0.916378
Si Si3 0.465847 0.245002 0.176756
Si Si4 0.979878 0.085846 0.067832
Si Si5 0.849244 0.359487 0.777505
Si Si6 0.799948 0.154878 0.592101
O O1 0.546085 0.676561 0.840392
O O2 0.909867 0.752273 0.583816
O O3 0.500000 0.500000 0.000000
O O4 0.928973 0.652448 0.047883
O O5 0.386291 0.997662 0.212575
O O6 0.191445 0.108359 0.963270
O O7 0.679387 0.256001 0.768834
O O8 0.281534 0.061401 0.784509
O O9 0.630108 0.197971 0.387486
O O10 0.146732 0.135132 0.206459
O O11 0.638645 0.325572 0.916192
O O12 0.880166 0.159695 0.809507
O O13 0.000000 0.500000 0.500000
#
# Coordination Sequence:
#
# PCOD9031453 Si02
#       6
#     2   2   2   2   2   2
#     4  11  26  42  64  95 131 171 216 267 328 383
#     4   8  17  39  68  93 129 169 210 266 323 375
#     4  10  22  43  66  98 127 166 222 267 317 392
#     4   8  17  37  69  91 127 170 205 263 326 369
#     4  10  23  42  65  95 129 172 215 262 321 382
#     4   9  20  42  66  94 132 168 208 273 324 373
#
# _framework density 22.851327999999999
#
# number of rings (size 3 to 8) (size 9 to 14) (size 15 to 20)
#    1.000    1.667    0.000    0.000    4.667    9.333 
#    3.000    8.333    0.000    0.000    0.000    0.000 
#    0.000    0.000    0.000    0.000    0.000    0.000 
#
# Total GULP energy -66950.528272 kJ/mol
# GULP energy per Si atom -5579.210689 kJ/mol
# Density = 2.279932 g / cm^3
# Si number density = 22.851328 Si / 1000 Ang^3
#
#
#
# Elastic Constant Matrix: (Units=GPa)
#
#
# Indices 1 2 3 4 5 6 
#
# 1 103.6630 71.1767 63.2432 -10.3250 9.2812 -15.4584
# 2 71.1767 156.2248 42.0313 -27.2465 14.0008 -7.0229
# 3 63.2432 42.0313 118.4815 -34.9985 -1.9184 -10.3745
# 4 -10.3250 -27.2465 -34.9985 36.0380 6.2779 3.8113
# 5 9.2812 14.0008 -1.9184 6.2779 41.5258 -0.2453
# 6 -15.4584 -7.0229 -10.3745 3.8113 -0.2453 31.5657
#
#
#
# Elastic Compliance Matrix: (Units=1/GPa)
#
#
# Indices 1 2 3 4 5 6 
#
# 1 0.023311 -0.009160 -0.012418 -0.012908 -0.000703 0.006850
# 2 -0.009160 0.011632 0.003631 0.010483 -0.003303 -0.001996
# 3 -0.012418 0.003631 0.018905 0.017720 -0.000262 -0.001202
# 4 -0.012908 0.010483 0.017720 0.050965 -0.007562 -0.004378
# 5 -0.000703 -0.003303 -0.000262 -0.007562 0.026483 -0.000047
# 6 0.006850 -0.001996 -0.001202 -0.004378 -0.000047 0.034724
#
#
# Mechanical properties :
#
#
# Convention : Reuss Voigt Hill
#
# Bulk Modulus (GPa) = 55.69476 81.25242 68.47359
# Shear Modulus (GPa) = 24.05019 35.28710 29.66864
#
# Velocity S-wave (km/s) = 3.24769 3.93390 3.60715
# Velocity P-wave (km/s) = 6.20394 7.50122 6.88321
#
# Compressibility (1/GPa) = 0.01795501
#
# Stress axis : x y z
#
# Youngs Moduli (GPa) = 42.89876 85.97003 52.89472
#
# Poissons Ratio (x) = 0.78747 0.65685
# Poissons Ratio (y) = 0.39294 -0.19208
# Poissons Ratio (z) = 0.53272 -0.31218
#
# Static dielectric constant tensor:
#      x y z
#    x 1.956260 0.199880 -0.033960 
#    y 0.199880 2.267840 -0.017060 
#    z -0.033960 -0.017060 1.861280 
# 
# From -- ./inp_files/224487.got.cif
#   From: 2010.05.17/outbox.cif.g08.bks.cpg/sg2_113_cif.got.tgz:224487.got - 2010.06.03 11:33:40.
