data_PCOD9031700
_publ_section_title
;
Structure prediction by ZEFSAII (Michael W. Deem and Ramdas Pophale) SiO2 
 PCOD9031700
Probable space group: P -1
;
_chemical_formula_sum "Si O2"
_cell_formula_units_Z 14
_cell_length_a 14.628299
_cell_length_b 9.326829
_cell_length_c 12.215376
_cell_angle_alpha 125.217600
_cell_angle_beta 151.989545
_cell_angle_gamma 48.090984
_cell_volume 582.082664
_symmetry_space_group_name_H-M "P -1"
_symmetry_group_IT_number 2
_symmetry_cell_setting 'triclinic'
loop_
_space_group_symop_operation_xyz
x,y,z
-x,-y,-z
loop_
_atom_site_type_symbol
_atom_site_label
_atom_site_fract_x
_atom_site_fract_y
_atom_site_fract_z
Si Si1 0.205076 0.643092 0.560798
Si Si2 0.113187 0.300133 0.412491
Si Si3 0.804146 0.098873 0.754215
Si Si4 0.344975 0.558404 0.119435
Si Si5 0.182656 0.129848 0.636800
Si Si6 0.000809 0.702818 0.129719
Si Si7 0.385393 0.196057 0.104946
O O1 0.176911 0.457717 0.495164
O O2 0.455619 0.582906 0.801843
O O3 0.058209 0.826642 0.560013
O O4 0.125077 0.670543 0.362925
O O5 0.147543 0.283062 0.571120
O O6 0.243982 0.079914 0.413246
O O7 0.868358 0.358234 0.141557
O O8 0.626270 0.267911 0.711115
O O9 0.895808 0.195966 0.800004
O O10 0.000000 0.000000 0.000000
O O11 0.331998 0.421242 0.142637
O O12 0.362485 0.932071 0.694011
O O13 0.284305 0.165953 0.870920
O O14 0.751784 0.836089 0.956347
O O15 0.000000 0.500000 0.000000
#
# Coordination Sequence:
#
# PCOD9031700 Si02
#       7
#     2   2   2   2   2   2   2
#     4  11  25  41  69  98 132 180 223 267 333 389
#     4  11  23  46  65  97 140 172 218 281 324 393
#     4  10  23  41  66 100 134 165 217 277 330 390
#     4  11  23  43  68  97 134 174 223 271 332 393
#     4  10  23  43  66  95 138 175 221 276 326 383
#     4  11  20  42  71  97 133 176 217 271 333 394
#     4  10  22  43  68 100 134 172 223 277 325 394
#
# _framework density 24.051566999999999
#
# number of rings (size 3 to 8) (size 9 to 14) (size 15 to 20)
#    0.000    1.429    4.286    1.286    2.000    5.714 
#    5.143    0.000    0.000    0.000    0.000    0.000 
#    0.000    0.000    0.000    0.000    0.000    0.000 
#
# Total GULP energy -78191.501834 kJ/mol
# GULP energy per Si atom -5585.107274 kJ/mol
# Density = 2.399682 g / cm^3
# Si number density = 24.051567 Si / 1000 Ang^3
#
#
#
# Elastic Constant Matrix: (Units=GPa)
#
#
# Indices 1 2 3 4 5 6 
#
# 1 112.3815 38.4111 29.2078 -18.5203 2.7083 3.5272
# 2 38.4111 106.1645 19.0136 -13.0559 3.5104 -0.2175
# 3 29.2078 19.0136 55.3624 -17.7850 8.9989 -2.4056
# 4 -18.5203 -13.0559 -17.7850 35.2644 -0.8022 4.9241
# 5 2.7083 3.5104 8.9989 -0.8022 39.5615 -19.9703
# 6 3.5272 -0.2175 -2.4056 4.9241 -19.9703 44.8791
#
#
#
# Elastic Compliance Matrix: (Units=1/GPa)
#
#
# Indices 1 2 3 4 5 6 
#
# 1 0.011578 -0.003069 -0.004066 0.003115 -0.000363 -0.001646
# 2 -0.003069 0.011033 -0.001553 0.001705 -0.000476 -0.000187
# 3 -0.004066 -0.001553 0.024853 0.009989 -0.006136 -0.002182
# 4 0.003115 0.001705 0.009989 0.036369 -0.004853 -0.005851
# 5 -0.000363 -0.000476 -0.006136 -0.004853 0.034509 0.015586
# 6 -0.001646 -0.000187 -0.002182 -0.005851 0.015586 0.029871
#
#
# Mechanical properties :
#
#
# Convention : Reuss Voigt Hill
#
# Bulk Modulus (GPa) = 33.23646 49.68594 41.46120
# Shear Modulus (GPa) = 28.47106 36.42607 32.44856
#
# Velocity S-wave (km/s) = 3.44430 3.89588 3.67703
# Velocity P-wave (km/s) = 5.44669 6.39844 5.94166
#
# Compressibility (1/GPa) = 0.03008744
#
# Stress axis : x y z
#
# Youngs Moduli (GPa) = 86.37273 90.63802 40.23705
#
# Poissons Ratio (x) = 0.27817 0.16360
# Poissons Ratio (y) = 0.26508 0.06249
# Poissons Ratio (z) = 0.35118 0.14077
#
# Static dielectric constant tensor:
#      x y z
#    x 1.965620 -0.050200 0.021620 
#    y -0.050200 1.963150 0.013880 
#    z 0.021620 0.013880 1.893990 
# 
# From -- ./inp_files/245331.got.cif
#   From: 2010.05.17/outbox.cif.g08.bks.cpg/sg2_123_cif.got.tgz:245331.got - 2010.06.03 11:33:40.
