data_PCOD9031401
_publ_section_title
;
Structure prediction by ZEFSAII (Michael W. Deem and Ramdas Pophale) SiO2 
 PCOD9031401
Probable space group: P -1
;
_chemical_formula_sum "Si O2"
_cell_formula_units_Z 15
_cell_length_a 20.392102
_cell_length_b 5.817537
_cell_length_c 5.848134
_cell_angle_alpha 90.994450
_cell_angle_beta 83.357132
_cell_angle_gamma 116.140311
_cell_volume 618.193057
_symmetry_space_group_name_H-M "P -1"
_symmetry_group_IT_number 2
_symmetry_cell_setting 'triclinic'
loop_
_space_group_symop_operation_xyz
x,y,z
-x,-y,-z
loop_
_atom_site_type_symbol
_atom_site_label
_atom_site_fract_x
_atom_site_fract_y
_atom_site_fract_z
Si Si1 0.912060 0.619769 0.104855
Si Si2 0.220976 0.887177 0.892025
Si Si3 0.817769 0.800803 0.464616
Si Si4 0.558630 0.749659 0.853981
Si Si5 0.357778 0.786125 0.816412
Si Si6 0.309466 0.339121 0.188932
Si Si7 0.951180 0.054406 0.709997
Si Si8 0.500000 0.000000 0.500000
O O1 0.859805 0.338139 0.034123
O O2 0.861942 0.668014 0.317558
O O3 0.991003 0.684806 0.187876
O O4 0.926476 0.830532 0.906266
O O5 0.280057 0.785472 0.794364
O O6 0.211677 0.064351 0.705245
O O7 0.258182 0.063109 0.097248
O O8 0.747132 0.608008 0.631698
O O9 0.878515 0.017121 0.605177
O O10 0.622006 0.683987 0.723382
O O11 0.517718 0.837778 0.686751
O O12 0.500000 0.500000 0.000000
O O13 0.595101 0.967870 0.035863
O O14 0.409939 0.829926 0.580765
O O15 0.341090 0.538717 0.972824
O O16 0.000000 0.000000 0.500000
#
# Coordination Sequence:
#
# PCOD9031401 Si02
#       8
#     2   2   2   2   2   2   2   1
#     4  10  22  43  66  95 133 175 227 274 339 405
#     4  11  24  41  64  98 132 175 225 278 337 409
#     4  11  22  40  66  96 132 177 223 279 339 403
#     4  11  25  47  67 102 135 174 228 284 342 418
#     4  11  25  45  67  97 134 178 226 282 342 414
#     4  11  25  45  67  95 140 177 227 280 342 410
#     4   9  20  40  67  95 132 177 219 278 337 403
#     4  12  24  44  74  96 132 180 220 286 350 402
#
# _framework density 24.264265000000002
#
# number of rings (size 3 to 8) (size 9 to 14) (size 15 to 20)
#    0.000    1.333    1.333    3.600    0.000    7.467 
#    0.000    9.333    0.000    0.000    0.000    0.000 
#    0.000    0.000    0.000    0.000    0.000    0.000 
#
# Total GULP energy -83746.033819 kJ/mol
# GULP energy per Si atom -5583.068921 kJ/mol
# Density = 2.420904 g / cm^3
# Si number density = 24.264265 Si / 1000 Ang^3
#
#
#
# Elastic Constant Matrix: (Units=GPa)
#
#
# Indices 1 2 3 4 5 6 
#
# 1 137.6584 13.3232 32.6563 -0.8131 5.7941 27.7773
# 2 13.3232 103.7690 19.7584 -0.8709 -15.2246 28.1383
# 3 32.6563 19.7584 66.8319 -14.1957 -12.9535 9.6755
# 4 -0.8131 -0.8709 -14.1957 37.9089 5.6600 -7.8030
# 5 5.7941 -15.2246 -12.9535 5.6600 52.2231 -12.8195
# 6 27.7773 28.1383 9.6755 -7.8030 -12.8195 29.3932
#
#
#
# Elastic Compliance Matrix: (Units=1/GPa)
#
#
# Indices 1 2 3 4 5 6 
#
# 1 0.011824 0.003101 -0.006430 -0.004486 -0.005332 -0.015542
# 2 0.003101 0.014533 -0.004514 -0.004652 -0.000891 -0.016980
# 3 -0.006430 -0.004514 0.021175 0.008517 0.005737 0.008191
# 4 -0.004486 -0.004652 0.008517 0.032253 0.001463 0.015089
# 5 -0.005332 -0.000891 0.005737 0.001463 0.024439 0.015050
# 6 -0.015542 -0.016980 0.008191 0.015089 0.015050 0.072837
#
#
# Mechanical properties :
#
#
# Convention : Reuss Voigt Hill
#
# Bulk Modulus (GPa) = 31.40347 48.85944 40.13146
# Shear Modulus (GPa) = 24.58651 40.07313 32.32982
#
# Velocity S-wave (km/s) = 3.18666 4.06831 3.65417
# Velocity P-wave (km/s) = 5.14880 6.49987 5.86338
#
# Compressibility (1/GPa) = 0.03184361
#
# Stress axis : x y z
#
# Youngs Moduli (GPa) = 84.57602 68.80943 47.22576
#
# Poissons Ratio (x) = -0.21336 0.30368
# Poissons Ratio (y) = -0.26225 0.21319
# Poissons Ratio (z) = 0.54386 0.31062
#
# Static dielectric constant tensor:
#      x y z
#    x 1.901520 -0.021000 -0.048880 
#    y -0.021000 1.950030 0.097090 
#    z -0.048880 0.097090 1.924360 
# 
# From -- ./inp_files/104428.got.cif
#   From: 2010.05.17/outbox.cif.g08.bks.cpg/sg2_53_cif.got.tgz:104428.got - 2010.06.03 11:33:40.
