data_PCOD9031156
_publ_section_title
;
Structure prediction by ZEFSAII (Michael W. Deem and Ramdas Pophale) SiO2 
 PCOD9031156
Probable space group: P -1
;
_chemical_formula_sum "Si O2"
_cell_formula_units_Z 14
_cell_length_a 19.312869
_cell_length_b 8.069421
_cell_length_c 13.040274
_cell_angle_alpha 147.125384
_cell_angle_beta 141.863763
_cell_angle_gamma 49.600867
_cell_volume 680.733247
_symmetry_space_group_name_H-M "P -1"
_symmetry_group_IT_number 2
_symmetry_cell_setting 'triclinic'
loop_
_space_group_symop_operation_xyz
x,y,z
-x,-y,-z
loop_
_atom_site_type_symbol
_atom_site_label
_atom_site_fract_x
_atom_site_fract_y
_atom_site_fract_z
Si Si1 0.434053 0.335589 0.744143
Si Si2 0.822579 0.735055 0.343470
Si Si3 0.843989 0.270633 0.778481
Si Si4 0.420183 0.285473 0.038016
Si Si5 0.819448 0.632763 0.511961
Si Si6 0.026175 0.357591 0.717626
Si Si7 0.606737 0.372884 0.613666
O O1 0.504033 0.441559 0.781838
O O2 0.307668 0.452098 0.649887
O O3 0.421760 0.975168 0.565252
O O4 0.500000 0.500000 0.000000
O O5 0.836342 0.542417 0.364555
O O6 0.882362 0.594696 0.242840
O O7 0.873147 0.072694 0.609698
O O8 0.689881 0.776868 0.192432
O O9 0.718520 0.386196 0.682174
O O10 0.832443 0.000382 0.710349
O O11 0.926257 0.518314 0.054545
O O12 0.372455 0.407500 0.151644
O O13 0.500000 0.000000 0.000000
O O14 0.912971 0.513723 0.632826
O O15 0.000000 0.000000 0.500000
O O16 0.500000 0.500000 0.500000
#
# Coordination Sequence:
#
# PCOD9031156 Si02
#       7
#     2   2   2   2   2   2   2
#     4  11  21  40  63  97 128 165 218 257 321 392
#     4  10  22  43  65  88 125 169 210 247 333 369
#     4   9  21  42  63  86 126 162 210 254 316 376
#     4  12  23  39  67  94 133 169 209 270 324 390
#     4   9  22  42  64  86 128 168 208 258 311 382
#     4  12  24  39  66  95 123 163 217 266 312 377
#     4  11  22  40  65  95 128 170 212 267 326 383
#
# _framework density 20.566057000000001
#
# number of rings (size 3 to 8) (size 9 to 14) (size 15 to 20)
#    0.857    0.571    2.857    3.000    2.000    1.714 
#    0.000    0.000    0.000    0.000    0.000    0.000 
#    0.000    0.000    0.000    0.000    0.000    0.000 
#
# Total GULP energy -78085.396004 kJ/mol
# GULP energy per Si atom -5577.528286 kJ/mol
# Density = 2.051925 g / cm^3
# Si number density = 20.566057 Si / 1000 Ang^3
#
#
#
# Elastic Constant Matrix: (Units=GPa)
#
#
# Indices 1 2 3 4 5 6 
#
# 1 43.4763 -9.9859 2.6900 -6.5044 2.6375 -13.1265
# 2 -9.9859 85.8855 23.1002 -20.3344 17.6806 -18.7462
# 3 2.6900 23.1002 110.2610 -10.2092 1.4571 -11.3488
# 4 -6.5044 -20.3344 -10.2092 30.8749 -8.7355 4.8438
# 5 2.6375 17.6806 1.4571 -8.7355 35.9854 0.2418
# 6 -13.1265 -18.7462 -11.3488 4.8438 0.2418 25.3058
#
#
#
# Elastic Compliance Matrix: (Units=1/GPa)
#
#
# Indices 1 2 3 4 5 6 
#
# 1 0.036729 0.014374 0.000042 0.010798 -0.007321 0.027722
# 2 0.014374 0.023310 -0.001787 0.011608 -0.009763 0.021794
# 3 0.000042 -0.001787 0.009893 0.001932 0.000925 0.002756
# 4 0.010798 0.011608 0.001932 0.042958 0.003809 0.006808
# 5 -0.007321 -0.009763 0.000925 0.003809 0.034088 -0.011669
# 6 0.027722 0.021794 0.002756 0.006808 -0.011669 0.070085
#
#
# Mechanical properties :
#
#
# Convention : Reuss Voigt Hill
#
# Bulk Modulus (GPa) = 10.50526 30.13682 20.32104
# Shear Modulus (GPa) = 22.36774 33.35446 27.86110
#
# Velocity S-wave (km/s) = 3.30146 4.03155 3.68464
# Velocity P-wave (km/s) = 4.43306 6.02965 5.29191
#
# Compressibility (1/GPa) = 0.09519039
#
# Stress axis : x y z
#
# Youngs Moduli (GPa) = 27.22625 42.89923 101.07975
#
# Poissons Ratio (x) = -0.61662 -0.00429
# Poissons Ratio (y) = -0.39134 0.18066
# Poissons Ratio (z) = -0.00116 0.07667
#
# Static dielectric constant tensor:
#      x y z
#    x 1.792470 0.006680 -0.023850 
#    y 0.006680 1.730770 -0.017640 
#    z -0.023850 -0.017640 1.772700 
# 
# From -- ./inp_files/516068.got.cif
#   From: 2010.05.17/outbox.cif.g08.bks.cpg/sg2_259_cif.got.tgz:516068.got - 2010.06.03 11:33:40.
