data_PCOD9031438
_publ_section_title
;
Structure prediction by ZEFSAII (Michael W. Deem and Ramdas Pophale) SiO2 
 PCOD9031438
Probable space group: P -1
;
_chemical_formula_sum "Si O2"
_cell_formula_units_Z 16
_cell_length_a 7.404055
_cell_length_b 11.757429
_cell_length_c 13.587705
_cell_angle_alpha 48.250431
_cell_angle_beta 44.316753
_cell_angle_gamma 64.900578
_cell_volume 613.415885
_symmetry_space_group_name_H-M "P -1"
_symmetry_group_IT_number 2
_symmetry_cell_setting 'triclinic'
loop_
_space_group_symop_operation_xyz
x,y,z
-x,-y,-z
loop_
_atom_site_type_symbol
_atom_site_label
_atom_site_fract_x
_atom_site_fract_y
_atom_site_fract_z
Si Si1 0.479457 0.738952 0.782032
Si Si2 0.369850 0.824496 0.094534
Si Si3 0.958493 0.526779 0.131789
Si Si4 0.915321 0.615049 0.302755
Si Si5 0.567327 0.866228 0.199879
Si Si6 0.833570 0.780698 0.811061
Si Si7 0.376585 0.920959 0.456044
Si Si8 0.421853 0.399561 0.371340
O O1 0.637196 0.743193 0.818954
O O2 0.619472 0.638690 0.705172
O O3 0.486145 0.918633 0.650150
O O4 0.184641 0.664138 0.953992
O O5 0.372592 0.811575 0.218415
O O6 0.192761 0.691673 0.185964
O O7 0.665417 0.829996 0.938323
O O8 0.277014 0.983484 0.997281
O O9 0.048776 0.379819 0.126450
O O10 0.931159 0.494173 0.278940
O O11 0.663090 0.528510 0.212391
O O12 0.751856 0.742063 0.239233
O O13 0.776211 0.562784 0.488627
O O14 0.416470 0.919548 0.323380
O O15 0.077174 0.898599 0.618272
O O16 0.495648 0.766990 0.531538
#
# Coordination Sequence:
#
# PCOD9031438 Si02
#       8
#     2   2   2   2   2   2   2   2
#     4  12  22  39  68  98 129 173 221 270 337 397
#     4  11  23  40  68  99 135 176 225 271 341 400
#     4  11  24  46  65  92 138 179 220 279 330 398
#     4  11  23  44  66  94 137 175 227 273 336 392
#     4  10  23  41  66  99 134 178 217 281 334 399
#     4  11  24  42  66  98 136 171 224 277 332 395
#     4  10  22  43  66  97 135 170 218 283 332 393
#     4  10  25  41  66  97 132 174 223 275 336 398
#
# _framework density 26.083444
#
# number of rings (size 3 to 8) (size 9 to 14) (size 15 to 20)
#    0.000    1.250    2.500    2.250    1.750    5.000 
#    0.000    1.875    0.000    0.000    0.000    0.000 
#    0.000    0.000    0.000    0.000    0.000    0.000 
#
# Total GULP energy -89624.656583 kJ/mol
# GULP energy per Si atom -5601.541036 kJ/mol
# Density = 2.602408 g / cm^3
# Si number density = 26.083444 Si / 1000 Ang^3
#
#
#
# Elastic Constant Matrix: (Units=GPa)
#
#
# Indices 1 2 3 4 5 6 
#
# 1 83.3761 21.0431 17.5772 9.1124 14.3359 11.4291
# 2 21.0431 88.2351 42.5990 12.7375 7.9376 21.6217
# 3 17.5772 42.5990 131.8864 11.2708 -6.3603 3.5132
# 4 9.1124 12.7375 11.2708 53.3515 9.1319 16.1254
# 5 14.3359 7.9376 -6.3603 9.1319 36.9808 0.1982
# 6 11.4291 21.6217 3.5132 16.1254 0.1982 53.2219
#
#
#
# Elastic Compliance Matrix: (Units=1/GPa)
#
#
# Indices 1 2 3 4 5 6 
#
# 1 0.013935 -0.001543 -0.001546 -0.000110 -0.005298 -0.002211
# 2 -0.001543 0.015814 -0.004911 -0.000135 -0.003577 -0.005715
# 3 -0.001546 -0.004911 0.009662 -0.001935 0.003781 0.002262
# 4 -0.000110 -0.000135 -0.001935 0.022136 -0.005693 -0.006479
# 5 -0.005298 -0.003577 0.003781 -0.005693 0.031897 0.003947
# 6 -0.002211 -0.005715 0.002262 -0.006479 0.003947 0.023385
#
#
# Mechanical properties :
#
#
# Convention : Reuss Voigt Hill
#
# Bulk Modulus (GPa) = 42.71410 51.77071 47.24240
# Shear Modulus (GPa) = 35.55351 43.52940 39.54146
#
# Velocity S-wave (km/s) = 3.69598 4.08959 3.89776
# Velocity P-wave (km/s) = 5.88432 6.49545 6.19742
#
# Compressibility (1/GPa) = 0.02341148
#
# Stress axis : x y z
#
# Youngs Moduli (GPa) = 71.76103 63.23546 103.49767
#
# Poissons Ratio (x) = 0.09756 0.16002
# Poissons Ratio (y) = 0.11071 0.50827
# Poissons Ratio (z) = 0.11095 0.31055
#
# Static dielectric constant tensor:
#      x y z
#    x 2.063880 -0.073850 0.087450 
#    y -0.073850 2.066730 -0.024640 
#    z 0.087450 -0.024640 2.045260 
# 
# From -- ./inp_files/499976.got.cif
#   From: 2010.05.17/outbox.cif.g08.bks.cpg/sg2_250_cif.got.tgz:499976.got - 2010.06.03 11:33:40.
