data_PCOD9031213
_publ_section_title
;
Structure prediction by ZEFSAII (Michael W. Deem and Ramdas Pophale) SiO2 
 PCOD9031213
Probable space group: P -1
;
_chemical_formula_sum "Si O2"
_cell_formula_units_Z 16
_cell_length_a 11.626169
_cell_length_b 9.539989
_cell_length_c 18.363472
_cell_angle_alpha 51.166700
_cell_angle_beta 41.176733
_cell_angle_gamma 83.667195
_cell_volume 740.616053
_symmetry_space_group_name_H-M "P -1"
_symmetry_group_IT_number 2
_symmetry_cell_setting 'triclinic'
loop_
_space_group_symop_operation_xyz
x,y,z
-x,-y,-z
loop_
_atom_site_type_symbol
_atom_site_label
_atom_site_fract_x
_atom_site_fract_y
_atom_site_fract_z
Si Si1 0.443920 0.878475 0.800727
Si Si2 0.708132 0.893158 0.109361
Si Si3 0.157699 0.298136 0.144607
Si Si4 0.893969 0.028860 0.609128
Si Si5 0.579754 0.458108 0.402300
Si Si6 0.640155 0.107669 0.475821
Si Si7 0.168972 0.454691 0.450703
Si Si8 0.967329 0.914845 0.242751
O O1 0.706398 0.041802 0.663315
O O2 0.311790 0.955084 0.874819
O O3 0.480275 0.935534 0.678579
O O4 0.309872 0.591373 0.971355
O O5 0.707379 0.700894 0.213107
O O6 0.452695 0.707524 0.245673
O O7 0.933026 0.061489 0.891552
O O8 0.234684 0.206907 0.197939
O O9 0.144739 0.183917 0.111209
O O10 0.879681 0.156424 0.342964
O O11 0.000000 0.000000 0.500000
O O12 0.115393 0.277107 0.468899
O O13 0.500000 0.500000 0.500000
O O14 0.719883 0.372358 0.367470
O O15 0.308152 0.207028 0.584329
O O16 0.500000 0.000000 0.500000
O O17 0.000000 0.500000 0.500000
O O18 0.062799 0.284665 0.629369
#
# Coordination Sequence:
#
# PCOD9031213 Si02
#       8
#     2   2   2   2   2   2   2   2
#     4  12  26  43  70 102 132 176 225 271 333 399
#     4  11  25  43  66  97 134 175 219 272 333 394
#     4  11  26  44  67 101 135 175 220 275 331 397
#     4  11  23  44  70  98 136 175 220 272 332 393
#     4  11  24  44  67  93 131 171 225 279 325 387
#     4  12  26  47  68  97 134 178 225 274 335 391
#     4  10  22  43  65  94 133 174 216 270 329 392
#     4  10  25  42  64  96 134 173 219 269 336 393
#
# _framework density 21.603639000000001
#
# number of rings (size 3 to 8) (size 9 to 14) (size 15 to 20)
#    0.000    1.000    5.000    0.375    5.250    3.500 
#    0.000    0.000    0.000    0.000    0.000    0.000 
#    0.000    0.000    0.000    0.000    0.000    0.000 
#
# Total GULP energy -89457.788872 kJ/mol
# GULP energy per Si atom -5591.111805 kJ/mol
# Density = 2.155447 g / cm^3
# Si number density = 21.603639 Si / 1000 Ang^3
#
#
#
# Elastic Constant Matrix: (Units=GPa)
#
#
# Indices 1 2 3 4 5 6 
#
# 1 78.3202 23.6040 18.5907 6.1584 15.3708 3.7655
# 2 23.6040 98.5536 24.6532 12.0519 12.6859 -0.7983
# 3 18.5907 24.6532 64.2307 7.0420 4.0809 14.9172
# 4 6.1584 12.0519 7.0420 37.2306 9.9980 -0.7303
# 5 15.3708 12.6859 4.0809 9.9980 20.5619 5.5034
# 6 3.7655 -0.7983 14.9172 -0.7303 5.5034 39.9760
#
#
#
# Elastic Compliance Matrix: (Units=1/GPa)
#
#
# Indices 1 2 3 4 5 6 
#
# 1 0.016251 -0.001623 -0.003883 0.001722 -0.011619 0.001517
# 2 -0.001623 0.012596 -0.004514 -0.001349 -0.005771 0.002859
# 3 -0.003883 -0.004514 0.020335 -0.003370 0.005466 -0.008126
# 4 0.001722 -0.001349 -0.003370 0.032148 -0.016467 0.003923
# 5 -0.011619 -0.005771 0.005466 -0.016467 0.070774 -0.011104
# 6 0.001517 0.002859 -0.008126 0.003923 -0.011104 0.029562
#
#
# Mechanical properties :
#
#
# Convention : Reuss Voigt Hill
#
# Bulk Modulus (GPa) = 34.31688 41.64445 37.98067
# Shear Modulus (GPa) = 23.64948 31.17080 27.41014
#
# Velocity S-wave (km/s) = 3.31221 3.80261 3.56585
# Velocity P-wave (km/s) = 5.52693 6.21274 5.87984
#
# Compressibility (1/GPa) = 0.02914018
#
# Stress axis : x y z
#
# Youngs Moduli (GPa) = 61.53397 79.39214 49.17640
#
# Poissons Ratio (x) = 0.12889 0.19097
# Poissons Ratio (y) = 0.09990 0.22198
# Poissons Ratio (z) = 0.23896 0.35837
#
# Static dielectric constant tensor:
#      x y z
#    x 3.285290 -0.618820 -0.942020 
#    y -0.618820 2.062890 0.365570 
#    z -0.942020 0.365570 2.329800 
# 
# From -- ./inp_files/68571.got.cif
#   From: 2010.05.17/outbox.cif.g08.bks.cpg/sg2_35_cif.got.tgz:68571.got - 2010.06.03 11:33:40.
