data_PCOD9031779
_publ_section_title
;
Structure prediction by ZEFSAII (Michael W. Deem and Ramdas Pophale) SiO2 
 PCOD9031779
Probable space group: P -1
;
_chemical_formula_sum "Si O2"
_cell_formula_units_Z 12
_cell_length_a 9.195101
_cell_length_b 12.530376
_cell_length_c 9.380519
_cell_angle_alpha 144.322268
_cell_angle_beta 63.740173
_cell_angle_gamma 99.283982
_cell_volume 523.195375
_symmetry_space_group_name_H-M "P -1"
_symmetry_group_IT_number 2
_symmetry_cell_setting 'triclinic'
loop_
_space_group_symop_operation_xyz
x,y,z
-x,-y,-z
loop_
_atom_site_type_symbol
_atom_site_label
_atom_site_fract_x
_atom_site_fract_y
_atom_site_fract_z
Si Si1 0.797527 0.053361 0.312404
Si Si2 0.663428 0.541682 0.405037
Si Si3 0.313179 0.088732 0.039715
Si Si4 0.838336 0.105219 0.881281
Si Si5 0.599624 0.093807 0.728247
Si Si6 0.539725 0.459934 0.773720
O O1 0.665178 0.038318 0.478080
O O2 0.712162 0.261353 0.490380
O O3 0.972916 0.033189 0.295470
O O4 0.829180 0.888162 0.997542
O O5 0.500000 0.500000 0.500000
O O6 0.696807 0.719594 0.659587
O O7 0.609753 0.568698 0.290902
O O8 0.821283 0.331597 0.132391
O O9 0.296450 0.933966 0.993438
O O10 0.489668 0.002187 0.773717
O O11 0.773640 0.066731 0.713591
O O12 0.468905 0.325801 0.040183
O O13 0.500000 0.500000 0.000000
#
# Coordination Sequence:
#
# PCOD9031779 Si02
#       6
#     2   2   2   2   2   2
#     4  11  24  41  65  98 134 161 213 273 322 365
#     4  11  22  41  66  92 129 169 216 257 317 385
#     4  12  24  40  69  97 124 173 219 257 313 392
#     4  11  24  43  67  95 130 167 211 272 321 368
#     4  10  22  43  68  90 128 176 215 254 317 389
#     4   9  20  39  65  90 126 169 209 254 318 376
#
# _framework density 22.935983
#
# number of rings (size 3 to 8) (size 9 to 14) (size 15 to 20)
#    0.000    1.333    3.333    3.000    2.333    0.667 
#    3.000    0.000    0.000    4.000    0.000    0.000 
#    0.000    0.000    0.000    0.000    0.000    0.000 
#
# Total GULP energy -66938.763370 kJ/mol
# GULP energy per Si atom -5578.230281 kJ/mol
# Density = 2.288378 g / cm^3
# Si number density = 22.935983 Si / 1000 Ang^3
#
#
#
# Elastic Constant Matrix: (Units=GPa)
#
#
# Indices 1 2 3 4 5 6 
#
# 1 86.7830 47.3004 30.5666 7.0266 7.0194 -29.6043
# 2 47.3004 127.6314 51.7880 0.2543 18.0798 -20.9148
# 3 30.5666 51.7880 76.4592 3.2420 30.1544 -14.1185
# 4 7.0266 0.2543 3.2420 46.5584 -14.6826 5.4607
# 5 7.0194 18.0798 30.1544 -14.6826 40.4332 -6.0220
# 6 -29.6043 -20.9148 -14.1185 5.4607 -6.0220 42.0698
#
#
#
# Elastic Compliance Matrix: (Units=1/GPa)
#
#
# Indices 1 2 3 4 5 6 
#
# 1 0.018653 -0.004091 -0.003034 -0.003461 0.001190 0.010694
# 2 -0.004091 0.012133 -0.006870 0.001243 0.000983 0.000827
# 3 -0.003034 -0.006870 0.027165 -0.007655 -0.019170 0.001816
# 4 -0.003461 0.001243 -0.007655 0.027955 0.015032 -0.005863
# 5 0.001190 0.000983 -0.019170 0.015032 0.043722 -0.000800
# 6 0.010694 0.000827 0.001816 -0.005863 -0.000800 0.032962
#
#
# Mechanical properties :
#
#
# Convention : Reuss Voigt Hill
#
# Bulk Modulus (GPa) = 33.37667 61.13151 47.25409
# Shear Modulus (GPa) = 24.92932 36.56018 30.74475
#
# Velocity S-wave (km/s) = 3.30041 3.99684 3.66520
# Velocity P-wave (km/s) = 5.39512 6.92897 6.20958
#
# Compressibility (1/GPa) = 0.02996105
#
# Stress axis : x y z
#
# Youngs Moduli (GPa) = 53.60960 82.42304 36.81196
#
# Poissons Ratio (x) = 0.33721 0.11169
# Poissons Ratio (y) = 0.21933 0.25289
# Poissons Ratio (z) = 0.16265 0.56623
#
# Static dielectric constant tensor:
#      x y z
#    x 1.928270 0.010990 -0.010170 
#    y 0.010990 1.912740 0.011700 
#    z -0.010170 0.011700 1.938720 
# 
# From -- ./inp_files/174703.got.cif
#   From: 2010.05.17/outbox.cif.g08.bks.cpg/sg2_88_cif.got.tgz:174703.got - 2010.06.03 11:33:40.
