data_PCOD9031601
_publ_section_title
;
Structure prediction by ZEFSAII (Michael W. Deem and Ramdas Pophale) SiO2 
 PCOD9031601
Probable space group: P -1
;
_chemical_formula_sum "Si O2"
_cell_formula_units_Z 16
_cell_length_a 11.412430
_cell_length_b 9.615751
_cell_length_c 9.287003
_cell_angle_alpha 107.471918
_cell_angle_beta 135.104418
_cell_angle_gamma 82.733363
_cell_volume 680.497243
_symmetry_space_group_name_H-M "P -1"
_symmetry_group_IT_number 2
_symmetry_cell_setting 'triclinic'
loop_
_space_group_symop_operation_xyz
x,y,z
-x,-y,-z
loop_
_atom_site_type_symbol
_atom_site_label
_atom_site_fract_x
_atom_site_fract_y
_atom_site_fract_z
Si Si1 0.158506 0.579780 0.252909
Si Si2 0.133031 0.870550 0.176508
Si Si3 0.588557 0.550840 0.943830
Si Si4 0.612960 0.872036 0.047148
Si Si5 0.761881 0.900603 0.881892
Si Si6 0.171414 0.158526 0.494745
Si Si7 0.622766 0.650296 0.507142
Si Si8 0.026489 0.378658 0.603532
O O1 0.208320 0.732693 0.261497
O O2 0.294386 0.470169 0.365880
O O3 0.096829 0.621060 0.370607
O O4 0.000000 0.500000 0.000000
O O5 0.217542 0.940698 0.126877
O O6 0.139626 0.007259 0.334661
O O7 0.932804 0.832800 0.970429
O O8 0.536578 0.430265 0.740133
O O9 0.500000 0.500000 0.000000
O O10 0.526570 0.705459 0.894202
O O11 0.786806 0.582902 0.154682
O O12 0.701869 0.864629 0.274925
O O13 0.737024 0.904614 0.030652
O O14 0.500000 0.000000 0.000000
O O15 0.614385 0.791166 0.645207
O O16 0.254114 0.282980 0.494897
O O17 0.021344 0.224696 0.465878
O O18 0.000000 0.500000 0.500000
#
# Coordination Sequence:
#
# PCOD9031601 Si02
#       8
#     2   2   2   2   2   2   2   2
#     4  12  24  41  66 104 136 172 236 285 329 413
#     4  10  22  43  68  97 133 182 228 278 351 396
#     4  11  22  44  70  97 135 179 218 280 348 398
#     4  11  25  45  65  98 137 179 230 278 334 416
#     4  10  23  45  67  93 139 179 224 285 340 405
#     4  10  22  43  67  95 138 174 224 285 339 401
#     4  11  22  44  68  97 140 179 221 285 342 403
#     4  11  22  42  70 102 132 172 226 284 339 402
#
# _framework density 23.512221
#
# number of rings (size 3 to 8) (size 9 to 14) (size 15 to 20)
#    0.000    1.250    5.000    1.500    1.750    2.500 
#    4.500    2.500    0.000    0.000    0.000    0.000 
#    0.000    0.000    0.000    0.000    0.000    0.000 
#
# Total GULP energy -89557.477619 kJ/mol
# GULP energy per Si atom -5597.342351 kJ/mol
# Density = 2.345871 g / cm^3
# Si number density = 23.512221 Si / 1000 Ang^3
#
#
#
# Elastic Constant Matrix: (Units=GPa)
#
#
# Indices 1 2 3 4 5 6 
#
# 1 77.8540 41.2642 12.6338 -9.5517 -16.7792 19.8257
# 2 41.2642 166.0694 32.7026 -19.5183 -3.6227 18.4140
# 3 12.6338 32.7026 111.6126 4.1142 -10.4031 8.2123
# 4 -9.5517 -19.5183 4.1142 45.7285 5.6413 -8.1092
# 5 -16.7792 -3.6227 -10.4031 5.6413 30.6547 -9.3892
# 6 19.8257 18.4140 8.2123 -8.1092 -9.3892 30.2561
#
#
#
# Elastic Compliance Matrix: (Units=1/GPa)
#
#
# Indices 1 2 3 4 5 6 
#
# 1 0.018195 -0.003567 0.000220 0.000021 0.007299 -0.007541
# 2 -0.003567 0.007807 -0.002107 0.002778 -0.002864 -0.001987
# 3 0.000220 -0.002107 0.010039 -0.002380 0.003354 -0.001184
# 4 0.000021 0.002778 -0.002380 0.024497 -0.003635 0.004380
# 5 0.007299 -0.002864 0.003354 -0.003635 0.040419 0.007619
# 6 -0.007541 -0.001987 -0.001184 0.004380 0.007619 0.043061
#
#
# Mechanical properties :
#
#
# Convention : Reuss Voigt Hill
#
# Bulk Modulus (GPa) = 39.78618 58.74860 49.26739
# Shear Modulus (GPa) = 30.61767 39.25689 34.93728
#
# Velocity S-wave (km/s) = 3.61252 4.09055 3.85895
# Velocity P-wave (km/s) = 5.86162 6.88119 6.39177
#
# Compressibility (1/GPa) = 0.02513435
#
# Stress axis : x y z
#
# Youngs Moduli (GPa) = 54.95962 128.09045 99.60694
#
# Poissons Ratio (x) = 0.45684 -0.02190
# Poissons Ratio (y) = 0.19601 0.20987
# Poissons Ratio (z) = -0.01208 0.26988
#
# Static dielectric constant tensor:
#      x y z
#    x 1.924150 0.001290 0.025090 
#    y 0.001290 1.884770 0.035090 
#    z 0.025090 0.035090 1.927410 
# 
# From -- ./inp_files/244798.got.cif
#   From: 2010.05.17/outbox.cif.g08.bks.cpg/sg2_123_cif.got.tgz:244798.got - 2010.06.03 11:33:40.
