data_PCOD9031006
_publ_section_title
;
Structure prediction by ZEFSAII (Michael W. Deem and Ramdas Pophale) SiO2 
 PCOD9031006
Probable space group: P -1
;
_chemical_formula_sum "Si O2"
_cell_formula_units_Z 16
_cell_length_a 8.953792
_cell_length_b 9.663858
_cell_length_c 18.983296
_cell_angle_alpha 40.438637
_cell_angle_beta 129.905303
_cell_angle_gamma 134.369493
_cell_volume 740.162189
_symmetry_space_group_name_H-M "P -1"
_symmetry_group_IT_number 2
_symmetry_cell_setting 'triclinic'
loop_
_space_group_symop_operation_xyz
x,y,z
-x,-y,-z
loop_
_atom_site_type_symbol
_atom_site_label
_atom_site_fract_x
_atom_site_fract_y
_atom_site_fract_z
Si Si1 0.131602 0.940440 0.500239
Si Si2 0.546429 0.339065 0.909916
Si Si3 0.184256 0.456176 0.724352
Si Si4 0.242014 0.831380 0.078963
Si Si5 0.095049 0.304448 0.605651
Si Si6 0.443883 0.647168 0.483989
Si Si7 0.764247 0.140536 0.775386
Si Si8 0.731624 0.633487 0.976464
O O1 0.147917 0.692434 0.612850
O O2 0.032759 0.908948 0.403640
O O3 0.364369 0.148423 0.497566
O O4 0.000000 0.000000 0.500000
O O5 0.425468 0.505678 0.795339
O O6 0.667358 0.312046 0.888138
O O7 0.712343 0.453145 0.978490
O O8 0.360147 0.092120 0.978140
O O9 0.123729 0.281734 0.705451
O O10 0.017276 0.307253 0.790106
O O11 0.322044 0.842725 0.179457
O O12 0.980900 0.727682 0.042060
O O13 0.318828 0.452192 0.578929
O O14 0.000000 0.500000 0.500000
O O15 0.500000 0.500000 0.500000
O O16 0.318910 0.764386 0.353687
O O17 0.723422 0.873772 0.855855
O O18 0.500000 0.500000 0.000000
#
# Coordination Sequence:
#
# PCOD9031006 Si02
#       8
#     2   2   2   2   2   2   2   2
#     4  11  22  43  69  95 133 181 227 280 333 400
#     4  11  24  45  66 101 136 174 223 286 344 405
#     4  11  23  44  69  96 139 180 226 280 345 403
#     4  11  25  43  70  96 139 174 225 287 338 403
#     4  10  22  43  63  96 133 173 222 283 326 393
#     4  12  24  42  69  98 136 175 227 278 335 402
#     4  12  23  44  69  97 132 183 224 276 340 407
#     4  12  23  44  71 101 135 180 230 281 341 410
#
# _framework density 21.616883000000001
#
# number of rings (size 3 to 8) (size 9 to 14) (size 15 to 20)
#    0.000    0.750    6.250    2.250    1.750    2.000 
#    2.250    0.000    0.000    0.000    0.000    0.000 
#    0.000    0.000    0.000    0.000    0.000    0.000 
#
# Total GULP energy -89177.474519 kJ/mol
# GULP energy per Si atom -5573.592157 kJ/mol
# Density = 2.156768 g / cm^3
# Si number density = 21.616883 Si / 1000 Ang^3
#
#
#
# Elastic Constant Matrix: (Units=GPa)
#
#
# Indices 1 2 3 4 5 6 
#
# 1 101.2201 46.4601 28.7770 2.4476 -19.4641 -6.1649
# 2 46.4601 146.2287 22.0876 15.0141 -5.5405 -3.3739
# 3 28.7770 22.0876 55.1579 4.6809 -3.8229 1.9664
# 4 2.4476 15.0141 4.6809 35.0803 -8.1858 -3.1811
# 5 -19.4641 -5.5405 -3.8229 -8.1858 32.7103 8.1816
# 6 -6.1649 -3.3739 1.9664 -3.1811 8.1816 36.6805
#
#
#
# Elastic Compliance Matrix: (Units=1/GPa)
#
#
# Indices 1 2 3 4 5 6 
#
# 1 0.014880 -0.003842 -0.005984 0.003384 0.008113 0.000952
# 2 -0.003842 0.008558 -0.001261 -0.003659 -0.001983 0.000334
# 3 -0.005984 -0.001261 0.021958 -0.002471 -0.001268 -0.002230
# 4 0.003384 -0.003659 -0.002471 0.032351 0.008905 0.001184
# 5 0.008113 -0.001983 -0.001268 0.008905 0.038803 -0.006634
# 6 0.000952 0.000334 -0.002230 0.001184 -0.006634 0.029155
#
#
# Mechanical properties :
#
#
# Convention : Reuss Voigt Hill
#
# Bulk Modulus (GPa) = 43.06240 55.25068 49.15654
# Shear Modulus (GPa) = 28.47054 34.57968 31.52511
#
# Velocity S-wave (km/s) = 3.63306 4.00391 3.82299
# Velocity P-wave (km/s) = 6.12885 6.85490 6.50202
#
# Compressibility (1/GPa) = 0.02322212
#
# Stress axis : x y z
#
# Youngs Moduli (GPa) = 67.20230 116.84836 45.54151
#
# Poissons Ratio (x) = 0.44894 0.27251
# Poissons Ratio (y) = 0.25820 0.05745
# Poissons Ratio (z) = 0.40212 0.14739
#
# Static dielectric constant tensor:
#      x y z
#    x 1.748800 0.056860 0.095110 
#    y 0.056860 1.782670 0.027380 
#    z 0.095110 0.027380 1.785500 
# 
# From -- ./inp_files/555989.got.cif
#   From: 2010.05.17/outbox.cif.g08.bks.cpg/sg2_278_cif.got.tgz:555989.got - 2010.06.03 11:33:40.
