data_PCOD9031755
_publ_section_title
;
Structure prediction by ZEFSAII (Michael W. Deem and Ramdas Pophale) SiO2 
 PCOD9031755
Probable space group: P -1
;
_chemical_formula_sum "Si O2"
_cell_formula_units_Z 12
_cell_length_a 12.250526
_cell_length_b 15.643332
_cell_length_c 15.726058
_cell_angle_alpha 153.943081
_cell_angle_beta 28.343137
_cell_angle_gamma 153.613299
_cell_volume 542.742031
_symmetry_space_group_name_H-M "P -1"
_symmetry_group_IT_number 2
_symmetry_cell_setting 'triclinic'
loop_
_space_group_symop_operation_xyz
x,y,z
-x,-y,-z
loop_
_atom_site_type_symbol
_atom_site_label
_atom_site_fract_x
_atom_site_fract_y
_atom_site_fract_z
Si Si1 0.209465 0.159923 0.929606
Si Si2 0.554629 0.098069 0.924249
Si Si3 0.034534 0.128016 0.322872
Si Si4 0.027191 0.867855 0.442155
Si Si5 0.176480 0.545482 0.207509
Si Si6 0.801772 0.364028 0.154411
O O1 0.515162 0.265819 0.841304
O O2 0.159017 0.364450 0.125050
O O3 0.158730 0.028044 0.757672
O O4 0.000000 0.000000 0.000000
O O5 0.322221 0.158576 0.133430
O O6 0.772184 0.267249 0.993846
O O7 0.692813 0.116722 0.757100
O O8 0.433193 0.846354 0.821241
O O9 0.970921 0.035637 0.380564
O O10 0.002772 0.347262 0.546171
O O11 0.809709 0.601475 0.354535
O O12 0.000000 0.000000 0.500000
O O13 0.058144 0.424466 0.090260
#
# Coordination Sequence:
#
# PCOD9031755 Si02
#       6
#     2   2   2   2   2   2
#     4  11  25  48  73  98 136 184 238 293 350 408
#     4  11  23  43  71 101 149 184 229 287 349 419
#     4  11  25  45  72 106 140 181 233 289 341 426
#     4  11  25  42  68 106 144 190 229 279 352 421
#     4  10  24  45  71 102 140 177 238 294 339 416
#     4  10  22  43  68 103 144 181 232 284 338 425
#
# _framework density 22.109952
#
# number of rings (size 3 to 8) (size 9 to 14) (size 15 to 20)
#    0.000    1.333    1.667    3.000    4.667    6.667 
#    0.000    8.333    0.000    0.000    0.000    0.000 
#    0.000    0.000    0.000    0.000    0.000    0.000 
#
# Total GULP energy -67064.940116 kJ/mol
# GULP energy per Si atom -5588.745010 kJ/mol
# Density = 2.205963 g / cm^3
# Si number density = 22.109952 Si / 1000 Ang^3
#
#
#
# Elastic Constant Matrix: (Units=GPa)
#
#
# Indices 1 2 3 4 5 6 
#
# 1 144.3448 55.5874 42.7464 2.1985 5.5115 21.4060
# 2 55.5874 130.3030 44.9554 5.0044 2.8439 -2.1978
# 3 42.7464 44.9554 115.8919 -5.1648 -13.6617 9.2750
# 4 2.1985 5.0044 -5.1648 40.9277 -1.1695 -5.1717
# 5 5.5115 2.8439 -13.6617 -1.1695 41.0329 16.7638
# 6 21.4060 -2.1978 9.2750 -5.1717 16.7638 38.2909
#
#
#
# Elastic Compliance Matrix: (Units=1/GPa)
#
#
# Indices 1 2 3 4 5 6 
#
# 1 0.009632 -0.003604 -0.001671 -0.000977 0.000663 -0.005609
# 2 -0.003604 0.010677 -0.003667 -0.001054 -0.003513 0.004911
# 3 -0.001671 -0.003667 0.011876 0.001621 0.006416 -0.004743
# 4 -0.000977 -0.001054 0.001621 0.025261 0.000039 0.003488
# 5 0.000663 -0.003513 0.006416 0.000039 0.033526 -0.016799
# 6 -0.005609 0.004911 -0.004743 0.003488 -0.016799 0.038508
#
#
# Mechanical properties :
#
#
# Convention : Reuss Voigt Hill
#
# Bulk Modulus (GPa) = 69.92467 75.23537 72.58002
# Shear Modulus (GPa) = 32.86656 40.53366 36.70011
#
# Velocity S-wave (km/s) = 3.85971 4.28632 4.07860
# Velocity P-wave (km/s) = 7.18036 7.65496 7.42146
#
# Compressibility (1/GPa) = 0.01430110
#
# Stress axis : x y z
#
# Youngs Moduli (GPa) = 103.81990 93.66005 84.20595
#
# Poissons Ratio (x) = 0.33755 0.14072
# Poissons Ratio (y) = 0.37417 0.30875
# Poissons Ratio (z) = 0.17350 0.34341
#
# Static dielectric constant tensor:
#      x y z
#    x 1.816020 -0.004460 -0.041290 
#    y -0.004460 1.817550 0.015230 
#    z -0.041290 0.015230 1.856430 
# 
# From -- ./inp_files/521832.got.cif
#   From: 2010.05.17/outbox.cif.g08.bks.cpg/sg2_261_cif.got.tgz:521832.got - 2010.06.03 11:33:40.
