data_PCOD9031964
_publ_section_title
;
Structure prediction by ZEFSAII (Michael W. Deem and Ramdas Pophale) SiO2 
 PCOD9031964
Probable space group: P -1
;
_chemical_formula_sum "Si O2"
_cell_formula_units_Z 10
_cell_length_a 5.410398
_cell_length_b 6.649790
_cell_length_c 13.566227
_cell_angle_alpha 47.884270
_cell_angle_beta 91.728669
_cell_angle_gamma 76.562752
_cell_volume 340.242434
_symmetry_space_group_name_H-M "P -1"
_symmetry_group_IT_number 2
_symmetry_cell_setting 'triclinic'
loop_
_space_group_symop_operation_xyz
x,y,z
-x,-y,-z
loop_
_atom_site_type_symbol
_atom_site_label
_atom_site_fract_x
_atom_site_fract_y
_atom_site_fract_z
Si Si1 0.952215 0.782740 0.230740
Si Si2 0.338322 0.341754 0.897711
Si Si3 0.376094 0.787445 0.620277
Si Si4 0.661137 0.891743 0.840754
Si Si5 0.152509 0.801219 0.420277
O O1 0.911876 0.610060 0.192473
O O2 0.655521 0.967641 0.199440
O O3 0.098445 0.628137 0.382826
O O4 0.134016 0.973657 0.146891
O O5 0.486652 0.538672 0.784846
O O6 0.500000 0.000000 0.000000
O O7 0.280685 0.391821 0.996171
O O8 0.316392 0.633894 0.569988
O O9 0.500000 0.000000 0.500000
O O10 0.114963 0.992825 0.602753
O O11 0.719872 0.978789 0.702945
#
# Coordination Sequence:
#
# PCOD9031964 Si02
#       5
#     2   2   2   2   2
#     4   9  19  40  68  98 132 170 224 273 332 389
#     4  10  22  43  69 101 131 177 222 281 329 399
#     4  11  23  45  65  97 138 177 224 272 341 398
#     4   9  19  40  68  98 132 170 224 273 332 389
#     4   9  22  41  66  94 138 177 222 271 338 394
#
# _framework density 29.390809999999998
#
# number of rings (size 3 to 8) (size 9 to 14) (size 15 to 20)
#    1.200    1.200    0.000    1.800    0.000    1.600 
#   28.800   10.000    0.000    0.000    0.000    0.000 
#    0.000    0.000    0.000    0.000    0.000    0.000 
#
# Total GULP energy -55797.075479 kJ/mol
# GULP energy per Si atom -5579.707548 kJ/mol
# Density = 2.932391 g / cm^3
# Si number density = 29.390810 Si / 1000 Ang^3
#
#
#
# Elastic Constant Matrix: (Units=GPa)
#
#
# Indices 1 2 3 4 5 6 
#
# 1 200.7052 38.4237 49.5875 -11.1168 -47.9893 -17.0873
# 2 38.4237 68.0674 32.5114 -15.9777 6.7198 5.6428
# 3 49.5875 32.5114 282.2282 22.3196 -45.5189 -7.2224
# 4 -11.1168 -15.9777 22.3196 63.5372 8.5995 -6.1070
# 5 -47.9893 6.7198 -45.5189 8.5995 43.2346 -3.4003
# 6 -17.0873 5.6428 -7.2224 -6.1070 -3.4003 44.5844
#
#
#
# Elastic Compliance Matrix: (Units=1/GPa)
#
#
# Indices 1 2 3 4 5 6 
#
# 1 0.011044 -0.010621 0.002614 -0.003414 0.017883 0.006896
# 2 -0.010621 0.030013 -0.007007 0.010851 -0.026741 -0.009557
# 3 0.002614 -0.007007 0.006249 -0.004791 0.011769 0.003142
# 4 -0.003414 0.010851 -0.004791 0.021411 -0.014910 -0.001662
# 5 0.017883 -0.026741 0.011769 -0.014910 0.063668 0.014958
# 6 0.006896 -0.009557 0.003142 -0.001662 0.014958 0.027704
#
#
# Mechanical properties :
#
#
# Convention : Reuss Voigt Hill
#
# Bulk Modulus (GPa) = 57.88081 88.00510 72.94296
# Shear Modulus (GPa) = 25.52624 58.96978 42.24801
#
# Velocity S-wave (km/s) = 2.95025 4.48415 3.79549
# Velocity P-wave (km/s) = 5.59835 7.53778 6.63927
#
# Compressibility (1/GPa) = 0.01727688
#
# Stress axis : x y z
#
# Youngs Moduli (GPa) = 90.54814 33.31873 160.03628
#
# Poissons Ratio (x) = 0.35389 -0.41830
# Poissons Ratio (y) = 0.96173 1.12136
# Poissons Ratio (z) = -0.23668 0.23346
#
# Static dielectric constant tensor:
#      x y z
#    x 2.376410 0.092780 -0.004550 
#    y 0.092780 2.441490 0.041390 
#    z -0.004550 0.041390 2.355000 
# 
# From -- ./inp_files/58453.got.cif
#   From: 2010.05.17/outbox.cif.g08.bks.cpg/sg2_30_cif.got.tgz:58453.got - 2010.06.03 11:33:40.
