data_PCOD9031928
_publ_section_title
;
Structure prediction by ZEFSAII (Michael W. Deem and Ramdas Pophale) SiO2 
 PCOD9031928
Probable space group: P -1
;
_chemical_formula_sum "Si O2"
_cell_formula_units_Z 16
_cell_length_a 11.869715
_cell_length_b 18.377410
_cell_length_c 15.149672
_cell_angle_alpha 151.714811
_cell_angle_beta 32.334414
_cell_angle_gamma 128.758088
_cell_volume 741.214479
_symmetry_space_group_name_H-M "P -1"
_symmetry_group_IT_number 2
_symmetry_cell_setting 'triclinic'
loop_
_space_group_symop_operation_xyz
x,y,z
-x,-y,-z
loop_
_atom_site_type_symbol
_atom_site_label
_atom_site_fract_x
_atom_site_fract_y
_atom_site_fract_z
Si Si1 0.280541 0.324475 0.872153
Si Si2 0.858258 0.924641 0.660687
Si Si3 0.133120 0.713879 0.966676
Si Si4 0.253117 0.997152 0.831754
Si Si5 0.438354 0.075924 0.973657
Si Si6 0.485461 0.423004 0.290336
Si Si7 0.641635 0.389513 0.968829
Si Si8 0.208129 0.342005 0.140499
O O1 0.549788 0.173514 0.529012
O O2 0.276220 0.498330 0.025401
O O3 0.169972 0.352979 0.072958
O O4 0.127395 0.266553 0.848441
O O5 0.127943 0.776498 0.324363
O O6 0.700885 0.946755 0.700687
O O7 0.728728 0.891716 0.795443
O O8 0.858334 0.108303 0.867807
O O9 0.294067 0.569498 0.635014
O O10 0.262057 0.643018 0.898439
O O11 0.344234 0.007577 0.881441
O O12 0.228729 0.165057 0.975782
O O13 0.000000 0.000000 0.000000
O O14 0.437183 0.256133 0.139127
O O15 0.497083 0.492795 0.261121
O O16 0.459829 0.341531 0.987554
O O17 0.000000 0.500000 0.500000
#
# Coordination Sequence:
#
# PCOD9031928 Si02
#       8
#     2   2   2   2   2   2   2   2
#     4  12  28  44  67 105 138 179 231 284 338 405
#     4  10  24  41  73 100 139 178 222 284 334 419
#     4  10  23  42  68 101 138 176 226 280 334 406
#     4  12  28  46  73 100 138 180 230 286 338 406
#     4  10  23  45  69 100 138 182 227 268 354 401
#     4  10  22  43  68  99 138 181 220 276 345 403
#     4  12  25  43  71 102 137 179 226 282 341 410
#     4  12  27  49  73  96 133 184 233 286 344 404
#
# _framework density 21.586195
#
# number of rings (size 3 to 8) (size 9 to 14) (size 15 to 20)
#    0.000    1.000    1.250    3.750    8.750    2.500 
#    0.000    0.000    0.000    0.000    0.000    0.000 
#    0.000    0.000    0.000    0.000    0.000    0.000 
#
# Total GULP energy -89570.712940 kJ/mol
# GULP energy per Si atom -5598.169559 kJ/mol
# Density = 2.153706 g / cm^3
# Si number density = 21.586195 Si / 1000 Ang^3
#
#
#
# Elastic Constant Matrix: (Units=GPa)
#
#
# Indices 1 2 3 4 5 6 
#
# 1 138.4965 63.5412 33.8293 -3.9362 -2.4578 14.5446
# 2 63.5412 85.7853 4.7998 -6.2170 -14.3525 -1.7796
# 3 33.8293 4.7998 90.3301 5.8136 -12.5328 5.6804
# 4 -3.9362 -6.2170 5.8136 24.5549 1.3232 -11.0915
# 5 -2.4578 -14.3525 -12.5328 1.3232 33.6689 -13.2142
# 6 14.5446 -1.7796 5.6804 -11.0915 -13.2142 37.0750
#
#
#
# Elastic Compliance Matrix: (Units=1/GPa)
#
#
# Indices 1 2 3 4 5 6 
#
# 1 0.015789 -0.013743 -0.005760 -0.004007 -0.011052 -0.011109
# 2 -0.013743 0.025338 0.004666 0.008763 0.016896 0.014536
# 3 -0.005760 0.004666 0.014072 -0.002411 0.007844 0.002402
# 4 -0.004007 0.008763 -0.002411 0.051888 0.008750 0.021004
# 5 -0.011052 0.016896 0.007844 0.008750 0.047957 0.023655
# 6 -0.011109 0.014536 0.002402 0.021004 0.023655 0.046375
#
#
# Mechanical properties :
#
#
# Convention : Reuss Voigt Hill
#
# Bulk Modulus (GPa) = 39.17323 57.66140 48.41731
# Shear Modulus (GPa) = 20.86805 33.22253 27.04529
#
# Velocity S-wave (km/s) = 3.11260 3.92735 3.54347
# Velocity P-wave (km/s) = 5.57714 6.88008 6.26259
#
# Compressibility (1/GPa) = 0.02552764
#
# Stress axis : x y z
#
# Youngs Moduli (GPa) = 63.33548 39.46568 71.06244
#
# Poissons Ratio (x) = 0.54236 0.40930
# Poissons Ratio (y) = 0.87039 -0.33161
# Poissons Ratio (z) = 0.36480 -0.18416
#
# Static dielectric constant tensor:
#      x y z
#    x 1.800790 -0.003970 -0.012210 
#    y -0.003970 1.725370 -0.013220 
#    z -0.012210 -0.013220 1.776150 
# 
# From -- ./inp_files/187045.got.cif
#   From: 2010.05.17/outbox.cif.g08.bks.cpg/sg2_94_cif.got.tgz:187045.got - 2010.06.03 11:33:40.
