data_PCOD9031302
_publ_section_title
;
Structure prediction by ZEFSAII (Michael W. Deem and Ramdas Pophale) SiO2 
 PCOD9031302
Probable space group: P -1
;
_chemical_formula_sum "Si O2"
_cell_formula_units_Z 11
_cell_length_a 8.696288
_cell_length_b 8.046105
_cell_length_c 7.238271
_cell_angle_alpha 86.280054
_cell_angle_beta 55.821172
_cell_angle_gamma 73.693836
_cell_volume 399.384179
_symmetry_space_group_name_H-M "P -1"
_symmetry_group_IT_number 2
_symmetry_cell_setting 'triclinic'
loop_
_space_group_symop_operation_xyz
x,y,z
-x,-y,-z
loop_
_atom_site_type_symbol
_atom_site_label
_atom_site_fract_x
_atom_site_fract_y
_atom_site_fract_z
Si Si1 0.747249 0.206583 0.604168
Si Si2 0.000000 0.500000 0.000000
Si Si3 0.860330 0.817576 0.470406
Si Si4 0.895165 0.851002 0.049097
Si Si5 0.443326 0.858341 0.880297
Si Si6 0.582910 0.487118 0.159484
O O1 0.590045 0.376665 0.625110
O O2 0.934762 0.244951 0.563992
O O3 0.816263 0.027095 0.457937
O O4 0.638197 0.147986 0.859340
O O5 0.012514 0.684611 0.867342
O O6 0.781419 0.529723 0.054011
O O7 0.882673 0.739578 0.253875
O O8 0.674367 0.801342 0.704000
O O9 0.677799 0.953489 0.128009
O O10 0.000000 0.000000 0.000000
O O11 0.382962 0.715211 0.811772
O O12 0.500000 0.500000 0.000000
#
# Coordination Sequence:
#
# PCOD9031302 Si02
#       6
#     2   1   2   2   2   2
#     4  10  22  43  66 101 142 187 237 289 362 425
#     4  12  24  44  78  98 142 198 228 298 368 410
#     4  11  23  41  68 100 139 188 238 294 354 427
#     4  12  23  46  68 103 144 185 239 296 354 425
#     4  11  22  43  70  98 143 188 232 298 355 421
#     4  10  22  43  68 107 144 182 245 291 350 436
#
# _framework density 27.542404999999999
#
# number of rings (size 3 to 8) (size 9 to 14) (size 15 to 20)
#    0.000    1.091    3.636    3.273    0.000    2.182 
#    3.273    1.818    0.000    0.000    0.000    0.000 
#    0.000    0.000    0.000    0.000    0.000    0.000 
#
# Total GULP energy -61371.791998 kJ/mol
# GULP energy per Si atom -5579.253818 kJ/mol
# Density = 2.747972 g / cm^3
# Si number density = 27.542405 Si / 1000 Ang^3
#
#
#
# Elastic Constant Matrix: (Units=GPa)
#
#
# Indices 1 2 3 4 5 6 
#
# 1 184.9437 25.9089 62.2914 -2.1045 -55.4506 0.0432
# 2 25.9089 134.4113 -21.2652 7.9811 -24.7331 -23.9523
# 3 62.2914 -21.2652 142.3566 4.4342 -12.1654 -21.8150
# 4 -2.1045 7.9811 4.4342 28.6754 -3.9878 -16.9860
# 5 -55.4506 -24.7331 -12.1654 -3.9878 60.9779 2.2020
# 6 0.0432 -23.9523 -21.8150 -16.9860 2.2020 51.7898
#
#
#
# Elastic Compliance Matrix: (Units=1/GPa)
#
#
# Indices 1 2 3 4 5 6 
#
# 1 0.009094 -0.001588 -0.004011 0.001348 0.006996 -0.002287
# 2 -0.001588 0.009877 0.003339 0.000627 0.003051 0.006051
# 3 -0.004011 0.003339 0.010150 0.000752 -0.000439 0.006088
# 4 0.001348 0.000627 0.000752 0.044051 0.003974 0.014885
# 5 0.006996 0.003051 -0.000439 0.003974 0.024117 0.001498
# 6 -0.002287 0.006051 0.006088 0.014885 0.001498 0.029492
#
#
# Mechanical properties :
#
#
# Convention : Reuss Voigt Hill
#
# Bulk Modulus (GPa) = 40.64883 66.17575 53.41229
# Shear Modulus (GPa) = 35.84196 54.60704 45.22450
#
# Velocity S-wave (km/s) = 3.61132 4.45753 4.05655
# Velocity P-wave (km/s) = 5.67270 7.11138 6.43239
#
# Compressibility (1/GPa) = 0.02460096
#
# Stress axis : x y z
#
# Youngs Moduli (GPa) = 109.96393 101.24937 98.51754
#
# Poissons Ratio (x) = 0.16075 0.39515
# Poissons Ratio (y) = 0.17459 -0.32891
# Poissons Ratio (z) = 0.44106 -0.33803
#
# Static dielectric constant tensor:
#      x y z
#    x 2.011480 -0.162770 -0.073860 
#    y -0.162770 1.665230 -0.434180 
#    z -0.073860 -0.434180 1.893970 
# 
# From -- ./inp_files/157814.got.cif
#   From: 2010.05.17/outbox.cif.g08.bks.cpg/sg2_79_cif.got.tgz:157814.got - 2010.06.03 11:33:40.
