data_PCOD9031980
_publ_section_title
;
Structure prediction by ZEFSAII (Michael W. Deem and Ramdas Pophale) SiO2 
 PCOD9031980
Probable space group: P -1
;
_chemical_formula_sum "Si O2"
_cell_formula_units_Z 12
_cell_length_a 7.864389
_cell_length_b 5.497103
_cell_length_c 15.367917
_cell_angle_alpha 71.906657
_cell_angle_beta 125.785757
_cell_angle_gamma 118.068704
_cell_volume 474.976354
_symmetry_space_group_name_H-M "P -1"
_symmetry_group_IT_number 2
_symmetry_cell_setting 'triclinic'
loop_
_space_group_symop_operation_xyz
x,y,z
-x,-y,-z
loop_
_atom_site_type_symbol
_atom_site_label
_atom_site_fract_x
_atom_site_fract_y
_atom_site_fract_z
Si Si1 0.848094 0.241275 0.340827
Si Si2 0.815977 0.205882 0.140803
Si Si3 0.320745 0.571397 0.495013
Si Si4 0.614716 0.566867 0.138491
Si Si5 0.867393 0.807122 0.902858
Si Si6 0.418262 0.015551 0.333321
O O1 0.759311 0.489582 0.266351
O O2 0.071882 0.340156 0.454477
O O3 0.915939 0.187459 0.268977
O O4 0.627861 0.995527 0.341183
O O5 0.671872 0.393780 0.097066
O O6 0.683458 0.889006 0.110828
O O7 0.992615 0.317151 0.103929
O O8 0.500000 0.500000 0.500000
O O9 0.300897 0.808247 0.399077
O O10 0.443874 0.701904 0.605774
O O11 0.358269 0.428100 0.105751
O O12 0.774212 0.984724 0.790132
O O13 0.000000 0.000000 0.000000
#
# Coordination Sequence:
#
# PCOD9031980 Si02
#       6
#     2   2   2   2   2   2
#     4   9  21  39  64  97 137 179 223 288 347 418
#     4  10  22  43  69 101 144 182 233 289 350 418
#     4  11  22  38  68  96 134 181 223 288 347 419
#     4   9  23  43  69 102 143 181 235 291 345 423
#     4  11  24  45  74 102 141 190 237 292 353 418
#     4  10  23  42  62 101 137 175 236 281 350 416
#
# _framework density 25.264416000000001
#
# number of rings (size 3 to 8) (size 9 to 14) (size 15 to 20)
#    1.000    1.000    0.000    2.500    0.000    8.667 
#    0.000    1.667    0.000    0.000    0.000    0.000 
#    0.000    0.000    0.000    0.000    0.000    0.000 
#
# Total GULP energy -67088.734603 kJ/mol
# GULP energy per Si atom -5590.727884 kJ/mol
# Density = 2.520691 g / cm^3
# Si number density = 25.264416 Si / 1000 Ang^3
#
#
#
# Elastic Constant Matrix: (Units=GPa)
#
#
# Indices 1 2 3 4 5 6 
#
# 1 189.9204 45.3965 32.3730 20.3361 -5.0698 -20.0916
# 2 45.3965 91.3295 18.5237 10.9532 5.3495 -13.3028
# 3 32.3730 18.5237 155.0846 19.0305 -0.6876 -16.8580
# 4 20.3361 10.9532 19.0305 23.3676 1.5203 0.4123
# 5 -5.0698 5.3495 -0.6876 1.5203 50.7003 4.2114
# 6 -20.0916 -13.3028 -16.8580 0.4123 4.2114 27.4967
#
#
#
# Elastic Compliance Matrix: (Units=1/GPa)
#
#
# Indices 1 2 3 4 5 6 
#
# 1 0.006758 -0.002254 -0.000142 -0.004823 0.000747 0.003718
# 2 -0.002254 0.013464 -0.000058 -0.004267 -0.001950 0.005194
# 3 -0.000142 -0.000058 0.007766 -0.006251 -0.000109 0.004740
# 4 -0.004823 -0.004267 -0.006251 0.054319 -0.000907 -0.010096
# 5 0.000747 -0.001950 -0.000109 -0.000907 0.020326 -0.003564
# 6 0.003718 0.005194 0.004740 -0.010096 -0.003564 0.045201
#
#
# Mechanical properties :
#
#
# Convention : Reuss Voigt Hill
#
# Bulk Modulus (GPa) = 43.32764 69.88012 56.60388
# Shear Modulus (GPa) = 31.16483 42.98235 37.07359
#
# Velocity S-wave (km/s) = 3.51600 4.12916 3.83485
# Velocity P-wave (km/s) = 5.80258 7.10301 6.48547
#
# Compressibility (1/GPa) = 0.02307996
#
# Stress axis : x y z
#
# Youngs Moduli (GPa) = 147.96916 74.27176 128.75839
#
# Poissons Ratio (x) = 0.16742 0.01830
# Poissons Ratio (y) = 0.33354 0.00749
# Poissons Ratio (z) = 0.02103 0.00432
#
# Static dielectric constant tensor:
#      x y z
#    x 2.069610 0.056050 -0.066670 
#    y 0.056050 2.166030 -0.135380 
#    z -0.066670 -0.135380 2.071970 
# 
# From -- ./inp_files/487856.got.cif
#   From: 2010.05.17/outbox.cif.g08.bks.cpg/sg2_244_cif.got.tgz:487856.got - 2010.06.03 11:33:40.
