data_PCOD9031181
_publ_section_title
;
Structure prediction by ZEFSAII (Michael W. Deem and Ramdas Pophale) SiO2 
 PCOD9031181
Probable space group: P -1
;
_chemical_formula_sum "Si O2"
_cell_formula_units_Z 15
_cell_length_a 9.502342
_cell_length_b 9.035526
_cell_length_c 11.998882
_cell_angle_alpha 118.076412
_cell_angle_beta 53.672925
_cell_angle_gamma 114.815965
_cell_volume 717.783903
_symmetry_space_group_name_H-M "P -1"
_symmetry_group_IT_number 2
_symmetry_cell_setting 'triclinic'
loop_
_space_group_symop_operation_xyz
x,y,z
-x,-y,-z
loop_
_atom_site_type_symbol
_atom_site_label
_atom_site_fract_x
_atom_site_fract_y
_atom_site_fract_z
Si Si1 0.114729 0.606413 0.296235
Si Si2 0.317580 0.963047 0.229285
Si Si3 0.000000 0.000000 0.000000
Si Si4 0.952961 0.375505 0.085006
Si Si5 0.320693 0.086269 0.033345
Si Si6 0.622581 0.521183 0.295436
Si Si7 0.744243 0.688142 0.515645
Si Si8 0.446674 0.473232 0.145055
O O1 0.214797 0.789059 0.268467
O O2 0.262170 0.536382 0.273148
O O3 0.059036 0.477597 0.174217
O O4 0.928904 0.635326 0.444265
O O5 0.274237 0.966962 0.119904
O O6 0.264512 0.124254 0.371591
O O7 0.529620 0.970341 0.134337
O O8 0.153388 0.105958 0.046397
O O9 0.979208 0.181727 0.007711
O O10 0.743413 0.378909 0.200967
O O11 0.000000 0.500000 0.000000
O O12 0.413166 0.270089 0.106443
O O13 0.716750 0.669989 0.387678
O O14 0.423644 0.444258 0.403133
O O15 0.596860 0.563327 0.193014
O O16 0.500000 0.500000 0.000000
#
# Coordination Sequence:
#
# PCOD9031181 Si02
#       8
#     2   2   1   2   2   2   2   2
#     4  11  23  39  65  93 131 171 222 272 328 401
#     4  11  22  43  66  96 128 176 222 273 337 397
#     4  12  24  38  60 102 132 166 214 274 340 404
#     4  11  23  40  64  98 135 173 220 284 337 395
#     4  11  24  39  67  95 132 167 219 281 337 396
#     4  10  23  42  67  93 133 181 219 265 339 397
#     4  10  22  43  65  92 130 182 226 263 324 414
#     4  12  22  42  66  99 128 170 217 280 338 393
#
# _framework density 20.897653999999999
#
# number of rings (size 3 to 8) (size 9 to 14) (size 15 to 20)
#    0.000    1.067    4.000    2.800    1.867    0.533 
#    0.000    0.667    0.000    0.000    0.000    0.000 
#    0.000    0.000    0.000    0.000    0.000    0.000 
#
# Total GULP energy -83534.884640 kJ/mol
# GULP energy per Si atom -5568.992309 kJ/mol
# Density = 2.085009 g / cm^3
# Si number density = 20.897654 Si / 1000 Ang^3
#
#
#
# Elastic Constant Matrix: (Units=GPa)
#
#
# Indices 1 2 3 4 5 6 
#
# 1 112.0794 10.2750 28.3025 4.3378 1.9185 -8.7587
# 2 10.2750 77.5904 38.7699 18.2877 -10.2042 -14.5897
# 3 28.3025 38.7699 71.7213 13.6773 -9.0460 -2.6085
# 4 4.3378 18.2877 13.6773 30.4007 -6.2866 0.0512
# 5 1.9185 -10.2042 -9.0460 -6.2866 28.5076 2.7356
# 6 -8.7587 -14.5897 -2.6085 0.0512 2.7356 27.4166
#
#
#
# Elastic Compliance Matrix: (Units=1/GPa)
#
#
# Indices 1 2 3 4 5 6 
#
# 1 0.010420 0.001798 -0.005074 -0.000751 -0.002220 0.004026
# 2 0.001798 0.022244 -0.010486 -0.008622 0.001530 0.011277
# 3 -0.005074 -0.010486 0.022307 -0.002230 0.003697 -0.005444
# 4 -0.000751 -0.008622 -0.002230 0.040381 0.005707 -0.005685
# 5 -0.002220 0.001530 0.003697 0.005707 0.038533 -0.003399
# 6 0.004026 0.011277 -0.005444 -0.005685 -0.003399 0.043593
#
#
# Mechanical properties :
#
#
# Convention : Reuss Voigt Hill
#
# Bulk Modulus (GPa) = 36.43511 46.23177 41.33344
# Shear Modulus (GPa) = 23.34781 29.53457 26.44119
#
# Velocity S-wave (km/s) = 3.34615 3.76346 3.56092
# Velocity P-wave (km/s) = 5.69226 6.40748 6.06043
#
# Compressibility (1/GPa) = 0.02744606
#
# Stress axis : x y z
#
# Youngs Moduli (GPa) = 95.96519 44.95658 44.82853
#
# Poissons Ratio (x) = -0.08081 0.22746
# Poissons Ratio (y) = -0.17250 0.47008
# Poissons Ratio (z) = 0.48694 0.47142
#
# Static dielectric constant tensor:
#      x y z
#    x 1.785740 0.015710 -0.001210 
#    y 0.015710 1.743550 -0.034100 
#    z -0.001210 -0.034100 1.817720 
# 
# From -- ./inp_files/212731.got.cif
#   From: 2010.05.17/outbox.cif.g08.bks.cpg/sg2_107_cif.got.tgz:212731.got - 2010.06.03 11:33:40.
