data_PCOD9031525
_publ_section_title
;
Structure prediction by ZEFSAII (Michael W. Deem and Ramdas Pophale) SiO2 
 PCOD9031525
Probable space group: P -1
;
_chemical_formula_sum "Si O2"
_cell_formula_units_Z 14
_cell_length_a 13.848703
_cell_length_b 9.209612
_cell_length_c 10.572129
_cell_angle_alpha 115.687163
_cell_angle_beta 148.408217
_cell_angle_gamma 63.730907
_cell_volume 628.826751
_symmetry_space_group_name_H-M "P -1"
_symmetry_group_IT_number 2
_symmetry_cell_setting 'triclinic'
loop_
_space_group_symop_operation_xyz
x,y,z
-x,-y,-z
loop_
_atom_site_type_symbol
_atom_site_label
_atom_site_fract_x
_atom_site_fract_y
_atom_site_fract_z
Si Si1 0.130597 0.370994 0.511636
Si Si2 0.427037 0.733855 0.388574
Si Si3 0.105613 0.151650 0.182491
Si Si4 0.544966 0.834972 0.067876
Si Si5 0.465116 0.947299 0.287602
Si Si6 0.653138 0.439970 0.371166
Si Si7 0.091774 0.661480 0.168454
O O1 0.028184 0.288932 0.252325
O O2 0.244123 0.229733 0.673435
O O3 0.275317 0.466932 0.633336
O O4 0.000000 0.500000 0.500000
O O5 0.361018 0.851559 0.238736
O O6 0.554654 0.576172 0.411640
O O7 0.264313 0.680736 0.273387
O O8 0.535433 0.857786 0.636794
O O9 0.318022 0.112373 0.451516
O O10 0.075354 0.212890 0.028809
O O11 0.000000 0.000000 0.000000
O O12 0.432215 0.878817 0.088658
O O13 0.481888 0.683090 0.869029
O O14 0.500000 0.000000 0.000000
O O15 0.825434 0.334104 0.597781
O O16 0.000000 0.500000 0.000000
#
# Coordination Sequence:
#
# PCOD9031525 Si02
#       7
#     2   2   2   2   2   2   2
#     4  11  26  48  71 100 140 192 236 285 361 422
#     4  11  22  41  71 102 135 182 232 290 344 426
#     4  11  22  43  70  97 139 181 224 293 349 422
#     4  11  25  45  71 101 145 183 237 296 346 426
#     4  10  22  43  67 106 135 184 235 284 360 414
#     4  12  25  44  71 101 139 185 239 288 349 431
#     4  12  24  40  67 106 139 172 235 287 355 406
#
# _framework density 22.263684999999999
#
# number of rings (size 3 to 8) (size 9 to 14) (size 15 to 20)
#    0.000    0.857    5.714    1.714    4.000    0.000 
#    0.000    2.143    0.000    0.000    0.000    0.000 
#    0.000    0.000    0.000    0.000    0.000    0.000 
#
# Total GULP energy -78086.157412 kJ/mol
# GULP energy per Si atom -5577.582672 kJ/mol
# Density = 2.221301 g / cm^3
# Si number density = 22.263685 Si / 1000 Ang^3
#
#
#
# Elastic Constant Matrix: (Units=GPa)
#
#
# Indices 1 2 3 4 5 6 
#
# 1 96.4129 31.6202 -5.6311 -2.1855 8.8696 4.3261
# 2 31.6202 126.6488 26.9073 4.0154 -0.3482 15.7159
# 3 -5.6311 26.9073 77.9307 -9.6838 -1.4550 0.9301
# 4 -2.1855 4.0154 -9.6838 48.2928 4.9085 -8.1922
# 5 8.8696 -0.3482 -1.4550 4.9085 32.3097 7.8986
# 6 4.3261 15.7159 0.9301 -8.1922 7.8986 47.0660
#
#
#
# Elastic Compliance Matrix: (Units=1/GPa)
#
#
# Indices 1 2 3 4 5 6 
#
# 1 0.012064 -0.003700 0.002299 0.001877 -0.003788 0.001044
# 2 -0.003700 0.010254 -0.004057 -0.002723 0.002302 -0.003864
# 3 0.002299 -0.004057 0.014833 0.003802 -0.000995 0.001679
# 4 0.001877 -0.002723 0.003802 0.023266 -0.005276 0.005597
# 5 -0.003788 0.002302 -0.000995 -0.005276 0.034510 -0.007111
# 6 0.001044 -0.003864 0.001679 0.005597 -0.007111 0.024575
#
#
# Mechanical properties :
#
#
# Convention : Reuss Voigt Hill
#
# Bulk Modulus (GPa) = 38.11697 45.19835 41.65766
# Shear Modulus (GPa) = 35.92930 42.07344 39.00137
#
# Velocity S-wave (km/s) = 4.02158 4.35187 4.18998
# Velocity P-wave (km/s) = 6.22270 6.75257 6.49304
#
# Compressibility (1/GPa) = 0.02623503
#
# Stress axis : x y z
#
# Youngs Moduli (GPa) = 82.89121 97.52649 67.41920
#
# Poissons Ratio (x) = 0.36084 -0.15501
# Poissons Ratio (y) = 0.30669 0.27351
# Poissons Ratio (z) = -0.19058 0.39566
#
# Static dielectric constant tensor:
#      x y z
#    x 1.891960 -0.105100 0.031230 
#    y -0.105100 1.849830 -0.031420 
#    z 0.031230 -0.031420 1.852930 
# 
# From -- ./inp_files/299370.got.cif
#   From: 2010.05.17/outbox.cif.g08.bks.cpg/sg2_150_cif.got.tgz:299370.got - 2010.06.03 11:33:40.
