data_PCOD9031681
_publ_section_title
;
Structure prediction by ZEFSAII (Michael W. Deem and Ramdas Pophale) SiO2 
 PCOD9031681
Probable space group: P -1
;
_chemical_formula_sum "Si O2"
_cell_formula_units_Z 16
_cell_length_a 18.020403
_cell_length_b 20.535404
_cell_length_c 11.897590
_cell_angle_alpha 31.115891
_cell_angle_beta 149.195613
_cell_angle_gamma 161.524267
_cell_volume 690.795337
_symmetry_space_group_name_H-M "P -1"
_symmetry_group_IT_number 2
_symmetry_cell_setting 'triclinic'
loop_
_space_group_symop_operation_xyz
x,y,z
-x,-y,-z
loop_
_atom_site_type_symbol
_atom_site_label
_atom_site_fract_x
_atom_site_fract_y
_atom_site_fract_z
Si Si1 0.893481 0.921646 0.102767
Si Si2 0.674448 0.900238 0.454310
Si Si3 0.290288 0.205968 0.574623
Si Si4 0.264951 0.674850 0.639203
Si Si5 0.243298 0.428503 0.588170
Si Si6 0.013354 0.652718 0.833220
Si Si7 0.679852 0.475525 0.866653
Si Si8 0.761194 0.083976 0.623203
O O1 0.686266 0.669653 0.185413
O O2 0.094668 0.008001 0.322356
O O3 0.833660 0.025466 0.893829
O O4 0.000000 0.000000 0.000000
O O5 0.652152 0.845241 0.377417
O O6 0.432343 0.661514 0.540402
O O7 0.740436 0.095264 0.248206
O O8 0.436675 0.268458 0.784674
O O9 0.340823 0.388966 0.349320
O O10 0.000000 0.000000 0.500000
O O11 0.277852 0.806131 0.541422
O O12 0.000000 0.500000 0.500000
O O13 0.489840 0.843819 0.593261
O O14 0.293805 0.576687 0.904303
O O15 0.185523 0.421502 0.395356
O O16 0.982929 0.250200 0.578039
O O17 0.912877 0.602198 0.903075
O O18 0.000000 0.500000 0.000000
#
# Coordination Sequence:
#
# PCOD9031681 Si02
#       8
#     2   2   2   2   2   2   2   2
#     4   9  22  39  66  97 138 174 223 289 338 403
#     4  11  23  40  70 109 133 183 229 275 372 416
#     4  11  24  42  72 104 138 179 233 292 352 414
#     4  11  27  44  67  95 136 193 236 278 348 415
#     4  10  22  43  67  99 136 172 230 289 346 414
#     4  11  23  43  66 101 139 176 224 291 346 420
#     4  11  25  44  69 104 139 179 234 297 344 407
#     4  10  24  45  63  97 136 180 234 286 336 410
#
# _framework density 23.161708999999998
#
# number of rings (size 3 to 8) (size 9 to 14) (size 15 to 20)
#    0.000    1.500    2.500    0.750    5.250    6.500 
#    0.000    0.000    0.000    0.000    0.000    0.000 
#    0.000    0.000    0.000    0.000    0.000    0.000 
#
# Total GULP energy -89174.814254 kJ/mol
# GULP energy per Si atom -5573.425891 kJ/mol
# Density = 2.310899 g / cm^3
# Si number density = 23.161709 Si / 1000 Ang^3
#
#
#
# Elastic Constant Matrix: (Units=GPa)
#
#
# Indices 1 2 3 4 5 6 
#
# 1 44.1678 31.8616 15.3372 -15.2197 2.0254 3.8678
# 2 31.8616 177.1628 42.0779 -9.7650 -16.1453 10.1107
# 3 15.3372 42.0779 108.0123 -14.0288 6.0308 -9.3362
# 4 -15.2197 -9.7650 -14.0288 39.4116 -11.3601 1.0777
# 5 2.0254 -16.1453 6.0308 -11.3601 31.2482 -2.2861
# 6 3.8678 10.1107 -9.3362 1.0777 -2.2861 44.5708
#
#
#
# Elastic Compliance Matrix: (Units=1/GPa)
#
#
# Indices 1 2 3 4 5 6 
#
# 1 0.029939 -0.004434 -0.001398 0.009871 -0.000530 -0.002151
# 2 -0.004434 0.007658 -0.002683 0.000685 0.004888 -0.001680
# 3 -0.001398 -0.002683 0.011147 0.001956 -0.002524 0.002888
# 4 0.009871 0.000685 0.001956 0.033361 0.011405 -0.000824
# 5 -0.000530 0.004888 -0.002524 0.011405 0.039206 0.000144
# 6 -0.002151 -0.001680 0.002888 -0.000824 0.000144 0.023636
#
#
# Mechanical properties :
#
#
# Convention : Reuss Voigt Hill
#
# Bulk Modulus (GPa) = 31.53170 56.43294 43.98232
# Shear Modulus (GPa) = 28.97738 39.05055 34.01396
#
# Velocity S-wave (km/s) = 3.54091 4.11054 3.83631
# Velocity P-wave (km/s) = 5.51005 6.85174 6.21720
#
# Compressibility (1/GPa) = 0.03171411
#
# Stress axis : x y z
#
# Youngs Moduli (GPa) = 33.40122 130.57748 89.71320
#
# Poissons Ratio (x) = 0.57894 0.12544
# Poissons Ratio (y) = 0.14809 0.24070
# Poissons Ratio (z) = 0.04670 0.35034
#
# Static dielectric constant tensor:
#      x y z
#    x 2.107610 0.083850 0.061180 
#    y 0.083850 2.039970 -0.017970 
#    z 0.061180 -0.017970 1.893180 
# 
# From -- ./inp_files/467071.got.cif
#   From: 2010.05.17/outbox.cif.g08.bks.cpg/sg2_234_cif.got.tgz:467071.got - 2010.06.03 11:33:40.
