data_PCOD9031436
_publ_section_title
;
Structure prediction by ZEFSAII (Michael W. Deem and Ramdas Pophale) SiO2 
 PCOD9031436
Probable space group: P -1
;
_chemical_formula_sum "Si O2"
_cell_formula_units_Z 16
_cell_length_a 7.942133
_cell_length_b 18.079558
_cell_length_c 7.911007
_cell_angle_alpha 46.146228
_cell_angle_beta 118.910489
_cell_angle_gamma 127.702706
_cell_volume 644.537246
_symmetry_space_group_name_H-M "P -1"
_symmetry_group_IT_number 2
_symmetry_cell_setting 'triclinic'
loop_
_space_group_symop_operation_xyz
x,y,z
-x,-y,-z
loop_
_atom_site_type_symbol
_atom_site_label
_atom_site_fract_x
_atom_site_fract_y
_atom_site_fract_z
Si Si1 0.065165 0.074903 0.138417
Si Si2 0.584831 0.914299 0.253150
Si Si3 0.678925 0.526106 0.195231
Si Si4 0.690377 0.070031 0.604822
Si Si5 0.042171 0.261094 0.580549
Si Si6 0.111810 0.559852 0.788513
Si Si7 0.451326 0.288400 0.061847
Si Si8 0.492192 0.696591 0.323521
O O1 0.184789 0.011659 0.190983
O O2 0.257292 0.165206 0.204499
O O3 0.846150 0.984275 0.262917
O O4 0.009025 0.161410 0.858338
O O5 0.440030 0.891073 0.385697
O O6 0.512666 0.803212 0.276725
O O7 0.500000 0.000000 0.000000
O O8 0.885403 0.539462 0.170207
O O9 0.662837 0.626866 0.129858
O O10 0.649661 0.422010 0.468331
O O11 0.500000 0.500000 0.000000
O O12 0.882117 0.191910 0.460344
O O13 0.500000 0.000000 0.500000
O O14 0.996237 0.363921 0.457649
O O15 0.277752 0.304699 0.558442
O O16 0.352487 0.651930 0.810042
O O17 0.000000 0.500000 0.000000
O O18 0.538541 0.287031 0.916530
#
# Coordination Sequence:
#
# PCOD9031436 Si02
#       8
#     2   2   2   2   2   2   2   2
#     4  11  24  46  69 104 147 182 236 291 344 425
#     4  12  24  44  74 101 141 193 232 281 358 420
#     4  10  22  43  66  97 134 178 231 287 351 420
#     4  12  25  44  67 105 143 183 240 287 348 418
#     4  11  21  41  69  96 138 184 222 293 352 403
#     4  11  24  46  69  99 139 183 236 294 357 420
#     4  10  23  44  69  99 141 177 232 295 353 411
#     4  11  23  43  74  97 135 185 233 286 355 416
#
# _framework density 24.824012
#
# number of rings (size 3 to 8) (size 9 to 14) (size 15 to 20)
#    0.000    1.000    2.500    5.250    0.000    2.500 
#   11.250    3.125    0.000    0.000    0.000    0.000 
#    0.000    0.000    0.000    0.000    0.000    0.000 
#
# Total GULP energy -89289.935997 kJ/mol
# GULP energy per Si atom -5580.621000 kJ/mol
# Density = 2.476751 g / cm^3
# Si number density = 24.824012 Si / 1000 Ang^3
#
#
#
# Elastic Constant Matrix: (Units=GPa)
#
#
# Indices 1 2 3 4 5 6 
#
# 1 150.9701 40.0912 45.7177 -8.4830 16.5365 -31.7737
# 2 40.0912 97.1886 8.9443 -12.8043 13.5109 -21.0979
# 3 45.7177 8.9443 76.5095 -21.7621 22.8029 -7.9653
# 4 -8.4830 -12.8043 -21.7621 35.9106 -1.7862 13.3829
# 5 16.5365 13.5109 22.8029 -1.7862 53.2957 -8.1610
# 6 -31.7737 -21.0979 -7.9653 13.3829 -8.1610 54.8735
#
#
#
# Elastic Compliance Matrix: (Units=1/GPa)
#
#
# Indices 1 2 3 4 5 6 
#
# 1 0.010255 -0.003304 -0.006944 -0.004768 0.001234 0.005006
# 2 -0.003304 0.012827 0.002914 0.004723 -0.003033 0.001839
# 3 -0.006944 0.002914 0.023176 0.014652 -0.008683 -0.004401
# 4 -0.004768 0.004723 0.014652 0.040565 -0.006100 -0.009619
# 5 0.001234 -0.003033 -0.008683 -0.006100 0.023153 0.003219
# 6 0.005006 0.001839 -0.004401 -0.009619 0.003219 0.024015
#
#
# Mechanical properties :
#
#
# Convention : Reuss Voigt Hill
#
# Bulk Modulus (GPa) = 31.65669 57.13053 44.39361
# Shear Modulus (GPa) = 31.40918 44.14362 37.77640
#
# Velocity S-wave (km/s) = 3.56093 4.22152 3.90522
# Velocity P-wave (km/s) = 5.44858 6.84294 6.18518
#
# Compressibility (1/GPa) = 0.03158890
#
# Stress axis : x y z
#
# Youngs Moduli (GPa) = 97.51771 77.95994 43.14775
#
# Poissons Ratio (x) = 0.25758 0.29962
# Poissons Ratio (y) = 0.32220 -0.12571
# Poissons Ratio (z) = 0.67716 -0.22714
#
# Static dielectric constant tensor:
#      x y z
#    x 2.083090 0.051930 0.062500 
#    y 0.051930 2.042160 0.090800 
#    z 0.062500 0.090800 2.088390 
# 
# From -- ./inp_files/214473.got.cif
#   From: 2010.05.17/outbox.cif.g08.bks.cpg/sg2_108_cif.got.tgz:214473.got - 2010.06.03 11:33:40.
