data_PCOD9031239
_publ_section_title
;
Structure prediction by ZEFSAII (Michael W. Deem and Ramdas Pophale) SiO2 
 PCOD9031239
Probable space group: P -1
;
_chemical_formula_sum "Si O2"
_cell_formula_units_Z 13
_cell_length_a 12.271771
_cell_length_b 8.846268
_cell_length_c 17.035030
_cell_angle_alpha 41.463420
_cell_angle_beta 30.384348
_cell_angle_gamma 32.796492
_cell_volume 504.668203
_symmetry_space_group_name_H-M "P -1"
_symmetry_group_IT_number 2
_symmetry_cell_setting 'triclinic'
loop_
_space_group_symop_operation_xyz
x,y,z
-x,-y,-z
loop_
_atom_site_type_symbol
_atom_site_label
_atom_site_fract_x
_atom_site_fract_y
_atom_site_fract_z
Si Si1 0.988685 0.844861 0.493637
Si Si2 0.985906 0.384210 0.639747
Si Si3 0.588027 0.731326 0.291926
Si Si4 0.897386 0.318027 0.958875
Si Si5 0.675149 0.759679 0.047624
Si Si6 0.500000 0.500000 0.000000
Si Si7 0.896140 0.139048 0.288669
O O1 0.095930 0.527920 0.566199
O O2 0.675559 0.012276 0.605608
O O3 0.077379 0.925429 0.329955
O O4 0.000000 0.000000 0.500000
O O5 0.000000 0.500000 0.500000
O O6 0.700340 0.473876 0.813582
O O7 0.150585 0.048941 0.663880
O O8 0.564446 0.817529 0.181253
O O9 0.645305 0.426730 0.366855
O O10 0.840593 0.688827 0.192898
O O11 0.747269 0.474578 0.072229
O O12 0.700009 0.490287 0.943748
O O13 0.000000 0.000000 0.000000
O O14 0.933783 0.762977 0.893204
O O15 0.500000 0.000000 0.000000
#
# Coordination Sequence:
#
# PCOD9031239 Si02
#       7
#     2   2   2   2   2   1   2
#     4  11  24  43  71 103 142 193 247 308 380 451
#     4  10  25  45  72 107 147 193 256 308 372 456
#     4  11  25  45  70 106 149 191 252 313 377 454
#     4  11  26  42  72 110 145 191 255 313 371 458
#     4  11  24  42  70 103 144 191 244 307 376 450
#     4  12  26  44  84 104 156 196 252 310 394 436
#     4  10  22  43  65  95 145 183 238 310 371 438
#
# _framework density 25.759499000000002
#
# number of rings (size 3 to 8) (size 9 to 14) (size 15 to 20)
#    0.000    1.231    0.000    5.077   15.077    1.231 
#    0.000    0.769    0.000    0.000    0.000    0.000 
#    0.000    0.000    0.000    0.000    0.000    0.000 
#
# Total GULP energy -72385.438618 kJ/mol
# GULP energy per Si atom -5568.110663 kJ/mol
# Density = 2.570087 g / cm^3
# Si number density = 25.759499 Si / 1000 Ang^3
#
#
#
# Elastic Constant Matrix: (Units=GPa)
#
#
# Indices 1 2 3 4 5 6 
#
# 1 154.8458 28.7288 34.1352 -6.8522 -11.0914 4.8599
# 2 28.7288 133.6397 49.5652 -36.8002 -13.5736 39.9581
# 3 34.1352 49.5652 112.6347 5.0805 19.5435 20.9237
# 4 -6.8522 -36.8002 5.0805 50.1109 8.7943 -18.4354
# 5 -11.0914 -13.5736 19.5435 8.7943 46.5415 -4.8118
# 6 4.8599 39.9581 20.9237 -18.4354 -4.8118 43.6773
#
#
#
# Elastic Compliance Matrix: (Units=1/GPa)
#
#
# Indices 1 2 3 4 5 6 
#
# 1 0.007378 -0.000431 -0.002915 0.001141 0.002823 0.001762
# 2 -0.000431 0.014439 -0.006208 0.008065 0.004541 -0.006283
# 3 -0.002915 -0.006208 0.015152 -0.006943 -0.008080 -0.005075
# 4 0.001141 0.008065 -0.006943 0.029706 0.000800 0.008447
# 5 0.002823 0.004541 -0.008080 0.000800 0.027006 0.002715
# 6 0.001762 -0.006283 -0.005075 0.008447 0.002715 0.034743
#
#
# Mechanical properties :
#
#
# Convention : Reuss Voigt Hill
#
# Bulk Modulus (GPa) = 55.98955 69.55317 62.77136
# Shear Modulus (GPa) = 32.57671 47.31201 39.94436
#
# Velocity S-wave (km/s) = 3.56005 4.29030 3.94212
# Velocity P-wave (km/s) = 6.21943 7.18344 6.71875
#
# Compressibility (1/GPa) = 0.01786048
#
# Stress axis : x y z
#
# Youngs Moduli (GPa) = 135.53791 69.25871 65.99994
#
# Poissons Ratio (x) = 0.02985 0.19240
# Poissons Ratio (y) = 0.05841 0.40972
# Poissons Ratio (z) = 0.39510 0.42995
#
# Static dielectric constant tensor:
#      x y z
#    x 2.062810 0.017570 0.027440 
#    y 0.017570 2.108840 0.006010 
#    z 0.027440 0.006010 2.140820 
# 
# From -- ./inp_files/565658.got.cif
#   From: 2010.05.17/outbox.cif.g08.bks.cpg/sg2_283_cif.got.tgz:565658.got - 2010.06.03 11:33:40.
