data_PCOD9031835
_publ_section_title
;
Structure prediction by ZEFSAII (Michael W. Deem and Ramdas Pophale) SiO2 
 PCOD9031835
Probable space group: P -1
;
_chemical_formula_sum "Si O2"
_cell_formula_units_Z 16
_cell_length_a 8.771917
_cell_length_b 8.167581
_cell_length_c 12.063261
_cell_angle_alpha 54.621400
_cell_angle_beta 101.808843
_cell_angle_gamma 115.076502
_cell_volume 637.289290
_symmetry_space_group_name_H-M "P -1"
_symmetry_group_IT_number 2
_symmetry_cell_setting 'triclinic'
loop_
_space_group_symop_operation_xyz
x,y,z
-x,-y,-z
loop_
_atom_site_type_symbol
_atom_site_label
_atom_site_fract_x
_atom_site_fract_y
_atom_site_fract_z
Si Si1 0.625750 0.044286 0.895642
Si Si2 0.548981 0.731818 0.352582
Si Si3 0.873704 0.775129 0.816842
Si Si4 0.241180 0.674544 0.561580
Si Si5 0.870305 0.063213 0.381831
Si Si6 0.675149 0.599947 0.050190
Si Si7 0.479311 0.388384 0.298635
Si Si8 0.920476 0.250747 0.717431
O O1 0.522689 0.077531 0.759430
O O2 0.810795 0.234076 0.819924
O O3 0.500000 0.000000 0.000000
O O4 0.681506 0.838301 0.986393
O O5 0.500000 0.500000 0.500000
O O6 0.504853 0.617438 0.268268
O O7 0.736234 0.863090 0.374194
O O8 0.702912 0.721386 0.738721
O O9 0.018347 0.770584 0.759572
O O10 0.926771 0.018867 0.777203
O O11 0.820203 0.620507 0.976639
O O12 0.213860 0.838799 0.578602
O O13 0.442173 0.733518 0.557707
O O14 0.179511 0.697339 0.419631
O O15 0.106095 0.434577 0.669287
O O16 0.000000 0.000000 0.500000
O O17 0.628034 0.442871 0.208529
O O18 0.500000 0.500000 0.000000
#
# Coordination Sequence:
#
# PCOD9031835 Si02
#       8
#     2   2   2   2   2   2   2   2
#     4  11  23  44  70 106 137 189 230 287 353 424
#     4  12  27  43  70 104 142 178 239 290 347 418
#     4  10  22  43  68  95 135 181 224 284 344 412
#     4  11  25  42  68 102 136 180 234 288 350 417
#     4  12  26  44  66 100 140 179 236 294 350 408
#     4   9  21  41  68  94 140 179 226 276 349 414
#     4  11  23  43  68  99 136 181 230 282 350 418
#     4  10  23  42  68  94 140 180 226 284 357 410
#
# _framework density 25.106337
#
# number of rings (size 3 to 8) (size 9 to 14) (size 15 to 20)
#    0.000    1.250    2.500    2.250   10.500    0.500 
#    2.250    2.500    0.000    0.000    0.000    0.000 
#    0.000    0.000    0.000    0.000    0.000    0.000 
#
# Total GULP energy -89133.238014 kJ/mol
# GULP energy per Si atom -5570.827376 kJ/mol
# Density = 2.504919 g / cm^3
# Si number density = 25.106337 Si / 1000 Ang^3
#
#
#
# Elastic Constant Matrix: (Units=GPa)
#
#
# Indices 1 2 3 4 5 6 
#
# 1 81.8805 33.3203 20.8575 0.9480 -20.1189 5.6652
# 2 33.3203 106.5094 16.5044 -0.1826 -20.1993 18.3463
# 3 20.8575 16.5044 73.4223 -14.0415 -26.4110 21.5507
# 4 0.9480 -0.1826 -14.0415 21.8674 -0.8440 -3.3589
# 5 -20.1189 -20.1993 -26.4110 -0.8440 54.9062 -6.2474
# 6 5.6652 18.3463 21.5507 -3.3589 -6.2474 31.6880
#
#
#
# Elastic Compliance Matrix: (Units=1/GPa)
#
#
# Indices 1 2 3 4 5 6 
#
# 1 0.015341 -0.004163 -0.003722 -0.002620 0.002534 0.002421
# 2 -0.004163 0.012169 0.001549 0.000355 0.002935 -0.006738
# 3 -0.003722 0.001549 0.024471 0.014193 0.009663 -0.013464
# 4 -0.002620 0.000355 0.014193 0.054864 0.006582 -0.002276
# 5 0.002534 0.002935 0.009663 0.006582 0.024609 -0.003175
# 6 0.002421 -0.006738 -0.013464 -0.002276 -0.003175 0.043316
#
#
# Mechanical properties :
#
#
# Convention : Reuss Voigt Hill
#
# Bulk Modulus (GPa) = 25.44043 44.79739 35.11891
# Shear Modulus (GPa) = 24.93177 34.43432 29.68305
#
# Velocity S-wave (km/s) = 3.15468 3.70745 3.44218
# Velocity P-wave (km/s) = 4.83988 6.01737 5.46045
#
# Compressibility (1/GPa) = 0.03930751
#
# Stress axis : x y z
#
# Youngs Moduli (GPa) = 65.18548 82.17459 40.86415
#
# Poissons Ratio (x) = 0.34212 0.15210
# Poissons Ratio (y) = 0.27139 -0.06328
# Poissons Ratio (z) = 0.24263 -0.12726
#
# Static dielectric constant tensor:
#      x y z
#    x 2.162500 0.051620 0.060590 
#    y 0.051620 2.062490 0.133040 
#    z 0.060590 0.133040 2.287780 
# 
# From -- ./inp_files/381377.got.cif
#   From: 2010.05.17/outbox.cif.g08.bks.cpg/sg2_191_cif.got.tgz:381377.got - 2010.06.03 11:33:40.
