data_PCOD9031784
_publ_section_title
;
Structure prediction by ZEFSAII (Michael W. Deem and Ramdas Pophale) SiO2 
 PCOD9031784
Probable space group: P -1
;
_chemical_formula_sum "Si O2"
_cell_formula_units_Z 15
_cell_length_a 18.169466
_cell_length_b 8.612865
_cell_length_c 16.281801
_cell_angle_alpha 45.513491
_cell_angle_beta 23.695696
_cell_angle_gamma 43.207552
_cell_volume 695.897315
_symmetry_space_group_name_H-M "P -1"
_symmetry_group_IT_number 2
_symmetry_cell_setting 'triclinic'
loop_
_space_group_symop_operation_xyz
x,y,z
-x,-y,-z
loop_
_atom_site_type_symbol
_atom_site_label
_atom_site_fract_x
_atom_site_fract_y
_atom_site_fract_z
Si Si1 0.665493 0.383869 0.964181
Si Si2 0.000000 0.000000 0.500000
Si Si3 0.061054 0.202198 0.683654
Si Si4 0.357256 0.088997 0.188582
Si Si5 0.240292 0.561355 0.330588
Si Si6 0.385129 0.806248 0.424306
Si Si7 0.803305 0.938495 0.232845
Si Si8 0.575871 0.716335 0.434841
O O1 0.727722 0.316583 0.831772
O O2 0.834794 0.240127 0.902487
O O3 0.653703 0.649364 0.883704
O O4 0.450714 0.384475 0.201291
O O5 0.148403 0.074669 0.382890
O O6 0.164556 0.752644 0.405128
O O7 0.102002 0.406513 0.515818
O O8 0.150422 0.218655 0.675002
O O9 0.180724 0.964048 0.609606
O O10 0.430543 0.937293 0.250742
O O11 0.500000 0.000000 0.000000
O O12 0.532884 0.776570 0.360383
O O13 0.378948 0.554610 0.501525
O O14 0.740197 0.808625 0.270915
O O15 0.620999 0.154684 0.362799
O O16 0.000000 0.000000 0.000000
#
# Coordination Sequence:
#
# PCOD9031784 Si02
#       8
#     2   1   2   2   2   2   2   2
#     4  11  23  41  62  92 135 172 218 257 317 399
#     4  12  24  38  62  92 134 170 220 262 318 388
#     4  11  22  40  66  89 132 176 210 266 327 392
#     4  12  24  40  61  99 135 168 217 268 324 395
#     4  11  23  40  61  93 131 178 214 259 320 387
#     4  10  22  43  68  92 128 180 217 267 337 381
#     4  10  23  43  66  99 123 162 221 276 335 382
#     4   9  22  46  69  90 128 168 220 280 319 391
#
# _framework density 21.554905000000002
#
# number of rings (size 3 to 8) (size 9 to 14) (size 15 to 20)
#    0.000    1.333    4.000    1.200    1.867    4.267 
#    0.000    8.667    0.000    0.000    0.000    0.000 
#    0.000    0.000    0.000    0.000    0.000    0.000 
#
# Total GULP energy -83595.849002 kJ/mol
# GULP energy per Si atom -5573.056600 kJ/mol
# Density = 2.150584 g / cm^3
# Si number density = 21.554905 Si / 1000 Ang^3
#
#
#
# Elastic Constant Matrix: (Units=GPa)
#
#
# Indices 1 2 3 4 5 6 
#
# 1 105.8560 52.2630 46.2469 -7.4589 -15.0598 6.0335
# 2 52.2630 102.8189 18.1023 0.9261 -2.1615 3.2098
# 3 46.2469 18.1023 78.0798 1.5080 -13.0323 -3.9608
# 4 -7.4589 0.9261 1.5080 20.6316 -3.3200 -6.3731
# 5 -15.0598 -2.1615 -13.0323 -3.3200 35.3822 -3.5800
# 6 6.0335 3.2098 -3.9608 -6.3731 -3.5800 30.7449
#
#
#
# Elastic Compliance Matrix: (Units=1/GPa)
#
#
# Indices 1 2 3 4 5 6 
#
# 1 0.018290 -0.007720 -0.008488 0.007817 0.004748 -0.001704
# 2 -0.007720 0.013477 0.001055 -0.004168 -0.002558 -0.000918
# 3 -0.008488 0.001055 0.018392 -0.002767 0.003345 0.003741
# 4 0.007817 -0.004168 -0.002767 0.056528 0.008496 0.011252
# 5 0.004748 -0.002558 0.003345 0.008496 0.032696 0.005335
# 6 -0.001704 -0.000918 0.003741 0.011252 0.005335 0.036391
#
#
# Mechanical properties :
#
#
# Convention : Reuss Voigt Hill
#
# Bulk Modulus (GPa) = 50.37234 57.77547 54.07390
# Shear Modulus (GPa) = 23.50756 28.69456 26.10106
#
# Velocity S-wave (km/s) = 3.30599 3.65256 3.48359
# Velocity P-wave (km/s) = 6.16383 6.68209 6.42819
#
# Compressibility (1/GPa) = 0.01985217
#
# Stress axis : x y z
#
# Youngs Moduli (GPa) = 54.67462 74.20320 54.37153
#
# Poissons Ratio (x) = 0.57283 0.46153
# Poissons Ratio (y) = 0.42208 -0.05736
# Poissons Ratio (z) = 0.46410 -0.07829
#
# Static dielectric constant tensor:
#      x y z
#    x 1.835370 -0.021440 0.021580 
#    y -0.021440 1.755500 0.009140 
#    z 0.021580 0.009140 1.809110 
# 
# From -- ./inp_files/293513.got.cif
#   From: 2010.05.17/outbox.cif.g08.bks.cpg/sg2_147_cif.got.tgz:293513.got - 2010.06.03 11:33:40.
