data_PCOD9031594
_publ_section_title
;
Structure prediction by ZEFSAII (Michael W. Deem and Ramdas Pophale) SiO2 
 PCOD9031594
Probable space group: P -1
;
_chemical_formula_sum "Si O2"
_cell_formula_units_Z 14
_cell_length_a 14.746202
_cell_length_b 6.828999
_cell_length_c 12.157830
_cell_angle_alpha 46.585335
_cell_angle_beta 135.392399
_cell_angle_gamma 117.503145
_cell_volume 623.629744
_symmetry_space_group_name_H-M "P -1"
_symmetry_group_IT_number 2
_symmetry_cell_setting 'triclinic'
loop_
_space_group_symop_operation_xyz
x,y,z
-x,-y,-z
loop_
_atom_site_type_symbol
_atom_site_label
_atom_site_fract_x
_atom_site_fract_y
_atom_site_fract_z
Si Si1 0.797051 0.458579 0.369597
Si Si2 0.960370 0.442441 0.321859
Si Si3 0.468909 0.147408 0.234545
Si Si4 0.276518 0.093278 0.381569
Si Si5 0.083315 0.463634 0.196997
Si Si6 0.519914 0.739973 0.042698
Si Si7 0.187620 0.044849 0.085328
O O1 0.841328 0.351910 0.328085
O O2 0.671133 0.656999 0.186441
O O3 0.915443 0.594977 0.478472
O O4 0.767538 0.204662 0.516021
O O5 0.002204 0.344398 0.274158
O O6 0.913423 0.756861 0.142278
O O7 0.461183 0.463399 0.143497
O O8 0.327767 0.033051 0.153422
O O9 0.568577 0.948643 0.463596
O O10 0.529649 0.179785 0.152825
O O11 0.210875 0.285381 0.342194
O O12 0.220051 0.168886 0.184342
O O13 0.129425 0.756017 0.157955
O O14 0.000000 0.500000 0.000000
O O15 0.500000 0.000000 0.000000
#
# Coordination Sequence:
#
# PCOD9031594 Si02
#       7
#     2   2   2   2   2   2   2
#     4  10  22  43  67  95 131 175 213 277 333 382
#     4  11  22  42  67  92 133 175 217 271 331 384
#     4  10  24  42  66  98 131 177 214 275 332 389
#     4  11  24  42  67  97 132 175 222 270 333 393
#     4  12  25  41  69 100 131 180 223 270 332 396
#     4  10  22  43  68  96 134 167 220 274 333 391
#     4  12  23  45  66  94 142 172 217 279 329 393
#
# _framework density 22.449217999999998
#
# number of rings (size 3 to 8) (size 9 to 14) (size 15 to 20)
#    0.000    1.143    4.286    1.714    2.000    2.286 
#    0.000    0.000    0.000    0.000    0.000    0.000 
#    0.000    0.000    0.000    0.000    0.000    0.000 
#
# Total GULP energy -78196.478562 kJ/mol
# GULP energy per Si atom -5585.462754 kJ/mol
# Density = 2.239812 g / cm^3
# Si number density = 22.449218 Si / 1000 Ang^3
#
#
#
# Elastic Constant Matrix: (Units=GPa)
#
#
# Indices 1 2 3 4 5 6 
#
# 1 112.6352 13.4466 20.6438 15.0323 4.5572 -3.0216
# 2 13.4466 52.1062 11.7793 9.1268 9.8580 -9.6172
# 3 20.6438 11.7793 78.9143 16.1677 10.9918 -4.1752
# 4 15.0323 9.1268 16.1677 22.7036 -2.8916 0.2210
# 5 4.5572 9.8580 10.9918 -2.8916 35.2350 8.8328
# 6 -3.0216 -9.6172 -4.1752 0.2210 8.8328 32.4703
#
#
#
# Elastic Compliance Matrix: (Units=1/GPa)
#
#
# Indices 1 2 3 4 5 6 
#
# 1 0.010026 -0.000903 -0.001072 -0.005702 -0.001416 0.000952
# 2 -0.000903 0.025263 0.000933 -0.011707 -0.010848 0.010549
# 3 -0.001072 0.000933 0.016650 -0.012514 -0.007454 0.004430
# 4 -0.005702 -0.011707 -0.012514 0.063541 0.015717 -0.010315
# 5 -0.001416 -0.010848 -0.007454 0.015717 0.038978 -0.015013
# 6 0.000952 0.010549 0.004430 -0.010315 -0.015013 0.038734
#
#
# Mechanical properties :
#
#
# Convention : Reuss Voigt Hill
#
# Bulk Modulus (GPa) = 20.05826 37.26611 28.66218
# Shear Modulus (GPa) = 23.59658 31.26753 27.43205
#
# Velocity S-wave (km/s) = 3.24560 3.73609 3.49945
# Velocity P-wave (km/s) = 4.79579 5.93695 5.39662
#
# Compressibility (1/GPa) = 0.04985478
#
# Stress axis : x y z
#
# Youngs Moduli (GPa) = 99.73767 39.58282 60.06101
#
# Poissons Ratio (x) = 0.03573 0.06441
# Poissons Ratio (y) = 0.09003 -0.05602
# Poissons Ratio (z) = 0.10695 -0.03692
#
# Static dielectric constant tensor:
#      x y z
#    x 1.887130 0.000170 0.004810 
#    y 0.000170 1.827140 0.043170 
#    z 0.004810 0.043170 1.847330 
# 
# From -- ./inp_files/27026.got.cif
#   From: 2010.05.17/outbox.cif.g08.bks.cpg/sg2_14_cif.got.tgz:27026.got - 2010.06.03 11:33:40.
