data_PCOD9031839
_publ_section_title
;
Structure prediction by ZEFSAII (Michael W. Deem and Ramdas Pophale) SiO2 
 PCOD9031839
Probable space group: P -1
;
_chemical_formula_sum "Si O2"
_cell_formula_units_Z 15
_cell_length_a 10.531679
_cell_length_b 6.790465
_cell_length_c 16.174605
_cell_angle_alpha 126.989389
_cell_angle_beta 134.367485
_cell_angle_gamma 46.633101
_cell_volume 584.476781
_symmetry_space_group_name_H-M "P -1"
_symmetry_group_IT_number 2
_symmetry_cell_setting 'triclinic'
loop_
_space_group_symop_operation_xyz
x,y,z
-x,-y,-z
loop_
_atom_site_type_symbol
_atom_site_label
_atom_site_fract_x
_atom_site_fract_y
_atom_site_fract_z
Si Si1 0.234811 0.641483 0.361678
Si Si2 0.518056 0.061011 0.427565
Si Si3 0.500000 0.000000 0.000000
Si Si4 0.629135 0.475820 0.250349
Si Si5 0.238845 0.576174 0.159860
Si Si6 0.417280 0.228024 0.842431
Si Si7 0.861098 0.016174 0.363585
Si Si8 0.830208 0.932350 0.012426
O O1 0.344547 0.352043 0.387417
O O2 0.294263 0.875412 0.480304
O O3 0.295949 0.622678 0.289163
O O4 0.002516 0.761275 0.305011
O O5 0.500000 0.000000 0.500000
O O6 0.534126 0.794488 0.318869
O O7 0.720851 0.968968 0.059985
O O8 0.393713 0.204443 0.922244
O O9 0.440754 0.405183 0.152483
O O10 0.697039 0.495400 0.193807
O O11 0.788832 0.289679 0.343338
O O12 0.156407 0.358571 0.086422
O O13 0.062063 0.855214 0.110344
O O14 0.336858 0.018626 0.716667
O O15 0.655422 0.147704 0.926869
O O16 0.000000 0.000000 0.500000
#
# Coordination Sequence:
#
# PCOD9031839 Si02
#       8
#     2   2   1   2   2   2   2   2
#     4  11  25  42  68  95 140 185 222 282 355 407
#     4  11  23  42  67 100 137 178 230 288 339 412
#     4   8  18  42  68  90 134 180 222 280 350 398
#     4  12  24  42  72 104 138 180 237 284 342 414
#     4  11  21  39  67 100 130 180 229 277 346 411
#     4  10  22  43  68  95 140 179 227 290 341 406
#     4  12  26  44  69 101 143 187 229 283 350 413
#     4   9  20  40  70  93 134 177 222 283 344 406
#
# _framework density 25.663976999999999
#
# number of rings (size 3 to 8) (size 9 to 14) (size 15 to 20)
#    0.800    0.533    2.667    3.200    1.867    3.733 
#    0.000    2.667    0.000    0.000    0.000    0.000 
#    0.000    0.000    0.000    0.000    0.000    0.000 
#
# Total GULP energy -83504.267000 kJ/mol
# GULP energy per Si atom -5566.951133 kJ/mol
# Density = 2.560556 g / cm^3
# Si number density = 25.663977 Si / 1000 Ang^3
#
#
#
# Elastic Constant Matrix: (Units=GPa)
#
#
# Indices 1 2 3 4 5 6 
#
# 1 103.9466 36.6065 29.7353 -35.8228 -11.5541 5.6357
# 2 36.6065 117.6803 46.2671 -30.1304 4.1469 39.9428
# 3 29.7353 46.2671 127.9501 -42.3310 -14.1431 27.3486
# 4 -35.8228 -30.1304 -42.3310 48.8309 0.3781 -0.6069
# 5 -11.5541 4.1469 -14.1431 0.3781 29.9654 -15.4349
# 6 5.6357 39.9428 27.3486 -0.6069 -15.4349 36.0757
#
#
#
# Elastic Compliance Matrix: (Units=1/GPa)
#
#
# Indices 1 2 3 4 5 6 
#
# 1 0.015322 -0.007097 0.000599 0.007414 0.012473 0.010472
# 2 -0.007097 0.031434 0.002552 0.016037 -0.031167 -0.048694
# 3 0.000599 0.002552 0.014378 0.014311 -0.000655 -0.013858
# 4 0.007414 0.016037 0.014311 0.047884 -0.010424 -0.033417
# 5 0.012473 -0.031167 -0.000655 -0.010424 0.076002 0.065397
# 6 0.010472 -0.048694 -0.013858 -0.033417 0.065397 0.117920
#
#
# Mechanical properties :
#
#
# Convention : Reuss Voigt Hill
#
# Bulk Modulus (GPa) = 18.78278 63.86610 41.32444
# Shear Modulus (GPa) = 15.21692 38.77227 26.99460
#
# Velocity S-wave (km/s) = 2.43766 3.89107 3.24674
# Velocity P-wave (km/s) = 3.90609 6.71765 5.49474
#
# Compressibility (1/GPa) = 0.05324026
#
# Stress axis : x y z
#
# Youngs Moduli (GPa) = 65.26495 31.81253 69.55131
#
# Poissons Ratio (x) = 0.22578 -0.04165
# Poissons Ratio (y) = 0.46320 -0.17746
# Poissons Ratio (z) = -0.03908 -0.08117
#
# Static dielectric constant tensor:
#      x y z
#    x 2.137390 -0.078420 0.013910 
#    y -0.078420 1.981480 0.015650 
#    z 0.013910 0.015650 2.203330 
# 
# From -- ./inp_files/564554.got.cif
#   From: 2010.05.17/outbox.cif.g08.bks.cpg/sg2_283_cif.got.tgz:564554.got - 2010.06.03 11:33:40.
