data_PCOD9031546
_publ_section_title
;
Structure prediction by ZEFSAII (Michael W. Deem and Ramdas Pophale) SiO2 
 PCOD9031546
Probable space group: P -1
;
_chemical_formula_sum "Si O2"
_cell_formula_units_Z 14
_cell_length_a 10.590580
_cell_length_b 7.022585
_cell_length_c 11.349389
_cell_angle_alpha 53.109838
_cell_angle_beta 104.353680
_cell_angle_gamma 115.908888
_cell_volume 607.118574
_symmetry_space_group_name_H-M "P -1"
_symmetry_group_IT_number 2
_symmetry_cell_setting 'triclinic'
loop_
_space_group_symop_operation_xyz
x,y,z
-x,-y,-z
loop_
_atom_site_type_symbol
_atom_site_label
_atom_site_fract_x
_atom_site_fract_y
_atom_site_fract_z
Si Si1 0.085090 0.443809 0.880364
Si Si2 0.516244 0.197063 0.534143
Si Si3 0.680148 0.773990 0.330463
Si Si4 0.358995 0.760400 0.968646
Si Si5 0.008038 0.937718 0.659632
Si Si6 0.066377 0.951828 0.175667
Si Si7 0.349424 0.930219 0.153147
O O1 0.240308 0.573250 0.924796
O O2 0.054197 0.315629 0.791654
O O3 0.016796 0.658614 0.784010
O O4 0.019285 0.185808 0.038967
O O5 0.591158 0.480649 0.395835
O O6 0.369807 0.167446 0.573799
O O7 0.500000 0.000000 0.500000
O O8 0.606696 0.166877 0.678503
O O9 0.844562 0.854866 0.339926
O O10 0.648130 0.961787 0.162944
O O11 0.518207 0.811989 0.947851
O O12 0.331455 0.732541 0.112794
O O13 0.898841 0.993141 0.699499
O O14 0.000000 0.000000 0.500000
O O15 0.206180 0.970194 0.131693
#
# Coordination Sequence:
#
# PCOD9031546 Si02
#       7
#     2   2   2   2   2   2   2
#     4  10  25  45  70  94 136 177 216 276 337 388
#     4  10  22  43  67  91 132 170 213 270 330 389
#     4   9  22  42  64  91 127 174 211 266 333 385
#     4   9  21  46  68  94 136 170 215 281 331 376
#     4  11  26  43  67  95 135 178 218 272 328 392
#     4  11  26  42  68 101 131 175 227 268 328 404
#     4  10  23  42  67 103 126 169 225 272 319 399
#
# _framework density 23.059743000000001
#
# number of rings (size 3 to 8) (size 9 to 14) (size 15 to 20)
#    0.000    2.000    0.000    0.429   14.000    4.571 
#    7.714    0.000    0.000    0.000    0.000    0.000 
#    0.000    0.000    0.000    0.000    0.000    0.000 
#
# Total GULP energy -78143.307206 kJ/mol
# GULP energy per Si atom -5581.664800 kJ/mol
# Density = 2.300726 g / cm^3
# Si number density = 23.059743 Si / 1000 Ang^3
#
#
#
# Elastic Constant Matrix: (Units=GPa)
#
#
# Indices 1 2 3 4 5 6 
#
# 1 95.3358 55.4056 22.3736 11.1357 -4.5919 -0.4912
# 2 55.4056 165.7335 49.2955 21.6915 -10.5368 -6.1534
# 3 22.3736 49.2955 57.8641 17.2159 -1.7550 -2.5065
# 4 11.1357 21.6915 17.2159 24.5354 3.0774 -2.0918
# 5 -4.5919 -10.5368 -1.7550 3.0774 14.6956 5.8653
# 6 -0.4912 -6.1534 -2.5065 -2.0918 5.8653 24.9725
#
#
#
# Elastic Compliance Matrix: (Units=1/GPa)
#
#
# Indices 1 2 3 4 5 6 
#
# 1 0.013305 -0.003645 -0.001341 -0.002320 0.002488 -0.001550
# 2 -0.003645 0.009809 -0.005627 -0.003818 0.006001 0.000051
# 3 -0.001341 -0.005627 0.026587 -0.013293 0.001598 -0.000233
# 4 -0.002320 -0.003818 -0.013293 0.057634 -0.019994 0.007203
# 5 0.002488 0.006001 0.001598 -0.019994 0.085517 -0.020072
# 6 -0.001550 0.000051 -0.000233 0.007203 -0.020072 0.045320
#
#
# Mechanical properties :
#
#
# Convention : Reuss Voigt Hill
#
# Bulk Modulus (GPa) = 35.11764 63.67587 49.39676
# Shear Modulus (GPa) = 18.59491 25.63129 22.11310
#
# Velocity S-wave (km/s) = 2.84276 3.33756 3.10005
# Velocity P-wave (km/s) = 5.10266 6.52118 5.85504
#
# Compressibility (1/GPa) = 0.02847572
#
# Stress axis : x y z
#
# Youngs Moduli (GPa) = 75.15991 101.94578 37.61176
#
# Poissons Ratio (x) = 0.37158 0.05043
# Poissons Ratio (y) = 0.27395 0.21165
# Poissons Ratio (z) = 0.10078 0.57366
#
# Static dielectric constant tensor:
#      x y z
#    x 1.931490 -0.015600 -0.033460 
#    y -0.015600 1.894300 0.063410 
#    z -0.033460 0.063410 1.925690 
# 
# From -- ./inp_files/408983.got.cif
#   From: 2010.05.17/outbox.cif.g08.bks.cpg/sg2_205_cif.got.tgz:408983.got - 2010.06.03 11:33:40.
