data_PCOD9031832
_publ_section_title
;
Structure prediction by ZEFSAII (Michael W. Deem and Ramdas Pophale) SiO2 
 PCOD9031832
Probable space group: P -1
;
_chemical_formula_sum "Si O2"
_cell_formula_units_Z 16
_cell_length_a 6.701933
_cell_length_b 18.968175
_cell_length_c 8.953739
_cell_angle_alpha 127.114493
_cell_angle_beta 61.286608
_cell_angle_gamma 90.070248
_cell_volume 725.075363
_symmetry_space_group_name_H-M "P -1"
_symmetry_group_IT_number 2
_symmetry_cell_setting 'triclinic'
loop_
_space_group_symop_operation_xyz
x,y,z
-x,-y,-z
loop_
_atom_site_type_symbol
_atom_site_label
_atom_site_fract_x
_atom_site_fract_y
_atom_site_fract_z
Si Si1 0.328414 0.113333 0.180219
Si Si2 0.101916 0.729770 0.083370
Si Si3 0.100317 0.936933 0.618636
Si Si4 0.793017 0.463223 0.359912
Si Si5 0.445987 0.177046 0.520505
Si Si6 0.847165 0.453448 0.679374
Si Si7 0.602682 0.341700 0.806091
Si Si8 0.696737 0.130883 0.874821
O O1 0.406019 0.172174 0.352833
O O2 0.054246 0.119326 0.321618
O O3 0.421889 0.139280 0.024110
O O4 0.500000 0.000000 0.000000
O O5 0.240273 0.699674 0.153379
O O6 0.266310 0.771699 0.983464
O O7 0.820242 0.810601 0.301898
O O8 0.086080 0.635887 0.900260
O O9 0.327116 0.920335 0.627732
O O10 0.225857 0.894835 0.359132
O O11 0.899218 0.044568 0.790181
O O12 0.500000 0.500000 0.500000
O O13 0.856289 0.442966 0.485012
O O14 0.895469 0.539987 0.360640
O O15 0.509927 0.265495 0.667204
O O16 0.776537 0.372681 0.675830
O O17 0.632029 0.558679 0.936429
#
# Coordination Sequence:
#
# PCOD9031832 Si02
#       8
#     2   2   2   2   2   2   2   2
#     4  10  23  44  65  96 133 175 227 279 332 399
#     4  12  24  43  64  98 133 174 222 280 331 398
#     4  10  22  46  65  96 135 177 221 280 335 403
#     4  11  23  43  67  98 134 171 219 276 333 405
#     4  12  23  43  67  95 137 175 226 279 334 400
#     4  10  24  43  66  95 127 174 220 268 340 394
#     4  11  23  43  65  94 130 170 225 273 324 402
#     4  10  22  43  68  95 134 174 223 277 337 391
#
# _framework density 22.066670999999999
#
# number of rings (size 3 to 8) (size 9 to 14) (size 15 to 20)
#    0.000    1.250    5.000    0.000    1.750    4.000 
#    4.500    0.000    0.000    0.000    0.000    0.000 
#    0.000    0.000    0.000    0.000    0.000    0.000 
#
# Total GULP energy -89380.741764 kJ/mol
# GULP energy per Si atom -5586.296360 kJ/mol
# Density = 2.201645 g / cm^3
# Si number density = 22.066671 Si / 1000 Ang^3
#
#
#
# Elastic Constant Matrix: (Units=GPa)
#
#
# Indices 1 2 3 4 5 6 
#
# 1 95.8079 32.7492 17.5729 -15.9850 -15.9837 16.8551
# 2 32.7492 101.7746 8.0324 -23.8805 -2.5425 23.5230
# 3 17.5729 8.0324 58.6430 -15.9916 -1.7438 11.8819
# 4 -15.9850 -23.8805 -15.9916 29.7356 16.0297 -9.3138
# 5 -15.9837 -2.5425 -1.7438 16.0297 35.2205 4.2806
# 6 16.8551 23.5230 11.8819 -9.3138 4.2806 29.6354
#
#
#
# Elastic Compliance Matrix: (Units=1/GPa)
#
#
# Indices 1 2 3 4 5 6 
#
# 1 0.014112 -0.003394 -0.003127 -0.003230 0.008238 -0.006284
# 2 -0.003394 0.015112 0.003722 0.013180 -0.005458 -0.006626
# 3 -0.003127 0.003722 0.022401 0.015561 -0.006599 -0.004313
# 4 -0.003230 0.013180 0.015561 0.073936 -0.035027 0.013432
# 5 0.008238 -0.005458 -0.006599 -0.035027 0.049276 -0.015833
# 6 -0.006284 -0.006626 -0.004313 0.013432 -0.015833 0.050814
#
#
# Mechanical properties :
#
#
# Convention : Reuss Voigt Hill
#
# Bulk Modulus (GPa) = 21.72671 41.43716 31.58194
# Shear Modulus (GPa) = 20.27643 32.10969 26.19306
#
# Velocity S-wave (km/s) = 3.03458 3.81874 3.44902
# Velocity P-wave (km/s) = 4.70590 6.18568 5.49583
#
# Compressibility (1/GPa) = 0.04602629
#
# Stress axis : x y z
#
# Youngs Moduli (GPa) = 70.86085 66.17363 44.64149
#
# Poissons Ratio (x) = 0.22460 0.13958
# Poissons Ratio (y) = 0.24050 -0.16613
# Poissons Ratio (z) = 0.22156 -0.24627
#
# Static dielectric constant tensor:
#      x y z
#    x 1.781900 0.023120 -0.036410 
#    y 0.023120 1.804040 0.001420 
#    z -0.036410 0.001420 1.831320 
# 
# From -- ./inp_files/49173.got.cif
#   From: 2010.05.17/outbox.cif.g08.bks.cpg/sg2_25_cif.got.tgz:49173.got - 2010.06.03 11:33:40.
