data_PCOD9031404
_publ_section_title
;
Structure prediction by ZEFSAII (Michael W. Deem and Ramdas Pophale) SiO2 
 PCOD9031404
Probable space group: P -1
;
_chemical_formula_sum "Si O2"
_cell_formula_units_Z 15
_cell_length_a 5.582555
_cell_length_b 8.094588
_cell_length_c 20.201014
_cell_angle_alpha 129.512260
_cell_angle_beta 49.350193
_cell_angle_gamma 115.846122
_cell_volume 533.962452
_symmetry_space_group_name_H-M "P -1"
_symmetry_group_IT_number 2
_symmetry_cell_setting 'triclinic'
loop_
_space_group_symop_operation_xyz
x,y,z
-x,-y,-z
loop_
_atom_site_type_symbol
_atom_site_label
_atom_site_fract_x
_atom_site_fract_y
_atom_site_fract_z
Si Si1 0.130274 0.232930 0.834078
Si Si2 0.127627 0.831122 0.487107
Si Si3 0.204674 0.325549 0.704781
Si Si4 0.486751 0.780349 0.816956
Si Si5 0.500000 0.000000 0.000000
Si Si6 0.557136 0.394011 0.034980
Si Si7 0.914226 0.450320 0.343452
Si Si8 0.584897 0.883407 0.684455
O O1 0.004817 0.257451 0.787616
O O2 0.812570 0.197975 0.927282
O O3 0.406414 0.072113 0.729777
O O4 0.294001 0.432234 0.896482
O O5 0.985976 0.597942 0.430802
O O6 0.953551 0.886460 0.601283
O O7 0.502950 0.810383 0.408581
O O8 0.000000 0.000000 0.500000
O O9 0.365453 0.541742 0.761639
O O10 0.016735 0.396403 0.692644
O O11 0.351240 0.876242 0.930882
O O12 0.466170 0.913484 0.787955
O O13 0.862719 0.749297 0.748149
O O14 0.306115 0.234318 0.073523
O O15 0.500000 0.500000 0.000000
O O16 0.567221 0.344864 0.370084
#
# Coordination Sequence:
#
# PCOD9031404 Si02
#       8
#     2   2   2   2   1   2   2   2
#     4  11  23  45  64  99 136 170 225 277 334 397
#     4  11  23  42  67  97 134 173 218 276 336 395
#     4  10  22  43  66  95 134 174 219 274 325 400
#     4  10  23  42  66  96 133 174 221 282 329 394
#     4  12  22  44  68 100 130 178 230 268 346 400
#     4  11  26  43  69 100 135 181 225 284 340 405
#     4  10  24  42  65  96 126 181 220 267 333 401
#     4  11  23  44  67  96 134 173 224 278 330 397
#
# _framework density 28.091863
#
# number of rings (size 3 to 8) (size 9 to 14) (size 15 to 20)
#    0.000    1.333    2.667    2.000    1.867    6.400 
#    4.800    3.333    0.000    0.000    0.000    0.000 
#    0.000    0.000    0.000    0.000    0.000    0.000 
#
# Total GULP energy -83732.900488 kJ/mol
# GULP energy per Si atom -5582.193366 kJ/mol
# Density = 2.802792 g / cm^3
# Si number density = 28.091863 Si / 1000 Ang^3
#
#
#
# Elastic Constant Matrix: (Units=GPa)
#
#
# Indices 1 2 3 4 5 6 
#
# 1 51.1506 1.3283 11.1498 0.4096 3.4237 9.1531
# 2 1.3283 48.5521 12.7002 10.3192 0.5898 8.6570
# 3 11.1498 12.7002 159.9531 -9.4497 11.7913 9.0803
# 4 0.4096 10.3192 -9.4497 49.2619 2.3169 5.4401
# 5 3.4237 0.5898 11.7913 2.3169 49.2462 0.9045
# 6 9.1531 8.6570 9.0803 5.4401 0.9045 48.2483
#
#
#
# Elastic Compliance Matrix: (Units=1/GPa)
#
#
# Indices 1 2 3 4 5 6 
#
# 1 0.020535 0.000429 -0.001175 -0.000023 -0.001082 -0.003728
# 2 0.000429 0.022692 -0.001964 -0.004796 0.000454 -0.003251
# 3 -0.001175 -0.001964 0.006769 0.001892 -0.001588 -0.000882
# 4 -0.000023 -0.004796 0.001892 0.021947 -0.001391 -0.001940
# 5 -0.001082 0.000454 -0.001588 -0.001391 0.020818 0.000189
# 6 -0.003728 -0.003251 -0.000882 -0.001940 0.000189 0.022398
#
#
# Mechanical properties :
#
#
# Convention : Reuss Voigt Hill
#
# Bulk Modulus (GPa) = 22.43455 34.44581 28.44018
# Shear Modulus (GPa) = 36.91728 44.98311 40.95019
#
# Velocity S-wave (km/s) = 3.62907 4.00595 3.82216
# Velocity P-wave (km/s) = 5.05605 5.80390 5.44284
#
# Compressibility (1/GPa) = 0.04457411
#
# Stress axis : x y z
#
# Youngs Moduli (GPa) = 48.69741 44.06852 147.74107
#
# Poissons Ratio (x) = -0.01889 0.17366
# Poissons Ratio (y) = -0.02087 0.29014
# Poissons Ratio (z) = 0.05724 0.08654
#
# Static dielectric constant tensor:
#      x y z
#    x 2.218630 -0.099730 -0.019880 
#    y -0.099730 1.733940 0.355330 
#    z -0.019880 0.355330 1.950550 
# 
# From -- ./inp_files/38438.got.cif
#   From: 2010.05.17/outbox.cif.g08.bks.cpg/sg2_20_cif.got.tgz:38438.got - 2010.06.03 11:33:40.
