data_PCOD9031950
_publ_section_title
;
Structure prediction by ZEFSAII (Michael W. Deem and Ramdas Pophale) SiO2 
 PCOD9031950
Probable space group: P -1
;
_chemical_formula_sum "Si O2"
_cell_formula_units_Z 12
_cell_length_a 18.596934
_cell_length_b 8.334089
_cell_length_c 12.591011
_cell_angle_alpha 52.142127
_cell_angle_beta 161.132064
_cell_angle_gamma 127.002243
_cell_volume 496.552266
_symmetry_space_group_name_H-M "P -1"
_symmetry_group_IT_number 2
_symmetry_cell_setting 'triclinic'
loop_
_space_group_symop_operation_xyz
x,y,z
-x,-y,-z
loop_
_atom_site_type_symbol
_atom_site_label
_atom_site_fract_x
_atom_site_fract_y
_atom_site_fract_z
Si Si1 0.438013 0.791023 0.933094
Si Si2 0.505540 0.513258 0.335749
Si Si3 0.058765 0.322630 0.068698
Si Si4 0.982201 0.406133 0.684984
Si Si5 0.193560 0.156246 0.752771
Si Si6 0.283993 0.899469 0.186207
O O1 0.182227 0.744540 0.555426
O O2 0.504482 0.602240 0.177514
O O3 0.594558 0.811082 0.040964
O O4 0.500000 0.000000 0.000000
O O5 0.673262 0.688868 0.554983
O O6 0.635620 0.322958 0.636385
O O7 0.247801 0.443380 0.022950
O O8 0.000000 0.500000 0.000000
O O9 0.962856 0.358495 0.803447
O O10 0.923421 0.129937 0.011672
O O11 0.896731 0.625108 0.451102
O O12 0.000000 0.000000 0.500000
O O13 0.243778 0.045911 0.975249
O O14 0.500000 0.000000 0.500000
#
# Coordination Sequence:
#
# PCOD9031950 Si02
#       6
#     2   2   2   2   2   2
#     4  12  27  46  70 104 142 188 240 293 348 418
#     4  11  24  44  70 103 140 182 231 292 354 419
#     4  10  22  43  69 100 137 181 227 282 348 420
#     4  12  25  46  73 104 142 187 235 292 354 420
#     4  12  24  44  72 104 138 184 233 286 352 426
#     4  11  23  43  69 101 138 182 229 283 348 419
#
# _framework density 24.166639
#
# number of rings (size 3 to 8) (size 9 to 14) (size 15 to 20)
#    0.000    0.667    0.000    9.500    0.000    4.000 
#    0.000    2.500    0.000    0.000    0.000    0.000 
#    0.000    0.000    0.000    0.000    0.000    0.000 
#
# Total GULP energy -67035.234315 kJ/mol
# GULP energy per Si atom -5586.269526 kJ/mol
# Density = 2.411163 g / cm^3
# Si number density = 24.166639 Si / 1000 Ang^3
#
#
#
# Elastic Constant Matrix: (Units=GPa)
#
#
# Indices 1 2 3 4 5 6 
#
# 1 112.2270 57.6986 70.2107 -7.6625 -21.6474 50.2587
# 2 57.6986 85.2876 53.7247 -0.6184 5.3871 17.3689
# 3 70.2107 53.7247 178.5972 13.1329 -15.1927 11.9184
# 4 -7.6625 -0.6184 13.1329 66.0466 13.3175 -13.3183
# 5 -21.6474 5.3871 -15.1927 13.3175 64.1567 -1.1013
# 6 50.2587 17.3689 11.9184 -13.3183 -1.1013 44.7998
#
#
#
# Elastic Compliance Matrix: (Units=1/GPa)
#
#
# Indices 1 2 3 4 5 6 
#
# 1 0.043220 -0.017123 -0.007516 -0.004837 0.014543 -0.040929
# 2 -0.017123 0.022626 -0.001747 0.002584 -0.008431 0.011463
# 3 -0.007516 -0.001747 0.008760 -0.001360 0.000077 0.006376
# 4 -0.004837 0.002584 -0.001360 0.018052 -0.005747 0.010012
# 5 0.014543 -0.008431 0.000077 -0.005747 0.022168 -0.014230
# 6 -0.040929 0.011463 0.006376 0.010012 -0.014230 0.064723
#
#
# Mechanical properties :
#
#
# Convention : Reuss Voigt Hill
#
# Bulk Modulus (GPa) = 45.79834 82.15332 63.97583
# Shear Modulus (GPa) = 20.86807 47.96578 34.41692
#
# Velocity S-wave (km/s) = 2.94174 4.45993 3.77789
# Velocity P-wave (km/s) = 5.52545 7.78394 6.74983
#
# Compressibility (1/GPa) = 0.02183485
#
# Stress axis : x y z
#
# Youngs Moduli (GPa) = 23.13756 44.19604 114.14963
#
# Poissons Ratio (x) = 0.75677 0.85792
# Poissons Ratio (y) = 0.39619 0.19943
# Poissons Ratio (z) = 0.17390 0.07721
#
# Static dielectric constant tensor:
#      x y z
#    x 1.958460 -0.050130 0.060420 
#    y -0.050130 1.912150 0.044610 
#    z 0.060420 0.044610 1.902960 
# 
# From -- ./inp_files/156342.got.cif
#   From: 2010.05.17/outbox.cif.g08.bks.cpg/sg2_79_cif.got.tgz:156342.got - 2010.06.03 11:33:40.
