data_PCOD9031245
_publ_section_title
;
Structure prediction by ZEFSAII (Michael W. Deem and Ramdas Pophale) SiO2 
 PCOD9031245
Probable space group: P -1
;
_chemical_formula_sum "Si O2"
_cell_formula_units_Z 15
_cell_length_a 11.234628
_cell_length_b 11.564845
_cell_length_c 8.720066
_cell_angle_alpha 38.464645
_cell_angle_beta 88.477277
_cell_angle_gamma 108.118851
_cell_volume 595.818791
_symmetry_space_group_name_H-M "P -1"
_symmetry_group_IT_number 2
_symmetry_cell_setting 'triclinic'
loop_
_space_group_symop_operation_xyz
x,y,z
-x,-y,-z
loop_
_atom_site_type_symbol
_atom_site_label
_atom_site_fract_x
_atom_site_fract_y
_atom_site_fract_z
Si Si1 0.559831 0.136131 0.009050
Si Si2 0.307211 0.403856 0.462567
Si Si3 0.136231 0.658778 0.725069
Si Si4 0.216851 0.957888 0.837017
Si Si5 0.331999 0.540754 0.973420
Si Si6 0.500000 0.000000 0.500000
Si Si7 0.159344 0.063082 0.396931
Si Si8 0.074091 0.391364 0.696415
O O1 0.719126 0.188184 0.971725
O O2 0.496014 0.021270 0.291684
O O3 0.559149 0.356806 0.758955
O O4 0.500000 0.000000 0.000000
O O5 0.312699 0.188869 0.678267
O O6 0.187850 0.375313 0.611641
O O7 0.279080 0.437018 0.250819
O O8 0.266246 0.690518 0.787341
O O9 0.131574 0.533704 0.702018
O O10 0.149799 0.889005 0.454937
O O11 0.000000 0.500000 0.000000
O O12 0.208704 0.994070 0.619535
O O13 0.056833 0.848990 0.008234
O O14 0.489988 0.747344 0.746390
O O15 0.262493 0.324117 0.095585
O O16 0.000000 0.000000 0.500000
O O17 0.000000 0.500000 0.500000
#
# Coordination Sequence:
#
# PCOD9031245 Si02
#       8
#     2   2   2   2   2   1   2   2
#     4  11  25  48  70  98 135 185 237 289 340 402
#     4  10  23  43  67  96 136 170 222 284 342 415
#     4  12  22  38  63  93 134 171 217 271 340 409
#     4  11  23  43  68  98 139 179 221 283 351 410
#     4  10  22  43  65  96 130 174 224 282 333 406
#     4  10  24  44  76  92 136 186 232 292 342 398
#     4  11  21  38  67 100 133 172 223 281 342 414
#     4  12  23  38  65  98 135 179 211 272 357 415
#
# _framework density 25.175439999999998
#
# number of rings (size 3 to 8) (size 9 to 14) (size 15 to 20)
#    0.000    1.067    4.000    2.800    3.733    0.533 
#    2.400   10.667    2.933    0.000    0.000    0.000 
#    0.000    0.000    0.000    0.000    0.000    0.000 
#
# Total GULP energy -83597.966616 kJ/mol
# GULP energy per Si atom -5573.197774 kJ/mol
# Density = 2.511814 g / cm^3
# Si number density = 25.175440 Si / 1000 Ang^3
#
#
#
# Elastic Constant Matrix: (Units=GPa)
#
#
# Indices 1 2 3 4 5 6 
#
# 1 63.7290 1.3124 1.4284 11.6039 2.0478 -2.0150
# 2 1.3124 136.7380 41.9182 -20.9719 9.5082 0.6367
# 3 1.4284 41.9182 116.4924 -21.9673 -13.8686 -9.4865
# 4 11.6039 -20.9719 -21.9673 53.9759 -9.7735 13.3491
# 5 2.0478 9.5082 -13.8686 -9.7735 36.3506 1.4656
# 6 -2.0150 0.6367 -9.4865 13.3491 1.4656 21.8100
#
#
#
# Elastic Compliance Matrix: (Units=1/GPa)
#
#
# Indices 1 2 3 4 5 6 
#
# 1 0.017116 -0.000576 -0.001124 -0.006187 -0.003112 0.005105
# 2 -0.000576 0.008927 -0.003314 0.002511 -0.002767 -0.003106
# 3 -0.001124 -0.003314 0.011528 0.004331 0.006415 0.001925
# 4 -0.006187 0.002511 0.004331 0.028522 0.009693 -0.016870
# 5 -0.003112 -0.002767 0.006415 0.009693 0.033689 -0.005613
# 6 0.005105 -0.003106 0.001925 -0.016870 -0.005613 0.057953
#
#
# Mechanical properties :
#
#
# Convention : Reuss Voigt Hill
#
# Bulk Modulus (GPa) = 36.30702 45.14192 40.72447
# Shear Modulus (GPa) = 28.25758 40.58066 34.41912
#
# Velocity S-wave (km/s) = 3.35390 4.01922 3.70154
# Velocity P-wave (km/s) = 5.42689 6.28560 5.87196
#
# Compressibility (1/GPa) = 0.02754288
#
# Stress axis : x y z
#
# Youngs Moduli (GPa) = 58.42331 112.02467 86.74729
#
# Poissons Ratio (x) = 0.06453 0.09751
# Poissons Ratio (y) = 0.03365 0.28747
# Poissons Ratio (z) = 0.06567 0.37124
#
# Static dielectric constant tensor:
#      x y z
#    x 2.031230 -0.041320 -0.044020 
#    y -0.041320 2.014640 -0.004460 
#    z -0.044020 -0.004460 2.026310 
# 
# From -- ./inp_files/255864.got.cif
#   From: 2010.05.17/outbox.cif.g08.bks.cpg/sg2_128_cif.got.tgz:255864.got - 2010.06.03 11:33:40.
