data_PCOD9031951
_publ_section_title
;
Structure prediction by ZEFSAII (Michael W. Deem and Ramdas Pophale) SiO2 
 PCOD9031951
Probable space group: P -1
;
_chemical_formula_sum "Si O2"
_cell_formula_units_Z 16
_cell_length_a 11.205601
_cell_length_b 14.235608
_cell_length_c 9.333384
_cell_angle_alpha 44.189799
_cell_angle_beta 115.023385
_cell_angle_gamma 81.214634
_cell_volume 650.623970
_symmetry_space_group_name_H-M "P -1"
_symmetry_group_IT_number 2
_symmetry_cell_setting 'triclinic'
loop_
_space_group_symop_operation_xyz
x,y,z
-x,-y,-z
loop_
_atom_site_type_symbol
_atom_site_label
_atom_site_fract_x
_atom_site_fract_y
_atom_site_fract_z
Si Si1 0.923359 0.322388 0.765467
Si Si2 0.850104 0.198947 0.614739
Si Si3 0.651597 0.084239 0.563205
Si Si4 0.692204 0.629492 0.731887
Si Si5 0.719809 0.727330 0.323504
Si Si6 0.955932 0.751515 0.547751
Si Si7 0.340602 0.922080 0.757483
Si Si8 0.684104 0.365869 0.842241
O O1 0.808441 0.350437 0.538381
O O2 0.863102 0.519113 0.547264
O O3 0.853926 0.286459 0.907915
O O4 0.148134 0.137205 0.062999
O O5 0.688013 0.216313 0.467639
O O6 0.946871 0.189255 0.534750
O O7 0.000000 0.000000 0.000000
O O8 0.475745 0.181144 0.469075
O O9 0.612727 0.092242 0.368175
O O10 0.713401 0.690832 0.527008
O O11 0.658711 0.499958 0.802340
O O12 0.882464 0.478024 0.088334
O O13 0.806261 0.811613 0.286588
O O14 0.515912 0.848743 0.019893
O O15 0.847664 0.864221 0.515739
O O16 0.302350 0.792855 0.912978
O O17 0.500000 0.500000 0.500000
#
# Coordination Sequence:
#
# PCOD9031951 Si02
#       8
#     2   2   2   2   2   2   2   2
#     4  10  22  43  69 100 137 182 224 278 346 406
#     4  10  23  42  73 101 138 172 223 287 351 396
#     4  11  25  42  70 108 135 171 230 291 348 392
#     4  11  25  44  72 101 140 181 225 286 337 410
#     4  11  26  47  71  95 140 191 229 272 338 413
#     4  12  27  46  69 100 138 185 236 276 335 411
#     4  12  24  43  69 102 137 177 231 285 341 405
#     4  11  20  39  71 100 134 174 227 278 346 400
#
# _framework density 24.591777
#
# number of rings (size 3 to 8) (size 9 to 14) (size 15 to 20)
#    0.000    1.000    2.500    5.250    5.250    3.000 
#    0.000    1.250    0.000    0.000    0.000    0.000 
#    0.000    0.000    0.000    0.000    0.000    0.000 
#
# Total GULP energy -89675.292071 kJ/mol
# GULP energy per Si atom -5604.705754 kJ/mol
# Density = 2.453581 g / cm^3
# Si number density = 24.591777 Si / 1000 Ang^3
#
#
#
# Elastic Constant Matrix: (Units=GPa)
#
#
# Indices 1 2 3 4 5 6 
#
# 1 49.1490 21.1132 25.2852 -1.9607 10.3865 -11.1608
# 2 21.1132 128.3340 27.0951 -7.9239 11.9357 -23.5352
# 3 25.2852 27.0951 79.8853 -3.0694 14.2303 -25.1881
# 4 -1.9607 -7.9239 -3.0694 48.3551 -4.5395 7.0932
# 5 10.3865 11.9357 14.2303 -4.5395 25.3109 -7.3317
# 6 -11.1608 -23.5352 -25.1881 7.0932 -7.3317 45.7277
#
#
#
# Elastic Compliance Matrix: (Units=1/GPa)
#
#
# Indices 1 2 3 4 5 6 
#
# 1 0.025908 -0.002282 -0.006101 -0.000400 -0.005937 0.000898
# 2 -0.002282 0.009182 -0.001043 0.000712 -0.001752 0.003203
# 3 -0.006101 -0.001043 0.017949 -0.000814 -0.005169 0.007159
# 4 -0.000400 0.000712 -0.000814 0.021474 0.003273 -0.002986
# 5 -0.005937 -0.001752 -0.005169 0.003273 0.046784 0.001796
# 6 0.000898 0.003203 0.007159 -0.002986 0.001796 0.028431
#
#
# Mechanical properties :
#
#
# Convention : Reuss Voigt Hill
#
# Bulk Modulus (GPa) = 29.24981 44.92838 37.08909
# Shear Modulus (GPa) = 27.78155 36.13706 31.95931
#
# Velocity S-wave (km/s) = 3.36476 3.83754 3.60890
# Velocity P-wave (km/s) = 5.19764 6.15994 5.69914
#
# Compressibility (1/GPa) = 0.03418826
#
# Stress axis : x y z
#
# Youngs Moduli (GPa) = 38.59825 108.90826 55.71258
#
# Poissons Ratio (x) = 0.24853 0.33990
# Poissons Ratio (y) = 0.08808 0.05809
# Poissons Ratio (z) = 0.23548 0.11355
#
# Static dielectric constant tensor:
#      x y z
#    x 1.974510 0.032060 0.006170 
#    y 0.032060 1.939180 -0.012570 
#    z 0.006170 -0.012570 1.927230 
# 
# From -- ./inp_files/245680.got.cif
#   From: 2010.05.17/outbox.cif.g08.bks.cpg/sg2_123_cif.got.tgz:245680.got - 2010.06.03 11:33:40.
