data_PCOD9031377
_publ_section_title
;
Structure prediction by ZEFSAII (Michael W. Deem and Ramdas Pophale) SiO2 
 PCOD9031377
Probable space group: P -1
;
_chemical_formula_sum "Si O2"
_cell_formula_units_Z 16
_cell_length_a 8.732500
_cell_length_b 12.908380
_cell_length_c 11.985064
_cell_angle_alpha 106.331876
_cell_angle_beta 51.782028
_cell_angle_gamma 132.182329
_cell_volume 765.336004
_symmetry_space_group_name_H-M "P -1"
_symmetry_group_IT_number 2
_symmetry_cell_setting 'triclinic'
loop_
_space_group_symop_operation_xyz
x,y,z
-x,-y,-z
loop_
_atom_site_type_symbol
_atom_site_label
_atom_site_fract_x
_atom_site_fract_y
_atom_site_fract_z
Si Si1 0.795266 0.090461 0.934527
Si Si2 0.749694 0.596316 0.253097
Si Si3 0.884318 0.173888 0.529177
Si Si4 0.428148 0.423707 0.127847
Si Si5 0.240062 0.494699 0.560565
Si Si6 0.568129 0.117517 0.237923
Si Si7 0.852660 0.302140 0.385906
Si Si8 0.257400 0.149201 0.217956
O O1 0.989099 0.242546 0.832868
O O2 0.864909 0.994466 0.839534
O O3 0.775216 0.117398 0.080676
O O4 0.500000 0.000000 0.000000
O O5 0.630404 0.525737 0.165469
O O6 0.533422 0.586138 0.414104
O O7 0.783701 0.508561 0.295509
O O8 0.738714 0.194077 0.508700
O O9 0.078369 0.329727 0.547550
O O10 0.050947 0.141828 0.381859
O O11 0.682207 0.044228 0.663366
O O12 0.389712 0.280941 0.112342
O O13 0.149255 0.371945 0.267601
O O14 0.500000 0.500000 0.000000
O O15 0.145719 0.568984 0.569048
O O16 0.696670 0.213064 0.318780
O O17 0.464106 0.172022 0.217337
#
# Coordination Sequence:
#
# PCOD9031377 Si02
#       8
#     2   2   2   2   2   2   2   2
#     4  10  23  43  64  97 127 164 219 272 325 383
#     4  11  23  42  69  96 128 170 224 267 324 387
#     4  11  23  42  64  98 132 168 220 272 327 382
#     4  11  24  44  64  94 138 173 216 267 331 395
#     4  11  23  41  69  98 129 170 225 272 320 385
#     4  11  23  41  67  93 131 171 221 268 324 389
#     4  11  24  40  61  98 134 170 217 269 330 386
#     4  10  22  43  66  94 126 171 222 267 323 386
#
# _framework density 20.905850000000001
#
# number of rings (size 3 to 8) (size 9 to 14) (size 15 to 20)
#    0.000    1.250    2.500    4.125    3.500    3.000 
#    0.000    7.500    0.000    0.000    0.000    0.000 
#    0.000    0.000    0.000    0.000    0.000    0.000 
#
# Total GULP energy -89382.168357 kJ/mol
# GULP energy per Si atom -5586.385522 kJ/mol
# Density = 2.085827 g / cm^3
# Si number density = 20.905850 Si / 1000 Ang^3
#
#
#
# Elastic Constant Matrix: (Units=GPa)
#
#
# Indices 1 2 3 4 5 6 
#
# 1 92.5153 32.0318 23.0463 0.4472 19.0876 -20.1403
# 2 32.0318 96.5339 44.8278 -13.2109 -5.7407 -11.2341
# 3 23.0463 44.8278 84.4904 -10.8180 18.6682 -7.6677
# 4 0.4472 -13.2109 -10.8180 34.8591 -4.6178 -1.2856
# 5 19.0876 -5.7407 18.6682 -4.6178 35.5045 -3.4980
# 6 -20.1403 -11.2341 -7.6677 -1.2856 -3.4980 36.0415
#
#
#
# Elastic Compliance Matrix: (Units=1/GPa)
#
#
# Indices 1 2 3 4 5 6 
#
# 1 0.016142 -0.006320 0.001352 -0.003308 -0.010228 0.006227
# 2 -0.006320 0.018979 -0.010275 0.005840 0.012791 0.001648
# 3 0.001352 -0.010275 0.019849 0.000588 -0.012692 0.000565
# 4 -0.003308 0.005840 0.000588 0.032093 0.006775 0.001899
# 5 -0.010228 0.012791 -0.012692 0.006775 0.043288 0.000014
# 6 0.006227 0.001648 0.000565 0.001899 0.000014 0.031929
#
#
# Mechanical properties :
#
#
# Convention : Reuss Voigt Hill
#
# Bulk Modulus (GPa) = 40.84228 52.59460 46.71844
# Shear Modulus (GPa) = 24.88445 32.85660 28.87052
#
# Velocity S-wave (km/s) = 3.45383 3.96870 3.72018
# Velocity P-wave (km/s) = 5.95684 6.79803 6.39129
#
# Compressibility (1/GPa) = 0.02448443
#
# Stress axis : x y z
#
# Youngs Moduli (GPa) = 61.94850 52.68928 50.37952
#
# Poissons Ratio (x) = 0.33301 -0.06809
# Poissons Ratio (y) = 0.39153 0.51763
# Poissons Ratio (z) = -0.08373 0.54136
#
# Static dielectric constant tensor:
#      x y z
#    x 1.785900 0.007050 0.041340 
#    y 0.007050 1.749610 0.028960 
#    z 0.041340 0.028960 1.785890 
# 
# From -- ./inp_files/392719.got.cif
#   From: 2010.05.17/outbox.cif.g08.bks.cpg/sg2_197_cif.got.tgz:392719.got - 2010.06.03 11:33:40.
