data_PCOD9031306
_publ_section_title
;
Structure prediction by ZEFSAII (Michael W. Deem and Ramdas Pophale) SiO2 
 PCOD9031306
Probable space group: P -1
;
_chemical_formula_sum "Si O2"
_cell_formula_units_Z 16
_cell_length_a 11.469346
_cell_length_b 22.555275
_cell_length_c 17.708849
_cell_angle_alpha 19.605588
_cell_angle_beta 148.535333
_cell_angle_gamma 150.348651
_cell_volume 744.071982
_symmetry_space_group_name_H-M "P -1"
_symmetry_group_IT_number 2
_symmetry_cell_setting 'triclinic'
loop_
_space_group_symop_operation_xyz
x,y,z
-x,-y,-z
loop_
_atom_site_type_symbol
_atom_site_label
_atom_site_fract_x
_atom_site_fract_y
_atom_site_fract_z
Si Si1 0.565522 0.233680 0.160302
Si Si2 0.388028 0.275264 0.220156
Si Si3 0.504026 0.903822 0.236686
Si Si4 0.745004 0.237464 0.086416
Si Si5 0.293665 0.322185 0.279917
Si Si6 0.767514 0.505677 0.644384
Si Si7 0.137874 0.819626 0.011509
Si Si8 0.214492 0.868931 0.454137
O O1 0.628966 0.234812 0.106457
O O2 0.731827 0.157389 0.396609
O O3 0.299043 0.084015 0.213116
O O4 0.619487 0.450433 0.952825
O O5 0.328416 0.237038 0.321199
O O6 0.594439 0.202930 0.395907
O O7 0.500000 0.500000 0.000000
O O8 0.135739 0.203107 0.123188
O O9 0.552146 0.729663 0.509366
O O10 0.246556 0.845971 0.123790
O O11 0.573833 0.067110 0.143433
O O12 0.697287 0.996369 0.165975
O O13 0.010059 0.232584 0.249214
O O14 0.797079 0.428809 0.836196
O O15 0.500000 0.500000 0.500000
O O16 0.822716 0.360130 0.791749
O O17 0.949936 0.719268 0.472962
#
# Coordination Sequence:
#
# PCOD9031306 Si02
#       8
#     2   2   2   2   2   2   2   2
#     4  11  24  40  65 100 138 169 230 271 336 398
#     4  12  20  43  73  92 135 174 229 281 326 408
#     4  10  23  40  65 100 133 168 226 281 338 384
#     4  11  22  43  63 103 135 176 232 281 329 406
#     4  12  22  40  69 104 131 179 231 284 330 396
#     4  11  23  43  70  97 135 179 222 278 346 403
#     4  10  22  43  66 102 131 173 225 277 342 400
#     4  11  24  44  66 103 132 180 222 275 342 405
#
# _framework density 21.503297
#
# number of rings (size 3 to 8) (size 9 to 14) (size 15 to 20)
#    0.000    1.000    6.250    1.500    3.500    0.000 
#   11.250    1.250    2.750    0.000    0.000    0.000 
#    0.000    0.000    0.000    0.000    0.000    0.000 
#
# Total GULP energy -89475.244501 kJ/mol
# GULP energy per Si atom -5592.202781 kJ/mol
# Density = 2.145435 g / cm^3
# Si number density = 21.503297 Si / 1000 Ang^3
#
#
#
# Elastic Constant Matrix: (Units=GPa)
#
#
# Indices 1 2 3 4 5 6 
#
# 1 119.4112 55.4388 34.8005 12.8394 -5.1970 -7.5175
# 2 55.4388 148.8343 46.3039 4.5631 -8.4284 18.4690
# 3 34.8005 46.3039 68.2099 6.0897 -12.6847 0.4325
# 4 12.8394 4.5631 6.0897 38.8438 3.2600 -2.4713
# 5 -5.1970 -8.4284 -12.6847 3.2600 27.0504 7.8921
# 6 -7.5175 18.4690 0.4325 -2.4713 7.8921 31.1356
#
#
#
# Elastic Compliance Matrix: (Units=1/GPa)
#
#
# Indices 1 2 3 4 5 6 
#
# 1 0.011781 -0.004049 -0.003454 -0.002355 -0.001970 0.005606
# 2 -0.004049 0.010854 -0.004754 0.000070 0.002709 -0.008031
# 3 -0.003454 -0.004754 0.021425 -0.002401 0.008374 -0.000625
# 4 -0.002355 0.000070 -0.002401 0.027571 -0.005777 0.003076
# 5 -0.001970 0.002709 0.008374 -0.005777 0.046253 -0.014381
# 6 0.005606 -0.008031 -0.000625 0.003076 -0.014381 0.042133
#
#
# Mechanical properties :
#
#
# Convention : Reuss Voigt Hill
#
# Bulk Modulus (GPa) = 51.15720 67.72686 59.44203
# Shear Modulus (GPa) = 26.17165 32.73346 29.45256
#
# Velocity S-wave (km/s) = 3.49248 3.90584 3.70493
# Velocity P-wave (km/s) = 6.33287 7.20453 6.78272
#
# Compressibility (1/GPa) = 0.01954759
#
# Stress axis : x y z
#
# Youngs Moduli (GPa) = 84.88110 92.13317 46.67344
#
# Poissons Ratio (x) = 0.37304 0.16120
# Poissons Ratio (y) = 0.34367 0.22188
# Poissons Ratio (z) = 0.29316 0.43799
#
# Static dielectric constant tensor:
#      x y z
#    x 1.789460 -0.034390 0.025980 
#    y -0.034390 1.804330 -0.029840 
#    z 0.025980 -0.029840 1.814860 
# 
# From -- ./inp_files/571035.got.cif
#   From: 2010.05.17/outbox.cif.g08.bks.cpg/sg2_286_cif.got.tgz:571035.got - 2010.06.03 11:33:40.
