data_PCOD9031014
_publ_section_title
;
Structure prediction by ZEFSAII (Michael W. Deem and Ramdas Pophale) SiO2 
 PCOD9031014
Probable space group: P -1
;
_chemical_formula_sum "Si O2"
_cell_formula_units_Z 16
_cell_length_a 9.717303
_cell_length_b 7.208190
_cell_length_c 11.404114
_cell_angle_alpha 121.891673
_cell_angle_beta 83.585878
_cell_angle_gamma 86.302274
_cell_volume 666.706991
_symmetry_space_group_name_H-M "P -1"
_symmetry_group_IT_number 2
_symmetry_cell_setting 'triclinic'
loop_
_space_group_symop_operation_xyz
x,y,z
-x,-y,-z
loop_
_atom_site_type_symbol
_atom_site_label
_atom_site_fract_x
_atom_site_fract_y
_atom_site_fract_z
Si Si1 0.088775 0.097822 0.620593
Si Si2 0.876714 0.996664 0.917845
Si Si3 0.641306 0.334477 0.410064
Si Si4 0.361377 0.914530 0.442840
Si Si5 0.592931 0.463679 0.862095
Si Si6 0.897594 0.404057 0.886844
Si Si7 0.585663 0.148762 0.120873
Si Si8 0.945430 0.321161 0.359341
O O1 0.002014 0.325676 0.745043
O O2 0.234677 0.107370 0.545879
O O3 0.085716 0.918680 0.665456
O O4 0.000000 0.000000 0.500000
O O5 0.860607 0.188634 0.885899
O O6 0.739036 0.064127 0.029728
O O7 0.926453 0.765265 0.769487
O O8 0.000000 0.000000 0.000000
O O9 0.500000 0.500000 0.500000
O O10 0.675299 0.259930 0.515264
O O11 0.598728 0.150713 0.261476
O O12 0.783292 0.408894 0.368454
O O13 0.376154 0.785985 0.275851
O O14 0.500000 0.000000 0.500000
O O15 0.746895 0.528308 0.899760
O O16 0.495082 0.608023 0.824090
O O17 0.500000 0.500000 0.000000
O O18 0.000000 0.500000 0.000000
O O19 0.500000 0.000000 0.000000
O O20 0.000000 0.500000 0.500000
#
# Coordination Sequence:
#
# PCOD9031014 Si02
#       8
#     2   2   2   2   2   2   2   2
#     4  10  22  43  63  98 130 167 232 275 327 409
#     4  11  24  46  65 102 140 176 235 281 336 415
#     4  11  24  46  64 101 138 176 238 278 339 418
#     4  11  26  43  72  96 139 185 224 287 346 409
#     4  12  26  47  67 104 142 178 239 283 344 423
#     4  11  26  44  72  98 139 184 225 289 347 409
#     4  12  28  44  72 102 143 187 225 293 349 412
#     4  10  24  41  69  95 133 178 221 280 337 401
#
# _framework density 23.998548
#
# number of rings (size 3 to 8) (size 9 to 14) (size 15 to 20)
#    0.000    1.000    5.000    0.000    7.000    2.000 
#    0.000    0.000    0.000    0.000    0.000    0.000 
#    0.000    0.000    0.000    0.000    0.000    0.000 
#
# Total GULP energy -89177.929864 kJ/mol
# GULP energy per Si atom -5573.620617 kJ/mol
# Density = 2.394393 g / cm^3
# Si number density = 23.998548 Si / 1000 Ang^3
#
#
#
# Elastic Constant Matrix: (Units=GPa)
#
#
# Indices 1 2 3 4 5 6 
#
# 1 201.5546 -5.5325 68.4486 11.1314 -29.2616 -11.3179
# 2 -5.5325 57.2438 -1.0379 7.8634 -12.3694 -14.8610
# 3 68.4486 -1.0379 204.1119 9.5477 -22.6224 5.9294
# 4 11.1314 7.8634 9.5477 22.4653 -4.3426 3.4398
# 5 -29.2616 -12.3694 -22.6224 -4.3426 57.3171 2.0722
# 6 -11.3179 -14.8610 5.9294 3.4398 2.0722 25.9131
#
#
#
# Elastic Compliance Matrix: (Units=1/GPa)
#
#
# Indices 1 2 3 4 5 6 
#
# 1 0.006609 0.003151 -0.001863 -0.003867 0.002830 0.005407
# 2 0.003151 0.024914 -0.000276 -0.011705 0.005381 0.016851
# 3 -0.001863 -0.000276 0.005770 -0.000835 0.001286 -0.002284
# 4 -0.003867 -0.011705 -0.000835 0.053167 -0.000250 -0.015248
# 5 0.002830 0.005381 0.001286 -0.000250 0.020454 0.002425
# 6 0.005407 0.016851 -0.002284 -0.015248 0.002425 0.052969
#
#
# Mechanical properties :
#
#
# Convention : Reuss Voigt Hill
#
# Bulk Modulus (GPa) = 25.43324 65.18522 45.30923
# Shear Modulus (GPa) = 28.57750 47.87457 38.22604
#
# Velocity S-wave (km/s) = 3.45454 4.47127 3.99538
# Velocity P-wave (km/s) = 5.15099 7.34013 6.34075
#
# Compressibility (1/GPa) = 0.03931862
#
# Stress axis : x y z
#
# Youngs Moduli (GPa) = 151.31919 40.13838 173.29569
#
# Poissons Ratio (x) = -0.12649 0.32279
# Poissons Ratio (y) = -0.47685 0.04779
# Poissons Ratio (z) = 0.28185 0.01107
#
# Static dielectric constant tensor:
#      x y z
#    x 1.937360 0.011600 -0.054390 
#    y 0.011600 2.100900 0.030080 
#    z -0.054390 0.030080 1.960330 
# 
# From -- ./inp_files/186694.got.cif
#   From: 2010.05.17/outbox.cif.g08.bks.cpg/sg2_94_cif.got.tgz:186694.got - 2010.06.03 11:33:40.
