data_PCOD9031808
_publ_section_title
;
Structure prediction by ZEFSAII (Michael W. Deem and Ramdas Pophale) SiO2 
 PCOD9031808
Probable space group: P -1
;
_chemical_formula_sum "Si O2"
_cell_formula_units_Z 16
_cell_length_a 8.605396
_cell_length_b 15.335908
_cell_length_c 6.686899
_cell_angle_alpha 111.300239
_cell_angle_beta 78.537238
_cell_angle_gamma 108.292359
_cell_volume 777.062004
_symmetry_space_group_name_H-M "P -1"
_symmetry_group_IT_number 2
_symmetry_cell_setting 'triclinic'
loop_
_space_group_symop_operation_xyz
x,y,z
-x,-y,-z
loop_
_atom_site_type_symbol
_atom_site_label
_atom_site_fract_x
_atom_site_fract_y
_atom_site_fract_z
Si Si1 0.463967 0.896475 0.026029
Si Si2 0.670391 0.260880 0.403791
Si Si3 0.974425 0.762221 0.807839
Si Si4 0.147518 0.139195 0.438232
Si Si5 0.431195 0.201110 0.748217
Si Si6 0.126778 0.922241 0.214373
Si Si7 0.475555 0.557288 0.359492
Si Si8 0.690719 0.625071 0.009179
O O1 0.590000 0.880888 0.147565
O O2 0.291505 0.889392 0.171223
O O3 0.429674 0.811904 0.800011
O O4 0.500000 0.000000 0.000000
O O5 0.600329 0.216154 0.597650
O O6 0.616164 0.360639 0.496882
O O7 0.862226 0.267762 0.328933
O O8 0.871035 0.785692 0.665671
O O9 0.865478 0.684188 0.925282
O O10 0.034555 0.862333 0.999566
O O11 0.290664 0.178092 0.596267
O O12 0.982327 0.107592 0.585827
O O13 0.167699 0.037427 0.263547
O O14 0.423104 0.301024 0.940242
O O15 0.500000 0.500000 0.500000
O O16 0.647921 0.602045 0.234954
O O17 0.366101 0.476944 0.172665
#
# Coordination Sequence:
#
# PCOD9031808 Si02
#       8
#     2   2   2   2   2   2   2   2
#     4  11  24  39  62  90 131 169 211 265 311 367
#     4  10  24  42  64  93 127 169 204 261 321 371
#     4  11  23  41  63  92 130 162 213 259 316 372
#     4  11  23  37  65  87 128 175 210 262 309 370
#     4  11  23  40  63  94 125 165 221 252 313 378
#     4  10  23  39  55  92 128 169 215 254 315 363
#     4  10  22  43  68  94 123 162 208 263 323 377
#     4  10  23  39  67  93 122 160 211 265 306 382
#
# _framework density 20.590377
#
# number of rings (size 3 to 8) (size 9 to 14) (size 15 to 20)
#    0.000    1.500    1.250    2.625    7.000    6.500 
#    0.000    0.625    0.000    0.000    0.000    0.000 
#    0.000    0.000    0.000    0.000    0.000    0.000 
#
# Total GULP energy -89331.278643 kJ/mol
# GULP energy per Si atom -5583.204915 kJ/mol
# Density = 2.054351 g / cm^3
# Si number density = 20.590377 Si / 1000 Ang^3
#
#
#
# Elastic Constant Matrix: (Units=GPa)
#
#
# Indices 1 2 3 4 5 6 
#
# 1 66.2276 48.8693 59.0522 -1.9067 -0.2789 -0.8825
# 2 48.8693 146.6146 78.2971 -2.8724 6.7162 -10.6627
# 3 59.0522 78.2971 101.6476 12.4017 -18.9966 -17.3969
# 4 -1.9067 -2.8724 12.4017 49.9138 -2.2344 2.6922
# 5 -0.2789 6.7162 -18.9966 -2.2344 37.3752 -10.4002
# 6 -0.8825 -10.6627 -17.3969 2.6922 -10.4002 29.1532
#
#
#
# Elastic Compliance Matrix: (Units=1/GPa)
#
#
# Indices 1 2 3 4 5 6 
#
# 1 0.077929 0.018689 -0.086393 0.026302 -0.063924 -0.067593
# 2 0.018689 0.020679 -0.038236 0.011497 -0.029649 -0.026327
# 3 -0.086393 -0.038236 0.129220 -0.038585 0.097063 0.098701
# 4 0.026302 0.011497 -0.038585 0.031698 -0.028218 -0.031018
# 5 -0.063924 -0.029649 0.097063 -0.028218 0.102739 0.084400
# 6 -0.067593 -0.026327 0.098701 -0.031018 0.084400 0.114499
#
#
# Mechanical properties :
#
#
# Convention : Reuss Voigt Hill
#
# Bulk Modulus (GPa) = 62.69760 76.32524 69.51142
# Shear Modulus (GPa) = 7.20504 31.83984 19.52244
#
# Velocity S-wave (km/s) = 1.87265 3.93663 3.08252
# Velocity P-wave (km/s) = 5.93227 7.60339 6.81922
#
# Compressibility (1/GPa) = 0.01594957
#
# Stress axis : x y z
#
# Youngs Moduli (GPa) = 12.83226 48.35802 7.73872
#
# Poissons Ratio (x) = -0.90379 0.66857
# Poissons Ratio (y) = -0.23983 0.29590
# Poissons Ratio (z) = 1.10862 1.84901
#
# Static dielectric constant tensor:
#      x y z
#    x 1.752810 0.031160 -0.007360 
#    y 0.031160 1.732830 -0.011400 
#    z -0.007360 -0.011400 1.768470 
# 
# From -- ./inp_files/39777.got.cif
#   From: 2010.05.17/outbox.cif.g08.bks.cpg/sg2_20_cif.got.tgz:39777.got - 2010.06.03 11:33:40.
