data_PCOD9031482
_publ_section_title
;
Structure prediction by ZEFSAII (Michael W. Deem and Ramdas Pophale) SiO2 
 PCOD9031482
Probable space group: P -1
;
_chemical_formula_sum "Si O2"
_cell_formula_units_Z 16
_cell_length_a 7.765982
_cell_length_b 9.410695
_cell_length_c 20.048424
_cell_angle_alpha 126.533679
_cell_angle_beta 139.655065
_cell_angle_gamma 74.961589
_cell_volume 707.038461
_symmetry_space_group_name_H-M "P -1"
_symmetry_group_IT_number 2
_symmetry_cell_setting 'triclinic'
loop_
_space_group_symop_operation_xyz
x,y,z
-x,-y,-z
loop_
_atom_site_type_symbol
_atom_site_label
_atom_site_fract_x
_atom_site_fract_y
_atom_site_fract_z
Si Si1 0.656453 0.104800 0.470241
Si Si2 0.313853 0.628224 0.706977
Si Si3 0.651337 0.416767 0.453506
Si Si4 0.626583 0.036112 0.973056
Si Si5 0.618061 0.714374 0.121753
Si Si6 0.738686 0.239811 0.680704
Si Si7 0.083552 0.408736 0.240751
Si Si8 0.273152 0.360333 0.731263
O O1 0.601798 0.226857 0.428608
O O2 0.601520 0.174907 0.547906
O O3 0.997311 0.168109 0.586508
O O4 0.467314 0.882485 0.356872
O O5 0.344262 0.623654 0.635688
O O6 0.371030 0.462762 0.718961
O O7 0.970237 0.577538 0.603917
O O8 0.530375 0.828689 0.854526
O O9 0.359746 0.457550 0.383276
O O10 0.497741 0.154663 0.919593
O O11 0.948931 0.186093 0.122208
O O12 0.500000 0.000000 0.000000
O O13 0.542721 0.689461 0.171481
O O14 0.964092 0.795501 0.239828
O O15 0.500000 0.500000 0.000000
O O16 0.829100 0.465963 0.765528
O O17 0.854508 0.489044 0.228650
#
# Coordination Sequence:
#
# PCOD9031482 Si02
#       8
#     2   2   2   2   2   2   2   2
#     4   8  17  32  52  80 108 143 184 228 277 325
#     4  10  22  40  57  83 115 153 191 227 287 337
#     4  10  22  38  59  81 118 153 185 236 281 334
#     4  12  22  35  58  89 114 145 192 235 281 339
#     4  10  17  32  53  79 110 144 175 229 282 327
#     4   9  18  31  54  83 115 139 185 236 279 327
#     4  10  20  35  55  87 111 144 186 240 275 330
#     4   9  18  35  56  82 110 142 188 234 276 332
#
# _framework density 22.629604
#
# number of rings (size 3 to 8) (size 9 to 14) (size 15 to 20)
#    0.000    2.500    3.750    0.000    1.750    9.000 
#    0.000    1.250    0.000    8.250    0.000    0.000 
#    0.000    0.000    0.000    0.000    0.000    0.000 
#
# Total GULP energy -89186.040836 kJ/mol
# GULP energy per Si atom -5574.127552 kJ/mol
# Density = 2.257810 g / cm^3
# Si number density = 22.629604 Si / 1000 Ang^3
#
#
#
# Elastic Constant Matrix: (Units=GPa)
#
#
# Indices 1 2 3 4 5 6 
#
# 1 75.0836 21.6393 6.4515 4.2429 -1.1523 28.3969
# 2 21.6393 121.5512 40.9672 -4.4576 7.6093 46.8414
# 3 6.4515 40.9672 91.7961 12.5176 4.0091 12.3743
# 4 4.2429 -4.4576 12.5176 59.3715 8.2355 2.0481
# 5 -1.1523 7.6093 4.0091 8.2355 23.9010 -2.3584
# 6 28.3969 46.8414 12.3743 2.0481 -2.3584 41.1485
#
#
#
# Elastic Compliance Matrix: (Units=1/GPa)
#
#
# Indices 1 2 3 4 5 6 
#
# 1 0.018672 0.003340 -0.000463 -0.000181 -0.001664 -0.016635
# 2 0.003340 0.019300 -0.005945 0.004489 -0.008824 -0.023216
# 3 -0.000463 -0.005945 0.013576 -0.003545 0.001135 0.003246
# 4 -0.000181 0.004489 -0.003545 0.019234 -0.007997 -0.005334
# 5 -0.001664 -0.008824 0.001135 -0.007997 0.048518 0.014030
# 6 -0.016635 -0.023216 0.003246 -0.005334 0.014030 0.062303
#
#
# Mechanical properties :
#
#
# Convention : Reuss Voigt Hill
#
# Bulk Modulus (GPa) = 22.02120 47.39409 34.70764
# Shear Modulus (GPa) = 24.64576 39.50906 32.07741
#
# Velocity S-wave (km/s) = 3.30372 4.18293 3.76905
# Velocity P-wave (km/s) = 4.93002 6.65718 5.85761
#
# Compressibility (1/GPa) = 0.04541079
#
# Stress axis : x y z
#
# Youngs Moduli (GPa) = 53.55702 51.81455 73.66121
#
# Poissons Ratio (x) = -0.17306 0.03411
# Poissons Ratio (y) = -0.17888 0.43792
# Poissons Ratio (z) = 0.02480 0.30804
#
# Static dielectric constant tensor:
#      x y z
#    x 1.982920 -0.020460 -0.017920 
#    y -0.020460 1.852650 0.004670 
#    z -0.017920 0.004670 1.915320 
# 
# From -- ./inp_files/588084.got.cif
#   From: 2010.05.17/outbox.cif.g08.bks.cpg/sg2_295_cif.got.tgz:588084.got - 2010.06.03 11:33:40.
