data_PCOD9031109
_publ_section_title
;
Structure prediction by ZEFSAII (Michael W. Deem and Ramdas Pophale) SiO2 
 PCOD9031109
Probable space group: P -1
;
_chemical_formula_sum "Si O2"
_cell_formula_units_Z 16
_cell_length_a 8.756146
_cell_length_b 15.635725
_cell_length_c 22.347825
_cell_angle_alpha 163.698676
_cell_angle_beta 123.498909
_cell_angle_gamma 63.531142
_cell_volume 668.417964
_symmetry_space_group_name_H-M "P -1"
_symmetry_group_IT_number 2
_symmetry_cell_setting 'triclinic'
loop_
_space_group_symop_operation_xyz
x,y,z
-x,-y,-z
loop_
_atom_site_type_symbol
_atom_site_label
_atom_site_fract_x
_atom_site_fract_y
_atom_site_fract_z
Si Si1 0.451556 0.339687 0.994732
Si Si2 0.186241 0.088340 0.377378
Si Si3 0.184432 0.620885 0.967286
Si Si4 0.854174 0.514755 0.746559
Si Si5 0.661034 0.432914 0.530287
Si Si6 0.871086 0.271442 0.368411
Si Si7 0.558763 0.617291 0.840976
Si Si8 0.948680 0.877242 0.300363
O O1 0.257868 0.341598 0.921637
O O2 0.425048 0.955542 0.735136
O O3 0.651864 0.492966 0.104238
O O4 0.457055 0.465768 0.147781
O O5 0.338428 0.456249 0.661355
O O6 0.985450 0.064553 0.285817
O O7 0.118325 0.951195 0.337037
O O8 0.275753 0.898232 0.223041
O O9 0.032976 0.322847 0.772170
O O10 0.063080 0.738228 0.970139
O O11 0.752992 0.609808 0.730606
O O12 0.694678 0.468800 0.733195
O O13 0.910277 0.204240 0.530250
O O14 0.500000 0.500000 0.500000
O O15 0.837527 0.485656 0.558204
O O16 0.000000 0.500000 0.500000
O O17 0.667768 0.008507 0.123840
#
# Coordination Sequence:
#
# PCOD9031109 Si02
#       8
#     2   2   2   2   2   2   2   2
#     4  10  22  43  64  97 142 176 233 290 335 412
#     4  12  23  45  69  99 147 184 224 296 338 410
#     4  12  24  40  71 102 141 188 232 286 346 405
#     4  11  22  43  67  99 141 176 232 290 335 416
#     4  10  23  44  68  96 133 176 226 283 351 410
#     4  11  25  47  71 100 138 175 234 285 348 419
#     4  11  24  44  69  98 139 186 224 283 352 402
#     4  11  22  44  67 103 140 187 235 285 343 407
#
# _framework density 23.937118999999999
#
# number of rings (size 3 to 8) (size 9 to 14) (size 15 to 20)
#    0.000    1.000    5.000    3.375    3.500    0.500 
#    2.250    3.125    0.000    0.000    0.000    0.000 
#    0.000    0.000    0.000    0.000    0.000    0.000 
#
# Total GULP energy -89383.428248 kJ/mol
# GULP energy per Si atom -5586.464266 kJ/mol
# Density = 2.388264 g / cm^3
# Si number density = 23.937119 Si / 1000 Ang^3
#
#
#
# Elastic Constant Matrix: (Units=GPa)
#
#
# Indices 1 2 3 4 5 6 
#
# 1 137.9951 27.6125 28.5857 -20.1843 -6.3027 41.6345
# 2 27.6125 97.0406 37.0788 -10.5407 0.6639 15.9745
# 3 28.5857 37.0788 75.0297 -26.1467 11.1434 16.4017
# 4 -20.1843 -10.5407 -26.1467 32.9297 5.8315 -2.3142
# 5 -6.3027 0.6639 11.1434 5.8315 41.2663 -5.6433
# 6 41.6345 15.9745 16.4017 -2.3142 -5.6433 45.6532
#
#
#
# Elastic Compliance Matrix: (Units=1/GPa)
#
#
# Indices 1 2 3 4 5 6 
#
# 1 0.011224 -0.001184 0.000928 0.006686 -0.000818 -0.009917
# 2 -0.001184 0.013177 -0.006931 -0.002376 0.001684 -0.000953
# 3 0.000928 -0.006931 0.027507 0.021606 -0.011406 -0.008618
# 4 0.006686 -0.002376 0.021606 0.052462 -0.013840 -0.012080
# 5 -0.000818 0.001684 -0.011406 -0.013840 0.030112 0.007276
# 6 -0.009917 -0.000953 -0.008618 -0.012080 0.007276 0.034666
#
#
# Mechanical properties :
#
#
# Convention : Reuss Voigt Hill
#
# Bulk Modulus (GPa) = 26.64165 55.17995 40.91080
# Shear Modulus (GPa) = 25.50594 38.42239 31.96417
#
# Velocity S-wave (km/s) = 3.26780 4.01076 3.65819
# Velocity P-wave (km/s) = 5.03905 6.67461 5.91365
#
# Compressibility (1/GPa) = 0.03753521
#
# Stress axis : x y z
#
# Youngs Moduli (GPa) = 89.09486 75.88740 36.35467
#
# Poissons Ratio (x) = 0.08985 -0.03375
# Poissons Ratio (y) = 0.10549 0.25197
# Poissons Ratio (z) = -0.08271 0.52596
#
# Static dielectric constant tensor:
#      x y z
#    x 1.930790 -0.005260 -0.045770 
#    y -0.005260 1.929210 -0.000090 
#    z -0.045770 -0.000090 1.986000 
# 
# From -- ./inp_files/297525.got.cif
#   From: 2010.05.17/outbox.cif.g08.bks.cpg/sg2_149_cif.got.tgz:297525.got - 2010.06.03 11:33:40.
