data_PCOD9031600
_publ_section_title
;
Structure prediction by ZEFSAII (Michael W. Deem and Ramdas Pophale) SiO2 
 PCOD9031600
Probable space group: P -1
;
_chemical_formula_sum "Si O2"
_cell_formula_units_Z 16
_cell_length_a 8.664247
_cell_length_b 16.339068
_cell_length_c 10.926246
_cell_angle_alpha 146.365220
_cell_angle_beta 50.568644
_cell_angle_gamma 125.440560
_cell_volume 657.021941
_symmetry_space_group_name_H-M "P -1"
_symmetry_group_IT_number 2
_symmetry_cell_setting 'triclinic'
loop_
_space_group_symop_operation_xyz
x,y,z
-x,-y,-z
loop_
_atom_site_type_symbol
_atom_site_label
_atom_site_fract_x
_atom_site_fract_y
_atom_site_fract_z
Si Si1 0.997391 0.553626 0.208512
Si Si2 0.279924 0.110455 0.667559
Si Si3 0.431729 0.421209 0.565831
Si Si4 0.092458 0.779239 0.095577
Si Si5 0.296215 0.831595 0.812559
Si Si6 0.900749 0.870774 0.973417
Si Si7 0.498185 0.910783 0.144902
Si Si8 0.557318 0.399748 0.959236
O O1 0.216230 0.636404 0.226296
O O2 0.801938 0.637637 0.416466
O O3 0.000000 0.500000 0.000000
O O4 0.961662 0.398699 0.110616
O O5 0.152201 0.051115 0.775085
O O6 0.393362 0.259903 0.853098
O O7 0.118311 0.152605 0.698749
O O8 0.445430 0.019398 0.415185
O O9 0.500000 0.500000 0.500000
O O10 0.561217 0.291333 0.377708
O O11 0.443412 0.522198 0.809843
O O12 0.283774 0.807237 0.122489
O O13 0.200705 0.864196 0.031248
O O14 0.419548 0.971407 0.856560
O O15 0.084780 0.772056 0.775292
O O16 0.684657 0.817360 0.956531
O O17 0.000000 0.000000 0.000000
O O18 0.500000 0.500000 0.000000
#
# Coordination Sequence:
#
# PCOD9031600 Si02
#       8
#     2   2   2   2   2   2   2   2
#     4  10  23  41  66  97 140 181 232 279 347 403
#     4  11  23  42  67  98 133 179 230 282 347 410
#     4  11  23  44  72 104 136 184 236 279 344 420
#     4  11  22  42  65  97 140 177 227 285 343 408
#     4  10  22  43  67  95 136 174 227 282 348 414
#     4   9  22  43  64  91 134 172 221 284 344 405
#     4  11  23  41  71  99 132 179 232 283 347 414
#     4  11  23  44  70  99 143 184 227 292 344 408
#
# _framework density 24.352308000000001
#
# number of rings (size 3 to 8) (size 9 to 14) (size 15 to 20)
#    0.000    1.500    2.500    1.875    5.250    0.000 
#    0.000   15.625    0.000    0.000    0.000    0.000 
#    0.000    0.000    0.000    0.000    0.000    0.000 
#
# Total GULP energy -89190.185317 kJ/mol
# GULP energy per Si atom -5574.386582 kJ/mol
# Density = 2.429688 g / cm^3
# Si number density = 24.352308 Si / 1000 Ang^3
#
#
#
# Elastic Constant Matrix: (Units=GPa)
#
#
# Indices 1 2 3 4 5 6 
#
# 1 184.9003 43.6944 41.1418 -0.1858 -52.7341 28.3462
# 2 43.6944 112.7336 16.1388 -10.7836 -8.5890 -14.4128
# 3 41.1418 16.1388 43.5575 -10.3977 -17.1577 4.9816
# 4 -0.1858 -10.7836 -10.3977 25.7586 3.2663 -0.5145
# 5 -52.7341 -8.5890 -17.1577 3.2663 50.5530 -14.1901
# 6 28.3462 -14.4128 4.9816 -0.5145 -14.1901 42.8105
#
#
#
# Elastic Compliance Matrix: (Units=1/GPa)
#
#
# Indices 1 2 3 4 5 6 
#
# 1 0.010525 -0.003785 -0.006385 -0.005082 0.007029 -0.005231
# 2 -0.003785 0.011636 -0.000587 0.004823 -0.000709 0.006315
# 3 -0.006385 -0.000587 0.033791 0.012830 0.004356 0.001696
# 4 -0.005082 0.004823 0.012830 0.046327 -0.002186 0.003328
# 5 0.007029 -0.000709 0.004356 -0.002186 0.029868 0.004474
# 6 -0.005231 0.006315 0.001696 0.003328 0.004474 0.030274
#
#
# Mechanical properties :
#
#
# Convention : Reuss Voigt Hill
#
# Bulk Modulus (GPa) = 29.03695 60.34904 44.69299
# Shear Modulus (GPa) = 25.58676 39.83887 32.71281
#
# Velocity S-wave (km/s) = 3.24495 4.04906 3.66910
# Velocity P-wave (km/s) = 5.09796 6.83340 6.02845
#
# Compressibility (1/GPa) = 0.03443888
#
# Stress axis : x y z
#
# Youngs Moduli (GPa) = 95.01253 85.94014 29.59390
#
# Poissons Ratio (x) = 0.32526 0.18895
# Poissons Ratio (y) = 0.35959 0.01737
# Poissons Ratio (z) = 0.60665 0.05043
#
# Static dielectric constant tensor:
#      x y z
#    x 2.170160 -0.011140 0.054390 
#    y -0.011140 1.975970 -0.029020 
#    z 0.054390 -0.029020 1.934360 
# 
# From -- ./inp_files/403499.got.cif
#   From: 2010.05.17/outbox.cif.g08.bks.cpg/sg2_202_cif.got.tgz:403499.got - 2010.06.03 11:33:40.
