data_PCOD9031881
_publ_section_title
;
Structure prediction by ZEFSAII (Michael W. Deem and Ramdas Pophale) SiO2 
 PCOD9031881
Probable space group: P -1
;
_chemical_formula_sum "Si O2"
_cell_formula_units_Z 16
_cell_length_a 5.550759
_cell_length_b 13.348494
_cell_length_c 22.233796
_cell_angle_alpha 22.161768
_cell_angle_beta 89.517376
_cell_angle_gamma 92.021509
_cell_volume 617.348690
_symmetry_space_group_name_H-M "P -1"
_symmetry_group_IT_number 2
_symmetry_cell_setting 'triclinic'
loop_
_space_group_symop_operation_xyz
x,y,z
-x,-y,-z
loop_
_atom_site_type_symbol
_atom_site_label
_atom_site_fract_x
_atom_site_fract_y
_atom_site_fract_z
Si Si1 0.107938 0.846401 0.355729
Si Si2 0.973639 0.145789 0.308958
Si Si3 0.355389 0.561948 0.786872
Si Si4 0.084943 0.785094 0.075242
Si Si5 0.416901 0.424634 0.462373
Si Si6 0.699993 0.678985 0.617148
Si Si7 0.434998 0.951639 0.877620
Si Si8 0.075639 0.679779 0.958128
O O1 0.846840 0.663410 0.457761
O O2 0.344213 0.691062 0.446740
O O3 0.075569 0.008317 0.327596
O O4 0.101328 0.083742 0.174141
O O5 0.707053 0.250266 0.262067
O O6 0.936068 0.899420 0.492182
O O7 0.105825 0.448895 0.136562
O O8 0.543306 0.720031 0.653570
O O9 0.120425 0.453793 0.808643
O O10 0.425581 0.282454 0.966425
O O11 0.266534 0.629766 0.200014
O O12 0.200349 0.928947 0.935692
O O13 0.000000 0.000000 0.000000
O O14 0.401711 0.322098 0.450009
O O15 0.452299 0.745538 0.286155
O O16 0.334005 0.856638 0.864781
O O17 0.000000 0.500000 0.000000
#
# Coordination Sequence:
#
# PCOD9031881 Si02
#       8
#     2   2   2   2   2   2   2   2
#     4  10  26  46  73 104 139 190 242 308 359 419
#     4  10  22  43  68  97 139 185 237 291 355 423
#     4  11  23  41  65 106 142 187 236 291 355 434
#     4  11  23  41  68 101 146 186 231 287 356 431
#     4  11  25  46  73 107 144 187 244 295 363 429
#     4  10  24  41  66 106 141 191 233 291 356 428
#     4  11  25  42  71 104 140 188 239 294 358 434
#     4  10  23  48  71 101 138 187 241 301 365 420
#
# _framework density 25.917283000000001
#
# number of rings (size 3 to 8) (size 9 to 14) (size 15 to 20)
#    0.000    1.500    1.250    1.875    8.750    8.500 
#    0.000    6.250    0.000    0.000    0.000    0.000 
#    0.000    0.000    0.000    0.000    0.000    0.000 
#
# Total GULP energy -89171.007543 kJ/mol
# GULP energy per Si atom -5573.187971 kJ/mol
# Density = 2.585829 g / cm^3
# Si number density = 25.917283 Si / 1000 Ang^3
#
#
#
# Elastic Constant Matrix: (Units=GPa)
#
#
# Indices 1 2 3 4 5 6 
#
# 1 88.1217 30.5790 59.3655 7.4022 0.1895 -3.6056
# 2 30.5790 109.9072 45.4292 -16.6106 2.2803 1.7151
# 3 59.3655 45.4292 183.5819 -19.3638 -9.1930 7.1045
# 4 7.4022 -16.6106 -19.3638 44.6905 -8.2941 -1.6059
# 5 0.1895 2.2803 -9.1930 -8.2941 62.0764 -0.9079
# 6 -3.6056 1.7151 7.1045 -1.6059 -0.9079 40.0055
#
#
#
# Elastic Compliance Matrix: (Units=1/GPa)
#
#
# Indices 1 2 3 4 5 6 
#
# 1 0.016898 -0.003445 -0.005486 -0.006668 -0.001594 0.002341
# 2 -0.003445 0.011193 -0.001199 0.004192 -0.000024 -0.000410
# 3 -0.005486 -0.001199 0.008122 0.004258 0.001808 -0.001673
# 4 -0.006668 0.004192 0.004258 0.027649 0.004186 -0.000332
# 5 -0.001594 -0.000024 0.001808 0.004186 0.016943 0.000089
# 6 0.002341 -0.000410 -0.001673 -0.000332 0.000089 0.025511
#
#
# Mechanical properties :
#
#
# Convention : Reuss Voigt Hill
#
# Bulk Modulus (GPa) = 62.68042 72.48424 67.58233
# Shear Modulus (GPa) = 37.90912 45.77029 41.83971
#
# Velocity S-wave (km/s) = 3.82867 4.20696 4.02226
# Velocity P-wave (km/s) = 6.61682 7.18514 6.90683
#
# Compressibility (1/GPa) = 0.01595395
#
# Stress axis : x y z
#
# Youngs Moduli (GPa) = 59.17718 89.33987 123.12021
#
# Poissons Ratio (x) = 0.30781 0.67540
# Poissons Ratio (y) = 0.20389 0.14761
# Poissons Ratio (z) = 0.32463 0.10711
#
# Static dielectric constant tensor:
#      x y z
#    x 2.172820 -0.021560 -0.013470 
#    y -0.021560 2.102050 0.081780 
#    z -0.013470 0.081780 2.062190 
# 
# From -- ./inp_files/604725.got.cif
#   From: 2010.05.17/outbox.cif.g08.bks.cpg/sg2_303_cif.got.tgz:604725.got - 2010.06.03 11:33:40.
