data_PCOD9031583
_publ_section_title
;
Structure prediction by ZEFSAII (Michael W. Deem and Ramdas Pophale) SiO2 
 PCOD9031583
Probable space group: P -1
;
_chemical_formula_sum "Si O2"
_cell_formula_units_Z 14
_cell_length_a 7.654165
_cell_length_b 16.029931
_cell_length_c 11.267731
_cell_angle_alpha 143.423248
_cell_angle_beta 52.901978
_cell_angle_gamma 128.788442
_cell_volume 627.056380
_symmetry_space_group_name_H-M "P -1"
_symmetry_group_IT_number 2
_symmetry_cell_setting 'triclinic'
loop_
_space_group_symop_operation_xyz
x,y,z
-x,-y,-z
loop_
_atom_site_type_symbol
_atom_site_label
_atom_site_fract_x
_atom_site_fract_y
_atom_site_fract_z
Si Si1 0.134291 0.204419 0.569373
Si Si2 0.586730 0.524417 0.126283
Si Si3 0.580482 0.801122 0.152586
Si Si4 0.419955 0.328162 0.366685
Si Si5 0.349890 0.025540 0.439868
Si Si6 0.776236 0.361122 0.444577
Si Si7 0.921856 0.831596 0.869773
O O1 0.180759 0.344426 0.798142
O O2 0.219701 0.272682 0.484552
O O3 0.880299 0.095216 0.555651
O O4 0.289777 0.104629 0.439676
O O5 0.402560 0.581612 0.340626
O O6 0.500000 0.500000 0.000000
O O7 0.583744 0.363386 0.986529
O O8 0.521729 0.929317 0.248980
O O9 0.572880 0.852029 0.349426
O O10 0.833721 0.802874 0.008849
O O11 0.500000 0.500000 0.500000
O O12 0.643483 0.304572 0.311178
O O13 0.303418 0.246987 0.204517
O O14 0.000000 0.500000 0.500000
O O15 0.874578 0.238135 0.318695
O O16 0.000000 0.000000 0.000000
#
# Coordination Sequence:
#
# PCOD9031583 Si02
#       7
#     2   2   2   2   2   2   2
#     4  10  22  43  67  94 135 175 217 280 343 394
#     4  11  22  40  68  97 128 174 230 268 332 408
#     4  11  23  43  65  99 131 175 228 273 334 413
#     4  11  23  44  70  99 134 180 230 275 335 418
#     4  10  23  43  66  95 139 173 214 285 343 395
#     4  11  23  46  69  94 139 182 217 287 341 393
#     4  12  26  43  69 104 133 178 231 277 343 407
#
# _framework density 22.326542
#
# number of rings (size 3 to 8) (size 9 to 14) (size 15 to 20)
#    0.000    1.143    4.286    1.714    4.000    2.286 
#    7.714    0.000    0.000    0.000    0.000    0.000 
#    0.000    0.000    0.000    0.000    0.000    0.000 
#
# Total GULP energy -78204.630941 kJ/mol
# GULP energy per Si atom -5586.045067 kJ/mol
# Density = 2.227573 g / cm^3
# Si number density = 22.326542 Si / 1000 Ang^3
#
#
#
# Elastic Constant Matrix: (Units=GPa)
#
#
# Indices 1 2 3 4 5 6 
#
# 1 87.5296 10.0177 38.0785 11.4322 2.1768 3.5218
# 2 10.0177 106.1866 26.0625 33.0107 -1.4966 -5.5291
# 3 38.0785 26.0625 111.6067 28.3691 -5.4603 -2.4920
# 4 11.4322 33.0107 28.3691 47.8415 0.1042 6.4115
# 5 2.1768 -1.4966 -5.4603 0.1042 16.8430 3.3040
# 6 3.5218 -5.5291 -2.4920 6.4115 3.3040 36.3782
#
#
#
# Elastic Compliance Matrix: (Units=1/GPa)
#
#
# Indices 1 2 3 4 5 6 
#
# 1 0.013669 -0.000201 -0.004770 -0.000107 -0.003059 -0.001384
# 2 -0.000201 0.012445 -0.000541 -0.008671 0.000349 0.003370
# 3 -0.004770 -0.000541 0.012541 -0.006193 0.004292 0.001940
# 4 -0.000107 -0.008671 -0.006193 0.031544 -0.001557 -0.007150
# 5 -0.003059 0.000349 0.004292 -0.001557 0.062126 -0.004725
# 6 -0.001384 0.003370 0.001940 -0.007150 -0.004725 0.029957
#
#
# Mechanical properties :
#
#
# Convention : Reuss Voigt Hill
#
# Bulk Modulus (GPa) = 36.19138 50.40447 43.29793
# Shear Modulus (GPa) = 27.39474 35.62350 31.50912
#
# Velocity S-wave (km/s) = 3.50666 3.99879 3.76078
# Velocity P-wave (km/s) = 5.71321 6.62914 6.18814
#
# Compressibility (1/GPa) = 0.02763089
#
# Stress axis : x y z
#
# Youngs Moduli (GPa) = 73.16085 80.35318 79.73645
#
# Poissons Ratio (x) = 0.01612 0.38034
# Poissons Ratio (y) = 0.01467 0.04318
# Poissons Ratio (z) = 0.34897 0.04351
#
# Static dielectric constant tensor:
#      x y z
#    x 1.837450 -0.032400 0.031640 
#    y -0.032400 1.836430 0.000080 
#    z 0.031640 0.000080 1.805900 
# 
# From -- ./inp_files/402421.got.cif
#   From: 2010.05.17/outbox.cif.g08.bks.cpg/sg2_202_cif.got.tgz:402421.got - 2010.06.03 11:33:40.
