data_PCOD9031831
_publ_section_title
;
Structure prediction by ZEFSAII (Michael W. Deem and Ramdas Pophale) SiO2 
 PCOD9031831
Probable space group: P -1
;
_chemical_formula_sum "Si O2"
_cell_formula_units_Z 14
_cell_length_a 9.188124
_cell_length_b 12.976484
_cell_length_c 8.508798
_cell_angle_alpha 124.629822
_cell_angle_beta 133.100987
_cell_angle_gamma 59.512701
_cell_volume 597.422272
_symmetry_space_group_name_H-M "P -1"
_symmetry_group_IT_number 2
_symmetry_cell_setting 'triclinic'
loop_
_space_group_symop_operation_xyz
x,y,z
-x,-y,-z
loop_
_atom_site_type_symbol
_atom_site_label
_atom_site_fract_x
_atom_site_fract_y
_atom_site_fract_z
Si Si1 0.678618 0.246771 0.291906
Si Si2 0.066130 0.086904 0.264403
Si Si3 0.545910 0.482072 0.239110
Si Si4 0.662614 0.868199 0.009420
Si Si5 0.193340 0.618072 0.951879
Si Si6 0.870419 0.138458 0.663173
Si Si7 0.245793 0.285749 0.379353
O O1 0.640467 0.399577 0.385826
O O2 0.460759 0.217019 0.052669
O O3 0.739774 0.191872 0.462326
O O4 0.860332 0.173752 0.255197
O O5 0.204503 0.183413 0.388754
O O6 0.166409 0.988853 0.388479
O O7 0.000000 0.000000 0.000000
O O8 0.659312 0.401585 0.106764
O O9 0.600658 0.621821 0.392697
O O10 0.303786 0.509325 0.058708
O O11 0.690897 0.798058 0.801239
O O12 0.890574 0.883854 0.228852
O O13 0.500000 0.000000 0.000000
O O14 0.967728 0.616957 0.726509
O O15 0.166580 0.753129 0.136449
#
# Coordination Sequence:
#
# PCOD9031831 Si02
#       7
#     2   2   2   2   2   2   2
#     4  12  25  43  69  99 138 178 216 281 332 399
#     4  12  21  44  73  95 132 179 222 279 334 389
#     4  11  24  44  69  99 137 175 232 267 330 403
#     4  11  23  42  66  97 136 174 221 272 336 396
#     4  10  22  43  68  95 133 179 220 277 324 393
#     4  11  24  44  69  99 136 173 224 273 345 390
#     4  11  23  43  71  99 132 178 225 277 329 398
#
# _framework density 23.434009
#
# number of rings (size 3 to 8) (size 9 to 14) (size 15 to 20)
#    0.000    0.857    5.714    1.714    0.000    3.429 
#    2.571    7.143    0.000    0.000    0.000    0.000 
#    0.000    0.000    0.000    0.000    0.000    0.000 
#
# Total GULP energy -78244.107677 kJ/mol
# GULP energy per Si atom -5588.864834 kJ/mol
# Density = 2.338067 g / cm^3
# Si number density = 23.434009 Si / 1000 Ang^3
#
#
#
# Elastic Constant Matrix: (Units=GPa)
#
#
# Indices 1 2 3 4 5 6 
#
# 1 59.6192 34.8534 3.3548 -0.9284 5.9945 -17.4463
# 2 34.8534 146.5891 37.6891 -20.1180 1.4260 6.1830
# 3 3.3548 37.6891 62.6823 -6.7105 -2.9007 4.3212
# 4 -0.9284 -20.1180 -6.7105 41.1279 -9.8265 2.9907
# 5 5.9945 1.4260 -2.9007 -9.8265 40.8141 2.3631
# 6 -17.4463 6.1830 4.3212 2.9907 2.3631 49.9969
#
#
#
# Elastic Compliance Matrix: (Units=1/GPa)
#
#
# Indices 1 2 3 4 5 6 
#
# 1 0.024083 -0.007125 0.001622 -0.004530 -0.004822 0.009644
# 2 -0.007125 0.010655 -0.005167 0.004886 0.001699 -0.003730
# 3 0.001622 -0.005167 0.019202 0.001068 0.001598 -0.000594
# 4 -0.004530 0.004886 0.001068 0.028957 0.007796 -0.004378
# 5 -0.004822 0.001699 0.001598 0.007796 0.027360 -0.003790
# 6 0.009644 -0.003730 -0.000594 -0.004378 -0.003790 0.024320
#
#
# Mechanical properties :
#
#
# Convention : Reuss Voigt Hill
#
# Bulk Modulus (GPa) = 30.67267 46.74281 38.70774
# Shear Modulus (GPa) = 29.97877 39.25402 34.61639
#
# Velocity S-wave (km/s) = 3.58059 4.09722 3.84759
# Velocity P-wave (km/s) = 5.49650 6.50944 6.02430
#
# Compressibility (1/GPa) = 0.03260231
#
# Stress axis : x y z
#
# Youngs Moduli (GPa) = 41.52266 93.84859 52.07661
#
# Poissons Ratio (x) = 0.66864 -0.08447
# Poissons Ratio (y) = 0.29584 0.26907
# Poissons Ratio (z) = -0.06735 0.48489
#
# Static dielectric constant tensor:
#      x y z
#    x 1.906390 0.051450 0.011820 
#    y 0.051450 1.923490 -0.001550 
#    z 0.011820 -0.001550 1.943640 
# 
# From -- ./inp_files/190432.got.cif
#   From: 2010.05.17/outbox.cif.g08.bks.cpg/sg2_96_cif.got.tgz:190432.got - 2010.06.03 11:33:40.
