data_PCOD9031229
_publ_section_title
;
Structure prediction by ZEFSAII (Michael W. Deem and Ramdas Pophale) SiO2 
 PCOD9031229
Probable space group: P -1
;
_chemical_formula_sum "Si O2"
_cell_formula_units_Z 14
_cell_length_a 8.085794
_cell_length_b 9.352976
_cell_length_c 11.905795
_cell_angle_alpha 64.555283
_cell_angle_beta 94.636895
_cell_angle_gamma 49.132965
_cell_volume 521.377281
_symmetry_space_group_name_H-M "P -1"
_symmetry_group_IT_number 2
_symmetry_cell_setting 'triclinic'
loop_
_space_group_symop_operation_xyz
x,y,z
-x,-y,-z
loop_
_atom_site_type_symbol
_atom_site_label
_atom_site_fract_x
_atom_site_fract_y
_atom_site_fract_z
Si Si1 0.709424 0.062007 0.803478
Si Si2 0.502603 0.451805 0.178136
Si Si3 0.137152 0.232076 0.629782
Si Si4 0.319642 0.587440 0.567020
Si Si5 0.000935 0.401783 0.915863
Si Si6 0.805557 0.078813 0.115627
Si Si7 0.666565 0.889726 0.658394
O O1 0.427565 0.337664 0.694150
O O2 0.761475 0.972885 0.705371
O O3 0.917405 0.045113 0.849304
O O4 0.756451 0.887080 0.952827
O O5 0.620820 0.350325 0.342845
O O6 0.242718 0.538808 0.122914
O O7 0.695399 0.244610 0.165650
O O8 0.409550 0.698649 0.057903
O O9 0.000000 0.500000 0.500000
O O10 0.969458 0.229417 0.548544
O O11 0.137463 0.147963 0.781082
O O12 0.437591 0.005852 0.691832
O O13 0.500000 0.500000 0.500000
O O14 0.917122 0.596659 0.757613
O O15 0.000000 0.500000 0.000000
O O16 0.500000 0.000000 0.500000
#
# Coordination Sequence:
#
# PCOD9031229 Si02
#       7
#     2   2   2   2   2   2   2
#     4  10  22  43  65  95 133 174 223 276 336 401
#     4  10  23  42  72  99 131 177 231 282 334 398
#     4  12  25  44  64  95 142 178 219 283 339 402
#     4  12  26  43  65 102 141 179 221 273 343 410
#     4   9  20  40  66  95 128 168 222 277 329 392
#     4  10  22  44  70  96 128 174 236 282 332 400
#     4  11  24  41  67  98 132 178 227 277 336 397
#
# _framework density 26.851956999999999
#
# number of rings (size 3 to 8) (size 9 to 14) (size 15 to 20)
#    0.000    1.429    4.286    0.000    4.000    2.857 
#    2.571    0.714    0.000    0.000    0.000    0.000 
#    0.000    0.000    0.000    0.000    0.000    0.000 
#
# Total GULP energy -78196.034660 kJ/mol
# GULP energy per Si atom -5585.431047 kJ/mol
# Density = 2.679084 g / cm^3
# Si number density = 26.851957 Si / 1000 Ang^3
#
#
#
# Elastic Constant Matrix: (Units=GPa)
#
#
# Indices 1 2 3 4 5 6 
#
# 1 74.5560 12.9870 20.0017 6.3060 17.3085 0.9428
# 2 12.9870 102.1351 40.6313 -11.4078 -10.0360 5.4612
# 3 20.0017 40.6313 179.6634 0.6023 5.0418 13.3579
# 4 6.3060 -11.4078 0.6023 70.7907 7.2550 -3.6181
# 5 17.3085 -10.0360 5.0418 7.2550 41.9258 -6.4969
# 6 0.9428 5.4612 13.3579 -3.6181 -6.4969 33.5072
#
#
#
# Elastic Compliance Matrix: (Units=1/GPa)
#
#
# Indices 1 2 3 4 5 6 
#
# 1 0.015807 -0.002387 -0.000935 -0.001130 -0.006969 -0.001156
# 2 -0.002387 0.011644 -0.002486 0.001726 0.003785 0.000081
# 3 -0.000935 -0.002486 0.006451 -0.000363 -0.001299 -0.002431
# 4 -0.001130 0.001726 -0.000363 0.014717 -0.001436 0.001206
# 5 -0.006969 0.003785 -0.001299 -0.001436 0.028899 0.005545
# 6 -0.001156 0.000081 -0.002431 0.001206 0.005545 0.032038
#
#
# Mechanical properties :
#
#
# Convention : Reuss Voigt Hill
#
# Bulk Modulus (GPa) = 44.86963 55.95495 50.41229
# Shear Modulus (GPa) = 38.88048 48.09369 43.48709
#
# Velocity S-wave (km/s) = 3.80933 4.23669 4.02868
# Velocity P-wave (km/s) = 6.00785 6.69450 6.36045
#
# Compressibility (1/GPa) = 0.02228679
#
# Stress axis : x y z
#
# Youngs Moduli (GPa) = 63.26202 85.88290 155.02588
#
# Poissons Ratio (x) = 0.20503 0.14489
# Poissons Ratio (y) = 0.15102 0.38532
# Poissons Ratio (z) = 0.05912 0.21346
#
# Static dielectric constant tensor:
#      x y z
#    x 2.135790 0.095200 -0.125110 
#    y 0.095200 2.299540 0.047950 
#    z -0.125110 0.047950 2.151080 
# 
# From -- ./inp_files/183318.got.cif
#   From: 2010.05.17/outbox.cif.g08.bks.cpg/sg2_92_cif.got.tgz:183318.got - 2010.06.03 11:33:40.
