data_PCOD9031522
_publ_section_title
;
Structure prediction by ZEFSAII (Michael W. Deem and Ramdas Pophale) SiO2 
 PCOD9031522
Probable space group: P -1
;
_chemical_formula_sum "Si O2"
_cell_formula_units_Z 16
_cell_length_a 12.780397
_cell_length_b 14.804315
_cell_length_c 9.511618
_cell_angle_alpha 37.315633
_cell_angle_beta 37.365773
_cell_angle_gamma 39.123963
_cell_volume 609.516073
_symmetry_space_group_name_H-M "P -1"
_symmetry_group_IT_number 2
_symmetry_cell_setting 'triclinic'
loop_
_space_group_symop_operation_xyz
x,y,z
-x,-y,-z
loop_
_atom_site_type_symbol
_atom_site_label
_atom_site_fract_x
_atom_site_fract_y
_atom_site_fract_z
Si Si1 0.307890 0.679468 0.439213
Si Si2 0.104247 0.140698 0.484620
Si Si3 0.155185 0.271641 0.818376
Si Si4 0.279090 0.049513 0.696419
Si Si5 0.219844 0.375165 0.904091
Si Si6 0.763261 0.490300 0.736445
Si Si7 0.417161 0.697106 0.012556
Si Si8 0.806750 0.218827 0.268084
O O1 0.320186 0.497834 0.667473
O O2 0.317298 0.744789 0.503943
O O3 0.104101 0.776472 0.460136
O O4 0.442789 0.694553 0.154460
O O5 0.136626 0.154840 0.599406
O O6 0.173936 0.951173 0.605778
O O7 0.229752 0.228348 0.174064
O O8 0.233876 0.130648 0.795673
O O9 0.270453 0.298404 0.790049
O O10 0.100932 0.438284 0.579391
O O11 0.996311 0.227395 0.117424
O O12 0.500000 0.000000 0.500000
O O13 0.269532 0.874621 0.915158
O O14 0.000000 0.500000 0.000000
O O15 0.609848 0.647336 0.782511
O O16 0.665068 0.433264 0.785238
O O17 0.782209 0.350355 0.006051
#
# Coordination Sequence:
#
# PCOD9031522 Si02
#       8
#     2   2   2   2   2   2   2   2
#     4  11  24  42  75  99 140 180 228 284 343 414
#     4  11  25  45  68 102 141 176 229 288 343 413
#     4  12  24  42  73 103 139 178 235 285 347 407
#     4  12  27  46  70  99 140 186 233 287 349 409
#     4  10  22  43  67 104 141 174 223 286 341 409
#     4  11  25  43  70  98 141 186 229 288 336 411
#     4  11  24  47  67  97 142 184 232 283 343 406
#     4  12  25  42  71 107 137 181 231 281 352 408
#
# _framework density 26.250333000000001
#
# number of rings (size 3 to 8) (size 9 to 14) (size 15 to 20)
#    0.000    0.750    6.250    1.500    5.250    1.500 
#    0.000    0.625    0.000    0.000    0.000    0.000 
#    0.000    0.000    0.000    0.000    0.000    0.000 
#
# Total GULP energy -89422.225262 kJ/mol
# GULP energy per Si atom -5588.889079 kJ/mol
# Density = 2.619059 g / cm^3
# Si number density = 26.250333 Si / 1000 Ang^3
#
#
#
# Elastic Constant Matrix: (Units=GPa)
#
#
# Indices 1 2 3 4 5 6 
#
# 1 90.8251 43.4682 28.2024 7.3679 13.4218 15.2575
# 2 43.4682 120.1544 36.9212 -12.2457 17.1726 30.0693
# 3 28.2024 36.9212 130.2524 -13.8363 16.8018 11.6369
# 4 7.3679 -12.2457 -13.8363 43.7889 10.4152 7.6807
# 5 13.4218 17.1726 16.8018 10.4152 46.3110 -5.6983
# 6 15.2575 30.0693 11.6369 7.6807 -5.6983 35.6642
#
#
#
# Elastic Compliance Matrix: (Units=1/GPa)
#
#
# Indices 1 2 3 4 5 6 
#
# 1 0.014490 -0.004670 -0.002041 -0.004013 -0.000933 -0.000881
# 2 -0.004670 0.016044 -0.000010 0.009978 -0.008689 -0.015063
# 3 -0.002041 -0.000010 0.009631 0.005192 -0.004572 -0.004110
# 4 -0.004013 0.009978 0.005192 0.034555 -0.014424 -0.018137
# 5 -0.000933 -0.008689 -0.004572 -0.014424 0.032136 0.017458
# 6 -0.000881 -0.015063 -0.004110 -0.018137 0.017458 0.049152
#
#
# Mechanical properties :
#
#
# Convention : Reuss Voigt Hill
#
# Bulk Modulus (GPa) = 37.42165 62.04618 49.73391
# Shear Modulus (GPa) = 28.03357 40.66216 34.34787
#
# Velocity S-wave (km/s) = 3.27147 3.94002 3.62121
# Velocity P-wave (km/s) = 5.34384 6.66228 6.03915
#
# Compressibility (1/GPa) = 0.02672250
#
# Stress axis : x y z
#
# Youngs Moduli (GPa) = 69.01123 62.33006 103.83613
#
# Poissons Ratio (x) = 0.29110 0.21191
# Poissons Ratio (y) = 0.32230 0.00103
# Poissons Ratio (z) = 0.14084 0.00062
#
# Static dielectric constant tensor:
#      x y z
#    x 2.144530 -0.128000 0.007970 
#    y -0.128000 2.064400 0.033380 
#    z 0.007970 0.033380 2.080860 
# 
# From -- ./inp_files/314466.got.cif
#   From: 2010.05.17/outbox.cif.g08.bks.cpg/sg2_158_cif.got.tgz:314466.got - 2010.06.03 11:33:40.
