data_PCOD9031801
_publ_section_title
;
Structure prediction by ZEFSAII (Michael W. Deem and Ramdas Pophale) SiO2 
 PCOD9031801
Probable space group: P -1
;
_chemical_formula_sum "Si O2"
_cell_formula_units_Z 16
_cell_length_a 9.433260
_cell_length_b 22.783535
_cell_length_c 20.166851
_cell_angle_alpha 157.378449
_cell_angle_beta 29.737014
_cell_angle_gamma 136.765813
_cell_volume 764.113651
_symmetry_space_group_name_H-M "P -1"
_symmetry_group_IT_number 2
_symmetry_cell_setting 'triclinic'
loop_
_space_group_symop_operation_xyz
x,y,z
-x,-y,-z
loop_
_atom_site_type_symbol
_atom_site_label
_atom_site_fract_x
_atom_site_fract_y
_atom_site_fract_z
Si Si1 0.760485 0.565343 0.486961
Si Si2 0.367494 0.439170 0.781470
Si Si3 0.352775 0.985227 0.340383
Si Si4 0.194508 0.382292 0.237640
Si Si5 0.316809 0.214457 0.472395
Si Si6 0.171985 0.644472 0.288035
Si Si7 0.671534 0.155892 0.465861
Si Si8 0.651654 0.931562 0.937765
O O1 0.500000 0.500000 0.500000
O O2 0.642177 0.749601 0.760319
O O3 0.969312 0.435201 0.320401
O O4 0.956592 0.593760 0.374536
O O5 0.513137 0.574169 0.857540
O O6 0.466235 0.341023 0.568591
O O7 0.504592 0.327511 0.673608
O O8 0.000000 0.500000 0.000000
O O9 0.319435 0.125554 0.447100
O O10 0.471080 0.045086 0.421935
O O11 0.628966 0.814376 0.027732
O O12 0.000000 0.000000 0.500000
O O13 0.000000 0.500000 0.500000
O O14 0.994564 0.315459 0.673018
O O15 0.482291 0.068554 0.202692
O O16 0.236047 0.800112 0.453881
O O17 0.500000 0.500000 0.000000
O O18 0.998494 0.079147 0.215965
O O19 0.500000 0.000000 0.000000
#
# Coordination Sequence:
#
# PCOD9031801 Si02
#       8
#     2   2   2   2   2   2   2   2
#     4  11  26  45  67 100 138 171 217 293 338 381
#     4  11  23  43  70  94 133 178 225 276 328 404
#     4  11  27  44  66  98 143 177 219 280 343 397
#     4  12  26  43  67 102 138 173 226 278 343 401
#     4  11  24  41  72  95 130 178 228 265 332 404
#     4  11  23  43  72  99 127 179 234 269 328 409
#     4  10  22  43  68  93 129 176 218 274 327 393
#     4  11  21  42  67  99 131 167 226 272 328 399
#
# _framework density 20.939292999999999
#
# number of rings (size 3 to 8) (size 9 to 14) (size 15 to 20)
#    0.000    1.000    5.000    3.000    7.000    1.000 
#    2.250    0.625    0.000    0.000    0.000    0.000 
#    0.000    0.000    0.000    0.000    0.000    0.000 
#
# Total GULP energy -89238.764206 kJ/mol
# GULP energy per Si atom -5577.422763 kJ/mol
# Density = 2.089163 g / cm^3
# Si number density = 20.939293 Si / 1000 Ang^3
#
#
#
# Elastic Constant Matrix: (Units=GPa)
#
#
# Indices 1 2 3 4 5 6 
#
# 1 108.6309 24.0942 12.4325 5.7107 -12.5710 19.3889
# 2 24.0942 66.8462 15.8773 -5.2133 -4.2413 32.8909
# 3 12.4325 15.8773 95.2099 -1.0750 -12.8849 7.2529
# 4 5.7107 -5.2133 -1.0750 24.4732 1.7233 -4.2642
# 5 -12.5710 -4.2413 -12.8849 1.7233 47.2487 4.8983
# 6 19.3889 32.8909 7.2529 -4.2642 4.8983 35.5949
#
#
#
# Elastic Compliance Matrix: (Units=1/GPa)
#
#
# Indices 1 2 3 4 5 6 
#
# 1 0.011191 -0.001091 -0.000390 -0.004155 0.003546 -0.005994
# 2 -0.001091 0.029269 -0.002104 0.001473 0.004453 -0.026459
# 3 -0.000390 -0.002104 0.011334 -0.000160 0.002863 -0.000566
# 4 -0.004155 0.001473 -0.000160 0.043519 -0.003288 0.006600
# 5 0.003546 0.004453 0.002863 -0.003288 0.024486 -0.010393
# 6 -0.005994 -0.026459 -0.000566 0.006600 -0.010393 0.058144
#
#
# Mechanical properties :
#
#
# Convention : Reuss Voigt Hill
#
# Bulk Modulus (GPa) = 22.40926 41.72167 32.06546
# Shear Modulus (GPa) = 25.00197 36.01557 30.50877
#
# Velocity S-wave (km/s) = 3.45921 4.15179 3.82122
# Velocity P-wave (km/s) = 5.16528 6.55373 5.90049
#
# Compressibility (1/GPa) = 0.04462441
#
# Stress axis : x y z
#
# Youngs Moduli (GPa) = 89.36033 34.16640 88.23359
#
# Poissons Ratio (x) = 0.03727 0.03439
# Poissons Ratio (y) = 0.09747 0.18561
# Poissons Ratio (z) = 0.03483 0.07187
#
# Static dielectric constant tensor:
#      x y z
#    x 1.808300 0.086490 0.029350 
#    y 0.086490 1.793920 0.022940 
#    z 0.029350 0.022940 1.828740 
# 
# From -- ./inp_files/227508.got.cif
#   From: 2010.05.17/outbox.cif.g08.bks.cpg/sg2_114_cif.got.tgz:227508.got - 2010.06.03 11:33:40.
