data_PCOD9031820
_publ_section_title
;
Structure prediction by ZEFSAII (Michael W. Deem and Ramdas Pophale) SiO2 
 PCOD9031820
Probable space group: P -1
;
_chemical_formula_sum "Si O2"
_cell_formula_units_Z 15
_cell_length_a 17.953006
_cell_length_b 7.259506
_cell_length_c 21.975321
_cell_angle_alpha 118.704060
_cell_angle_beta 17.071263
_cell_angle_gamma 126.718351
_cell_volume 621.208912
_symmetry_space_group_name_H-M "P -1"
_symmetry_group_IT_number 2
_symmetry_cell_setting 'triclinic'
loop_
_space_group_symop_operation_xyz
x,y,z
-x,-y,-z
loop_
_atom_site_type_symbol
_atom_site_label
_atom_site_fract_x
_atom_site_fract_y
_atom_site_fract_z
Si Si1 0.665173 0.750321 0.370525
Si Si2 0.000000 0.500000 0.500000
Si Si3 0.678685 0.476685 0.082841
Si Si4 0.216912 0.727392 0.910646
Si Si5 0.724405 0.833837 0.763961
Si Si6 0.260675 0.741604 0.590564
Si Si7 0.626778 0.247766 0.666706
Si Si8 0.854720 0.370680 0.742681
O O1 0.500000 0.500000 0.500000
O O2 0.521944 0.710034 0.408352
O O3 0.636147 0.972992 0.454311
O O4 0.009153 0.830515 0.110195
O O5 0.951851 0.745033 0.573557
O O6 0.619843 0.294546 0.750745
O O7 0.685861 0.366112 0.123363
O O8 0.478348 0.273121 0.155709
O O9 0.549448 0.653232 0.215698
O O10 0.015912 0.637655 0.819423
O O11 0.514853 0.972470 0.691018
O O12 0.000000 0.500000 0.000000
O O13 0.877346 0.130551 0.690881
O O14 0.484899 0.723456 0.989626
O O15 0.078516 0.575366 0.649110
O O16 0.991480 0.474371 0.415313
#
# Coordination Sequence:
#
# PCOD9031820 Si02
#       8
#     2   1   2   2   2   2   2   2
#     4  11  23  42  66  95 129 182 231 279 340 403
#     4  10  24  44  72 100 134 176 232 274 344 422
#     4  10  22  45  66  94 138 180 215 283 344 407
#     4  12  28  42  65 101 135 179 232 280 337 411
#     4   9  22  46  72 102 134 181 225 281 354 401
#     4  10  22  43  68  94 135 176 228 279 343 402
#     4  11  26  42  65 101 136 180 222 283 341 405
#     4  10  23  43  69 102 138 176 224 287 340 406
#
# _framework density 24.146467999999999
#
# number of rings (size 3 to 8) (size 9 to 14) (size 15 to 20)
#    0.000    1.600    2.667    0.000    7.467    2.133 
#    0.000    0.000    0.000    0.000    0.000    0.000 
#    0.000    0.000    0.000    0.000    0.000    0.000 
#
# Total GULP energy -83743.005520 kJ/mol
# GULP energy per Si atom -5582.867035 kJ/mol
# Density = 2.409151 g / cm^3
# Si number density = 24.146468 Si / 1000 Ang^3
#
#
#
# Elastic Constant Matrix: (Units=GPa)
#
#
# Indices 1 2 3 4 5 6 
#
# 1 114.0111 68.5324 33.2457 -7.3875 -10.5333 -18.5731
# 2 68.5324 170.1639 47.6252 -25.7485 -7.4351 -16.9474
# 3 33.2457 47.6252 81.7929 -11.3181 1.9702 -14.1106
# 4 -7.3875 -25.7485 -11.3181 47.6164 -1.9400 -15.4637
# 5 -10.5333 -7.4351 1.9702 -1.9400 39.1038 5.7801
# 6 -18.5731 -16.9474 -14.1106 -15.4637 5.7801 37.0795
#
#
#
# Elastic Compliance Matrix: (Units=1/GPa)
#
#
# Indices 1 2 3 4 5 6 
#
# 1 0.012593 -0.003918 -0.002200 0.000561 0.002259 0.003562
# 2 -0.003918 0.009259 -0.002587 0.004853 0.000601 0.003215
# 3 -0.002200 -0.002587 0.016264 0.003955 -0.002588 0.005958
# 4 0.000561 0.004853 0.003955 0.030019 -0.000080 0.016536
# 5 0.002259 0.000601 -0.002588 -0.000080 0.026987 -0.003819
# 6 0.003562 0.003215 0.005958 0.016536 -0.003819 0.039982
#
#
# Mechanical properties :
#
#
# Convention : Reuss Voigt Hill
#
# Bulk Modulus (GPa) = 48.29304 73.86385 61.07844
# Shear Modulus (GPa) = 31.36456 39.19757 35.28106
#
# Velocity S-wave (km/s) = 3.60798 4.03342 3.82662
# Velocity P-wave (km/s) = 6.11556 7.23517 6.69880
#
# Compressibility (1/GPa) = 0.02070692
#
# Stress axis : x y z
#
# Youngs Moduli (GPa) = 79.41082 107.99770 61.48545
#
# Poissons Ratio (x) = 0.42310 0.13525
# Poissons Ratio (y) = 0.31110 0.15909
# Poissons Ratio (z) = 0.17468 0.27943
#
# Static dielectric constant tensor:
#      x y z
#    x 2.099250 0.033110 0.092610 
#    y 0.033110 1.923490 -0.063320 
#    z 0.092610 -0.063320 2.035170 
# 
# From -- ./inp_files/140900.got.cif
#   From: 2010.05.17/outbox.cif.g08.bks.cpg/sg2_71_cif.got.tgz:140900.got - 2010.06.03 11:33:40.
