data_PCOD9031219
_publ_section_title
;
Structure prediction by ZEFSAII (Michael W. Deem and Ramdas Pophale) SiO2 
 PCOD9031219
Probable space group: P -1
;
_chemical_formula_sum "Si O2"
_cell_formula_units_Z 16
_cell_length_a 15.079169
_cell_length_b 8.514159
_cell_length_c 8.995853
_cell_angle_alpha 112.149982
_cell_angle_beta 141.373765
_cell_angle_gamma 75.059103
_cell_volume 666.404683
_symmetry_space_group_name_H-M "P -1"
_symmetry_group_IT_number 2
_symmetry_cell_setting 'triclinic'
loop_
_space_group_symop_operation_xyz
x,y,z
-x,-y,-z
loop_
_atom_site_type_symbol
_atom_site_label
_atom_site_fract_x
_atom_site_fract_y
_atom_site_fract_z
Si Si1 0.622390 0.803669 0.012448
Si Si2 0.891100 0.991170 0.489776
Si Si3 0.051780 0.335682 0.346355
Si Si4 0.951815 0.744427 0.035851
Si Si5 0.598047 0.179459 0.503192
Si Si6 0.362515 0.381398 0.742819
Si Si7 0.327628 0.136258 0.349266
Si Si8 0.206118 0.495004 0.022934
O O1 0.468280 0.814711 0.744314
O O2 0.734619 0.963402 0.205046
O O3 0.616540 0.768241 0.166428
O O4 0.700351 0.647247 0.979757
O O5 0.927474 0.826568 0.578942
O O6 0.000000 0.000000 0.500000
O O7 0.912698 0.161065 0.676690
O O8 0.033330 0.275434 0.127999
O O9 0.204651 0.442529 0.586907
O O10 0.911362 0.438023 0.220611
O O11 0.822919 0.868413 0.929410
O O12 0.887699 0.583795 0.989521
O O13 0.454814 0.144130 0.402265
O O14 0.681639 0.018581 0.602834
O O15 0.687108 0.350944 0.727013
O O16 0.355545 0.307875 0.542219
O O17 0.500000 0.500000 0.000000
#
# Coordination Sequence:
#
# PCOD9031219 Si02
#       8
#     2   2   2   2   2   2   2   2
#     4  11  24  40  64  96 130 172 209 268 328 376
#     4  11  21  42  63  89 131 165 209 268 324 383
#     4  10  25  41  66  97 124 173 222 257 325 388
#     4  11  22  43  67  90 130 170 216 274 320 377
#     4  11  23  40  68  93 127 170 226 265 313 384
#     4  10  23  43  66  93 135 166 204 268 331 382
#     4  10  22  43  65  95 122 176 223 259 320 384
#     4  12  23  40  67  97 130 169 225 266 318 383
#
# _framework density 24.009436000000001
#
# number of rings (size 3 to 8) (size 9 to 14) (size 15 to 20)
#    0.000    1.250    2.500    2.625    3.500    5.500 
#    2.250    1.250    0.000    0.000    0.000    0.000 
#    0.000    0.000    0.000    0.000    0.000    0.000 
#
# Total GULP energy -89468.532988 kJ/mol
# GULP energy per Si atom -5591.783312 kJ/mol
# Density = 2.395479 g / cm^3
# Si number density = 24.009436 Si / 1000 Ang^3
#
#
#
# Elastic Constant Matrix: (Units=GPa)
#
#
# Indices 1 2 3 4 5 6 
#
# 1 48.1501 4.9576 -5.1601 4.6108 -10.4804 8.3687
# 2 4.9576 71.9273 32.2252 -3.4722 8.7035 6.2519
# 3 -5.1601 32.2252 161.9544 12.9415 16.2720 2.5176
# 4 4.6108 -3.4722 12.9415 45.8385 9.2409 1.8370
# 5 -10.4804 8.7035 16.2720 9.2409 36.5836 -0.6769
# 6 8.3687 6.2519 2.5176 1.8370 -0.6769 23.0142
#
#
#
# Elastic Compliance Matrix: (Units=1/GPa)
#
#
# Indices 1 2 3 4 5 6 
#
# 1 0.024698 -0.002657 0.000954 -0.004301 0.008226 -0.007778
# 2 -0.002657 0.016483 -0.003158 0.003397 -0.004202 -0.003561
# 3 0.000954 -0.003158 0.007163 -0.002018 -0.001655 -0.000160
# 4 -0.004301 0.003397 -0.002018 0.024617 -0.007386 -0.001320
# 5 0.008226 -0.004202 -0.001655 -0.007386 0.033291 -0.000100
# 6 -0.007778 -0.003561 -0.000160 -0.001320 -0.000100 0.047367
#
#
# Mechanical properties :
#
#
# Convention : Reuss Voigt Hill
#
# Bulk Modulus (GPa) = 25.89174 38.45303 32.17239
# Shear Modulus (GPa) = 28.37419 37.75453 33.06436
#
# Velocity S-wave (km/s) = 3.44145 3.96976 3.71501
# Velocity P-wave (km/s) = 5.15741 6.08790 5.64187
#
# Compressibility (1/GPa) = 0.03862235
#
# Stress axis : x y z
#
# Youngs Moduli (GPa) = 40.48844 60.66868 139.59893
#
# Poissons Ratio (x) = 0.16117 -0.13313
# Poissons Ratio (y) = 0.10756 0.44090
# Poissons Ratio (z) = -0.03861 0.19161
#
# Static dielectric constant tensor:
#      x y z
#    x 1.970260 -0.034170 0.019200 
#    y -0.034170 1.991640 -0.005220 
#    z 0.019200 -0.005220 1.924410 
# 
# From -- ./inp_files/298791.got.cif
#   From: 2010.05.17/outbox.cif.g08.bks.cpg/sg2_150_cif.got.tgz:298791.got - 2010.06.03 11:33:40.
