data_PCOD9031108
_publ_section_title
;
Structure prediction by ZEFSAII (Michael W. Deem and Ramdas Pophale) SiO2 
 PCOD9031108
Probable space group: P -1
;
_chemical_formula_sum "Si O2"
_cell_formula_units_Z 16
_cell_length_a 23.702090
_cell_length_b 14.929728
_cell_length_c 9.494705
_cell_angle_alpha 128.609363
_cell_angle_beta 148.055477
_cell_angle_gamma 28.819135
_cell_volume 757.128039
_symmetry_space_group_name_H-M "P -1"
_symmetry_group_IT_number 2
_symmetry_cell_setting 'triclinic'
loop_
_space_group_symop_operation_xyz
x,y,z
-x,-y,-z
loop_
_atom_site_type_symbol
_atom_site_label
_atom_site_fract_x
_atom_site_fract_y
_atom_site_fract_z
Si Si1 0.526955 0.097941 0.222420
Si Si2 0.907279 0.763081 0.883972
Si Si3 0.015333 0.923818 0.306299
Si Si4 0.437775 0.396430 0.158268
Si Si5 0.720438 0.723575 0.852304
Si Si6 0.410103 0.678849 0.884828
Si Si7 0.807896 0.193437 0.872798
Si Si8 0.638878 0.019116 0.833917
O O1 0.465998 0.243091 0.117503
O O2 0.382845 0.232597 0.184017
O O3 0.746912 0.918931 0.572290
O O4 0.500000 0.000000 0.000000
O O5 0.779297 0.855371 0.842582
O O6 0.016233 0.785486 0.168846
O O7 0.064989 0.522549 0.951069
O O8 0.211563 0.797723 0.528998
O O9 0.000000 0.000000 0.500000
O O10 0.838254 0.119318 0.022267
O O11 0.446312 0.413911 0.027783
O O12 0.625617 0.293181 0.516999
O O13 0.247916 0.623651 0.049214
O O14 0.701900 0.878997 0.957814
O O15 0.583106 0.806598 0.512916
O O16 0.500000 0.500000 0.000000
O O17 0.348535 0.855683 0.996604
O O18 0.000000 0.000000 0.000000
#
# Coordination Sequence:
#
# PCOD9031108 Si02
#       8
#     2   2   2   2   2   2   2   2
#     4  11  25  45  65  95 133 176 229 280 329 398
#     4  11  23  41  70  94 134 174 226 277 337 405
#     4  12  23  41  66 101 136 174 223 278 335 408
#     4  11  25  42  68  93 136 177 223 277 341 402
#     4  10  23  42  69  95 129 180 223 278 340 392
#     4  12  24  41  67 100 137 175 222 282 342 406
#     4  11  24  43  65  97 133 178 222 275 342 406
#     4  10  22  43  64  97 138 168 221 282 337 395
#
# _framework density 21.132490000000001
#
# number of rings (size 3 to 8) (size 9 to 14) (size 15 to 20)
#    0.000    1.000    3.750    2.625    1.750    1.500 
#    2.250    0.000    0.000    0.000    0.000    0.000 
#    0.000    0.000    0.000    0.000    0.000    0.000 
#
# Total GULP energy -89376.306217 kJ/mol
# GULP energy per Si atom -5586.019139 kJ/mol
# Density = 2.108439 g / cm^3
# Si number density = 21.132490 Si / 1000 Ang^3
#
#
#
# Elastic Constant Matrix: (Units=GPa)
#
#
# Indices 1 2 3 4 5 6 
#
# 1 107.5657 67.2208 18.6544 -1.7996 -6.9040 17.7206
# 2 67.2208 158.7668 34.3653 -9.4618 2.0928 11.1113
# 3 18.6544 34.3653 45.4655 7.0706 -1.6711 0.5433
# 4 -1.7996 -9.4618 7.0706 32.4434 3.3926 9.3151
# 5 -6.9040 2.0928 -1.6711 3.3926 32.9286 -0.2219
# 6 17.7206 11.1113 0.5433 9.3151 -0.2219 44.9904
#
#
#
# Elastic Compliance Matrix: (Units=1/GPa)
#
#
# Indices 1 2 3 4 5 6 
#
# 1 0.013701 -0.005165 -0.001633 0.000494 0.003039 -0.004188
# 2 -0.005165 0.010316 -0.006506 0.004825 -0.002576 -0.001447
# 3 -0.001633 -0.006506 0.029144 -0.009737 0.002580 0.003927
# 4 0.000494 0.004825 -0.009737 0.037460 -0.004618 -0.009047
# 5 0.003039 -0.002576 0.002580 -0.004618 0.031780 0.000521
# 6 -0.004188 -0.001447 0.003927 -0.009047 0.000521 0.026062
#
#
# Mechanical properties :
#
#
# Convention : Reuss Voigt Hill
#
# Bulk Modulus (GPa) = 37.65894 61.36434 49.51164
# Shear Modulus (GPa) = 27.18536 34.84297 31.01416
#
# Velocity S-wave (km/s) = 3.59057 4.06493 3.83509
# Velocity P-wave (km/s) = 5.92019 7.15070 6.56434
#
# Compressibility (1/GPa) = 0.02655412
#
# Stress axis : x y z
#
# Youngs Moduli (GPa) = 72.98827 96.93350 34.31186
#
# Poissons Ratio (x) = 0.50066 0.05602
# Poissons Ratio (y) = 0.37698 0.22324
# Poissons Ratio (z) = 0.11916 0.63067
#
# Static dielectric constant tensor:
#      x y z
#    x 1.773540 0.000120 -0.025010 
#    y 0.000120 1.782760 0.000670 
#    z -0.025010 0.000670 1.763140 
# 
# From -- ./inp_files/354607.got.cif
#   From: 2010.05.17/outbox.cif.g08.bks.cpg/sg2_178_cif.got.tgz:354607.got - 2010.06.03 11:33:40.
