data_PCOD9031984
_publ_section_title
;
Structure prediction by ZEFSAII (Michael W. Deem and Ramdas Pophale) SiO2 
 PCOD9031984
Probable space group: P -1
;
_chemical_formula_sum "Si O2"
_cell_formula_units_Z 12
_cell_length_a 4.785212
_cell_length_b 9.741077
_cell_length_c 11.447113
_cell_angle_alpha 90.547118
_cell_angle_beta 89.663805
_cell_angle_gamma 112.942801
_cell_volume 491.352323
_symmetry_space_group_name_H-M "P -1"
_symmetry_group_IT_number 2
_symmetry_cell_setting 'triclinic'
loop_
_space_group_symop_operation_xyz
x,y,z
-x,-y,-z
loop_
_atom_site_type_symbol
_atom_site_label
_atom_site_fract_x
_atom_site_fract_y
_atom_site_fract_z
Si Si1 0.699662 0.514644 0.712926
Si Si2 0.632305 0.311030 0.361693
Si Si3 0.227310 0.841290 0.014580
Si Si4 0.254787 0.127594 0.572764
Si Si5 0.780786 0.204934 0.716619
Si Si6 0.378100 0.277168 0.119233
O O1 0.461003 0.085361 0.665787
O O2 0.729364 0.358834 0.711115
O O3 0.639027 0.566097 0.842587
O O4 0.014235 0.638058 0.664008
O O5 0.501129 0.225103 0.478575
O O6 0.559897 0.460512 0.361113
O O7 0.449300 0.224992 0.246120
O O8 0.154304 0.819494 0.150491
O O9 0.355099 0.720806 0.965325
O O10 0.936964 0.824568 0.938512
O O11 0.500000 0.000000 0.000000
O O12 0.060622 0.204811 0.640736
O O13 0.000000 0.000000 0.500000
#
# Coordination Sequence:
#
# PCOD9031984 Si02
#       6
#     2   2   2   2   2   2
#     4  10  22  43  69 102 132 167 225 267 329 402
#     4  10  22  43  71  95 129 180 213 263 339 384
#     4  12  26  42  69  94 140 173 218 274 316 405
#     4  12  28  45  69  95 139 174 218 278 322 401
#     4  12  28  43  66 107 127 174 226 272 330 380
#     4  10  22  44  67  98 126 182 211 265 338 379
#
# _framework density 24.422395999999999
#
# number of rings (size 3 to 8) (size 9 to 14) (size 15 to 20)
#    1.000    0.000    1.667    4.000    4.667    5.333 
#    0.000    0.000    0.000    0.000    0.000    0.000 
#    0.000    0.000    0.000    0.000    0.000    0.000 
#
# Total GULP energy -67137.438071 kJ/mol
# GULP energy per Si atom -5594.786506 kJ/mol
# Density = 2.436681 g / cm^3
# Si number density = 24.422396 Si / 1000 Ang^3
#
#
#
# Elastic Constant Matrix: (Units=GPa)
#
#
# Indices 1 2 3 4 5 6 
#
# 1 128.2047 8.8725 33.8195 10.5416 -19.4380 14.9702
# 2 8.8725 42.4889 33.8206 4.0719 -9.3294 -1.6602
# 3 33.8195 33.8206 155.9122 11.0900 -13.3951 1.1412
# 4 10.5416 4.0719 11.0900 17.9188 3.2076 4.0142
# 5 -19.4380 -9.3294 -13.3951 3.2076 42.9790 8.0100
# 6 14.9702 -1.6602 1.1412 4.0142 8.0100 30.0750
#
#
#
# Elastic Compliance Matrix: (Units=1/GPa)
#
#
# Indices 1 2 3 4 5 6 
#
# 1 0.010077 0.000513 -0.001420 -0.004883 0.005670 -0.005792
# 2 0.000513 0.029607 -0.005784 -0.004545 0.005034 0.000864
# 3 -0.001420 -0.005784 0.008276 -0.003188 0.000870 0.000267
# 4 -0.004883 -0.004545 -0.003188 0.064066 -0.008213 -0.004063
# 5 0.005670 0.005034 0.000870 -0.008213 0.029551 -0.009352
# 6 -0.005792 0.000864 0.000267 -0.004063 -0.009352 0.039204
#
#
# Mechanical properties :
#
#
# Convention : Reuss Voigt Hill
#
# Bulk Modulus (GPa) = 28.92096 53.29234 41.10665
# Shear Modulus (GPa) = 24.30847 34.86744 29.58795
#
# Velocity S-wave (km/s) = 3.15832 3.78257 3.48445
# Velocity P-wave (km/s) = 5.01674 6.39887 5.74949
#
# Compressibility (1/GPa) = 0.03457700
#
# Stress axis : x y z
#
# Youngs Moduli (GPa) = 99.23943 33.77540 120.82931
#
# Poissons Ratio (x) = -0.01732 0.17160
# Poissons Ratio (y) = -0.05089 0.69891
# Poissons Ratio (z) = 0.14094 0.19537
#
# Static dielectric constant tensor:
#      x y z
#    x 1.904730 -0.038270 0.010500 
#    y -0.038270 2.002250 0.068220 
#    z 0.010500 0.068220 1.958820 
# 
# From -- ./inp_files/365013.got.cif
#   From: 2010.05.17/outbox.cif.g08.bks.cpg/sg2_183_cif.got.tgz:365013.got - 2010.06.03 11:33:40.
