data_PCOD9031188
_publ_section_title
;
Structure prediction by ZEFSAII (Michael W. Deem and Ramdas Pophale) SiO2 
 PCOD9031188
Probable space group: P -1
;
_chemical_formula_sum "Si O2"
_cell_formula_units_Z 13
_cell_length_a 20.579350
_cell_length_b 15.673489
_cell_length_c 10.225045
_cell_angle_alpha 137.641732
_cell_angle_beta 36.931774
_cell_angle_gamma 163.722214
_cell_volume 547.527335
_symmetry_space_group_name_H-M "P -1"
_symmetry_group_IT_number 2
_symmetry_cell_setting 'triclinic'
loop_
_space_group_symop_operation_xyz
x,y,z
-x,-y,-z
loop_
_atom_site_type_symbol
_atom_site_label
_atom_site_fract_x
_atom_site_fract_y
_atom_site_fract_z
Si Si1 0.453813 0.448485 0.725382
Si Si2 0.461535 0.186445 0.537847
Si Si3 0.500000 0.500000 0.000000
Si Si4 0.954497 0.304054 0.815638
Si Si5 0.233409 0.782742 0.231572
Si Si6 0.094804 0.131251 0.704925
Si Si7 0.129694 0.843815 0.938175
O O1 0.430379 0.273974 0.595019
O O2 0.424969 0.473367 0.942891
O O3 0.233404 0.258234 0.764116
O O4 0.732915 0.758823 0.553762
O O5 0.759354 0.455606 0.374273
O O6 0.289098 0.895402 0.413427
O O7 0.344162 0.103313 0.773930
O O8 0.791973 0.769767 0.779857
O O9 0.830147 0.176293 0.727113
O O10 0.000000 0.500000 0.000000
O O11 0.790370 0.080778 0.952776
O O12 0.005038 0.433105 0.196989
O O13 0.500000 0.000000 0.000000
O O14 0.080649 0.267254 0.856886
#
# Coordination Sequence:
#
# PCOD9031188 Si02
#       7
#     2   2   1   2   2   2   2
#     4  11  25  46  72  98 140 175 228 284 334 398
#     4  12  23  44  68 100 134 173 225 271 330 405
#     4  12  24  44  70 100 134 176 236 268 346 390
#     4  10  22  43  65  92 139 172 215 276 322 391
#     4  11  22  44  68  96 133 179 214 269 338 395
#     4  11  24  48  68 101 138 180 220 286 335 400
#     4  11  23  44  68  99 137 170 223 274 329 398
#
# _framework density 23.743107999999999
#
# number of rings (size 3 to 8) (size 9 to 14) (size 15 to 20)
#    0.000    0.923    6.154    1.385    0.000    3.692 
#   11.077    0.000    0.000    0.000    0.000    0.000 
#    0.000    0.000    0.000    0.000    0.000    0.000 
#
# Total GULP energy -72523.480252 kJ/mol
# GULP energy per Si atom -5578.729250 kJ/mol
# Density = 2.368907 g / cm^3
# Si number density = 23.743108 Si / 1000 Ang^3
#
#
#
# Elastic Constant Matrix: (Units=GPa)
#
#
# Indices 1 2 3 4 5 6 
#
# 1 153.0210 11.3726 26.1736 -4.5655 8.8588 17.5372
# 2 11.3726 57.6805 13.3295 1.8770 4.8481 9.5329
# 3 26.1736 13.3295 76.3490 14.5369 15.2660 13.5955
# 4 -4.5655 1.8770 14.5369 48.5564 -1.1411 2.3468
# 5 8.8588 4.8481 15.2660 -1.1411 45.3118 4.2061
# 6 17.5372 9.5329 13.5955 2.3468 4.2061 30.6885
#
#
#
# Elastic Compliance Matrix: (Units=1/GPa)
#
#
# Indices 1 2 3 4 5 6 
#
# 1 0.007357 -0.000458 -0.002083 0.001480 -0.000353 -0.003204
# 2 -0.000458 0.018735 -0.002177 0.000084 -0.000762 -0.004495
# 3 -0.002083 -0.002177 0.016927 -0.005069 -0.004764 -0.004592
# 4 0.001480 0.000084 -0.005069 0.022325 0.002029 -0.000611
# 5 -0.000353 -0.000762 -0.004764 0.002029 0.023959 -0.000890
# 6 -0.003204 -0.004495 -0.004592 -0.000611 -0.000890 0.038016
#
#
# Mechanical properties :
#
#
# Convention : Reuss Voigt Hill
#
# Bulk Modulus (GPa) = 29.77651 43.20022 36.48837
# Shear Modulus (GPa) = 33.79545 40.65632 37.22588
#
# Velocity S-wave (km/s) = 3.77686 4.14253 3.96392
# Velocity P-wave (km/s) = 5.62031 6.41211 6.02922
#
# Compressibility (1/GPa) = 0.03358352
#
# Stress axis : x y z
#
# Youngs Moduli (GPa) = 135.92260 53.37735 59.07605
#
# Poissons Ratio (x) = 0.02446 0.12304
# Poissons Ratio (y) = 0.06228 0.12860
# Poissons Ratio (z) = 0.28309 0.11619
#
# Static dielectric constant tensor:
#      x y z
#    x 1.926770 -0.024950 0.010140 
#    y -0.024950 1.842500 0.012960 
#    z 0.010140 0.012960 1.875740 
# 
# From -- ./inp_files/335469.got.cif
#   From: 2010.05.17/outbox.cif.g08.bks.cpg/sg2_168_cif.got.tgz:335469.got - 2010.06.03 11:33:40.
