data_PCOD9031775
_publ_section_title
;
Structure prediction by ZEFSAII (Michael W. Deem and Ramdas Pophale) SiO2 
 PCOD9031775
Probable space group: P -1
;
_chemical_formula_sum "Si O2"
_cell_formula_units_Z 16
_cell_length_a 9.728856
_cell_length_b 14.954014
_cell_length_c 9.385235
_cell_angle_alpha 119.711176
_cell_angle_beta 63.871987
_cell_angle_gamma 143.499713
_cell_volume 703.080333
_symmetry_space_group_name_H-M "P -1"
_symmetry_group_IT_number 2
_symmetry_cell_setting 'triclinic'
loop_
_space_group_symop_operation_xyz
x,y,z
-x,-y,-z
loop_
_atom_site_type_symbol
_atom_site_label
_atom_site_fract_x
_atom_site_fract_y
_atom_site_fract_z
Si Si1 0.872146 0.576584 0.684046
Si Si2 0.621502 0.949737 0.902819
Si Si3 0.760626 0.920491 0.103614
Si Si4 0.590114 0.436933 0.973438
Si Si5 0.978123 0.869420 0.357570
Si Si6 0.312966 0.989207 0.528416
Si Si7 0.467024 0.481786 0.670449
Si Si8 0.341790 0.726945 0.602028
O O1 0.724049 0.596756 0.709809
O O2 0.785398 0.442547 0.511680
O O3 0.147040 0.717336 0.668986
O O4 0.796965 0.514069 0.831547
O O5 0.465804 0.798224 0.752966
O O6 0.877887 0.076507 0.811551
O O7 0.634866 0.914262 0.026846
O O8 0.500000 0.000000 0.000000
O O9 0.803499 0.020155 0.289966
O O10 0.602467 0.747664 0.094262
O O11 0.000000 0.000000 0.000000
O O12 0.637940 0.479225 0.153331
O O13 0.500000 0.500000 0.000000
O O14 0.710676 0.700307 0.351294
O O15 0.113898 0.864954 0.406253
O O16 0.000000 0.000000 0.500000
O O17 0.465467 0.151966 0.506797
O O18 0.500000 0.000000 0.500000
O O19 0.500000 0.500000 0.500000
#
# Coordination Sequence:
#
# PCOD9031775 Si02
#       8
#     2   2   2   2   2   2   2   2
#     4  10  22  44  67  91 132 184 218 280 348 420
#     4  11  26  44  69 103 143 184 237 292 357 418
#     4  12  26  43  75 106 140 187 245 294 350 422
#     4  10  25  43  66 102 142 179 229 295 353 416
#     4  11  25  45  73  96 139 186 231 292 349 423
#     4  11  24  43  69 100 137 178 240 286 348 420
#     4  11  26  41  69 105 138 170 234 290 357 407
#     4  10  22  43  68  87 133 182 225 269 352 420
#
# _framework density 22.756999
#
# number of rings (size 3 to 8) (size 9 to 14) (size 15 to 20)
#    0.000    1.250    1.250    3.750   14.000    2.000 
#    0.000    0.625    0.000    0.000    0.000    0.000 
#    0.000    0.000    0.000    0.000    0.000    0.000 
#
# Total GULP energy -89417.142419 kJ/mol
# GULP energy per Si atom -5588.571401 kJ/mol
# Density = 2.270520 g / cm^3
# Si number density = 22.756999 Si / 1000 Ang^3
#
#
#
# Elastic Constant Matrix: (Units=GPa)
#
#
# Indices 1 2 3 4 5 6 
#
# 1 80.0808 6.2330 -1.3155 -15.2757 7.0618 6.4255
# 2 6.2330 77.9689 13.4532 -16.2863 -3.8848 8.2655
# 3 -1.3155 13.4532 118.1767 -25.6439 8.9565 2.5015
# 4 -15.2757 -16.2863 -25.6439 33.8672 4.4571 -7.5285
# 5 7.0618 -3.8848 8.9565 4.4571 43.6353 -1.4380
# 6 6.4255 8.2655 2.5015 -7.5285 -1.4380 32.8591
#
#
#
# Elastic Compliance Matrix: (Units=1/GPa)
#
#
# Indices 1 2 3 4 5 6 
#
# 1 0.014592 0.000185 0.002328 0.008647 -0.003748 -0.001260
# 2 0.000185 0.014425 -0.000286 0.006238 0.000604 -0.002187
# 3 0.002328 -0.000286 0.010913 0.009849 -0.003619 0.000884
# 4 0.008647 0.006238 0.009849 0.046248 -0.007383 0.006263
# 5 -0.003748 0.000604 -0.003619 -0.007383 0.025083 0.000263
# 6 -0.001260 -0.002187 0.000884 0.006263 0.000263 0.032609
#
#
# Mechanical properties :
#
#
# Convention : Reuss Voigt Hill
#
# Bulk Modulus (GPa) = 22.53011 34.77418 28.65214
# Shear Modulus (GPa) = 32.42300 39.26269 35.84285
#
# Velocity S-wave (km/s) = 3.77868 4.15818 3.97296
# Velocity P-wave (km/s) = 5.38142 6.19417 5.80205
#
# Compressibility (1/GPa) = 0.04438504
#
# Stress axis : x y z
#
# Youngs Moduli (GPa) = 68.52943 69.32326 91.63278
#
# Poissons Ratio (x) = -0.01281 -0.21336
# Poissons Ratio (y) = -0.01266 0.02620
# Poissons Ratio (z) = -0.15957 0.01982
#
# Static dielectric constant tensor:
#      x y z
#    x 1.870660 -0.018040 -0.021550 
#    y -0.018040 1.844420 0.009620 
#    z -0.021550 0.009620 1.889350 
# 
# From -- ./inp_files/208255.got.cif
#   From: 2010.05.17/outbox.cif.g08.bks.cpg/sg2_105_cif.got.tgz:208255.got - 2010.06.03 11:33:40.
