data_PCOD9031135
_publ_section_title
;
Structure prediction by ZEFSAII (Michael W. Deem and Ramdas Pophale) SiO2 
 PCOD9031135
Probable space group: P -1
;
_chemical_formula_sum "Si O2"
_cell_formula_units_Z 14
_cell_length_a 9.520676
_cell_length_b 9.865711
_cell_length_c 11.872054
_cell_angle_alpha 75.339047
_cell_angle_beta 57.573016
_cell_angle_gamma 46.861815
_cell_volume 675.061128
_symmetry_space_group_name_H-M "P -1"
_symmetry_group_IT_number 2
_symmetry_cell_setting 'triclinic'
loop_
_space_group_symop_operation_xyz
x,y,z
-x,-y,-z
loop_
_atom_site_type_symbol
_atom_site_label
_atom_site_fract_x
_atom_site_fract_y
_atom_site_fract_z
Si Si1 0.766648 0.457600 0.643851
Si Si2 0.084029 0.607667 0.906197
Si Si3 0.706032 0.498047 0.409525
Si Si4 0.517254 0.116797 0.306004
Si Si5 0.785358 0.760045 0.388224
Si Si6 0.628084 0.023004 0.028678
Si Si7 0.468112 0.618277 0.094952
O O1 0.827168 0.405252 0.497815
O O2 0.547081 0.683114 0.695770
O O3 0.707718 0.345387 0.749292
O O4 0.959318 0.414460 0.649305
O O5 0.158310 0.587583 0.747869
O O6 0.299174 0.507762 0.912177
O O7 0.000000 0.500000 0.000000
O O8 0.881497 0.827008 0.972608
O O9 0.500000 0.500000 0.500000
O O10 0.668357 0.689711 0.396261
O O11 0.335058 0.148681 0.459226
O O12 0.507005 0.083791 0.188078
O O13 0.747301 0.920141 0.296782
O O14 0.610920 0.189106 0.956692
O O15 0.500000 0.000000 0.000000
O O16 0.500000 0.500000 0.000000
#
# Coordination Sequence:
#
# PCOD9031135 Si02
#       7
#     2   2   2   2   2   2   2
#     4  11  24  45  72  98 137 184 234 289 351 410
#     4  12  27  47  73 103 146 191 228 292 362 415
#     4  11  23  45  71 101 141 181 231 289 352 415
#     4  10  22  43  65 102 131 175 238 281 340 420
#     4  10  24  41  75  95 132 185 230 287 349 415
#     4  12  27  42  72 104 141 185 236 284 359 426
#     4  12  27  47  70 105 144 184 241 295 345 425
#
# _framework density 20.738862999999998
#
# number of rings (size 3 to 8) (size 9 to 14) (size 15 to 20)
#    0.000    0.857    4.286    2.571    8.000    1.714 
#    2.571    0.714    0.000    0.000    0.000    0.000 
#    0.000    0.000    0.000    0.000    0.000    0.000 
#
# Total GULP energy -78098.008676 kJ/mol
# GULP energy per Si atom -5578.429191 kJ/mol
# Density = 2.069166 g / cm^3
# Si number density = 20.738863 Si / 1000 Ang^3
#
#
#
# Elastic Constant Matrix: (Units=GPa)
#
#
# Indices 1 2 3 4 5 6 
#
# 1 102.4690 39.0376 36.2834 -6.6903 0.9137 6.6294
# 2 39.0376 143.5932 36.7322 -16.1484 3.3348 5.5109
# 3 36.2834 36.7322 131.2818 -11.8621 23.5222 13.2310
# 4 -6.6903 -16.1484 -11.8621 35.2275 1.5454 -0.3889
# 5 0.9137 3.3348 23.5222 1.5454 34.9384 -1.1998
# 6 6.6294 5.5109 13.2310 -0.3889 -1.1998 24.6398
#
#
#
# Elastic Compliance Matrix: (Units=1/GPa)
#
#
# Indices 1 2 3 4 5 6 
#
# 1 0.011734 -0.002478 -0.002750 0.000079 0.001742 -0.001040
# 2 -0.002478 0.008322 -0.001346 0.002885 0.000035 -0.000424
# 3 -0.002750 -0.001346 0.010845 0.002781 -0.007399 -0.005099
# 4 0.000079 0.002885 0.002781 0.030797 -0.003575 -0.001847
# 5 0.001742 0.000035 -0.007399 -0.003575 0.033887 0.005090
# 6 -0.001040 -0.000424 -0.005099 -0.001847 0.005090 0.043916
#
#
# Mechanical properties :
#
#
# Convention : Reuss Voigt Hill
#
# Bulk Modulus (GPa) = 56.33203 66.82783 61.57993
# Shear Modulus (GPa) = 31.53248 36.64718 34.08983
#
# Velocity S-wave (km/s) = 3.90353 4.20822 4.05874
# Velocity P-wave (km/s) = 6.89480 7.47701 7.19180
#
# Compressibility (1/GPa) = 0.01775189
#
# Stress axis : x y z
#
# Youngs Moduli (GPa) = 85.22445 120.16100 92.21147
#
# Poissons Ratio (x) = 0.29779 0.25355
# Poissons Ratio (y) = 0.21121 0.12415
# Poissons Ratio (z) = 0.23434 0.16178
#
# Static dielectric constant tensor:
#      x y z
#    x 1.786190 -0.028470 -0.046550 
#    y -0.028470 1.777290 0.008150 
#    z -0.046550 0.008150 1.767470 
# 
# From -- ./inp_files/381905.got.cif
#   From: 2010.05.17/outbox.cif.g08.bks.cpg/sg2_191_cif.got.tgz:381905.got - 2010.06.03 11:33:40.
