data_PCOD9031714
_publ_section_title
;
Structure prediction by ZEFSAII (Michael W. Deem and Ramdas Pophale) SiO2 
 PCOD9031714
Probable space group: P -1
;
_chemical_formula_sum "Si O2"
_cell_formula_units_Z 15
_cell_length_a 14.272882
_cell_length_b 12.275062
_cell_length_c 9.464601
_cell_angle_alpha 132.462104
_cell_angle_beta 118.823882
_cell_angle_gamma 31.152973
_cell_volume 612.653579
_symmetry_space_group_name_H-M "P -1"
_symmetry_group_IT_number 2
_symmetry_cell_setting 'triclinic'
loop_
_space_group_symop_operation_xyz
x,y,z
-x,-y,-z
loop_
_atom_site_type_symbol
_atom_site_label
_atom_site_fract_x
_atom_site_fract_y
_atom_site_fract_z
Si Si1 0.912542 0.797928 0.616589
Si Si2 0.000000 0.000000 0.000000
Si Si3 0.475249 0.098976 0.916767
Si Si4 0.457860 0.914074 0.500876
Si Si5 0.007495 0.845929 0.107893
Si Si6 0.359618 0.563304 0.648488
Si Si7 0.298755 0.609310 0.308995
Si Si8 0.095437 0.339977 0.212097
O O1 0.962326 0.664555 0.684541
O O2 0.013773 0.597575 0.385594
O O3 0.695636 0.013432 0.619812
O O4 0.951974 0.921485 0.781194
O O5 0.131600 0.735316 0.964058
O O6 0.380620 0.089350 0.735200
O O7 0.683022 0.895541 0.835327
O O8 0.372618 0.368830 0.096058
O O9 0.500000 0.000000 0.000000
O O10 0.612290 0.626131 0.422843
O O11 0.500000 0.000000 0.500000
O O12 0.091893 0.837520 0.292744
O O13 0.813011 0.140514 0.155705
O O14 0.964181 0.722667 0.994709
O O15 0.310863 0.600526 0.479798
O O16 0.555691 0.431291 0.676000
#
# Coordination Sequence:
#
# PCOD9031714 Si02
#       8
#     2   1   2   2   2   2   2   2
#     4  10  22  43  69 102 143 188 246 301 379 436
#     4  10  24  40  66 106 142 180 244 308 358 446
#     4  12  24  45  69 105 148 193 245 306 370 439
#     4  12  25  44  74 110 143 197 246 309 380 441
#     4  11  23  44  70 101 140 194 242 301 377 434
#     4  11  25  44  70 105 147 189 246 313 360 453
#     4  11  24  46  71 102 146 193 248 300 376 448
#     4  10  22  43  68 100 141 190 242 309 358 447
#
# _framework density 24.483656
#
# number of rings (size 3 to 8) (size 9 to 14) (size 15 to 20)
#    0.000    1.067    4.000    2.000    1.867    2.133 
#    0.000    6.667    0.000    0.000    0.000    0.000 
#    0.000    0.000    0.000    0.000    0.000    0.000 
#
# Total GULP energy -83575.481716 kJ/mol
# GULP energy per Si atom -5571.698781 kJ/mol
# Density = 2.442793 g / cm^3
# Si number density = 24.483656 Si / 1000 Ang^3
#
#
#
# Elastic Constant Matrix: (Units=GPa)
#
#
# Indices 1 2 3 4 5 6 
#
# 1 75.5116 32.6109 51.4029 2.7095 39.3208 7.2805
# 2 32.6109 87.4469 46.5130 -4.3082 23.4357 2.3179
# 3 51.4029 46.5130 119.0181 -13.3805 37.4320 2.5806
# 4 2.7095 -4.3082 -13.3805 54.8290 -7.5730 7.8247
# 5 39.3208 23.4357 37.4320 -7.5730 39.5530 -9.9546
# 6 7.2805 2.3179 2.5806 7.8247 -9.9546 40.7277
#
#
#
# Elastic Compliance Matrix: (Units=1/GPa)
#
#
# Indices 1 2 3 4 5 6 
#
# 1 0.038162 -0.001763 -0.004354 -0.006219 -0.037597 -0.014440
# 2 -0.001763 0.015269 -0.003971 -0.000038 -0.003856 -0.001237
# 3 -0.004354 -0.003971 0.014368 0.002757 -0.006924 -0.002128
# 4 -0.006219 -0.000038 0.002757 0.020383 0.007192 -0.001219
# 5 -0.037597 -0.003856 -0.006924 0.007192 0.079258 0.025369
# 6 -0.014440 -0.001237 -0.002128 -0.001219 0.025369 0.033775
#
#
# Mechanical properties :
#
#
# Convention : Reuss Voigt Hill
#
# Bulk Modulus (GPa) = 20.99814 60.33667 40.66740
# Shear Modulus (GPa) = 21.07347 37.11858 29.09602
#
# Velocity S-wave (km/s) = 2.93698 3.89788 3.45104
# Velocity P-wave (km/s) = 4.48287 6.70486 5.70312
#
# Compressibility (1/GPa) = 0.04762326
#
# Stress axis : x y z
#
# Youngs Moduli (GPa) = 26.20430 65.49136 69.59826
#
# Poissons Ratio (x) = 0.11545 0.30305
# Poissons Ratio (y) = 0.04619 0.27636
# Poissons Ratio (z) = 0.11410 0.26005
#
# Static dielectric constant tensor:
#      x y z
#    x 1.689210 -0.064370 0.027780 
#    y -0.064370 2.149510 0.163660 
#    z 0.027780 0.163660 2.304270 
# 
# From -- ./inp_files/308587.got.cif
#   From: 2010.05.17/outbox.cif.g08.bks.cpg/sg2_155_cif.got.tgz:308587.got - 2010.06.03 11:33:40.
