data_PCOD9031536
_publ_section_title
;
Structure prediction by ZEFSAII (Michael W. Deem and Ramdas Pophale) SiO2 
 PCOD9031536
Probable space group: P -1
;
_chemical_formula_sum "Si O2"
_cell_formula_units_Z 12
_cell_length_a 8.329572
_cell_length_b 11.154027
_cell_length_c 5.664208
_cell_angle_alpha 106.113508
_cell_angle_beta 83.421619
_cell_angle_gamma 79.507814
_cell_volume 489.472243
_symmetry_space_group_name_H-M "P -1"
_symmetry_group_IT_number 2
_symmetry_cell_setting 'triclinic'
loop_
_space_group_symop_operation_xyz
x,y,z
-x,-y,-z
loop_
_atom_site_type_symbol
_atom_site_label
_atom_site_fract_x
_atom_site_fract_y
_atom_site_fract_z
Si Si1 0.625696 0.711889 0.280313
Si Si2 0.108564 0.413046 0.129902
Si Si3 0.621509 0.274044 0.037699
Si Si4 0.397572 0.115078 0.233877
Si Si5 0.100214 0.985723 0.223965
Si Si6 0.227318 0.537646 0.570940
O O1 0.526769 0.774475 0.836813
O O2 0.570535 0.851083 0.481437
O O3 0.711686 0.598416 0.380381
O O4 0.778488 0.709939 0.074979
O O5 0.227084 0.495586 0.276345
O O6 0.967383 0.393089 0.321219
O O7 0.000000 0.500000 0.000000
O O8 0.532033 0.324561 0.835761
O O9 0.773876 0.154912 0.888126
O O10 0.674794 0.370718 0.264645
O O11 0.213006 0.091686 0.256450
O O12 0.500000 0.000000 0.000000
O O13 0.000000 0.000000 0.500000
O O14 0.000000 0.000000 0.000000
#
# Coordination Sequence:
#
# PCOD9031536 Si02
#       6
#     2   2   2   2   2   2
#     4  11  23  41  72 103 149 192 239 306 369 448
#     4   9  21  39  64  98 143 190 238 298 353 444
#     4  11  26  43  74 105 151 193 245 308 377 447
#     4  10  26  46  70 103 145 190 247 310 375 436
#     4  11  29  51  79 109 143 200 260 316 378 449
#     4  10  22  43  67 109 148 189 245 292 378 439
#
# _framework density 24.516200999999999
#
# number of rings (size 3 to 8) (size 9 to 14) (size 15 to 20)
#    0.000    1.667    0.000    1.500    9.333   10.667 
#    0.000    0.000    0.000    0.000    0.000    0.000 
#    0.000    0.000    0.000    0.000    0.000    0.000 
#
# Total GULP energy -66900.978870 kJ/mol
# GULP energy per Si atom -5575.081573 kJ/mol
# Density = 2.446040 g / cm^3
# Si number density = 24.516201 Si / 1000 Ang^3
#
#
#
# Elastic Constant Matrix: (Units=GPa)
#
#
# Indices 1 2 3 4 5 6 
#
# 1 137.1745 46.3477 81.9684 -0.6183 7.4155 4.7310
# 2 46.3477 56.6591 55.3356 13.6815 -4.7242 -17.2586
# 3 81.9684 55.3356 194.2308 9.2630 17.1994 -9.3435
# 4 -0.6183 13.6815 9.2630 34.2260 -6.8032 10.2902
# 5 7.4155 -4.7242 17.1994 -6.8032 69.7992 9.6392
# 6 4.7310 -17.2586 -9.3435 10.2902 9.6392 47.7128
#
#
#
# Elastic Compliance Matrix: (Units=1/GPa)
#
#
# Indices 1 2 3 4 5 6 
#
# 1 0.013882 -0.013314 -0.002967 0.009124 0.000465 -0.008835
# 2 -0.013314 0.046375 -0.005442 -0.023835 0.000524 0.022064
# 3 -0.002967 -0.005442 0.008206 -0.000700 -0.002217 0.000532
# 4 0.009124 -0.023835 -0.000700 0.046292 0.004953 -0.020648
# 5 0.000465 0.000524 -0.002217 0.004953 0.015975 -0.004586
# 6 -0.008835 0.022064 0.000532 -0.020648 -0.004586 0.035299
#
#
# Mechanical properties :
#
#
# Convention : Reuss Voigt Hill
#
# Bulk Modulus (GPa) = 39.97059 83.92972 61.95015
# Shear Modulus (GPa) = 22.95547 43.97511 33.46529
#
# Velocity S-wave (km/s) = 3.06328 4.23982 3.69864
# Velocity P-wave (km/s) = 5.37129 7.63393 6.60029
#
# Compressibility (1/GPa) = 0.02501840
#
# Stress axis : x y z
#
# Youngs Moduli (GPa) = 72.03678 21.56347 121.86259
#
# Poissons Ratio (x) = 0.28709 0.36151
# Poissons Ratio (y) = 0.95909 0.66312
# Poissons Ratio (z) = 0.21370 0.11734
#
# Static dielectric constant tensor:
#      x y z
#    x 1.992350 0.033780 -0.113110 
#    y 0.033780 2.050030 -0.150880 
#    z -0.113110 -0.150880 2.418440 
# 
# From -- ./inp_files/36694.got.cif
#   From: 2010.05.17/outbox.cif.g08.bks.cpg/sg2_19_cif.got.tgz:36694.got - 2010.06.03 11:33:40.
