data_PCOD9031411
_publ_section_title
;
Structure prediction by ZEFSAII (Michael W. Deem and Ramdas Pophale) SiO2 
 PCOD9031411
Probable space group: P -1
;
_chemical_formula_sum "Si O2"
_cell_formula_units_Z 14
_cell_length_a 21.260712
_cell_length_b 8.794229
_cell_length_c 7.679823
_cell_angle_alpha 95.927653
_cell_angle_beta 109.728980
_cell_angle_gamma 141.198829
_cell_volume 663.779907
_symmetry_space_group_name_H-M "P -1"
_symmetry_group_IT_number 2
_symmetry_cell_setting 'triclinic'
loop_
_space_group_symop_operation_xyz
x,y,z
-x,-y,-z
loop_
_atom_site_type_symbol
_atom_site_label
_atom_site_fract_x
_atom_site_fract_y
_atom_site_fract_z
Si Si1 0.925089 0.411882 0.248292
Si Si2 0.090965 0.314925 0.553046
Si Si3 0.286893 0.981545 0.249093
Si Si4 0.371111 0.769248 0.733057
Si Si5 0.264148 0.276398 0.336455
Si Si6 0.967577 0.643948 0.867249
Si Si7 0.501645 0.177582 0.588420
O O1 0.932193 0.603319 0.313589
O O2 0.000000 0.500000 0.500000
O O3 0.001157 0.467258 0.179036
O O4 0.768947 0.081162 0.001738
O O5 0.246336 0.576840 0.709009
O O6 0.052183 0.298654 0.321560
O O7 0.000000 0.000000 0.500000
O O8 0.167817 0.638695 0.179911
O O9 0.295713 0.159065 0.384678
O O10 0.419441 0.140921 0.396979
O O11 0.322386 0.517729 0.555216
O O12 0.421834 0.001256 0.673572
O O13 0.500000 0.000000 0.000000
O O14 0.341777 0.466099 0.248572
O O15 0.102796 0.971654 0.127855
O O16 0.500000 0.000000 0.500000
#
# Coordination Sequence:
#
# PCOD9031411 Si02
#       7
#     2   2   2   2   2   2   2
#     4   9  21  39  62  95 131 159 204 267 331 369
#     4  11  25  39  65  94 130 173 215 263 336 379
#     4  11  21  42  72  93 129 169 220 269 319 383
#     4  11  26  45  60  93 136 172 216 271 322 379
#     4  10  23  41  69  93 126 168 221 261 323 386
#     4  10  22  43  66  96 126 167 217 279 312 383
#     4  10  23  43  63  93 129 174 216 261 314 387
#
# _framework density 21.091329000000002
#
# number of rings (size 3 to 8) (size 9 to 14) (size 15 to 20)
#    0.000    1.714    1.429    2.143   10.000    1.714 
#    0.000    0.714    0.000    0.000    0.000    0.000 
#    0.000    0.000    0.000    0.000    0.000    0.000 
#
# Total GULP energy -77961.470088 kJ/mol
# GULP energy per Si atom -5568.676435 kJ/mol
# Density = 2.104332 g / cm^3
# Si number density = 21.091329 Si / 1000 Ang^3
#
#
#
# Elastic Constant Matrix: (Units=GPa)
#
#
# Indices 1 2 3 4 5 6 
#
# 1 82.3560 20.3559 40.5127 6.2895 4.7280 -16.3941
# 2 20.3559 120.2075 34.4480 21.5882 3.5153 4.9558
# 3 40.5127 34.4480 123.1368 2.3885 1.5103 -4.6465
# 4 6.2895 21.5882 2.3885 37.0125 -1.3165 2.4852
# 5 4.7280 3.5153 1.5103 -1.3165 40.8686 8.9706
# 6 -16.3941 4.9558 -4.6465 2.4852 8.9706 30.0453
#
#
#
# Elastic Compliance Matrix: (Units=1/GPa)
#
#
# Indices 1 2 3 4 5 6 
#
# 1 0.017371 -0.001385 -0.004833 -0.002675 -0.004081 0.010399
# 2 -0.001385 0.010335 -0.002411 -0.005495 -0.000315 -0.002285
# 3 -0.004833 -0.002411 0.010309 0.001651 0.000653 -0.000977
# 4 -0.002675 -0.005495 0.001651 0.030902 0.002507 -0.003603
# 5 -0.004081 -0.000315 0.000653 0.002507 0.027315 -0.010436
# 6 0.010399 -0.002285 -0.000977 -0.003603 -0.010436 0.042597
#
#
# Mechanical properties :
#
#
# Convention : Reuss Voigt Hill
#
# Bulk Modulus (GPa) = 48.18128 57.37038 52.77583
# Shear Modulus (GPa) = 30.67354 36.94421 33.80888
#
# Velocity S-wave (km/s) = 3.81769 4.18979 4.00806
# Velocity P-wave (km/s) = 6.50590 7.11799 6.81882
#
# Compressibility (1/GPa) = 0.02075495
#
# Stress axis : x y z
#
# Youngs Moduli (GPa) = 57.56689 96.76109 97.00419
#
# Poissons Ratio (x) = 0.13406 0.46884
# Poissons Ratio (y) = 0.07976 0.23389
# Poissons Ratio (z) = 0.27823 0.23330
#
# Static dielectric constant tensor:
#      x y z
#    x 1.780630 -0.007800 -0.004880 
#    y -0.007800 1.809940 -0.054650 
#    z -0.004880 -0.054650 1.798820 
# 
# From -- ./inp_files/153780.got.cif
#   From: 2010.05.17/outbox.cif.g08.bks.cpg/sg2_77_cif.got.tgz:153780.got - 2010.06.03 11:33:40.
