data_PCOD9031475
_publ_section_title
;
Structure prediction by ZEFSAII (Michael W. Deem and Ramdas Pophale) SiO2 
 PCOD9031475
Probable space group: P -1
;
_chemical_formula_sum "Si O2"
_cell_formula_units_Z 14
_cell_length_a 13.755595
_cell_length_b 6.102308
_cell_length_c 14.253617
_cell_angle_alpha 64.720914
_cell_angle_beta 146.032550
_cell_angle_gamma 99.020572
_cell_volume 556.438849
_symmetry_space_group_name_H-M "P -1"
_symmetry_group_IT_number 2
_symmetry_cell_setting 'triclinic'
loop_
_space_group_symop_operation_xyz
x,y,z
-x,-y,-z
loop_
_atom_site_type_symbol
_atom_site_label
_atom_site_fract_x
_atom_site_fract_y
_atom_site_fract_z
Si Si1 0.516966 0.611146 0.858075
Si Si2 0.764221 0.867890 0.928566
Si Si3 0.905449 0.695111 0.717983
Si Si4 0.691617 0.046322 0.642566
Si Si5 0.722791 0.508238 0.456840
Si Si6 0.219301 0.866793 0.730664
Si Si7 0.103254 0.095016 0.773527
O O1 0.596612 0.765288 0.821991
O O2 0.426667 0.443041 0.755110
O O3 0.359168 0.804872 0.765858
O O4 0.693052 0.421134 0.096203
O O5 0.744336 0.057744 0.791094
O O6 0.951253 0.605986 0.110617
O O7 0.780861 0.974052 0.024935
O O8 0.835286 0.796600 0.746685
O O9 0.741875 0.710423 0.510800
O O10 0.005729 0.884101 0.727389
O O11 0.500000 0.000000 0.500000
O O12 0.691048 0.290892 0.537549
O O13 0.929461 0.373560 0.597543
O O14 0.224236 0.062757 0.782493
O O15 0.000000 0.000000 0.500000
#
# Coordination Sequence:
#
# PCOD9031475 Si02
#       7
#     2   2   2   2   2   2   2
#     4  11  23  43  71 102 134 177 228 279 344 401
#     4  11  23  42  67  99 135 177 227 273 334 406
#     4  10  23  42  65  94 138 181 220 275 328 400
#     4  11  23  39  65 100 136 178 223 272 334 399
#     4  10  22  43  66  99 138 177 223 274 332 403
#     4  11  23  44  72 100 136 174 228 285 340 407
#     4  10  22  43  67  95 137 180 217 281 340 391
#
# _framework density 25.159998999999999
#
# number of rings (size 3 to 8) (size 9 to 14) (size 15 to 20)
#    0.000    1.429    4.286    0.429    0.000    8.571 
#    0.000    4.286    0.000    0.000    0.000    0.000 
#    0.000    0.000    0.000    0.000    0.000    0.000 
#
# Total GULP energy -78323.049230 kJ/mol
# GULP energy per Si atom -5594.503516 kJ/mol
# Density = 2.510273 g / cm^3
# Si number density = 25.159999 Si / 1000 Ang^3
#
#
#
# Elastic Constant Matrix: (Units=GPa)
#
#
# Indices 1 2 3 4 5 6 
#
# 1 129.9183 17.7707 52.9802 -3.8502 -6.3027 -22.5159
# 2 17.7707 52.1185 31.3769 21.8384 -11.9567 -1.3653
# 3 52.9802 31.3769 128.8707 5.9306 -12.2693 -14.7786
# 4 -3.8502 21.8384 5.9306 52.9431 -7.3672 -7.6932
# 5 -6.3027 -11.9567 -12.2693 -7.3672 44.1673 4.5812
# 6 -22.5159 -1.3653 -14.7786 -7.6932 4.5812 33.8424
#
#
#
# Elastic Compliance Matrix: (Units=1/GPa)
#
#
# Indices 1 2 3 4 5 6 
#
# 1 0.010529 -0.003006 -0.003046 0.003228 -0.000275 0.006325
# 2 -0.003006 0.029652 -0.005750 -0.012130 0.004673 -0.006704
# 3 -0.003046 -0.005750 0.010738 0.001464 0.000963 0.002633
# 4 0.003228 -0.012130 0.001464 0.025247 0.000975 0.007904
# 5 -0.000275 0.004673 0.000963 0.000975 0.024575 -0.002679
# 6 0.006325 -0.006704 0.002633 0.007904 -0.002679 0.036795
#
#
# Mechanical properties :
#
#
# Convention : Reuss Voigt Hill
#
# Bulk Modulus (GPa) = 36.60839 57.24033 46.92436
# Shear Modulus (GPa) = 29.36941 40.10921 34.73931
#
# Velocity S-wave (km/s) = 3.42029 3.99703 3.71986
# Velocity P-wave (km/s) = 5.49360 6.64090 6.09431
#
# Compressibility (1/GPa) = 0.02731614
#
# Stress axis : x y z
#
# Youngs Moduli (GPa) = 94.97670 33.72407 93.12598
#
# Poissons Ratio (x) = 0.10137 0.28367
# Poissons Ratio (y) = 0.28550 0.53543
# Poissons Ratio (z) = 0.28931 0.19390
#
# Static dielectric constant tensor:
#      x y z
#    x 2.003770 -0.031640 -0.022110 
#    y -0.031640 1.994780 0.012400 
#    z -0.022110 0.012400 2.058040 
# 
# From -- ./inp_files/447435.got.cif
#   From: 2010.05.17/outbox.cif.g08.bks.cpg/sg2_224_cif.got.tgz:447435.got - 2010.06.03 11:33:40.
