data_PCOD9031712
_publ_section_title
;
Structure prediction by ZEFSAII (Michael W. Deem and Ramdas Pophale) SiO2 
 PCOD9031712
Probable space group: P -1
;
_chemical_formula_sum "Si O2"
_cell_formula_units_Z 16
_cell_length_a 8.889133
_cell_length_b 16.837389
_cell_length_c 5.239060
_cell_angle_alpha 122.609377
_cell_angle_beta 104.379364
_cell_angle_gamma 83.490069
_cell_volume 639.628693
_symmetry_space_group_name_H-M "P -1"
_symmetry_group_IT_number 2
_symmetry_cell_setting 'triclinic'
loop_
_space_group_symop_operation_xyz
x,y,z
-x,-y,-z
loop_
_atom_site_type_symbol
_atom_site_label
_atom_site_fract_x
_atom_site_fract_y
_atom_site_fract_z
Si Si1 0.168886 0.274212 0.264477
Si Si2 0.319691 0.992675 0.462559
Si Si3 0.367247 0.363058 0.114201
Si Si4 0.632794 0.441892 0.703610
Si Si5 0.960232 0.438263 0.626386
Si Si6 0.056599 0.105740 0.625810
Si Si7 0.519233 0.271626 0.630813
Si Si8 0.746594 0.116576 0.253889
O O1 0.208194 0.324017 0.093954
O O2 0.342735 0.264842 0.433648
O O3 0.057892 0.343543 0.486792
O O4 0.088537 0.174703 0.993634
O O5 0.298236 0.967060 0.707789
O O6 0.500000 0.000000 0.500000
O O7 0.221428 0.085706 0.529167
O O8 0.259138 0.915171 0.096728
O O9 0.466596 0.418544 0.465058
O O10 0.348159 0.446573 0.043305
O O11 0.474864 0.278677 0.921303
O O12 0.776039 0.417711 0.539893
O O13 0.622883 0.367775 0.798828
O O14 0.000000 0.500000 0.500000
O O15 0.000000 0.500000 0.000000
O O16 0.921841 0.144943 0.459416
O O17 0.000000 0.000000 0.500000
O O18 0.622151 0.193057 0.413271
#
# Coordination Sequence:
#
# PCOD9031712 Si02
#       8
#     2   2   2   2   2   2   2   2
#     4  11  25  46  73 108 146 200 252 311 377 447
#     4  11  24  47  75 106 141 189 242 308 373 442
#     4  10  22  43  68 100 140 193 246 303 364 443
#     4  10  23  41  69  97 146 192 242 300 371 434
#     4  12  27  46  72 110 153 193 249 307 374 445
#     4  10  25  49  73 104 151 190 251 309 380 442
#     4  11  25  42  71 104 146 193 254 299 372 446
#     4  11  26  45  72 104 147 187 242 303 378 439
#
# _framework density 25.014510999999999
#
# number of rings (size 3 to 8) (size 9 to 14) (size 15 to 20)
#    0.000    1.250    1.250    2.625    8.750    2.000 
#    4.500    0.000    0.000    0.000    0.000    0.000 
#    0.000    0.000    0.000    0.000    0.000    0.000 
#
# Total GULP energy -89406.843171 kJ/mol
# GULP energy per Si atom -5587.927698 kJ/mol
# Density = 2.495758 g / cm^3
# Si number density = 25.014511 Si / 1000 Ang^3
#
#
#
# Elastic Constant Matrix: (Units=GPa)
#
#
# Indices 1 2 3 4 5 6 
#
# 1 154.0556 36.1595 34.0695 19.3455 -12.2993 -25.2748
# 2 36.1595 52.5421 37.3041 11.9006 -1.1170 -7.4563
# 3 34.0695 37.3041 130.4623 23.0934 -12.9911 -11.6431
# 4 19.3455 11.9006 23.0934 35.7736 -7.2612 -13.4364
# 5 -12.2993 -1.1170 -12.9911 -7.2612 49.8676 11.2312
# 6 -25.2748 -7.4563 -11.6431 -13.4364 11.2312 55.0842
#
#
#
# Elastic Compliance Matrix: (Units=1/GPa)
#
#
# Indices 1 2 3 4 5 6 
#
# 1 0.008386 -0.004905 -0.000164 -0.001623 0.001110 0.002527
# 2 -0.004905 0.027511 -0.006329 -0.002972 -0.002665 -0.000046
# 3 -0.000164 -0.006329 0.010444 -0.004206 0.001960 -0.000150
# 4 -0.001623 -0.002972 -0.004206 0.035280 0.002196 0.006122
# 5 0.001110 -0.002665 0.001960 0.002196 0.021854 -0.003357
# 6 0.002527 -0.000046 -0.000150 0.006122 -0.003357 0.021453
#
#
# Mechanical properties :
#
#
# Convention : Reuss Voigt Hill
#
# Bulk Modulus (GPa) = 42.47153 61.34735 51.90944
# Shear Modulus (GPa) = 32.13937 43.44688 37.79312
#
# Velocity S-wave (km/s) = 3.58834 4.17209 3.89118
# Velocity P-wave (km/s) = 5.84670 6.91277 6.40196
#
# Compressibility (1/GPa) = 0.02354518
#
# Stress axis : x y z
#
# Youngs Moduli (GPa) = 119.25111 36.34865 95.74915
#
# Poissons Ratio (x) = 0.17828 0.01571
# Poissons Ratio (y) = 0.58490 0.60600
# Poissons Ratio (z) = 0.01957 0.23005
#
# Static dielectric constant tensor:
#      x y z
#    x 2.016380 -0.016520 0.001790 
#    y -0.016520 2.182180 -0.049250 
#    z 0.001790 -0.049250 1.988070 
# 
# From -- ./inp_files/49390.got.cif
#   From: 2010.05.17/outbox.cif.g08.bks.cpg/sg2_25_cif.got.tgz:49390.got - 2010.06.03 11:33:40.
