data_PCOD9031318
_publ_section_title
;
Structure prediction by ZEFSAII (Michael W. Deem and Ramdas Pophale) SiO2 
 PCOD9031318
Probable space group: P -1
;
_chemical_formula_sum "Si O2"
_cell_formula_units_Z 16
_cell_length_a 22.640863
_cell_length_b 28.105262
_cell_length_c 12.696042
_cell_angle_alpha 28.858580
_cell_angle_beta 30.844987
_cell_angle_gamma 11.177068
_cell_volume 755.818750
_symmetry_space_group_name_H-M "P -1"
_symmetry_group_IT_number 2
_symmetry_cell_setting 'triclinic'
loop_
_space_group_symop_operation_xyz
x,y,z
-x,-y,-z
loop_
_atom_site_type_symbol
_atom_site_label
_atom_site_fract_x
_atom_site_fract_y
_atom_site_fract_z
Si Si1 0.835189 0.737474 0.781773
Si Si2 0.764818 0.678811 0.415930
Si Si3 0.359696 0.609085 0.197492
Si Si4 0.349664 0.813440 0.500288
Si Si5 0.755277 0.746820 0.669564
Si Si6 0.320973 0.857208 0.701154
Si Si7 0.608622 0.670796 0.168686
Si Si8 0.332315 0.689441 0.482625
O O1 0.866849 0.732335 0.618703
O O2 0.040569 0.635311 0.747176
O O3 0.480175 0.037985 0.764264
O O4 0.000000 0.500000 0.000000
O O5 0.552603 0.749473 0.610735
O O6 0.000000 0.500000 0.500000
O O7 0.968395 0.508323 0.330474
O O8 0.436580 0.452340 0.315103
O O9 0.577444 0.431975 0.309779
O O10 0.410085 0.672216 0.939866
O O11 0.015298 0.872483 0.257402
O O12 0.326644 0.874285 0.534351
O O13 0.461823 0.794860 0.269633
O O14 0.020387 0.036945 0.533938
O O15 0.500000 0.000000 0.500000
O O16 0.606801 0.771366 0.909370
O O17 0.447411 0.710036 0.278888
O O18 0.500000 0.500000 0.500000
#
# Coordination Sequence:
#
# PCOD9031318 Si02
#       8
#     2   2   2   2   2   2   2   2
#     4  10  23  46  67  95 133 175 232 279 335 411
#     4  12  25  43  69 100 140 182 227 284 349 407
#     4  10  22  43  66 104 135 174 226 276 341 403
#     4  11  22  43  68  98 134 176 226 273 344 406
#     4  11  24  46  67 100 137 173 237 287 339 407
#     4  11  24  42  71  98 137 178 223 282 337 408
#     4  10  23  42  67  95 134 185 219 286 342 404
#     4  11  22  41  63  99 140 169 228 275 334 410
#
# _framework density 21.169097000000001
#
# number of rings (size 3 to 8) (size 9 to 14) (size 15 to 20)
#    0.000    1.250    2.500    4.125    0.000    5.000 
#    4.500    0.000    0.000    0.000    0.000    0.000 
#    0.000    0.000    0.000    0.000    0.000    0.000 
#
# Total GULP energy -89360.667435 kJ/mol
# GULP energy per Si atom -5585.041715 kJ/mol
# Density = 2.112091 g / cm^3
# Si number density = 21.169097 Si / 1000 Ang^3
#
#
#
# Elastic Constant Matrix: (Units=GPa)
#
#
# Indices 1 2 3 4 5 6 
#
# 1 107.2192 59.5603 38.5853 9.7790 9.5080 -12.1554
# 2 59.5603 144.4160 45.3389 -7.0008 -0.1240 4.4408
# 3 38.5853 45.3389 125.9986 -1.0378 -6.1848 -3.0367
# 4 9.7790 -7.0008 -1.0378 23.4385 -2.0656 5.9842
# 5 9.5080 -0.1240 -6.1848 -2.0656 28.4177 3.8541
# 6 -12.1554 4.4408 -3.0367 5.9842 3.8541 49.3792
#
#
#
# Elastic Compliance Matrix: (Units=1/GPa)
#
#
# Indices 1 2 3 4 5 6 
#
# 1 0.016589 -0.006655 -0.003013 -0.011402 -0.007945 0.006499
# 2 -0.006655 0.010663 -0.001687 0.007114 0.002937 -0.003792
# 3 -0.003013 -0.001687 0.009629 0.001581 0.003272 -0.000445
# 4 -0.011402 0.007114 0.001581 0.053141 0.009481 -0.010529
# 5 -0.007945 0.002937 0.003272 0.009481 0.040116 -0.006299
# 6 0.006499 -0.003792 -0.000445 -0.010529 -0.006299 0.023933
#
#
# Mechanical properties :
#
#
# Convention : Reuss Voigt Hill
#
# Bulk Modulus (GPa) = 70.56866 73.84475 72.20670
# Shear Modulus (GPa) = 27.54739 35.85701 31.70220
#
# Velocity S-wave (km/s) = 3.61127 4.12009 3.87404
# Velocity P-wave (km/s) = 7.12716 7.58897 7.36169
#
# Compressibility (1/GPa) = 0.01417060
#
# Stress axis : x y z
#
# Youngs Moduli (GPa) = 60.28025 93.78208 103.84981
#
# Poissons Ratio (x) = 0.62415 0.31286
# Poissons Ratio (y) = 0.40118 0.17524
# Poissons Ratio (z) = 0.18160 0.15825
#
# Static dielectric constant tensor:
#      x y z
#    x 1.807870 -0.005610 -0.041290 
#    y -0.005610 1.802220 0.013760 
#    z -0.041290 0.013760 1.777630 
# 
# From -- ./inp_files/475774.got.cif
#   From: 2010.05.17/outbox.cif.g08.bks.cpg/sg2_238_cif.got.tgz:475774.got - 2010.06.03 11:33:40.
