data_PCOD9031276
_publ_section_title
;
Structure prediction by ZEFSAII (Michael W. Deem and Ramdas Pophale) SiO2 
 PCOD9031276
Probable space group: P -1
;
_chemical_formula_sum "Si O2"
_cell_formula_units_Z 14
_cell_length_a 10.730142
_cell_length_b 23.767661
_cell_length_c 7.035424
_cell_angle_alpha 63.310930
_cell_angle_beta 94.733303
_cell_angle_gamma 149.787572
_cell_volume 591.641235
_symmetry_space_group_name_H-M "P -1"
_symmetry_group_IT_number 2
_symmetry_cell_setting 'triclinic'
loop_
_space_group_symop_operation_xyz
x,y,z
-x,-y,-z
loop_
_atom_site_type_symbol
_atom_site_label
_atom_site_fract_x
_atom_site_fract_y
_atom_site_fract_z
Si Si1 0.946689 0.603938 0.157209
Si Si2 0.630655 0.853628 0.226713
Si Si3 0.523824 0.328074 0.771217
Si Si4 0.662260 0.311155 0.159322
Si Si5 0.864536 0.093045 0.898406
Si Si6 0.820162 0.144305 0.185237
Si Si7 0.680031 0.651290 0.763469
O O1 0.818813 0.514916 0.474342
O O2 0.622434 0.447616 0.207772
O O3 0.237399 0.701184 0.940731
O O4 0.034496 0.717490 0.026301
O O5 0.406119 0.698205 0.321661
O O6 0.561057 0.814652 0.500356
O O7 0.000000 0.000000 0.000000
O O8 0.617933 0.921051 0.064532
O O9 0.180566 0.202561 0.862264
O O10 0.504434 0.289670 0.034692
O O11 0.000000 0.500000 0.000000
O O12 0.031096 0.210544 0.571632
O O13 0.726155 0.070955 0.083051
O O14 0.113410 0.240731 0.181049
O O15 0.500000 0.000000 0.500000
O O16 0.500000 0.500000 0.000000
#
# Coordination Sequence:
#
# PCOD9031276 Si02
#       7
#     2   2   2   2   2   2   2
#     4  10  22  43  65  99 133 168 222 275 328 395
#     4  10  23  42  61  95 136 168 219 269 329 390
#     4  10  23  42  66  97 131 170 220 274 322 394
#     4  12  24  40  68  97 130 176 222 267 332 385
#     4  10  23  41  68  97 128 175 214 263 345 389
#     4  11  24  43  65  97 132 170 222 274 331 395
#     4   9  22  43  65  92 133 172 219 272 323 396
#
# _framework density 23.662990000000001
#
# number of rings (size 3 to 8) (size 9 to 14) (size 15 to 20)
#    0.000    1.714    1.429    1.286    2.000   10.286 
#    2.571    0.000    0.000    0.000    0.000    0.000 
#    0.000    0.000    0.000    0.000    0.000    0.000 
#
# Total GULP energy -78291.189590 kJ/mol
# GULP energy per Si atom -5592.227828 kJ/mol
# Density = 2.360913 g / cm^3
# Si number density = 23.662990 Si / 1000 Ang^3
#
#
#
# Elastic Constant Matrix: (Units=GPa)
#
#
# Indices 1 2 3 4 5 6 
#
# 1 82.5078 24.5175 36.1656 0.9080 -1.4853 -9.9581
# 2 24.5175 54.9436 15.0359 2.8017 9.0636 -10.2962
# 3 36.1656 15.0359 164.6143 -1.1753 14.1996 -19.8423
# 4 0.9080 2.8017 -1.1753 34.3752 -1.2097 5.1844
# 5 -1.4853 9.0636 14.1996 -1.2097 31.9474 4.0606
# 6 -9.9581 -10.2962 -19.8423 5.1844 4.0606 53.9807
#
#
#
# Elastic Compliance Matrix: (Units=1/GPa)
#
#
# Indices 1 2 3 4 5 6 
#
# 1 0.015586 -0.006746 -0.003140 0.000155 0.004025 0.000117
# 2 -0.006746 0.023277 0.000517 -0.002612 -0.007783 0.004222
# 3 -0.003140 0.000517 0.007358 -0.000228 -0.003894 0.002539
# 4 0.000155 -0.002612 -0.000228 0.029922 0.002441 -0.003611
# 5 0.004025 -0.007783 -0.003894 0.002441 0.036172 -0.005129
# 6 0.000117 0.004222 0.002539 -0.003611 -0.005129 0.021018
#
#
# Mechanical properties :
#
#
# Convention : Reuss Voigt Hill
#
# Bulk Modulus (GPa) = 36.38426 50.38930 43.38678
# Shear Modulus (GPa) = 31.01156 39.15046 35.08101
#
# Velocity S-wave (km/s) = 3.62408 4.07197 3.85454
# Velocity P-wave (km/s) = 5.73771 6.59156 6.17940
#
# Compressibility (1/GPa) = 0.02748441
#
# Stress axis : x y z
#
# Youngs Moduli (GPa) = 64.16117 42.96051 135.91136
#
# Poissons Ratio (x) = 0.28979 0.42677
# Poissons Ratio (y) = 0.43280 -0.07033
# Poissons Ratio (z) = 0.20147 -0.02223
#
# Static dielectric constant tensor:
#      x y z
#    x 1.917160 0.042180 0.024200 
#    y 0.042180 1.999630 -0.004040 
#    z 0.024200 -0.004040 1.859540 
# 
# From -- ./inp_files/72569.got.cif
#   From: 2010.05.17/outbox.cif.g08.bks.cpg/sg2_37_cif.got.tgz:72569.got - 2010.06.03 11:33:40.
