data_PCOD9031037
_publ_section_title
;
Structure prediction by ZEFSAII (Michael W. Deem and Ramdas Pophale) SiO2 
 PCOD9031037
Probable space group: P -1
;
_chemical_formula_sum "Si O2"
_cell_formula_units_Z 16
_cell_length_a 8.648229
_cell_length_b 13.623289
_cell_length_c 11.762279
_cell_angle_alpha 49.254193
_cell_angle_beta 98.247803
_cell_angle_gamma 130.961771
_cell_volume 687.905584
_symmetry_space_group_name_H-M "P -1"
_symmetry_group_IT_number 2
_symmetry_cell_setting 'triclinic'
loop_
_space_group_symop_operation_xyz
x,y,z
-x,-y,-z
loop_
_atom_site_type_symbol
_atom_site_label
_atom_site_fract_x
_atom_site_fract_y
_atom_site_fract_z
Si Si1 0.176181 0.695590 0.293501
Si Si2 0.332697 0.817223 0.756650
Si Si3 0.236016 0.324615 0.060963
Si Si4 0.831422 0.998140 0.680363
Si Si5 0.175325 0.988226 0.590631
Si Si6 0.857328 0.712142 0.329519
Si Si7 0.006562 0.428468 0.878797
Si Si8 0.571272 0.753691 0.354642
O O1 0.119008 0.624536 0.212149
O O2 0.440977 0.808078 0.265296
O O3 0.000000 0.500000 0.500000
O O4 0.082357 0.786020 0.232980
O O5 0.585555 0.915186 0.729110
O O6 0.353574 0.979005 0.603480
O O7 0.184526 0.649128 0.772853
O O8 0.187375 0.709833 0.939164
O O9 0.191320 0.152256 0.141943
O O10 0.061876 0.227369 0.224461
O O11 0.500000 0.500000 0.000000
O O12 0.159914 0.391058 0.918971
O O13 0.856597 0.979449 0.564162
O O14 0.038018 0.215324 0.586111
O O15 0.284944 0.136035 0.595834
O O16 0.738538 0.782968 0.257639
O O17 0.641085 0.479206 0.469002
#
# Coordination Sequence:
#
# PCOD9031037 Si02
#       8
#     2   2   2   2   2   2   2   2
#     4  10  23  42  71  98 138 192 237 289 353 421
#     4  10  23  41  71 102 141 182 234 299 361 424
#     4  11  23  43  65  99 146 186 223 290 364 419
#     4  12  23  42  72 109 134 180 247 295 355 422
#     4  11  24  41  74 106 140 179 243 304 347 420
#     4  10  23  41  65 104 142 174 237 289 360 423
#     4  10  23  46  64 103 144 188 235 286 365 436
#     4  10  22  43  64 104 145 179 228 299 361 405
#
# _framework density 23.259005999999999
#
# number of rings (size 3 to 8) (size 9 to 14) (size 15 to 20)
#    0.000    1.500    2.500    1.500    7.000    0.000 
#    4.500    6.250    0.000    0.000    0.000    0.000 
#    0.000    0.000    0.000    0.000    0.000    0.000 
#
# Total GULP energy -89282.634453 kJ/mol
# GULP energy per Si atom -5580.164653 kJ/mol
# Density = 2.320607 g / cm^3
# Si number density = 23.259006 Si / 1000 Ang^3
#
#
#
# Elastic Constant Matrix: (Units=GPa)
#
#
# Indices 1 2 3 4 5 6 
#
# 1 130.2938 28.2219 5.5988 0.2370 -11.5277 7.0553
# 2 28.2219 165.1864 40.9368 6.9590 -1.5741 7.5887
# 3 5.5988 40.9368 39.4110 6.1357 -4.3835 -4.6397
# 4 0.2370 6.9590 6.1357 31.0193 6.3022 0.5062
# 5 -11.5277 -1.5741 -4.3835 6.3022 18.9774 -13.6455
# 6 7.0553 7.5887 -4.6397 0.5062 -13.6455 33.7349
#
#
#
# Elastic Compliance Matrix: (Units=1/GPa)
#
#
# Indices 1 2 3 4 5 6 
#
# 1 0.008562 -0.001940 0.002116 -0.001604 0.007494 0.001992
# 2 -0.001940 0.009400 -0.011584 0.002074 -0.008686 -0.006847
# 3 0.002116 -0.011584 0.044769 -0.012616 0.029576 0.020473
# 4 -0.001604 0.002074 -0.012616 0.039860 -0.026405 -0.013145
# 5 0.007494 -0.008686 0.029576 -0.026405 0.106627 0.047980
# 6 0.001992 -0.006847 0.020473 -0.013145 0.047980 0.053187
#
#
# Mechanical properties :
#
#
# Convention : Reuss Voigt Hill
#
# Bulk Modulus (GPa) = 25.05173 53.82293 39.43733
# Shear Modulus (GPa) = 16.74900 34.08858 25.41879
#
# Velocity S-wave (km/s) = 2.68639 3.83248 3.30943
# Velocity P-wave (km/s) = 4.51846 6.54024 5.62100
#
# Compressibility (1/GPa) = 0.03991740
#
# Stress axis : x y z
#
# Youngs Moduli (GPa) = 116.79124 106.38022 22.33693
#
# Poissons Ratio (x) = 0.20636 -0.04727
# Poissons Ratio (y) = 0.22656 0.25874
# Poissons Ratio (z) = -0.24717 1.23226
#
# Static dielectric constant tensor:
#      x y z
#    x 2.054270 0.000900 0.039890 
#    y 0.000900 1.830920 0.005440 
#    z 0.039890 0.005440 1.853440 
# 
# From -- ./inp_files/398637.got.cif
#   From: 2010.05.17/outbox.cif.g08.bks.cpg/sg2_200_cif.got.tgz:398637.got - 2010.06.03 11:33:40.
