data_PCOD9031479
_publ_section_title
;
Structure prediction by ZEFSAII (Michael W. Deem and Ramdas Pophale) SiO2 
 PCOD9031479
Probable space group: P -1
;
_chemical_formula_sum "Si O2"
_cell_formula_units_Z 12
_cell_length_a 7.741643
_cell_length_b 9.315261
_cell_length_c 11.723143
_cell_angle_alpha 65.495241
_cell_angle_beta 140.027152
_cell_angle_gamma 119.224574
_cell_volume 472.741039
_symmetry_space_group_name_H-M "P -1"
_symmetry_group_IT_number 2
_symmetry_cell_setting 'triclinic'
loop_
_space_group_symop_operation_xyz
x,y,z
-x,-y,-z
loop_
_atom_site_type_symbol
_atom_site_label
_atom_site_fract_x
_atom_site_fract_y
_atom_site_fract_z
Si Si1 0.956812 0.136428 0.758826
Si Si2 0.635332 0.356516 0.399801
Si Si3 0.145740 0.937999 0.731443
Si Si4 0.413980 0.134158 0.168295
Si Si5 0.795039 0.613612 0.556249
Si Si6 0.988790 0.637478 0.863420
O O1 0.778107 0.257658 0.591339
O O2 0.052675 0.073565 0.708555
O O3 0.758796 0.983303 0.781009
O O4 0.218530 0.193648 0.959886
O O5 0.627584 0.286406 0.292232
O O6 0.775578 0.548766 0.439450
O O7 0.305900 0.327142 0.269792
O O8 0.893027 0.809976 0.570214
O O9 0.202913 0.817709 0.901546
O O10 0.586310 0.029780 0.223044
O O11 0.500000 0.500000 0.500000
O O12 0.002333 0.565654 0.767302
O O13 0.000000 0.500000 0.000000
#
# Coordination Sequence:
#
# PCOD9031479 Si02
#       6
#     2   2   2   2   2   2
#     4  11  24  44  67  97 140 173 223 276 335 395
#     4  11  22  42  67  99 133 175 220 277 336 395
#     4  10  22  43  67 100 131 175 228 272 328 407
#     4  11  24  40  70  99 134 179 218 275 339 392
#     4   8  18  38  64  93 131 165 220 265 327 395
#     4   9  20  39  68  93 132 175 214 270 336 387
#
# _framework density 25.383879
#
# number of rings (size 3 to 8) (size 9 to 14) (size 15 to 20)
#    1.000    1.000    1.667    1.000    2.333    1.333 
#    0.000    8.333    0.000    0.000    0.000    0.000 
#    0.000    0.000    0.000    0.000    0.000    0.000 
#
# Total GULP energy -66851.456384 kJ/mol
# GULP energy per Si atom -5570.954699 kJ/mol
# Density = 2.532610 g / cm^3
# Si number density = 25.383879 Si / 1000 Ang^3
#
#
#
# Elastic Constant Matrix: (Units=GPa)
#
#
# Indices 1 2 3 4 5 6 
#
# 1 136.0390 29.0167 49.9917 2.5546 -6.0889 -19.9336
# 2 29.0167 77.8340 59.9135 22.6232 -8.0424 -25.3915
# 3 49.9917 59.9135 143.9391 -11.1244 -4.3376 -15.9091
# 4 2.5546 22.6232 -11.1244 43.9311 -8.1749 -0.1672
# 5 -6.0889 -8.0424 -4.3376 -8.1749 33.2735 6.0725
# 6 -19.9336 -25.3915 -15.9091 -0.1672 6.0725 33.7277
#
#
#
# Elastic Compliance Matrix: (Units=1/GPa)
#
#
# Indices 1 2 3 4 5 6 
#
# 1 0.009023 0.001325 -0.003312 -0.001993 0.000188 0.004725
# 2 0.001325 0.039438 -0.016328 -0.024936 -0.002702 0.023135
# 3 -0.003312 -0.016328 0.015119 0.012755 0.001902 -0.007397
# 4 -0.001993 -0.024936 0.012755 0.040373 0.007958 -0.015166
# 5 0.000188 -0.002702 0.001902 0.007958 0.032899 -0.006910
# 6 0.004725 0.023135 -0.007397 -0.015166 -0.006910 0.047538
#
#
# Mechanical properties :
#
#
# Convention : Reuss Voigt Hill
#
# Bulk Modulus (GPa) = 37.10206 70.62843 53.86524
# Shear Modulus (GPa) = 21.73881 36.77915 29.25898
#
# Velocity S-wave (km/s) = 2.92961 3.81059 3.39877
# Velocity P-wave (km/s) = 5.10799 6.87353 6.05545
#
# Compressibility (1/GPa) = 0.02695268
#
# Stress axis : x y z
#
# Youngs Moduli (GPa) = 110.82447 25.35631 66.14041
#
# Poissons Ratio (x) = -0.03361 0.21904
# Poissons Ratio (y) = -0.14688 1.07991
# Poissons Ratio (z) = 0.36701 0.41401
#
# Static dielectric constant tensor:
#      x y z
#    x 2.202600 -0.021630 -0.045570 
#    y -0.021630 2.233930 0.085130 
#    z -0.045570 0.085130 2.089110 
# 
# From -- ./inp_files/516762.got.cif
#   From: 2010.05.17/outbox.cif.g08.bks.cpg/sg2_259_cif.got.tgz:516762.got - 2010.06.03 11:33:40.
