data_PCOD9031295
_publ_section_title
;
Structure prediction by ZEFSAII (Michael W. Deem and Ramdas Pophale) SiO2 
 PCOD9031295
Probable space group: P -1
;
_chemical_formula_sum "Si O2"
_cell_formula_units_Z 16
_cell_length_a 10.738998
_cell_length_b 6.344650
_cell_length_c 11.316681
_cell_angle_alpha 82.631112
_cell_angle_beta 98.870670
_cell_angle_gamma 117.988845
_cell_volume 671.353972
_symmetry_space_group_name_H-M "P -1"
_symmetry_group_IT_number 2
_symmetry_cell_setting 'triclinic'
loop_
_space_group_symop_operation_xyz
x,y,z
-x,-y,-z
loop_
_atom_site_type_symbol
_atom_site_label
_atom_site_fract_x
_atom_site_fract_y
_atom_site_fract_z
Si Si1 0.861784 0.879933 0.368140
Si Si2 0.617726 0.241210 0.663335
Si Si3 0.039795 0.530266 0.820757
Si Si4 0.677091 0.079646 0.440719
Si Si5 0.121148 0.323777 0.377048
Si Si6 0.427254 0.080565 0.088586
Si Si7 0.320155 0.538349 0.773173
Si Si8 0.112633 0.902660 0.000629
O O1 0.809547 0.048713 0.417109
O O2 0.865982 0.699269 0.480064
O O3 0.741433 0.727232 0.268060
O O4 0.022541 0.050935 0.339735
O O5 0.461703 0.167696 0.594290
O O6 0.722648 0.523814 0.664862
O O7 0.679637 0.139828 0.574252
O O8 0.604175 0.107309 0.794212
O O9 0.185415 0.519958 0.827080
O O10 0.081187 0.775110 0.878711
O O11 0.964010 0.535663 0.688679
O O12 0.929845 0.313562 0.897310
O O13 0.659114 0.277823 0.344703
O O14 0.539476 0.338136 0.137378
O O15 0.500000 0.000000 0.000000
O O16 0.279345 0.072186 0.028084
O O17 0.000000 0.000000 0.000000
#
# Coordination Sequence:
#
# PCOD9031295 Si02
#       8
#     2   2   2   2   2   2   2   2
#     4  11  25  40  67 112 144 187 239 292 346 453
#     4  10  22  43  70  98 138 196 230 299 367 432
#     4  11  24  45  69  98 148 189 232 308 360 423
#     4  10  22  43  66 100 148 181 234 295 366 427
#     4  11  23  42  67 103 145 186 238 279 367 425
#     4  11  23  48  78 103 138 196 245 298 375 431
#     4  11  23  44  73 103 146 192 234 292 372 433
#     4  11  26  47  73 106 136 183 255 306 356 422
#
# _framework density 23.832433999999999
#
# number of rings (size 3 to 8) (size 9 to 14) (size 15 to 20)
#    0.000    1.250    5.000    0.000    1.750    4.500 
#    2.250    0.625    0.000    0.000    0.000    0.000 
#    0.000    0.000    0.000    0.000    0.000    0.000 
#
# Total GULP energy -89451.419352 kJ/mol
# GULP energy per Si atom -5590.713709 kJ/mol
# Density = 2.377819 g / cm^3
# Si number density = 23.832434 Si / 1000 Ang^3
#
#
#
# Elastic Constant Matrix: (Units=GPa)
#
#
# Indices 1 2 3 4 5 6 
#
# 1 96.4977 30.6505 33.9151 22.8719 6.6910 22.7200
# 2 30.6505 95.5366 36.1659 12.1531 4.3640 44.2668
# 3 33.9151 36.1659 106.9424 8.0466 1.6702 10.5302
# 4 22.8719 12.1531 8.0466 31.6446 2.0122 -3.4422
# 5 6.6910 4.3640 1.6702 2.0122 41.6694 8.2655
# 6 22.7200 44.2668 10.5302 -3.4422 8.2655 54.0873
#
#
#
# Elastic Compliance Matrix: (Units=1/GPa)
#
#
# Indices 1 2 3 4 5 6 
#
# 1 0.015979 0.001580 -0.003910 -0.011999 -0.000419 -0.007943
# 2 0.001580 0.021645 -0.005281 -0.010215 0.001810 -0.018277
# 3 -0.003910 -0.005281 0.011831 0.002273 -0.000163 0.003831
# 4 -0.011999 -0.010215 0.002273 0.045545 -0.002516 0.016241
# 5 -0.000419 0.001810 -0.000163 -0.002516 0.025048 -0.005261
# 6 -0.007943 -0.018277 0.003831 0.016241 -0.005261 0.037876
#
#
# Mechanical properties :
#
#
# Convention : Reuss Voigt Hill
#
# Bulk Modulus (GPa) = 29.21217 55.60440 42.40829
# Shear Modulus (GPa) = 27.09198 38.69659 32.89428
#
# Velocity S-wave (km/s) = 3.37526 4.03388 3.71918
# Velocity P-wave (km/s) = 5.24154 6.71404 6.02296
#
# Compressibility (1/GPa) = 0.03423230
#
# Stress axis : x y z
#
# Youngs Moduli (GPa) = 62.58356 46.20023 84.52289
#
# Poissons Ratio (x) = -0.07299 0.33050
# Poissons Ratio (y) = -0.09888 0.44636
# Poissons Ratio (z) = 0.24471 0.24398
#
# Static dielectric constant tensor:
#      x y z
#    x 1.885180 0.007080 -0.013100 
#    y 0.007080 1.993670 0.003930 
#    z -0.013100 0.003930 1.914440 
# 
# From -- ./inp_files/410299.got.cif
#   From: 2010.05.17/outbox.cif.g08.bks.cpg/sg2_206_cif.got.tgz:410299.got - 2010.06.03 11:33:40.
