data_PCOD9031248
_publ_section_title
;
Structure prediction by ZEFSAII (Michael W. Deem and Ramdas Pophale) SiO2 
 PCOD9031248
Probable space group: P -1
;
_chemical_formula_sum "Si O2"
_cell_formula_units_Z 14
_cell_length_a 9.055984
_cell_length_b 8.100239
_cell_length_c 17.125319
_cell_angle_alpha 126.046434
_cell_angle_beta 123.790396
_cell_angle_gamma 98.650993
_cell_volume 593.699523
_symmetry_space_group_name_H-M "P -1"
_symmetry_group_IT_number 2
_symmetry_cell_setting 'triclinic'
loop_
_space_group_symop_operation_xyz
x,y,z
-x,-y,-z
loop_
_atom_site_type_symbol
_atom_site_label
_atom_site_fract_x
_atom_site_fract_y
_atom_site_fract_z
Si Si1 0.346031 0.174004 0.446858
Si Si2 0.649395 0.636207 0.955695
Si Si3 0.829068 0.368733 0.337978
Si Si4 0.390328 0.792601 0.987710
Si Si5 0.896847 0.700343 0.706606
Si Si6 0.727273 0.750665 0.387932
Si Si7 0.011285 0.422720 0.893377
O O1 0.643971 0.456176 0.611648
O O2 0.204154 0.246782 0.382073
O O3 0.269658 0.110696 0.496035
O O4 0.251576 0.896609 0.296690
O O5 0.515279 0.410043 0.782477
O O6 0.427176 0.590173 0.915270
O O7 0.782177 0.588667 0.039191
O O8 0.880076 0.982302 0.100620
O O9 0.712576 0.497175 0.332426
O O10 0.000000 0.500000 0.500000
O O11 0.994936 0.423892 0.329267
O O12 0.603021 0.022331 0.178069
O O13 0.129383 0.634327 0.911027
O O14 0.500000 0.000000 0.000000
O O15 0.000000 0.000000 0.500000
O O16 0.000000 0.500000 0.000000
#
# Coordination Sequence:
#
# PCOD9031248 Si02
#       7
#     2   2   2   2   2   2   2
#     4  10  22  43  65  96 134 171 221 281 330 400
#     4  10  23  45  65 101 137 180 219 281 340 403
#     4  11  23  39  68  95 127 174 227 271 325 404
#     4  11  23  44  70 100 133 177 226 278 330 403
#     4   9  21  41  68  94 128 175 224 268 337 395
#     4  12  25  40  65  99 136 170 222 280 335 393
#     4  11  26  45  71  98 138 183 226 276 344 406
#
# _framework density 23.580950999999999
#
# number of rings (size 3 to 8) (size 9 to 14) (size 15 to 20)
#    0.000    1.429    2.857    1.286    4.000    1.714 
#    5.143    1.429    0.000    0.000    0.000    0.000 
#    0.000    0.000    0.000    0.000    0.000    0.000 
#
# Total GULP energy -78166.815489 kJ/mol
# GULP energy per Si atom -5583.343964 kJ/mol
# Density = 2.352728 g / cm^3
# Si number density = 23.580951 Si / 1000 Ang^3
#
#
#
# Elastic Constant Matrix: (Units=GPa)
#
#
# Indices 1 2 3 4 5 6 
#
# 1 75.8051 16.6866 27.3776 9.1505 -10.5995 28.1825
# 2 16.6866 51.4925 13.2668 3.7654 2.2301 20.1898
# 3 27.3776 13.2668 150.5398 -3.5130 -4.4469 33.5776
# 4 9.1505 3.7654 -3.5130 21.8057 -2.5403 6.8773
# 5 -10.5995 2.2301 -4.4469 -2.5403 43.5927 -2.4275
# 6 28.1825 20.1898 33.5776 6.8773 -2.4275 46.2116
#
#
#
# Elastic Compliance Matrix: (Units=1/GPa)
#
#
# Indices 1 2 3 4 5 6 
#
# 1 0.018314 -0.002125 -0.001244 -0.004411 0.003705 -0.008485
# 2 -0.002125 0.023845 0.000301 -0.000479 -0.002257 -0.009388
# 3 -0.001244 0.000301 0.008258 0.003710 0.000412 -0.005904
# 4 -0.004411 -0.000479 0.003710 0.050905 0.001892 -0.007273
# 5 0.003705 -0.002257 0.000412 0.001892 0.024075 -0.000590
# 6 -0.008485 -0.009388 -0.005904 -0.007273 -0.000590 0.036257
#
#
# Mechanical properties :
#
#
# Convention : Reuss Voigt Hill
#
# Bulk Modulus (GPa) = 22.58314 43.61104 33.09709
# Shear Modulus (GPa) = 27.38952 37.02242 32.20597
#
# Velocity S-wave (km/s) = 3.41179 3.96664 3.69963
# Velocity P-wave (km/s) = 5.01179 6.28596 5.68469
#
# Compressibility (1/GPa) = 0.04428081
#
# Stress axis : x y z
#
# Youngs Moduli (GPa) = 54.60280 41.93741 121.09386
#
# Poissons Ratio (x) = 0.08912 0.15067
# Poissons Ratio (y) = 0.11604 -0.03647
# Poissons Ratio (z) = 0.06794 -0.01263
#
# Static dielectric constant tensor:
#      x y z
#    x 2.064870 -0.006300 -0.190180 
#    y -0.006300 2.053390 0.024330 
#    z -0.190180 0.024330 2.180370 
# 
# From -- ./inp_files/156628.got.cif
#   From: 2010.05.17/outbox.cif.g08.bks.cpg/sg2_79_cif.got.tgz:156628.got - 2010.06.03 11:33:40.
