data_PCOD9031994
_publ_section_title
;
Structure prediction by ZEFSAII (Michael W. Deem and Ramdas Pophale) SiO2 
 PCOD9031994
Probable space group: P -1
;
_chemical_formula_sum "Si O2"
_cell_formula_units_Z 16
_cell_length_a 9.070266
_cell_length_b 15.163827
_cell_length_c 5.248921
_cell_angle_alpha 79.636749
_cell_angle_beta 104.538219
_cell_angle_gamma 73.737381
_cell_volume 646.087534
_symmetry_space_group_name_H-M "P -1"
_symmetry_group_IT_number 2
_symmetry_cell_setting 'triclinic'
loop_
_space_group_symop_operation_xyz
x,y,z
-x,-y,-z
loop_
_atom_site_type_symbol
_atom_site_label
_atom_site_fract_x
_atom_site_fract_y
_atom_site_fract_z
Si Si1 0.202041 0.690394 0.321970
Si Si2 0.342703 0.845087 0.312249
Si Si3 0.054482 0.587754 0.718303
Si Si4 0.625401 0.917593 0.427975
Si Si5 0.880507 0.760094 0.932680
Si Si6 0.187868 0.958541 0.694818
Si Si7 0.234758 0.387180 0.791028
Si Si8 0.464297 0.564126 0.200043
O O1 0.328807 0.742120 0.420934
O O2 0.164367 0.618740 0.541096
O O3 0.282936 0.633783 0.131423
O O4 0.024888 0.769184 0.163516
O O5 0.517666 0.854594 0.322752
O O6 0.276664 0.902165 0.512992
O O7 0.227371 0.891191 0.995966
O O8 0.159297 0.479192 0.898877
O O9 0.977962 0.674879 0.829859
O O10 0.892947 0.584693 0.508074
O O11 0.771378 0.852750 0.697995
O O12 0.500000 0.000000 0.500000
O O13 0.718777 0.965250 0.250270
O O14 0.769529 0.712212 0.057986
O O15 0.000000 0.000000 0.500000
O O16 0.411927 0.379192 0.792180
O O17 0.500000 0.500000 0.500000
O O18 0.500000 0.500000 0.000000
#
# Coordination Sequence:
#
# PCOD9031994 Si02
#       8
#     2   2   2   2   2   2   2   2
#     4  11  26  43  71 108 147 192 253 309 372 447
#     4  11  26  45  72 107 145 186 243 303 370 442
#     4  10  22  43  69 102 146 189 246 303 367 443
#     4  10  25  48  71 102 150 191 250 308 381 438
#     4  11  24  45  72 103 141 200 251 308 368 451
#     4  11  24  47  75 107 141 191 238 305 374 446
#     4  10  23  42  69 102 143 193 246 300 371 435
#     4  12  27  44  70 103 148 194 242 303 372 434
#
# _framework density 24.764444000000001
#
# number of rings (size 3 to 8) (size 9 to 14) (size 15 to 20)
#    0.000    1.250    1.250    2.625    7.000    3.000 
#    9.000    0.000    0.000    0.000    0.000    0.000 
#    0.000    0.000    0.000    0.000    0.000    0.000 
#
# Total GULP energy -89473.395243 kJ/mol
# GULP energy per Si atom -5592.087203 kJ/mol
# Density = 2.470808 g / cm^3
# Si number density = 24.764444 Si / 1000 Ang^3
#
#
#
# Elastic Constant Matrix: (Units=GPa)
#
#
# Indices 1 2 3 4 5 6 
#
# 1 161.8384 32.6937 20.7279 5.9074 -10.1295 23.3736
# 2 32.6937 50.8927 -1.0074 1.6498 -2.9420 4.7223
# 3 20.7279 -1.0074 72.0184 1.0027 -11.1987 -0.2694
# 4 5.9074 1.6498 1.0027 39.0900 -1.4300 -2.3930
# 5 -10.1295 -2.9420 -11.1987 -1.4300 34.8624 -5.0774
# 6 23.3736 4.7223 -0.2694 -2.3930 -5.0774 42.0263
#
#
#
# Elastic Compliance Matrix: (Units=1/GPa)
#
#
# Indices 1 2 3 4 5 6 
#
# 1 0.008100 -0.004808 -0.002307 -0.001184 0.000579 -0.003977
# 2 -0.004808 0.022827 0.001888 -0.000228 0.001163 0.000249
# 3 -0.002307 0.001888 0.015306 0.000154 0.004666 0.001741
# 4 -0.001184 -0.000228 0.000154 0.025947 0.001084 0.002294
# 5 0.000579 0.001163 0.004666 0.001084 0.030986 0.003383
# 6 -0.003977 0.000249 0.001741 0.002294 0.003383 0.026529
#
#
# Mechanical properties :
#
#
# Convention : Reuss Voigt Hill
#
# Bulk Modulus (GPa) = 27.94993 43.28643 35.61818
# Shear Modulus (GPa) = 32.87888 38.68476 35.78182
#
# Velocity S-wave (km/s) = 3.64767 3.95664 3.80529
# Velocity P-wave (km/s) = 5.38994 6.19601 5.80698
#
# Compressibility (1/GPa) = 0.03577827
#
# Stress axis : x y z
#
# Youngs Moduli (GPa) = 123.46397 43.80823 65.33587
#
# Poissons Ratio (x) = 0.21063 0.15072
# Poissons Ratio (y) = 0.59361 -0.12335
# Poissons Ratio (z) = 0.28480 -0.08271
#
# Static dielectric constant tensor:
#      x y z
#    x 1.929790 0.009190 -0.010760 
#    y 0.009190 2.014580 0.018440 
#    z -0.010760 0.018440 1.893670 
# 
# From -- ./inp_files/38112.got.cif
#   From: 2010.05.17/outbox.cif.g08.bks.cpg/sg2_20_cif.got.tgz:38112.got - 2010.06.03 11:33:40.
