data_PCOD9031161
_publ_section_title
;
Structure prediction by ZEFSAII (Michael W. Deem and Ramdas Pophale) SiO2 
 PCOD9031161
Probable space group: P -1
;
_chemical_formula_sum "Si O2"
_cell_formula_units_Z 14
_cell_length_a 8.560151
_cell_length_b 12.484190
_cell_length_c 4.909345
_cell_angle_alpha 94.988369
_cell_angle_beta 85.780821
_cell_angle_gamma 82.104896
_cell_volume 515.755702
_symmetry_space_group_name_H-M "P -1"
_symmetry_group_IT_number 2
_symmetry_cell_setting 'triclinic'
loop_
_space_group_symop_operation_xyz
x,y,z
-x,-y,-z
loop_
_atom_site_type_symbol
_atom_site_label
_atom_site_fract_x
_atom_site_fract_y
_atom_site_fract_z
Si Si1 0.191353 0.379538 0.760747
Si Si2 0.942937 0.243646 0.909316
Si Si3 0.795780 0.942498 0.994012
Si Si4 0.673529 0.516606 0.705377
Si Si5 0.221694 0.912023 0.491569
Si Si6 0.620729 0.333619 0.078061
Si Si7 0.552977 0.820271 0.274561
O O1 0.219522 0.472365 0.566425
O O2 0.311896 0.270557 0.639346
O O3 0.019835 0.344063 0.799561
O O4 0.247347 0.418936 0.051979
O O5 0.876423 0.171517 0.666229
O O6 0.795624 0.284316 0.133428
O O7 0.084538 0.168832 0.027126
O O8 0.636713 0.913656 0.149085
O O9 0.848705 0.033170 0.210583
O O10 0.774563 0.991311 0.708862
O O11 0.651480 0.403080 0.819033
O O12 0.497042 0.584868 0.707517
O O13 0.404369 0.859752 0.493312
O O14 0.528485 0.238716 0.969804
#
# Coordination Sequence:
#
# PCOD9031161 Si02
#       7
#     2   2   2   2   2   2   2
#     4  10  23  41  63  92 126 161 200 253 305 362
#     4  10  23  41  63  93 126 160 204 254 308 359
#     4  11  23  40  60  87 123 160 201 252 304 357
#     4  10  22  43  65  90 124 162 204 247 304 366
#     4  11  23  40  61  87 121 162 204 249 300 359
#     4   9  21  41  65  93 123 161 204 253 302 364
#     4   9  21  38  61  89 120 159 205 248 299 359
#
# _framework density 27.144634
#
# number of rings (size 3 to 8) (size 9 to 14) (size 15 to 20)
#    0.000    2.000    0.000    1.714    0.000   17.714 
#    0.000   10.000    0.000    0.000    0.000    0.000 
#    0.000    0.000    0.000    0.000    0.000    0.000 
#
# Total GULP energy -78595.012815 kJ/mol
# GULP energy per Si atom -5613.929487 kJ/mol
# Density = 2.708285 g / cm^3
# Si number density = 27.144634 Si / 1000 Ang^3
#
#
#
# Elastic Constant Matrix: (Units=GPa)
#
#
# Indices 1 2 3 4 5 6 
#
# 1 115.9325 24.7827 25.4571 1.1225 -12.2795 17.9702
# 2 24.7827 88.0420 24.4680 6.2014 6.1300 20.1315
# 3 25.4571 24.4680 103.2916 -4.9887 -6.0630 1.2786
# 4 1.1225 6.2014 -4.9887 34.6333 -1.5369 -17.8616
# 5 -12.2795 6.1300 -6.0630 -1.5369 21.0776 -7.9955
# 6 17.9702 20.1315 1.2786 -17.8616 -7.9955 56.3417
#
#
#
# Elastic Compliance Matrix: (Units=1/GPa)
#
#
# Indices 1 2 3 4 5 6 
#
# 1 0.010384 -0.002298 -0.001720 -0.000959 0.005399 -0.001990
# 2 -0.002298 0.016993 -0.004486 -0.009234 -0.011987 -0.009866
# 3 -0.001720 -0.004486 0.011688 0.004997 0.005650 0.004272
# 4 -0.000959 -0.009234 0.004997 0.041461 0.013632 0.018571
# 5 0.005399 -0.011987 0.005650 0.013632 0.062628 0.015642
# 6 -0.001990 -0.009866 0.004272 0.018571 0.015642 0.029919
#
#
# Mechanical properties :
#
#
# Convention : Reuss Voigt Hill
#
# Bulk Modulus (GPa) = 45.33875 50.74242 48.04059
# Shear Modulus (GPa) = 25.32493 37.91439 31.61966
#
# Velocity S-wave (km/s) = 3.05776 3.74137 3.41671
# Velocity P-wave (km/s) = 5.40420 6.11537 5.77075
#
# Compressibility (1/GPa) = 0.02205619
#
# Stress axis : x y z
#
# Youngs Moduli (GPa) = 96.30027 58.84792 85.55813
#
# Poissons Ratio (x) = 0.13526 0.14713
# Poissons Ratio (y) = 0.22135 0.38385
# Poissons Ratio (z) = 0.16560 0.26401
#
# Static dielectric constant tensor:
#      x y z
#    x 2.115340 -0.032720 0.004950 
#    y -0.032720 2.105610 -0.009100 
#    z 0.004950 -0.009100 2.018100 
# 
# From -- ./inp_files/27534.got.cif
#   From: 2010.05.17/outbox.cif.g08.bks.cpg/sg2_14_cif.got.tgz:27534.got - 2010.06.03 11:33:40.
