data_PCOD9031863
_publ_section_title
;
Structure prediction by ZEFSAII (Michael W. Deem and Ramdas Pophale) SiO2 
 PCOD9031863
Probable space group: P -1
;
_chemical_formula_sum "Si O2"
_cell_formula_units_Z 16
_cell_length_a 10.185174
_cell_length_b 14.041141
_cell_length_c 5.197015
_cell_angle_alpha 74.897969
_cell_angle_beta 111.484300
_cell_angle_gamma 117.477328
_cell_volume 609.790570
_symmetry_space_group_name_H-M "P -1"
_symmetry_group_IT_number 2
_symmetry_cell_setting 'triclinic'
loop_
_space_group_symop_operation_xyz
x,y,z
-x,-y,-z
loop_
_atom_site_type_symbol
_atom_site_label
_atom_site_fract_x
_atom_site_fract_y
_atom_site_fract_z
Si Si1 0.206028 0.745022 0.627056
Si Si2 0.193658 0.209615 0.794207
Si Si3 0.027708 0.095568 0.225785
Si Si4 0.452765 0.206521 0.334859
Si Si5 0.753449 0.436913 0.948515
Si Si6 0.762978 0.014605 0.435673
Si Si7 0.567536 0.624697 0.404474
Si Si8 0.106342 0.433993 0.563052
O O1 0.361774 0.750176 0.592217
O O2 0.245944 0.871799 0.599898
O O3 0.029841 0.686896 0.441428
O O4 0.188377 0.659723 0.907922
O O5 0.111794 0.153922 0.510035
O O6 0.276399 0.334019 0.677850
O O7 0.084296 0.179652 0.980835
O O8 0.340070 0.184045 0.018034
O O9 0.847020 0.038604 0.198472
O O10 0.107974 0.012202 0.294367
O O11 0.415213 0.296812 0.398689
O O12 0.388308 0.093355 0.532846
O O13 0.571420 0.368773 0.858483
O O14 0.818283 0.509336 0.692301
O O15 0.782827 0.520266 0.144708
O O16 0.500000 0.500000 0.500000
O O17 0.000000 0.500000 0.500000
#
# Coordination Sequence:
#
# PCOD9031863 Si02
#       8
#     2   2   2   2   2   2   2   2
#     4  11  22  44  76 109 146 199 240 295 377 435
#     4  11  22  49  73 102 145 194 234 312 361 423
#     4  10  24  47  73 102 153 188 245 302 357 431
#     4  11  24  48  72 106 155 183 248 307 361 438
#     4  11  24  47  68  98 150 181 240 306 347 431
#     4  10  23  45  75 110 144 197 239 302 367 439
#     4  12  26  47  75 109 143 201 247 302 375 432
#     4  10  22  43  68  96 143 187 232 293 356 414
#
# _framework density 26.238517999999999
#
# number of rings (size 3 to 8) (size 9 to 14) (size 15 to 20)
#    0.000    1.250    3.750    3.375    0.000    6.000 
#    2.250   18.750    0.000    0.000    0.000    0.000 
#    0.000    0.000    0.000    0.000    0.000    0.000 
#
# Total GULP energy -89270.048349 kJ/mol
# GULP energy per Si atom -5579.378022 kJ/mol
# Density = 2.617880 g / cm^3
# Si number density = 26.238518 Si / 1000 Ang^3
#
#
#
# Elastic Constant Matrix: (Units=GPa)
#
#
# Indices 1 2 3 4 5 6 
#
# 1 85.7602 47.4949 52.0824 -20.5861 -34.2896 41.5777
# 2 47.4949 203.0168 89.0008 -30.0716 -30.9504 21.3436
# 3 52.0824 89.0008 150.9287 -12.6408 -27.7337 11.1106
# 4 -20.5861 -30.0716 -12.6408 63.1251 7.4962 -0.0856
# 5 -34.2896 -30.9504 -27.7337 7.4962 46.5421 -11.9877
# 6 41.5777 21.3436 11.1106 -0.0856 -11.9877 67.5935
#
#
#
# Elastic Compliance Matrix: (Units=1/GPa)
#
#
# Indices 1 2 3 4 5 6 
#
# 1 0.029400 0.000516 -0.006332 0.006968 0.013285 -0.014841
# 2 0.000516 0.007356 -0.003773 0.002656 0.002175 -0.001631
# 3 -0.006332 -0.003773 0.010705 -0.001757 0.000361 0.003389
# 4 0.006968 0.002656 -0.001757 0.018824 0.001657 -0.004518
# 5 0.013285 0.002175 0.000361 0.001657 0.031825 -0.003272
# 6 -0.014841 -0.001631 0.003389 -0.004518 -0.003272 0.023295
#
#
# Mechanical properties :
#
#
# Convention : Reuss Voigt Hill
#
# Bulk Modulus (GPa) = 35.35855 90.76243 63.06049
# Shear Modulus (GPa) = 33.33033 52.19398 42.76216
#
# Velocity S-wave (km/s) = 3.56797 4.46490 4.04139
# Velocity P-wave (km/s) = 5.52077 7.82603 6.77221
#
# Compressibility (1/GPa) = 0.02828170
#
# Stress axis : x y z
#
# Youngs Moduli (GPa) = 34.01352 135.94810 93.40993
#
# Poissons Ratio (x) = -0.07011 0.59149
# Poissons Ratio (y) = -0.01754 0.35247
# Poissons Ratio (z) = 0.21538 0.51298
#
# Static dielectric constant tensor:
#      x y z
#    x 2.446860 -0.291330 0.044680 
#    y -0.291330 2.431160 0.037920 
#    z 0.044680 0.037920 2.246770 
# 
# From -- ./inp_files/77465.got.cif
#   From: 2010.05.17/outbox.cif.g08.bks.cpg/sg2_39_cif.got.tgz:77465.got - 2010.06.03 11:33:40.
