data_PCOD9031625
_publ_section_title
;
Structure prediction by ZEFSAII (Michael W. Deem and Ramdas Pophale) SiO2 
 PCOD9031625
Probable space group: P -1
;
_chemical_formula_sum "Si O2"
_cell_formula_units_Z 13
_cell_length_a 9.255966
_cell_length_b 19.006471
_cell_length_c 13.989670
_cell_angle_alpha 159.031359
_cell_angle_beta 137.229473
_cell_angle_gamma 37.968893
_cell_volume 541.827660
_symmetry_space_group_name_H-M "P -1"
_symmetry_group_IT_number 2
_symmetry_cell_setting 'triclinic'
loop_
_space_group_symop_operation_xyz
x,y,z
-x,-y,-z
loop_
_atom_site_type_symbol
_atom_site_label
_atom_site_fract_x
_atom_site_fract_y
_atom_site_fract_z
Si Si1 0.836258 0.095263 0.450423
Si Si2 0.993616 0.498642 0.681071
Si Si3 0.343405 0.481366 0.988060
Si Si4 0.500000 0.000000 0.500000
Si Si5 0.477328 0.168887 0.076014
Si Si6 0.277384 0.005964 0.207926
Si Si7 0.041026 0.083515 0.908157
O O1 0.990016 0.043392 0.361896
O O2 0.670642 0.972190 0.196487
O O3 0.692866 0.341338 0.723461
O O4 0.000000 0.000000 0.500000
O O5 0.102744 0.514674 0.858225
O O6 0.127249 0.248171 0.399269
O O7 0.713204 0.600502 0.687655
O O8 0.029359 0.669010 0.842973
O O9 0.450792 0.253292 0.802834
O O10 0.500000 0.500000 0.000000
O O11 0.538707 0.972737 0.602173
O O12 0.600999 0.166687 0.033468
O O13 0.687660 0.040951 0.088159
O O14 0.105920 0.948241 0.117996
#
# Coordination Sequence:
#
# PCOD9031625 Si02
#       7
#     2   2   2   1   2   2   2
#     4  11  21  40  74 100 132 184 232 282 351 408
#     4  10  22  43  67  96 139 175 234 291 339 413
#     4  11  21  40  69  99 137 176 225 292 348 405
#     4  10  24  38  64 102 132 166 232 280 342 398
#     4  11  24  44  68 102 143 183 233 286 343 425
#     4  11  25  42  69 100 138 183 235 287 346 414
#     4  11  24  44  69 100 142 184 229 284 349 417
#
# _framework density 23.992868000000001
#
# number of rings (size 3 to 8) (size 9 to 14) (size 15 to 20)
#    0.000    1.231    3.077    5.077    2.154    2.462 
#    0.000    9.231    0.000    0.000    0.000    0.000 
#    0.000    0.000    0.000    0.000    0.000    0.000 
#
# Total GULP energy -72538.599049 kJ/mol
# GULP energy per Si atom -5579.892235 kJ/mol
# Density = 2.393826 g / cm^3
# Si number density = 23.992868 Si / 1000 Ang^3
#
#
#
# Elastic Constant Matrix: (Units=GPa)
#
#
# Indices 1 2 3 4 5 6 
#
# 1 92.0336 4.2465 23.4637 21.2343 -2.0726 14.1824
# 2 4.2465 113.3007 22.8342 9.6825 12.4814 -5.8037
# 3 23.4637 22.8342 103.0628 30.4827 -8.1298 5.5524
# 4 21.2343 9.6825 30.4827 59.0408 -0.2276 2.9154
# 5 -2.0726 12.4814 -8.1298 -0.2276 13.6919 -6.8690
# 6 14.1824 -5.8037 5.5524 2.9154 -6.8690 31.7407
#
#
#
# Elastic Compliance Matrix: (Units=1/GPa)
#
#
# Indices 1 2 3 4 5 6 
#
# 1 0.012934 0.000120 -0.001808 -0.003471 -0.002078 -0.005572
# 2 0.000120 0.010800 -0.003305 -0.000151 -0.011813 -0.000043
# 3 -0.001808 -0.003305 0.013355 -0.005698 0.010956 0.000762
# 4 -0.003471 -0.000151 -0.005698 0.021148 -0.003511 -0.000182
# 5 -0.002078 -0.011813 0.010956 -0.003511 0.099301 0.018664
# 6 -0.005572 -0.000043 0.000762 -0.000182 0.018664 0.037909
#
#
# Mechanical properties :
#
#
# Convention : Reuss Voigt Hill
#
# Bulk Modulus (GPa) = 36.89759 45.49842 41.19800
# Shear Modulus (GPa) = 23.31351 38.08485 30.69918
#
# Velocity S-wave (km/s) = 3.12057 3.98847 3.58091
# Velocity P-wave (km/s) = 5.32878 6.34153 5.85708
#
# Compressibility (1/GPa) = 0.02710204
#
# Stress axis : x y z
#
# Youngs Moduli (GPa) = 77.31772 92.59506 74.87654
#
# Poissons Ratio (x) = -0.01109 0.13540
# Poissons Ratio (y) = -0.00926 0.24745
# Poissons Ratio (z) = 0.13982 0.30601
#
# Static dielectric constant tensor:
#      x y z
#    x 1.984850 -0.076510 -0.053110 
#    y -0.076510 1.960600 0.014100 
#    z -0.053110 0.014100 1.858600 
# 
# From -- ./inp_files/400178.got.cif
#   From: 2010.05.17/outbox.cif.g08.bks.cpg/sg2_201_cif.got.tgz:400178.got - 2010.06.03 11:33:40.
