data_PCOD9031376
_publ_section_title
;
Structure prediction by ZEFSAII (Michael W. Deem and Ramdas Pophale) SiO2 
 PCOD9031376
Probable space group: P -1
;
_chemical_formula_sum "Si O2"
_cell_formula_units_Z 16
_cell_length_a 26.239390
_cell_length_b 11.233046
_cell_length_c 6.335050
_cell_angle_alpha 60.747482
_cell_angle_beta 50.407346
_cell_angle_gamma 30.502284
_cell_volume 721.561397
_symmetry_space_group_name_H-M "P -1"
_symmetry_group_IT_number 2
_symmetry_cell_setting 'triclinic'
loop_
_space_group_symop_operation_xyz
x,y,z
-x,-y,-z
loop_
_atom_site_type_symbol
_atom_site_label
_atom_site_fract_x
_atom_site_fract_y
_atom_site_fract_z
Si Si1 0.035854 0.334603 0.367874
Si Si2 0.762812 0.342495 0.958031
Si Si3 0.320823 0.794994 0.741829
Si Si4 0.825051 0.734555 0.277562
Si Si5 0.501556 0.388694 0.273193
Si Si6 0.397512 0.278478 0.585170
Si Si7 0.197455 0.503959 0.614723
Si Si8 0.962155 0.912604 0.113707
O O1 0.929816 0.499859 0.342707
O O2 0.000000 0.500000 0.500000
O O3 0.062230 0.147422 0.575600
O O4 0.131321 0.249520 0.050138
O O5 0.821583 0.353758 0.642552
O O6 0.724400 0.272666 0.989461
O O7 0.661860 0.593424 0.137007
O O8 0.850971 0.124564 0.079065
O O9 0.410959 0.587045 0.516544
O O10 0.378358 0.796221 0.761874
O O11 0.237526 0.039356 0.625788
O O12 0.755345 0.718216 0.409318
O O13 0.460638 0.315598 0.349664
O O14 0.500000 0.500000 0.000000
O O15 0.289061 0.417197 0.607137
O O16 0.500000 0.000000 0.500000
O O17 0.076152 0.668592 0.900797
O O18 0.000000 0.000000 0.000000
#
# Coordination Sequence:
#
# PCOD9031376 Si02
#       8
#     2   2   2   2   2   2   2   2
#     4  11  24  44  62  95 138 173 223 266 319 395
#     4  11  25  43  68 101 135 177 224 273 334 399
#     4  10  23  41  65  96 129 167 225 269 328 391
#     4  11  25  40  66  98 132 179 215 269 333 387
#     4  10  22  43  66  94 125 169 220 277 328 383
#     4  11  25  45  67  98 132 174 226 276 338 393
#     4  12  25  43  67 101 137 178 223 271 335 398
#     4  12  24  43  68  98 140 180 221 269 329 403
#
# _framework density 22.174135
#
# number of rings (size 3 to 8) (size 9 to 14) (size 15 to 20)
#    0.000    1.000    2.500    3.375    3.500    4.500 
#    0.000    0.000    0.000    0.000    0.000    0.000 
#    0.000    0.000    0.000    0.000    0.000    0.000 
#
# Total GULP energy -89280.670112 kJ/mol
# GULP energy per Si atom -5580.041882 kJ/mol
# Density = 2.212367 g / cm^3
# Si number density = 22.174135 Si / 1000 Ang^3
#
#
#
# Elastic Constant Matrix: (Units=GPa)
#
#
# Indices 1 2 3 4 5 6 
#
# 1 123.8033 30.3093 31.1899 -8.5673 -21.5691 27.9722
# 2 30.3093 107.1902 36.6519 -7.5609 -6.1827 9.6743
# 3 31.1899 36.6519 91.5662 -34.9165 -17.8588 -5.2292
# 4 -8.5673 -7.5609 -34.9165 37.5118 7.2411 -9.0924
# 5 -21.5691 -6.1827 -17.8588 7.2411 26.1568 -7.7280
# 6 27.9722 9.6743 -5.2292 -9.0924 -7.7280 30.5357
#
#
#
# Elastic Compliance Matrix: (Units=1/GPa)
#
#
# Indices 1 2 3 4 5 6 
#
# 1 0.013771 -0.000019 -0.008453 -0.009254 0.003431 -0.015944
# 2 -0.000019 0.012424 -0.008883 -0.007116 -0.003683 -0.008490
# 3 -0.008453 -0.008883 0.034232 0.032629 0.014041 0.029689
# 4 -0.009254 -0.007116 0.032629 0.060942 0.006784 0.036182
# 5 0.003431 -0.003683 0.014041 0.006784 0.052551 0.015748
# 6 -0.015944 -0.008490 0.029689 0.036182 0.015748 0.069887
#
#
# Mechanical properties :
#
#
# Convention : Reuss Voigt Hill
#
# Bulk Modulus (GPa) = 38.88585 57.65134 48.26860
# Shear Modulus (GPa) = 17.41603 33.80143 25.60873
#
# Velocity S-wave (km/s) = 2.80558 3.90854 3.40206
# Velocity P-wave (km/s) = 5.29808 6.81357 6.10305
#
# Compressibility (1/GPa) = 0.02571629
#
# Stress axis : x y z
#
# Youngs Moduli (GPa) = 72.61376 80.48904 29.21226
#
# Poissons Ratio (x) = 0.00157 0.24694
# Poissons Ratio (y) = 0.00141 0.25949
# Poissons Ratio (z) = 0.61382 0.71499
#
# Static dielectric constant tensor:
#      x y z
#    x 1.929790 0.003250 -0.014210 
#    y 0.003250 1.494040 0.169450 
#    z -0.014210 0.169450 1.812910 
# 
# From -- ./inp_files/126843.got.cif
#   From: 2010.05.17/outbox.cif.g08.bks.cpg/sg2_64_cif.got.tgz:126843.got - 2010.06.03 11:33:40.
