data_PCOD9031652
_publ_section_title
;
Structure prediction by ZEFSAII (Michael W. Deem and Ramdas Pophale) SiO2 
 PCOD9031652
Probable space group: P -1
;
_chemical_formula_sum "Si O2"
_cell_formula_units_Z 16
_cell_length_a 9.053590
_cell_length_b 17.854091
_cell_length_c 12.826392
_cell_angle_alpha 47.207682
_cell_angle_beta 29.347200
_cell_angle_gamma 52.594743
_cell_volume 744.981917
_symmetry_space_group_name_H-M "P -1"
_symmetry_group_IT_number 2
_symmetry_cell_setting 'triclinic'
loop_
_space_group_symop_operation_xyz
x,y,z
-x,-y,-z
loop_
_atom_site_type_symbol
_atom_site_label
_atom_site_fract_x
_atom_site_fract_y
_atom_site_fract_z
Si Si1 0.706029 0.480751 0.492615
Si Si2 0.060145 0.792113 0.841141
Si Si3 0.358920 0.298808 0.975241
Si Si4 0.708273 0.652999 0.795483
Si Si5 0.756289 0.798292 0.428160
Si Si6 0.983032 0.328611 0.804103
Si Si7 0.776450 0.099993 0.849671
Si Si8 0.794921 0.003042 0.723534
O O1 0.500000 0.500000 0.500000
O O2 0.532668 0.400703 0.745576
O O3 0.030051 0.432895 0.301433
O O4 0.778762 0.584065 0.410057
O O5 0.412171 0.811052 0.591908
O O6 0.885990 0.899892 0.828290
O O7 0.006450 0.744697 0.032252
O O8 0.925349 0.715278 0.912335
O O9 0.589577 0.203702 0.897259
O O10 0.258403 0.298626 0.156631
O O11 0.747491 0.732081 0.602372
O O12 0.358645 0.622990 0.035926
O O13 0.940897 0.736733 0.283716
O O14 0.925668 0.898974 0.264549
O O15 0.837455 0.093311 0.694216
O O16 0.546625 0.009678 0.092507
O O17 0.000000 0.000000 0.500000
#
# Coordination Sequence:
#
# PCOD9031652 Si02
#       8
#     2   2   2   2   2   2   2   2
#     4  12  25  41  66 101 131 181 227 276 328 388
#     4  10  25  41  66 101 133 172 219 275 336 386
#     4  11  23  43  67  98 134 177 226 276 322 399
#     4  11  24  42  68  95 133 182 222 273 331 392
#     4  11  24  43  70  97 136 182 211 277 333 395
#     4  11  24  45  63  97 139 174 225 273 330 394
#     4  10  22  43  67  98 128 172 221 260 338 391
#     4  10  24  43  72 101 131 170 220 275 327 406
#
# _framework density 21.477032000000001
#
# number of rings (size 3 to 8) (size 9 to 14) (size 15 to 20)
#    0.000    1.250    3.750    0.375    5.250    8.000 
#    0.000    1.250    0.000    0.000    0.000    0.000 
#    0.000    0.000    0.000    0.000    0.000    0.000 
#
# Total GULP energy -89411.920939 kJ/mol
# GULP energy per Si atom -5588.245059 kJ/mol
# Density = 2.142815 g / cm^3
# Si number density = 21.477032 Si / 1000 Ang^3
#
#
#
# Elastic Constant Matrix: (Units=GPa)
#
#
# Indices 1 2 3 4 5 6 
#
# 1 134.5205 30.8192 63.0761 3.0443 -13.0131 33.5590
# 2 30.8192 51.6526 24.9465 -0.3802 -0.2953 21.2131
# 3 63.0761 24.9465 94.7159 11.3305 -20.1988 16.4802
# 4 3.0443 -0.3802 11.3305 24.8319 7.7007 3.4813
# 5 -13.0131 -0.2953 -20.1988 7.7007 49.0627 -1.7565
# 6 33.5590 21.2131 16.4802 3.4813 -1.7565 38.6602
#
#
#
# Elastic Compliance Matrix: (Units=1/GPa)
#
#
# Indices 1 2 3 4 5 6 
#
# 1 0.013026 -0.000867 -0.007522 0.003060 -0.000411 -0.007919
# 2 -0.000867 0.028192 -0.006271 0.006472 -0.004116 -0.012814
# 3 -0.007522 -0.006271 0.019722 -0.011039 0.007923 0.002918
# 4 0.003060 0.006472 -0.011039 0.049573 -0.011708 -0.006498
# 5 -0.000411 -0.004116 0.007923 -0.011708 0.025400 0.001446
# 6 -0.007919 -0.012814 0.002918 -0.006498 0.001446 0.039179
#
#
# Mechanical properties :
#
#
# Convention : Reuss Voigt Hill
#
# Bulk Modulus (GPa) = 31.62483 57.61915 44.62199
# Shear Modulus (GPa) = 23.26108 33.31413 28.28760
#
# Velocity S-wave (km/s) = 3.29457 3.94274 3.63314
# Velocity P-wave (km/s) = 5.40640 6.90025 6.19849
#
# Compressibility (1/GPa) = 0.03162072
#
# Stress axis : x y z
#
# Youngs Moduli (GPa) = 76.76845 35.47064 50.70600
#
# Poissons Ratio (x) = 0.03074 0.38142
# Poissons Ratio (y) = 0.06653 0.31797
# Poissons Ratio (z) = 0.57747 0.22243
#
# Static dielectric constant tensor:
#      x y z
#    x 1.794140 -0.001670 -0.041540 
#    y -0.001670 1.774440 -0.005070 
#    z -0.041540 -0.005070 1.812600 
# 
# From -- ./inp_files/38485.got.cif
#   From: 2010.05.17/outbox.cif.g08.bks.cpg/sg2_20_cif.got.tgz:38485.got - 2010.06.03 11:33:40.
