data_PCOD9031523
_publ_section_title
;
Structure prediction by ZEFSAII (Michael W. Deem and Ramdas Pophale) SiO2 
 PCOD9031523
Probable space group: P -1
;
_chemical_formula_sum "Si O2"
_cell_formula_units_Z 13
_cell_length_a 16.555948
_cell_length_b 5.553718
_cell_length_c 8.939006
_cell_angle_alpha 103.885724
_cell_angle_beta 139.768655
_cell_angle_gamma 93.630086
_cell_volume 473.834424
_symmetry_space_group_name_H-M "P -1"
_symmetry_group_IT_number 2
_symmetry_cell_setting 'triclinic'
loop_
_space_group_symop_operation_xyz
x,y,z
-x,-y,-z
loop_
_atom_site_type_symbol
_atom_site_label
_atom_site_fract_x
_atom_site_fract_y
_atom_site_fract_z
Si Si1 0.595024 0.942941 0.502074
Si Si2 0.795228 0.780642 0.130377
Si Si3 0.477940 0.306790 0.226347
Si Si4 0.236261 0.486002 0.655837
Si Si5 0.500000 0.000000 0.000000
Si Si6 0.139390 0.976462 0.240199
Si Si7 0.961264 0.295930 0.647992
O O1 0.553488 0.622073 0.399868
O O2 0.759446 0.066149 0.744435
O O3 0.500000 0.000000 0.500000
O O4 0.552876 0.091182 0.319913
O O5 0.738802 0.547763 0.140150
O O6 0.888091 0.698021 0.138458
O O7 0.881150 0.046212 0.386086
O O8 0.657432 0.795857 0.880155
O O9 0.446766 0.242029 0.999674
O O10 0.225418 0.251891 0.490996
O O11 0.079312 0.468697 0.435204
O O12 0.346485 0.766363 0.799653
O O13 0.096837 0.751514 0.274680
O O14 0.000000 0.000000 0.000000
#
# Coordination Sequence:
#
# PCOD9031523 Si02
#       7
#     2   2   2   2   1   2   2
#     4  12  29  51  74 109 154 203 268 316 376 466
#     4  10  23  39  69 107 146 188 237 317 392 462
#     4  12  26  46  79 109 150 200 253 324 399 452
#     4  11  22  43  70 109 148 191 245 318 389 464
#     4  12  22  42  76 108 152 180 250 314 402 446
#     4  11  27  47  73 103 144 207 258 310 377 456
#     4  10  22  43  67 104 148 183 253 304 390 457
#
# _framework density 27.435745000000001
#
# number of rings (size 3 to 8) (size 9 to 14) (size 15 to 20)
#    0.000    0.923    3.077    2.769    4.308    3.077 
#    0.000    0.000    0.000    0.000    0.000    0.000 
#    0.000    0.000    0.000    0.000    0.000    0.000 
#
# Total GULP energy -72520.696748 kJ/mol
# GULP energy per Si atom -5578.515134 kJ/mol
# Density = 2.737330 g / cm^3
# Si number density = 27.435745 Si / 1000 Ang^3
#
#
#
# Elastic Constant Matrix: (Units=GPa)
#
#
# Indices 1 2 3 4 5 6 
#
# 1 167.7420 37.3631 35.8817 2.6011 46.9654 -24.5633
# 2 37.3631 75.5540 34.1976 9.3982 -7.2656 -17.5111
# 3 35.8817 34.1976 123.0391 -23.0722 24.3067 -13.0915
# 4 2.6011 9.3982 -23.0722 55.5577 -19.4090 0.5819
# 5 46.9654 -7.2656 24.3067 -19.4090 50.4907 -13.1233
# 6 -24.5633 -17.5111 -13.0915 0.5819 -13.1233 37.3246
#
#
#
# Elastic Compliance Matrix: (Units=1/GPa)
#
#
# Indices 1 2 3 4 5 6 
#
# 1 0.010879 -0.006326 0.000385 -0.003699 -0.012654 -0.000065
# 2 -0.006326 0.023130 -0.006690 -0.001498 0.014299 0.009393
# 3 0.000385 -0.006690 0.011643 0.004000 -0.005605 -0.000835
# 4 -0.003699 -0.001498 0.004000 0.023889 0.010935 0.001738
# 5 -0.012654 0.014299 -0.005605 0.010935 0.043538 0.011552
# 6 -0.000065 0.009393 -0.000835 0.001738 0.011552 0.034898
#
#
# Mechanical properties :
#
#
# Convention : Reuss Voigt Hill
#
# Bulk Modulus (GPa) = 49.04363 64.57999 56.81181
# Shear Modulus (GPa) = 27.77206 45.93413 36.85309
#
# Velocity S-wave (km/s) = 3.18505 4.09619 3.66902
# Velocity P-wave (km/s) = 5.60720 6.77949 6.22102
#
# Compressibility (1/GPa) = 0.02039001
#
# Stress axis : x y z
#
# Youngs Moduli (GPa) = 91.92002 43.23309 85.88603
#
# Poissons Ratio (x) = 0.27348 -0.03304
# Poissons Ratio (y) = 0.58146 0.57461
# Poissons Ratio (z) = -0.03537 0.28925
#
# Static dielectric constant tensor:
#      x y z
#    x 1.735400 -0.102430 0.313420 
#    y -0.102430 2.178430 -0.083970 
#    z 0.313420 -0.083970 2.146920 
# 
# From -- ./inp_files/459291.got.cif
#   From: 2010.05.17/outbox.cif.g08.bks.cpg/sg2_230_cif.got.tgz:459291.got - 2010.06.03 11:33:40.
