data_PCOD9031029
_publ_section_title
;
Structure prediction by ZEFSAII (Michael W. Deem and Ramdas Pophale) SiO2 
 PCOD9031029
Probable space group: P -1
;
_chemical_formula_sum "Si O2"
_cell_formula_units_Z 16
_cell_length_a 5.342161
_cell_length_b 10.662495
_cell_length_c 11.421890
_cell_angle_alpha 87.003536
_cell_angle_beta 87.666665
_cell_angle_gamma 113.557585
_cell_volume 594.212266
_symmetry_space_group_name_H-M "P -1"
_symmetry_group_IT_number 2
_symmetry_cell_setting 'triclinic'
loop_
_space_group_symop_operation_xyz
x,y,z
-x,-y,-z
loop_
_atom_site_type_symbol
_atom_site_label
_atom_site_fract_x
_atom_site_fract_y
_atom_site_fract_z
Si Si1 0.653775 0.548144 0.874908
Si Si2 0.773298 0.052309 0.093368
Si Si3 0.185890 0.616219 0.577441
Si Si4 0.293376 0.381025 0.704892
Si Si5 0.074402 0.052462 0.312837
Si Si6 0.211768 0.852262 0.167017
Si Si7 0.360663 0.171168 0.534195
Si Si8 0.738454 0.303758 0.175648
O O1 0.548173 0.425252 0.787537
O O2 0.507684 0.647854 0.830619
O O3 0.973801 0.605411 0.894881
O O4 0.500000 0.500000 0.000000
O O5 0.998025 0.094509 0.188020
O O6 0.631202 0.155902 0.125657
O O7 0.537382 0.900201 0.131052
O O8 0.874162 0.093711 0.956344
O O9 0.333984 0.523034 0.634311
O O10 0.317168 0.750665 0.487798
O O11 0.136149 0.680485 0.695601
O O12 0.000000 0.500000 0.500000
O O13 0.296647 0.279704 0.607795
O O14 0.012050 0.300070 0.788729
O O15 0.261267 0.154231 0.402016
O O16 0.789294 0.971542 0.391789
O O17 0.193645 0.942095 0.274436
#
# Coordination Sequence:
#
# PCOD9031029 Si02
#       8
#     2   2   2   2   2   2   2   2
#     4  11  24  47  72 105 144 187 235 292 354 423
#     4  11  24  41  72  93 139 181 230 298 351 425
#     4  11  24  39  66  99 138 184 231 291 352 421
#     4  10  23  42  67  99 143 178 234 293 352 428
#     4  10  23  42  70  94 137 177 231 295 351 419
#     4  10  23  45  61 105 129 179 236 286 358 423
#     4  10  22  43  64 101 134 179 238 289 351 422
#     4  11  26  43  71 106 138 186 239 287 354 423
#
# _framework density 26.926404000000002
#
# number of rings (size 3 to 8) (size 9 to 14) (size 15 to 20)
#    0.000    1.500    0.000    3.375    8.750    1.000 
#   11.250    2.500    0.000    0.000    0.000    0.000 
#    0.000    0.000    0.000    0.000    0.000    0.000 
#
# Total GULP energy -89256.361242 kJ/mol
# GULP energy per Si atom -5578.522578 kJ/mol
# Density = 2.686512 g / cm^3
# Si number density = 26.926404 Si / 1000 Ang^3
#
#
#
# Elastic Constant Matrix: (Units=GPa)
#
#
# Indices 1 2 3 4 5 6 
#
# 1 54.3704 16.1018 5.1333 -17.6422 8.6575 17.0952
# 2 16.1018 100.1045 20.9571 2.3826 -2.5775 21.8380
# 3 5.1333 20.9571 137.0739 4.7787 10.1946 3.4209
# 4 -17.6422 2.3826 4.7787 43.2307 15.3354 -16.9425
# 5 8.6575 -2.5775 10.1946 15.3354 43.2057 -0.5169
# 6 17.0952 21.8380 3.4209 -16.9425 -0.5169 44.8837
#
#
#
# Elastic Compliance Matrix: (Units=1/GPa)
#
#
# Indices 1 2 3 4 5 6 
#
# 1 0.026707 -0.004221 0.000027 0.013636 -0.010487 -0.003094
# 2 -0.004221 0.012784 -0.001715 -0.006418 0.004209 -0.006856
# 3 0.000027 -0.001715 0.007693 0.000028 -0.001930 0.000226
# 4 0.013636 -0.006418 0.000028 0.040225 -0.017245 0.012912
# 5 -0.010487 0.004209 -0.001930 -0.017245 0.032025 -0.004047
# 6 -0.003094 -0.006856 0.000226 0.012912 -0.004047 0.031604
#
#
# Mechanical properties :
#
#
# Convention : Reuss Voigt Hill
#
# Bulk Modulus (GPa) = 28.27486 41.77035 35.02261
# Shear Modulus (GPa) = 28.62940 42.88780 35.75860
#
# Velocity S-wave (km/s) = 3.26428 3.99529 3.64814
# Velocity P-wave (km/s) = 4.97303 6.06874 5.54800
#
# Compressibility (1/GPa) = 0.03536711
#
# Stress axis : x y z
#
# Youngs Moduli (GPa) = 37.44307 78.22158 129.98132
#
# Poissons Ratio (x) = 0.33018 -0.00350
# Poissons Ratio (y) = 0.15805 0.22288
# Poissons Ratio (z) = -0.00101 0.13413
#
# Static dielectric constant tensor:
#      x y z
#    x 1.824170 0.419520 0.257010 
#    y 0.419520 1.763310 -0.269360 
#    z 0.257010 -0.269360 2.306210 
# 
# From -- ./inp_files/364503.got.cif
#   From: 2010.05.17/outbox.cif.g08.bks.cpg/sg2_183_cif.got.tgz:364503.got - 2010.06.03 11:33:40.
