data_PCOD9031252
_publ_section_title
;
Structure prediction by ZEFSAII (Michael W. Deem and Ramdas Pophale) SiO2 
 PCOD9031252
Probable space group: P -1
;
_chemical_formula_sum "Si O2"
_cell_formula_units_Z 16
_cell_length_a 8.876725
_cell_length_b 12.481863
_cell_length_c 14.862903
_cell_angle_alpha 140.615594
_cell_angle_beta 115.382366
_cell_angle_gamma 41.225798
_cell_volume 641.099949
_symmetry_space_group_name_H-M "P -1"
_symmetry_group_IT_number 2
_symmetry_cell_setting 'triclinic'
loop_
_space_group_symop_operation_xyz
x,y,z
-x,-y,-z
loop_
_atom_site_type_symbol
_atom_site_label
_atom_site_fract_x
_atom_site_fract_y
_atom_site_fract_z
Si Si1 0.987466 0.642000 0.791603
Si Si2 0.473539 0.769682 0.399208
Si Si3 0.629691 0.526313 0.981532
Si Si4 0.377158 0.607529 0.413849
Si Si5 0.841396 0.418049 0.506110
Si Si6 0.928499 0.646211 0.982465
Si Si7 0.542687 0.207679 0.068327
Si Si8 0.628316 0.008113 0.674111
O O1 0.865329 0.586439 0.664073
O O2 0.026138 0.535862 0.833639
O O3 0.246466 0.498992 0.721788
O O4 0.811100 0.932655 0.947428
O O5 0.307214 0.772458 0.418045
O O6 0.377097 0.882279 0.348775
O O7 0.514634 0.913844 0.556899
O O8 0.532091 0.782069 0.156262
O O9 0.922550 0.292691 0.918964
O O10 0.500000 0.500000 0.000000
O O11 0.537025 0.600306 0.904679
O O12 0.589747 0.561814 0.484965
O O13 0.170994 0.703912 0.492902
O O14 0.497198 0.343749 0.236548
O O15 0.083020 0.218398 0.377181
O O16 0.644675 0.811793 0.002946
O O17 0.000000 0.500000 0.000000
#
# Coordination Sequence:
#
# PCOD9031252 Si02
#       8
#     2   2   2   2   2   2   2   2
#     4  11  22  44  67 101 130 179 225 274 334 401
#     4  10  23  40  70  91 136 169 228 273 325 399
#     4  11  24  44  68 103 135 168 225 277 331 398
#     4  11  24  45  62 102 131 175 221 283 325 385
#     4  10  25  43  67  90 142 172 224 273 326 403
#     4  10  22  43  65  96 136 175 213 272 336 402
#     4  11  25  40  73  97 135 179 218 276 340 391
#     4  10  22  44  64  95 126 184 214 270 337 397
#
# _framework density 24.957106
#
# number of rings (size 3 to 8) (size 9 to 14) (size 15 to 20)
#    0.000    1.500    2.500    1.125    3.500    3.000 
#    2.250    1.250    0.000    0.000    0.000    0.000 
#    0.000    0.000    0.000    0.000    0.000    0.000 
#
# Total GULP energy -89384.430293 kJ/mol
# GULP energy per Si atom -5586.526893 kJ/mol
# Density = 2.490030 g / cm^3
# Si number density = 24.957106 Si / 1000 Ang^3
#
#
#
# Elastic Constant Matrix: (Units=GPa)
#
#
# Indices 1 2 3 4 5 6 
#
# 1 101.2484 28.1490 9.0597 -4.2791 -3.1623 16.8381
# 2 28.1490 70.8565 23.1752 -10.5859 1.8326 1.7147
# 3 9.0597 23.1752 73.2457 -17.2028 -4.4369 -13.5727
# 4 -4.2791 -10.5859 -17.2028 27.1126 -2.9202 -0.5923
# 5 -3.1623 1.8326 -4.4369 -2.9202 25.9982 -8.9548
# 6 16.8381 1.7147 -13.5727 -0.5923 -8.9548 39.1869
#
#
#
# Elastic Compliance Matrix: (Units=1/GPa)
#
#
# Indices 1 2 3 4 5 6 
#
# 1 0.012086 -0.004322 -0.001394 -0.000840 -0.000490 -0.005611
# 2 -0.004322 0.017949 -0.004833 0.002944 -0.002689 -0.001172
# 3 -0.001394 -0.004833 0.020571 0.012081 0.008504 0.010062
# 4 -0.000840 0.002944 0.012081 0.046750 0.009517 0.007298
# 5 -0.000490 -0.002689 0.008504 0.009517 0.045905 0.013908
# 6 -0.005611 -0.001172 0.010062 0.007298 0.013908 0.034755
#
#
# Mechanical properties :
#
#
# Convention : Reuss Voigt Hill
#
# Bulk Modulus (GPa) = 33.89063 40.67983 37.28523
# Shear Modulus (GPa) = 23.92930 30.79064 27.35997
#
# Velocity S-wave (km/s) = 3.09984 3.51628 3.31460
# Velocity P-wave (km/s) = 5.14014 5.72895 5.44251
#
# Compressibility (1/GPa) = 0.02950668
#
# Stress axis : x y z
#
# Youngs Moduli (GPa) = 82.74371 55.71469 48.61143
#
# Poissons Ratio (x) = 0.24081 0.06777
# Poissons Ratio (y) = 0.35764 0.23494
# Poissons Ratio (z) = 0.11535 0.26927
#
# Static dielectric constant tensor:
#      x y z
#    x 1.961170 0.016480 0.034070 
#    y 0.016480 2.062380 0.025210 
#    z 0.034070 0.025210 2.000780 
# 
# From -- ./inp_files/501016.got.cif
#   From: 2010.05.17/outbox.cif.g08.bks.cpg/sg2_251_cif.got.tgz:501016.got - 2010.06.03 11:33:40.
