data_PCOD9031454
_publ_section_title
;
Structure prediction by ZEFSAII (Michael W. Deem and Ramdas Pophale) SiO2 
 PCOD9031454
Probable space group: P -1
;
_chemical_formula_sum "Si O2"
_cell_formula_units_Z 16
_cell_length_a 12.697477
_cell_length_b 22.272382
_cell_length_c 18.142303
_cell_angle_alpha 159.081173
_cell_angle_beta 151.609734
_cell_angle_gamma 29.739260
_cell_volume 837.636562
_symmetry_space_group_name_H-M "P -1"
_symmetry_group_IT_number 2
_symmetry_cell_setting 'triclinic'
loop_
_space_group_symop_operation_xyz
x,y,z
-x,-y,-z
loop_
_atom_site_type_symbol
_atom_site_label
_atom_site_fract_x
_atom_site_fract_y
_atom_site_fract_z
Si Si1 0.711781 0.907285 0.078238
Si Si2 0.956563 0.064690 0.808150
Si Si3 0.704027 0.547108 0.723450
Si Si4 0.441133 0.602516 0.006995
Si Si5 0.267024 0.455342 0.592138
Si Si6 0.621768 0.953285 0.844919
Si Si7 0.502892 0.286676 0.058310
Si Si8 0.192824 0.266760 0.703006
O O1 0.938008 0.921149 0.191644
O O2 0.622415 0.991588 0.198692
O O3 0.747421 0.703994 0.881906
O O4 0.500000 0.000000 0.000000
O O5 0.823559 0.919571 0.548716
O O6 0.784501 0.237751 0.934271
O O7 0.176902 0.015822 0.942405
O O8 0.500000 0.500000 0.500000
O O9 0.619659 0.614805 0.830947
O O10 0.933414 0.389694 0.689045
O O11 0.396982 0.478706 0.773417
O O12 0.500000 0.500000 0.000000
O O13 0.655957 0.667410 0.187992
O O14 0.332607 0.252991 0.376616
O O15 0.333760 0.596199 0.738939
O O16 0.000000 0.500000 0.500000
O O17 0.615282 0.086650 0.925936
O O18 0.323763 0.273312 0.868387
#
# Coordination Sequence:
#
# PCOD9031454 Si02
#       8
#     2   2   2   2   2   2   2   2
#     4   9  20  37  62  97 122 156 215 269 312 376
#     4  11  22  41  65  92 131 169 221 266 318 392
#     4  11  22  40  68  95 126 171 215 265 329 383
#     4  11  25  43  63  93 131 174 216 265 327 392
#     4  11  24  43  67  95 130 173 220 271 317 386
#     4  10  22  43  66  98 127 168 223 266 327 378
#     4  10  25  42  64  97 136 167 213 275 325 386
#     4  11  24  42  62  95 131 170 211 266 334 384
#
# _framework density 19.101362999999999
#
# number of rings (size 3 to 8) (size 9 to 14) (size 15 to 20)
#    0.000    1.500    1.250    3.750    7.000    2.500 
#    0.000    1.250    0.000    0.000    0.000    0.000 
#    0.000    0.000    0.000    0.000    0.000    0.000 
#
# Total GULP energy -89229.620952 kJ/mol
# GULP energy per Si atom -5576.851309 kJ/mol
# Density = 1.905789 g / cm^3
# Si number density = 19.101363 Si / 1000 Ang^3
#
#
#
# Elastic Constant Matrix: (Units=GPa)
#
#
# Indices 1 2 3 4 5 6 
#
# 1 98.3395 29.8217 46.7485 -10.9205 17.0516 19.9862
# 2 29.8217 71.3298 31.3389 1.6174 7.4322 11.3075
# 3 46.7485 31.3389 120.0173 -7.1191 9.8232 13.3649
# 4 -10.9205 1.6174 -7.1191 27.7359 -6.2496 3.6567
# 5 17.0516 7.4322 9.8232 -6.2496 27.9209 6.8133
# 6 19.9862 11.3075 13.3649 3.6567 6.8133 35.5233
#
#
#
# Elastic Compliance Matrix: (Units=1/GPa)
#
#
# Indices 1 2 3 4 5 6 
#
# 1 0.015632 -0.003556 -0.003823 0.005096 -0.004687 -0.005850
# 2 -0.003556 0.017357 -0.003014 -0.003347 -0.001719 -0.001716
# 3 -0.003823 -0.003014 0.010831 0.001588 -0.000045 -0.001119
# 4 0.005096 -0.003347 0.001588 0.041698 0.008588 -0.008339
# 5 -0.004687 -0.001719 -0.000045 0.008588 0.042497 -0.005834
# 6 -0.005850 -0.001716 -0.001119 -0.008339 -0.005834 0.034387
#
#
# Mechanical properties :
#
#
# Convention : Reuss Voigt Hill
#
# Bulk Modulus (GPa) = 43.41284 56.16718 49.79001
# Shear Modulus (GPa) = 26.19638 30.35453 28.27546
#
# Velocity S-wave (km/s) = 3.70731 3.99071 3.85162
# Velocity P-wave (km/s) = 6.41112 7.12061 6.77516
#
# Compressibility (1/GPa) = 0.02303466
#
# Stress axis : x y z
#
# Youngs Moduli (GPa) = 63.97066 57.61290 92.32905
#
# Poissons Ratio (x) = 0.20485 0.35298
# Poissons Ratio (y) = 0.22745 0.27829
# Poissons Ratio (z) = 0.24457 0.17365
#
# Static dielectric constant tensor:
#      x y z
#    x 1.652610 -0.020050 0.003950 
#    y -0.020050 1.687530 -0.027560 
#    z 0.003950 -0.027560 1.686230 
# 
# From -- ./inp_files/262028.got.cif
#   From: 2010.05.17/outbox.cif.g08.bks.cpg/sg2_132_cif.got.tgz:262028.got - 2010.06.03 11:33:40.
