data_PCOD9031431
_publ_section_title
;
Structure prediction by ZEFSAII (Michael W. Deem and Ramdas Pophale) SiO2 
 PCOD9031431
Probable space group: P -1
;
_chemical_formula_sum "Si O2"
_cell_formula_units_Z 14
_cell_length_a 8.689613
_cell_length_b 11.684445
_cell_length_c 13.954969
_cell_angle_alpha 150.464190
_cell_angle_beta 78.124769
_cell_angle_gamma 89.513073
_cell_volume 629.770309
_symmetry_space_group_name_H-M "P -1"
_symmetry_group_IT_number 2
_symmetry_cell_setting 'triclinic'
loop_
_space_group_symop_operation_xyz
x,y,z
-x,-y,-z
loop_
_atom_site_type_symbol
_atom_site_label
_atom_site_fract_x
_atom_site_fract_y
_atom_site_fract_z
Si Si1 0.691012 0.238604 0.387280
Si Si2 0.681182 0.996321 0.505055
Si Si3 0.870079 0.270470 0.757538
Si Si4 0.073299 0.228062 0.872005
Si Si5 0.683976 0.673127 0.446181
Si Si6 0.798209 0.665294 0.642076
Si Si7 0.804835 0.129382 0.083435
O O1 0.519894 0.245009 0.462315
O O2 0.713195 0.499736 0.588284
O O3 0.688840 0.215709 0.256049
O O4 0.854679 0.002362 0.231988
O O5 0.799701 0.867982 0.305863
O O6 0.730582 0.826287 0.470247
O O7 0.500000 0.000000 0.500000
O O8 0.697965 0.257617 0.725535
O O9 0.897022 0.266011 0.866724
O O10 0.906460 0.519811 0.907999
O O11 0.000000 0.000000 0.500000
O O12 0.744026 0.708049 0.569851
O O13 0.774642 0.373457 0.201338
O O14 0.000000 0.500000 0.500000
O O15 0.757906 0.927343 0.887396
O O16 0.000000 0.000000 0.000000
#
# Coordination Sequence:
#
# PCOD9031431 Si02
#       7
#     2   2   2   2   2   2   2
#     4  11  24  42  67  97 137 166 220 274 337 394
#     4  11  23  43  66  96 136 176 222 266 330 397
#     4   9  22  41  63  92 131 172 222 272 322 382
#     4  10  22  43  66  97 130 177 221 273 326 396
#     4  11  25  43  65  98 138 172 216 278 330 394
#     4  11  23  44  67  95 125 173 223 271 329 390
#     4  11  23  41  68  98 126 170 223 273 331 393
#
# _framework density 22.230326999999999
#
# number of rings (size 3 to 8) (size 9 to 14) (size 15 to 20)
#    0.000    1.429    4.286    1.714    2.000    9.714 
#    2.571    0.000    0.000    0.000    0.000    0.000 
#    0.000    0.000    0.000    0.000    0.000    0.000 
#
# Total GULP energy -78182.664784 kJ/mol
# GULP energy per Si atom -5584.476056 kJ/mol
# Density = 2.217973 g / cm^3
# Si number density = 22.230327 Si / 1000 Ang^3
#
#
#
# Elastic Constant Matrix: (Units=GPa)
#
#
# Indices 1 2 3 4 5 6 
#
# 1 94.3958 3.7444 26.3469 -5.8832 27.5735 -7.1397
# 2 3.7444 90.9596 15.5551 14.7383 18.3789 -0.1478
# 3 26.3469 15.5551 123.5826 14.6455 53.0220 -0.5955
# 4 -5.8832 14.7383 14.6455 26.2884 6.5014 -11.2513
# 5 27.5735 18.3789 53.0220 6.5014 50.2571 -2.3883
# 6 -7.1397 -0.1478 -0.5955 -11.2513 -2.3883 33.4053
#
#
#
# Elastic Compliance Matrix: (Units=1/GPa)
#
#
# Indices 1 2 3 4 5 6 
#
# 1 0.013837 -0.000111 -0.000440 0.007431 -0.007816 0.004893
# 2 -0.000111 0.013198 0.001796 -0.008360 -0.005729 -0.003159
# 3 -0.000440 0.001796 0.015812 -0.007357 -0.016310 -0.003448
# 4 0.007431 -0.008360 -0.007357 0.057285 0.000316 0.020737
# 5 -0.007816 -0.005729 -0.016310 0.000316 0.043506 0.001230
# 6 0.004893 -0.003159 -0.003448 0.020737 0.001230 0.037978
#
#
# Mechanical properties :
#
#
# Convention : Reuss Voigt Hill
#
# Bulk Modulus (GPa) = 22.05671 44.47008 33.26339
# Shear Modulus (GPa) = 25.74138 39.54292 32.64215
#
# Velocity S-wave (km/s) = 3.40654 4.22214 3.83608
# Velocity P-wave (km/s) = 5.04144 6.61939 5.88355
#
# Compressibility (1/GPa) = 0.04533768
#
# Stress axis : x y z
#
# Youngs Moduli (GPa) = 72.26906 75.76697 63.24214
#
# Poissons Ratio (x) = 0.00843 0.02781
# Poissons Ratio (y) = 0.00804 -0.11358
# Poissons Ratio (z) = 0.03177 -0.13607
#
# Static dielectric constant tensor:
#      x y z
#    x 1.980680 -0.001700 -0.037350 
#    y -0.001700 1.803910 0.011530 
#    z -0.037350 0.011530 1.820290 
# 
# From -- ./inp_files/501131.got.cif
#   From: 2010.05.17/outbox.cif.g08.bks.cpg/sg2_251_cif.got.tgz:501131.got - 2010.06.03 11:33:40.
