data_PCOD9031648
_publ_section_title
;
Structure prediction by ZEFSAII (Michael W. Deem and Ramdas Pophale) SiO2 
 PCOD9031648
Probable space group: P -1
;
_chemical_formula_sum "Si O2"
_cell_formula_units_Z 16
_cell_length_a 5.726563
_cell_length_b 18.108243
_cell_length_c 9.021271
_cell_angle_alpha 111.441204
_cell_angle_beta 58.060114
_cell_angle_gamma 120.704181
_cell_volume 676.709125
_symmetry_space_group_name_H-M "P -1"
_symmetry_group_IT_number 2
_symmetry_cell_setting 'triclinic'
loop_
_space_group_symop_operation_xyz
x,y,z
-x,-y,-z
loop_
_atom_site_type_symbol
_atom_site_label
_atom_site_fract_x
_atom_site_fract_y
_atom_site_fract_z
Si Si1 0.186675 0.530917 0.763674
Si Si2 0.792556 0.769946 0.586426
Si Si3 0.452523 0.586945 0.094565
Si Si4 0.688030 0.913744 0.538431
Si Si5 0.349673 0.005466 0.893107
Si Si6 0.545881 0.705337 0.925671
Si Si7 0.436073 0.582192 0.431549
Si Si8 0.426278 0.835526 0.270383
O O1 0.287969 0.625230 0.870233
O O2 0.151582 0.544838 0.610263
O O3 0.444508 0.494468 0.669280
O O4 0.897713 0.451188 0.859353
O O5 0.673254 0.835073 0.592490
O O6 0.746306 0.766903 0.776538
O O7 0.644437 0.669766 0.511735
O O8 0.128997 0.805072 0.443802
O O9 0.451391 0.614976 0.283548
O O10 0.500000 0.500000 0.000000
O O11 0.679642 0.655409 0.956556
O O12 0.667901 0.881779 0.351374
O O13 0.421768 0.940563 0.708771
O O14 0.000000 0.000000 0.500000
O O15 0.545307 0.097029 0.818978
O O16 0.500000 0.000000 0.000000
O O17 0.000000 0.000000 0.000000
O O18 0.438067 0.755566 0.118885
#
# Coordination Sequence:
#
# PCOD9031648 Si02
#       8
#     2   2   2   2   2   2   2   2
#     4  10  22  43  67  97 141 193 249 305 375 448
#     4  11  26  48  73 108 152 195 256 319 395 468
#     4  12  23  39  66  98 138 193 251 303 377 444
#     4  12  26  52  79 112 153 206 260 321 408 483
#     4  12  28  50  86 123 157 208 269 329 406 490
#     4  11  25  46  67 108 149 196 250 319 384 459
#     4  10  22  43  70 100 140 193 248 313 367 454
#     4  12  27  47  79 107 155 197 254 325 391 480
#
# _framework density 23.643837000000001
#
# number of rings (size 3 to 8) (size 9 to 14) (size 15 to 20)
#    0.000    0.750    2.500    4.125    5.250    0.000 
#    6.750    0.000    0.000    0.000    0.000    0.000 
#    0.000    0.000    0.000    0.000    0.000    0.000 
#
# Total GULP energy -89236.756934 kJ/mol
# GULP energy per Si atom -5577.297308 kJ/mol
# Density = 2.359002 g / cm^3
# Si number density = 23.643837 Si / 1000 Ang^3
#
#
#
# Elastic Constant Matrix: (Units=GPa)
#
#
# Indices 1 2 3 4 5 6 
#
# 1 69.0686 37.7795 70.9241 -3.4712 10.2970 -6.8547
# 2 37.7795 91.8562 28.7337 0.3657 9.7462 -23.3346
# 3 70.9241 28.7337 148.6054 -5.1942 19.4841 -8.2694
# 4 -3.4712 0.3657 -5.1942 67.7196 -13.5837 7.4171
# 5 10.2970 9.7462 19.4841 -13.5837 46.0314 -3.5009
# 6 -6.8547 -23.3346 -8.2694 7.4171 -3.5009 36.1200
#
#
#
# Elastic Compliance Matrix: (Units=1/GPa)
#
#
# Indices 1 2 3 4 5 6 
#
# 1 0.035608 -0.011025 -0.015154 0.001338 0.000872 -0.004025
# 2 -0.011025 0.017342 0.002676 -0.001974 -0.002166 0.009919
# 3 -0.015154 0.002676 0.013934 -0.000546 -0.003095 0.001855
# 4 0.001338 -0.001974 -0.000546 0.016212 0.004829 -0.004008
# 5 0.000872 -0.002166 -0.003095 0.004829 0.024682 -0.000542
# 6 -0.004025 0.009919 0.001855 -0.004008 -0.000542 0.034525
#
#
# Mechanical properties :
#
#
# Convention : Reuss Voigt Hill
#
# Bulk Modulus (GPa) = 50.30988 64.93388 57.62188
# Shear Modulus (GPa) = 25.51865 41.44705 33.48285
#
# Velocity S-wave (km/s) = 3.28882 4.19140 3.76724
# Velocity P-wave (km/s) = 5.97882 7.13770 6.58380
#
# Compressibility (1/GPa) = 0.01987681
#
# Stress axis : x y z
#
# Youngs Moduli (GPa) = 28.08345 57.66505 71.76496
#
# Poissons Ratio (x) = 0.63576 1.08755
# Poissons Ratio (y) = 0.30962 -0.19203
# Poissons Ratio (z) = 0.42559 -0.15430
#
# Static dielectric constant tensor:
#      x y z
#    x 1.818440 -0.148240 0.241110 
#    y -0.148240 1.829740 0.116600 
#    z 0.241110 0.116600 1.774260 
# 
# From -- ./inp_files/139206.got.cif
#   From: 2010.05.17/outbox.cif.g08.bks.cpg/sg2_70_cif.got.tgz:139206.got - 2010.06.03 11:33:40.
