data_PCOD9031373
_publ_section_title
;
Structure prediction by ZEFSAII (Michael W. Deem and Ramdas Pophale) SiO2 
 PCOD9031373
Probable space group: P -1
;
_chemical_formula_sum "Si O2"
_cell_formula_units_Z 14
_cell_length_a 18.830015
_cell_length_b 6.067582
_cell_length_c 6.723847
_cell_angle_alpha 109.604904
_cell_angle_beta 117.096923
_cell_angle_gamma 97.252479
_cell_volume 607.530993
_symmetry_space_group_name_H-M "P -1"
_symmetry_group_IT_number 2
_symmetry_cell_setting 'triclinic'
loop_
_space_group_symop_operation_xyz
x,y,z
-x,-y,-z
loop_
_atom_site_type_symbol
_atom_site_label
_atom_site_fract_x
_atom_site_fract_y
_atom_site_fract_z
Si Si1 0.011676 0.986614 0.241328
Si Si2 0.702428 0.254322 0.788300
Si Si3 0.392291 0.038201 0.033739
Si Si4 0.933961 0.281132 0.473082
Si Si5 0.422090 0.635941 0.647183
Si Si6 0.312960 0.205922 0.616305
Si Si7 0.182415 0.440477 0.660307
O O1 0.099581 0.200491 0.472813
O O2 0.935809 0.044735 0.275827
O O3 0.025066 0.743111 0.271951
O O4 0.000000 0.000000 0.000000
O O5 0.640114 0.356290 0.610429
O O6 0.654623 0.098045 0.871619
O O7 0.726841 0.058040 0.621936
O O8 0.780114 0.471874 0.047657
O O9 0.480711 0.251270 0.259677
O O10 0.339748 0.157184 0.857297
O O11 0.411124 0.829126 0.858012
O O12 0.847318 0.336879 0.394013
O O13 0.000000 0.500000 0.500000
O O14 0.393402 0.370076 0.638861
O O15 0.251533 0.368008 0.600567
#
# Coordination Sequence:
#
# PCOD9031373 Si02
#       7
#     2   2   2   2   2   2   2
#     4  10  23  45  72  99 126 173 218 257 329 397
#     4  11  25  41  64  97 132 175 224 270 336 377
#     4  10  22  43  66  93 135 172 232 277 315 394
#     4   9  22  45  67  98 130 165 211 264 319 391
#     4  10  22  43  66  94 130 180 226 275 325 385
#     4  11  25  41  64  99 129 179 223 267 338 379
#     4  11  25  43  66  99 141 165 213 279 320 397
#
# _framework density 23.044091000000002
#
# number of rings (size 3 to 8) (size 9 to 14) (size 15 to 20)
#    0.000    1.714    1.429    0.857    6.000    2.857 
#    5.143    0.000    0.000    0.000    0.000    0.000 
#    0.000    0.000    0.000    0.000    0.000    0.000 
#
# Total GULP energy -78266.262649 kJ/mol
# GULP energy per Si atom -5590.447332 kJ/mol
# Density = 2.299164 g / cm^3
# Si number density = 23.044091 Si / 1000 Ang^3
#
#
#
# Elastic Constant Matrix: (Units=GPa)
#
#
# Indices 1 2 3 4 5 6 
#
# 1 63.5396 12.5054 30.3834 -1.4657 2.2763 -13.8762
# 2 12.5054 68.5612 54.9782 -15.9609 5.8576 14.1444
# 3 30.3834 54.9782 162.1831 -10.1546 -1.5349 -0.7138
# 4 -1.4657 -15.9609 -10.1546 50.0803 9.2647 -0.5574
# 5 2.2763 5.8576 -1.5349 9.2647 20.7608 0.0870
# 6 -13.8762 14.1444 -0.7138 -0.5574 0.0870 31.0442
#
#
#
# Elastic Compliance Matrix: (Units=1/GPa)
#
#
# Indices 1 2 3 4 5 6 
#
# 1 0.020045 -0.004114 -0.002380 -0.000931 -0.000843 0.010765
# 2 -0.004114 0.028368 -0.008444 0.009315 -0.012272 -0.014756
# 3 -0.002380 -0.008444 0.009427 -0.001561 0.004024 0.002961
# 4 -0.000931 0.009315 -0.001561 0.025104 -0.013827 -0.004206
# 5 -0.000843 -0.012272 0.004024 -0.013827 0.058170 0.004896
# 6 0.010765 -0.014756 0.002961 -0.004206 0.004896 0.043726
#
#
# Mechanical properties :
#
#
# Convention : Reuss Voigt Hill
#
# Bulk Modulus (GPa) = 35.75688 54.44643 45.10165
# Shear Modulus (GPa) = 22.31778 33.47151 27.89464
#
# Velocity S-wave (km/s) = 3.11542 3.81530 3.48298
# Velocity P-wave (km/s) = 5.33775 6.56407 5.98241
#
# Compressibility (1/GPa) = 0.02796665
#
# Stress axis : x y z
#
# Youngs Moduli (GPa) = 49.88655 35.25133 106.07409
#
# Poissons Ratio (x) = 0.14501 0.25243
# Poissons Ratio (y) = 0.20522 0.89564
# Poissons Ratio (z) = 0.11872 0.29765
#
# Static dielectric constant tensor:
#      x y z
#    x 1.590100 -0.652660 0.064650 
#    y -0.652660 0.618080 0.154920 
#    z 0.064650 0.154920 1.828270 
# 
# From -- ./inp_files/7931.got.cif
#   From: 2010.05.17/outbox.cif.g08.bks.cpg/sg2_4_cif.got.tgz:7931.got - 2010.06.03 11:33:40.
