data_PCOD9031823
_publ_section_title
;
Structure prediction by ZEFSAII (Michael W. Deem and Ramdas Pophale) SiO2 
 PCOD9031823
Probable space group: P -1
;
_chemical_formula_sum "Si O2"
_cell_formula_units_Z 16
_cell_length_a 8.698390
_cell_length_b 9.848494
_cell_length_c 15.609300
_cell_angle_alpha 35.313433
_cell_angle_beta 122.730161
_cell_angle_gamma 126.548773
_cell_volume 616.626557
_symmetry_space_group_name_H-M "P -1"
_symmetry_group_IT_number 2
_symmetry_cell_setting 'triclinic'
loop_
_space_group_symop_operation_xyz
x,y,z
-x,-y,-z
loop_
_atom_site_type_symbol
_atom_site_label
_atom_site_fract_x
_atom_site_fract_y
_atom_site_fract_z
Si Si1 0.122708 0.555167 0.150425
Si Si2 0.458123 0.591631 0.346531
Si Si3 0.518084 0.097852 0.177627
Si Si4 0.359616 0.444429 0.133922
Si Si5 0.945156 0.121709 0.652499
Si Si6 0.868135 0.021174 0.370456
Si Si7 0.387867 0.707867 0.596763
Si Si8 0.929072 0.969248 0.897472
O O1 0.232572 0.537821 0.281078
O O2 0.282297 0.593397 0.105665
O O3 0.968249 0.292348 0.224197
O O4 0.008918 0.747052 0.010988
O O5 0.500000 0.500000 0.500000
O O6 0.534576 0.434462 0.381416
O O7 0.523245 0.892398 0.213114
O O8 0.654939 0.026562 0.325840
O O9 0.297857 0.057544 0.156209
O O10 0.604335 0.379260 0.027647
O O11 0.206069 0.165175 0.236922
O O12 0.565282 0.422901 0.236621
O O13 0.018859 0.169700 0.747105
O O14 0.103923 0.143791 0.615852
O O15 0.817959 0.284134 0.498316
O O16 0.000000 0.000000 0.500000
O O17 0.500000 0.000000 0.500000
O O18 0.000000 0.000000 0.000000
#
# Coordination Sequence:
#
# PCOD9031823 Si02
#       8
#     2   2   2   2   2   2   2   2
#     4  10  22  43  68  94 145 185 229 288 361 421
#     4  11  22  41  67 100 139 189 234 288 358 423
#     4  12  25  42  70 107 141 183 241 297 350 429
#     4   9  21  42  70 105 134 186 235 293 360 425
#     4  10  22  44  70  97 145 188 235 288 363 422
#     4  11  25  46  73 106 138 185 239 295 354 436
#     4   9  20  39  68  99 133 187 234 282 346 432
#     4  12  25  43  64 103 141 188 232 294 352 422
#
# _framework density 25.947634000000001
#
# number of rings (size 3 to 8) (size 9 to 14) (size 15 to 20)
#    0.000    1.500    1.250    3.750    0.000   11.000 
#    4.500    0.625    0.000    0.000    0.000    0.000 
#    0.000    0.000    0.000    0.000    0.000    0.000 
#
# Total GULP energy -89345.278498 kJ/mol
# GULP energy per Si atom -5584.079906 kJ/mol
# Density = 2.588858 g / cm^3
# Si number density = 25.947634 Si / 1000 Ang^3
#
#
#
# Elastic Constant Matrix: (Units=GPa)
#
#
# Indices 1 2 3 4 5 6 
#
# 1 147.4295 38.9705 89.5598 21.1984 39.4792 -6.6660
# 2 38.9705 64.0116 48.7545 6.2826 12.9977 -8.8089
# 3 89.5598 48.7545 174.4440 22.5274 36.6881 4.4896
# 4 21.1984 6.2826 22.5274 68.9870 6.3219 10.1175
# 5 39.4792 12.9977 36.6881 6.3219 56.7599 7.3854
# 6 -6.6660 -8.8089 4.4896 10.1175 7.3854 32.7767
#
#
#
# Elastic Compliance Matrix: (Units=1/GPa)
#
#
# Indices 1 2 3 4 5 6 
#
# 1 0.011829 -0.002123 -0.004178 -0.002217 -0.005353 0.004298
# 2 -0.002123 0.021804 -0.004849 -0.000602 -0.001166 0.006541
# 3 -0.004178 -0.004849 0.009812 -0.000897 -0.001862 -0.002801
# 4 -0.002217 -0.000602 -0.000897 0.016262 0.001201 -0.005780
# 5 -0.005353 -0.001166 -0.001862 0.001201 0.023566 -0.006828
# 6 0.004298 0.006541 -0.002801 -0.005780 -0.006828 0.036848
#
#
# Mechanical properties :
#
#
# Convention : Reuss Voigt Hill
#
# Bulk Modulus (GPa) = 47.29437 82.27275 64.78356
# Shear Modulus (GPa) = 33.45149 45.61143 39.53146
#
# Velocity S-wave (km/s) = 3.59443 4.19719 3.90745
# Velocity P-wave (km/s) = 5.95760 7.43402 6.73638
#
# Compressibility (1/GPa) = 0.02114417
#
# Stress axis : x y z
#
# Youngs Moduli (GPa) = 84.54046 45.86272 101.91336
#
# Poissons Ratio (x) = 0.09738 0.42579
# Poissons Ratio (y) = 0.17950 0.49420
# Poissons Ratio (z) = 0.35321 0.22240
#
# Static dielectric constant tensor:
#      x y z
#    x 2.041460 -0.025360 -0.029600 
#    y -0.025360 2.239270 0.039570 
#    z -0.029600 0.039570 2.007680 
# 
# From -- ./inp_files/559593.got.cif
#   From: 2010.05.17/outbox.cif.g08.bks.cpg/sg2_280_cif.got.tgz:559593.got - 2010.06.03 11:33:40.
