data_PCOD9031364
_publ_section_title
;
Structure prediction by ZEFSAII (Michael W. Deem and Ramdas Pophale) SiO2 
 PCOD9031364
Probable space group: P -1
;
_chemical_formula_sum "Si O2"
_cell_formula_units_Z 12
_cell_length_a 8.220249
_cell_length_b 10.590375
_cell_length_c 15.890475
_cell_angle_alpha 33.649819
_cell_angle_beta 118.650163
_cell_angle_gamma 137.795146
_cell_volume 478.712058
_symmetry_space_group_name_H-M "P -1"
_symmetry_group_IT_number 2
_symmetry_cell_setting 'triclinic'
loop_
_space_group_symop_operation_xyz
x,y,z
-x,-y,-z
loop_
_atom_site_type_symbol
_atom_site_label
_atom_site_fract_x
_atom_site_fract_y
_atom_site_fract_z
Si Si1 0.449474 0.161304 0.634322
Si Si2 0.746946 0.590888 0.626249
Si Si3 0.491375 0.709396 0.821085
Si Si4 0.986446 0.627250 0.223917
Si Si5 0.373145 0.137116 0.908437
Si Si6 0.061401 0.221761 0.689553
O O1 0.524591 0.280026 0.683006
O O2 0.222760 0.134973 0.559909
O O3 0.703735 0.469697 0.475597
O O4 0.415834 0.869453 0.767193
O O5 0.617871 0.501585 0.736230
O O6 0.971580 0.599203 0.666989
O O7 0.280684 0.516693 0.802538
O O8 0.500000 0.500000 0.000000
O O9 0.785378 0.984248 0.707103
O O10 0.978740 0.661864 0.301320
O O11 0.227701 0.976209 0.049992
O O12 0.142409 0.043522 0.845118
O O13 0.500000 0.000000 0.000000
#
# Coordination Sequence:
#
# PCOD9031364 Si02
#       6
#     2   2   2   2   2   2
#     4  10  22  43  66  93 126 172 210 253 321 372
#     4   9  20  41  70  85 127 176 207 253 314 378
#     4  12  25  38  64 100 128 160 214 264 312 374
#     4  11  22  39  67  94 127 164 211 260 316 370
#     4   9  19  36  64  90 120 170 210 245 315 373
#     4  11  22  42  66  91 129 169 206 262 315 372
#
# _framework density 25.067261999999999
#
# number of rings (size 3 to 8) (size 9 to 14) (size 15 to 20)
#    0.000    1.667    3.333    1.000    0.000    1.333 
#    0.000    0.833   18.333    0.000    0.000    0.000 
#    0.000    0.000    0.000    0.000    0.000    0.000 
#
# Total GULP energy -67060.051916 kJ/mol
# GULP energy per Si atom -5588.337660 kJ/mol
# Density = 2.501021 g / cm^3
# Si number density = 25.067262 Si / 1000 Ang^3
#
#
#
# Elastic Constant Matrix: (Units=GPa)
#
#
# Indices 1 2 3 4 5 6 
#
# 1 138.9577 43.0105 47.6049 2.8945 9.2432 19.3930
# 2 43.0105 77.2610 34.0970 4.9762 0.4095 24.0290
# 3 47.6049 34.0970 96.4393 15.4843 16.7561 6.1972
# 4 2.8945 4.9762 15.4843 28.9834 3.9881 9.8507
# 5 9.2432 0.4095 16.7561 3.9881 75.7153 15.4234
# 6 19.3930 24.0290 6.1972 9.8507 15.4234 51.2269
#
#
#
# Elastic Compliance Matrix: (Units=1/GPa)
#
#
# Indices 1 2 3 4 5 6 
#
# 1 0.009793 -0.003169 -0.003966 0.002435 0.000022 -0.002216
# 2 -0.003169 0.019885 -0.005881 0.002621 0.003256 -0.008900
# 3 -0.003966 -0.005881 0.016058 -0.008381 -0.003619 0.005018
# 4 0.002435 0.002621 -0.008381 0.041329 0.001296 -0.009475
# 5 0.000022 0.003256 -0.003619 0.001296 0.015121 -0.005900
# 6 -0.002216 -0.008900 0.005018 -0.009475 -0.005900 0.027526
#
#
# Mechanical properties :
#
#
# Convention : Reuss Voigt Hill
#
# Bulk Modulus (GPa) = 50.75110 62.45364 56.60237
# Shear Modulus (GPa) = 30.80491 43.71483 37.25987
#
# Velocity S-wave (km/s) = 3.50936 4.18053 3.85956
# Velocity P-wave (km/s) = 6.05893 6.94773 6.51850
#
# Compressibility (1/GPa) = 0.01970401
#
# Stress axis : x y z
#
# Youngs Moduli (GPa) = 102.11204 50.29005 62.27419
#
# Poissons Ratio (x) = 0.15938 0.24699
# Poissons Ratio (y) = 0.32361 0.36621
# Poissons Ratio (z) = 0.40499 0.29574
#
# Static dielectric constant tensor:
#      x y z
#    x 2.020230 0.027810 0.020980 
#    y 0.027810 2.017600 0.012460 
#    z 0.020980 0.012460 2.019240 
# 
# From -- ./inp_files/148630.got.cif
#   From: 2010.05.17/outbox.cif.g08.bks.cpg/sg2_75_cif.got.tgz:148630.got - 2010.06.03 11:33:40.
