data_PCOD9031889
_publ_section_title
;
Structure prediction by ZEFSAII (Michael W. Deem and Ramdas Pophale) SiO2 
 PCOD9031889
Probable space group: P -1
;
_chemical_formula_sum "Si O2"
_cell_formula_units_Z 16
_cell_length_a 9.415490
_cell_length_b 12.460597
_cell_length_c 19.533554
_cell_angle_alpha 145.972317
_cell_angle_beta 46.560407
_cell_angle_gamma 110.299032
_cell_volume 778.505816
_symmetry_space_group_name_H-M "P -1"
_symmetry_group_IT_number 2
_symmetry_cell_setting 'triclinic'
loop_
_space_group_symop_operation_xyz
x,y,z
-x,-y,-z
loop_
_atom_site_type_symbol
_atom_site_label
_atom_site_fract_x
_atom_site_fract_y
_atom_site_fract_z
Si Si1 0.336926 0.619839 0.439577
Si Si2 0.884542 0.049833 0.771662
Si Si3 0.413239 0.139110 0.175096
Si Si4 0.124708 0.029638 0.538697
Si Si5 0.197380 0.043470 0.937040
Si Si6 0.980801 0.442264 0.719171
Si Si7 0.542755 0.666508 0.529258
Si Si8 0.547935 0.446675 0.792135
O O1 0.293578 0.414088 0.355709
O O2 0.513390 0.609046 0.431336
O O3 0.431589 0.572964 0.306488
O O4 0.109666 0.880771 0.654909
O O5 0.992744 0.030096 0.650591
O O6 0.738627 0.935011 0.772865
O O7 0.699418 0.321406 0.987779
O O8 0.635719 0.049725 0.101774
O O9 0.500000 0.000000 0.000000
O O10 0.078780 0.272900 0.662634
O O11 0.386986 0.802834 0.335244
O O12 0.000000 0.000000 0.500000
O O13 0.337877 0.912401 0.753445
O O14 0.104120 0.305398 0.097387
O O15 0.000000 0.000000 0.000000
O O16 0.210173 0.362287 0.555002
O O17 0.763241 0.457064 0.759378
O O18 0.500000 0.500000 0.500000
#
# Coordination Sequence:
#
# PCOD9031889 Si02
#       8
#     2   2   2   2   2   2   2   2
#     4  11  24  41  62  96 133 174 210 269 325 391
#     4  11  23  39  66  99 129 168 219 266 330 378
#     4  12  23  39  65  98 129 173 208 271 325 388
#     4   9  23  39  66  97 132 167 214 281 321 387
#     4  12  25  41  63  98 133 166 219 259 323 399
#     4  11  23  44  66  95 129 168 219 268 333 378
#     4  12  26  41  65  92 132 180 209 266 325 389
#     4  10  22  43  68  98 128 165 223 273 319 390
#
# _framework density 20.552192000000002
#
# number of rings (size 3 to 8) (size 9 to 14) (size 15 to 20)
#    0.000    1.000    5.000    0.375    7.000    5.000 
#    0.000    2.500    0.000    4.500    0.000    0.000 
#    0.000    0.000    0.000    0.000    0.000    0.000 
#
# Total GULP energy -89205.653454 kJ/mol
# GULP energy per Si atom -5575.353341 kJ/mol
# Density = 2.050541 g / cm^3
# Si number density = 20.552192 Si / 1000 Ang^3
#
#
#
# Elastic Constant Matrix: (Units=GPa)
#
#
# Indices 1 2 3 4 5 6 
#
# 1 65.0521 18.9703 19.6331 2.2282 5.2819 -10.7172
# 2 18.9703 98.2641 39.9256 24.4964 4.6482 -15.2284
# 3 19.6331 39.9256 148.2406 28.7527 6.9515 -6.9378
# 4 2.2282 24.4964 28.7527 38.6864 1.4370 -10.6098
# 5 5.2819 4.6482 6.9515 1.4370 30.1430 1.7286
# 6 -10.7172 -15.2284 -6.9378 -10.6098 1.7286 18.2579
#
#
#
# Elastic Compliance Matrix: (Units=1/GPa)
#
#
# Indices 1 2 3 4 5 6 
#
# 1 0.018669 -0.002012 -0.002233 0.005214 -0.003370 0.011781
# 2 -0.002012 0.013801 -0.002061 -0.005213 -0.001433 0.006653
# 3 -0.002233 -0.002061 0.008612 -0.005767 -0.000828 -0.003030
# 4 0.005214 -0.005213 -0.005767 0.038411 -0.001701 0.019002
# 5 -0.003370 -0.001433 -0.000828 -0.001701 0.034704 -0.007763
# 6 0.011781 0.006653 -0.003030 0.019002 -0.007763 0.077862
#
#
# Mechanical properties :
#
#
# Convention : Reuss Voigt Hill
#
# Bulk Modulus (GPa) = 35.12236 52.06832 43.59534
# Shear Modulus (GPa) = 23.34717 32.95266 28.14992
#
# Velocity S-wave (km/s) = 3.37411 4.00855 3.70493
# Velocity P-wave (km/s) = 5.68383 6.84210 6.28968
#
# Compressibility (1/GPa) = 0.02847189
#
# Stress axis : x y z
#
# Youngs Moduli (GPa) = 53.56560 72.45929 116.11421
#
# Poissons Ratio (x) = 0.14575 0.25924
# Poissons Ratio (y) = 0.10775 0.23929
# Poissons Ratio (z) = 0.11959 0.14932
#
# Static dielectric constant tensor:
#      x y z
#    x 1.721290 0.042730 -0.011520 
#    y 0.042730 1.778050 0.086640 
#    z -0.011520 0.086640 1.876060 
# 
# From -- ./inp_files/306215.got.cif
#   From: 2010.05.17/outbox.cif.g08.bks.cpg/sg2_154_cif.got.tgz:306215.got - 2010.06.03 11:33:40.
