data_PCOD9031800
_publ_section_title
;
Structure prediction by ZEFSAII (Michael W. Deem and Ramdas Pophale) SiO2 
 PCOD9031800
Probable space group: P -1
;
_chemical_formula_sum "Si O2"
_cell_formula_units_Z 16
_cell_length_a 14.659938
_cell_length_b 9.354108
_cell_length_c 8.714626
_cell_angle_alpha 67.285623
_cell_angle_beta 47.663743
_cell_angle_gamma 91.109163
_cell_volume 743.311727
_symmetry_space_group_name_H-M "P -1"
_symmetry_group_IT_number 2
_symmetry_cell_setting 'triclinic'
loop_
_space_group_symop_operation_xyz
x,y,z
-x,-y,-z
loop_
_atom_site_type_symbol
_atom_site_label
_atom_site_fract_x
_atom_site_fract_y
_atom_site_fract_z
Si Si1 0.334353 0.192443 0.224800
Si Si2 0.118555 0.667101 0.366630
Si Si3 0.496849 0.455714 0.700083
Si Si4 0.246256 0.440349 0.432776
Si Si5 0.494986 0.212148 0.326160
Si Si6 0.005431 0.827968 0.001561
Si Si7 0.942838 0.111318 0.417063
Si Si8 0.731010 0.092519 0.166342
O O1 0.285569 0.321575 0.320598
O O2 0.443292 0.171644 0.226196
O O3 0.206524 0.018988 0.411527
O O4 0.398969 0.274399 0.955070
O O5 0.233465 0.600845 0.302828
O O6 0.063597 0.733913 0.545025
O O7 0.000000 0.500000 0.500000
O O8 0.180132 0.829543 0.117198
O O9 0.500000 0.500000 0.500000
O O10 0.644620 0.495268 0.582642
O O11 0.456422 0.590938 0.779131
O O12 0.102400 0.325112 0.717895
O O13 0.614314 0.161677 0.265725
O O14 0.358269 0.107734 0.624365
O O15 0.974169 0.819661 0.861089
O O16 0.156598 0.842508 0.855144
O O17 0.000000 0.000000 0.000000
O O18 0.000000 0.000000 0.500000
#
# Coordination Sequence:
#
# PCOD9031800 Si02
#       8
#     2   2   2   2   2   2   2   2
#     4  11  22  46  69  94 133 180 225 269 337 404
#     4  12  25  44  65  99 137 176 217 278 339 395
#     4  11  25  41  66  98 133 172 226 274 329 394
#     4  11  23  45  69  95 136 179 218 277 338 397
#     4  10  22  43  68  93 128 180 220 270 336 398
#     4  12  22  44  70  99 135 171 228 276 336 399
#     4  12  27  41  69 100 134 181 223 276 336 402
#     4  11  22  42  69  93 130 173 224 270 333 398
#
# _framework density 21.525288
#
# number of rings (size 3 to 8) (size 9 to 14) (size 15 to 20)
#    0.000    0.750    3.750    5.250    3.500    1.500 
#    0.000    1.250    0.000    0.000    0.000    0.000 
#    0.000    0.000    0.000    0.000    0.000    0.000 
#
# Total GULP energy -89416.294482 kJ/mol
# GULP energy per Si atom -5588.518405 kJ/mol
# Density = 2.147630 g / cm^3
# Si number density = 21.525288 Si / 1000 Ang^3
#
#
#
# Elastic Constant Matrix: (Units=GPa)
#
#
# Indices 1 2 3 4 5 6 
#
# 1 136.9717 25.0049 19.2014 11.2434 4.6664 -2.0288
# 2 25.0049 73.3144 7.7169 3.0964 1.6404 10.1010
# 3 19.2014 7.7169 127.3195 -2.4159 15.6908 13.4495
# 4 11.2434 3.0964 -2.4159 25.2836 -0.3758 5.9854
# 5 4.6664 1.6404 15.6908 -0.3758 39.6913 3.3812
# 6 -2.0288 10.1010 13.4495 5.9854 3.3812 29.5370
#
#
#
# Elastic Compliance Matrix: (Units=1/GPa)
#
#
# Indices 1 2 3 4 5 6 
#
# 1 0.008469 -0.002982 -0.001440 -0.004305 -0.000616 0.003200
# 2 -0.002982 0.015393 0.000114 0.000804 0.000163 -0.005703
# 3 -0.001440 0.000114 0.008939 0.002471 -0.002974 -0.004369
# 4 -0.004305 0.000804 0.002471 0.044158 0.000829 -0.010739
# 5 -0.000616 0.000163 -0.002974 0.000829 0.026610 -0.001958
# 6 0.003200 -0.005703 -0.004369 -0.010739 -0.001958 0.040415
#
#
# Mechanical properties :
#
#
# Convention : Reuss Voigt Hill
#
# Bulk Modulus (GPa) = 41.34746 49.05023 45.19884
# Shear Modulus (GPa) = 31.12107 37.94787 34.53447
#
# Velocity S-wave (km/s) = 3.80648 4.20330 4.00980
# Velocity P-wave (km/s) = 6.21044 6.81129 6.51779
#
# Compressibility (1/GPa) = 0.02418528
#
# Stress axis : x y z
#
# Youngs Moduli (GPa) = 118.07920 64.96451 111.86433
#
# Poissons Ratio (x) = 0.19373 0.16111
# Poissons Ratio (y) = 0.35213 -0.01280
# Poissons Ratio (z) = 0.17006 -0.00743
#
# Static dielectric constant tensor:
#      x y z
#    x 1.810260 -0.015110 0.024690 
#    y -0.015110 1.740820 0.002690 
#    z 0.024690 0.002690 1.820930 
# 
# From -- ./inp_files/297808.got.cif
#   From: 2010.05.17/outbox.cif.g08.bks.cpg/sg2_149_cif.got.tgz:297808.got - 2010.06.03 11:33:40.
