data_PCOD9031685
_publ_section_title
;
Structure prediction by ZEFSAII (Michael W. Deem and Ramdas Pophale) SiO2 
 PCOD9031685
Probable space group: P -1
;
_chemical_formula_sum "Si O2"
_cell_formula_units_Z 13
_cell_length_a 4.708407
_cell_length_b 9.403168
_cell_length_c 14.862396
_cell_angle_alpha 124.016078
_cell_angle_beta 101.186494
_cell_angle_gamma 107.630421
_cell_volume 461.517852
_symmetry_space_group_name_H-M "P -1"
_symmetry_group_IT_number 2
_symmetry_cell_setting 'triclinic'
loop_
_space_group_symop_operation_xyz
x,y,z
-x,-y,-z
loop_
_atom_site_type_symbol
_atom_site_label
_atom_site_fract_x
_atom_site_fract_y
_atom_site_fract_z
Si Si1 0.000000 0.500000 0.000000
Si Si2 0.643009 0.899110 0.039995
Si Si3 0.969637 0.718731 0.522419
Si Si4 0.189024 0.902194 0.166012
Si Si5 0.781850 0.543070 0.632503
Si Si6 0.204578 0.950465 0.392276
Si Si7 0.116875 0.503123 0.808152
O O1 0.078031 0.513747 0.117663
O O2 0.895883 0.672535 0.073012
O O3 0.460454 0.874132 0.116842
O O4 0.033588 0.001004 0.126812
O O5 0.490056 0.681590 0.910796
O O6 0.500000 0.000000 0.000000
O O7 0.967458 0.710058 0.627624
O O8 0.605717 0.526600 0.407141
O O9 0.221311 0.652605 0.476835
O O10 0.960430 0.911387 0.557458
O O11 0.302367 0.976152 0.300043
O O12 0.966896 0.579947 0.749392
O O13 0.947789 0.713084 0.300252
O O14 0.500000 0.000000 0.500000
#
# Coordination Sequence:
#
# PCOD9031685 Si02
#       7
#     1   2   2   2   2   2   2
#     4   8  20  42  66  96 134 178 230 278 342 402
#     4  11  25  48  72 105 138 188 239 293 353 415
#     4  10  23  43  65  99 144 177 234 276 352 415
#     4  10  24  45  71 101 140 183 234 295 345 420
#     4  10  22  43  67  99 136 188 224 289 339 420
#     4  11  23  46  72 109 143 190 232 291 357 428
#     4  10  22  43  72 104 140 186 235 287 351 415
#
# _framework density 28.167925
#
# number of rings (size 3 to 8) (size 9 to 14) (size 15 to 20)
#    0.000    1.846    1.538    0.462    2.154    9.846 
#   11.077    0.000    0.000    0.000    0.000    0.000 
#    0.000    0.000    0.000    0.000    0.000    0.000 
#
# Total GULP energy -72564.149313 kJ/mol
# GULP energy per Si atom -5581.857639 kJ/mol
# Density = 2.810381 g / cm^3
# Si number density = 28.167925 Si / 1000 Ang^3
#
#
#
# Elastic Constant Matrix: (Units=GPa)
#
#
# Indices 1 2 3 4 5 6 
#
# 1 88.5853 24.6410 29.3761 -8.0838 -5.2200 -17.7329
# 2 24.6410 175.4192 68.6369 -26.0496 4.7678 -35.3194
# 3 29.3761 68.6369 191.8999 -24.0249 8.5502 -17.1591
# 4 -8.0838 -26.0496 -24.0249 76.2748 -5.9850 0.1019
# 5 -5.2200 4.7678 8.5502 -5.9850 31.5932 -7.4019
# 6 -17.7329 -35.3194 -17.1591 0.1019 -7.4019 45.9196
#
#
#
# Elastic Compliance Matrix: (Units=1/GPa)
#
#
# Indices 1 2 3 4 5 6 
#
# 1 0.013199 -0.000174 -0.001542 0.001163 0.004024 0.005033
# 2 -0.000174 0.007919 -0.002106 0.002094 0.001007 0.005394
# 3 -0.001542 -0.002106 0.006387 0.001012 -0.001490 -0.000071
# 4 0.001163 0.002094 0.001012 0.014502 0.003027 0.002894
# 5 0.004024 0.001007 -0.001490 0.003027 0.034873 0.007386
# 6 0.005033 0.005394 -0.000071 0.002894 0.007386 0.029028
#
#
# Mechanical properties :
#
#
# Convention : Reuss Voigt Hill
#
# Bulk Modulus (GPa) = 50.34976 77.91251 64.13114
# Shear Modulus (GPa) = 41.60737 52.97419 47.29078
#
# Velocity S-wave (km/s) = 3.84750 4.34136 4.10187
# Velocity P-wave (km/s) = 6.13607 7.26979 6.72686
#
# Compressibility (1/GPa) = 0.01986107
#
# Stress axis : x y z
#
# Youngs Moduli (GPa) = 75.76305 126.28059 156.56491
#
# Poissons Ratio (x) = 0.02198 0.24141
# Poissons Ratio (y) = 0.01319 0.32972
# Poissons Ratio (z) = 0.11682 0.26595
#
# Static dielectric constant tensor:
#      x y z
#    x 1.961270 -0.122570 0.032360 
#    y -0.122570 2.139910 0.040970 
#    z 0.032360 0.040970 2.187100 
# 
# From -- ./inp_files/94036.got.cif
#   From: 2010.05.17/outbox.cif.g08.bks.cpg/sg2_48_cif.got.tgz:94036.got - 2010.06.03 11:33:40.
