data_PCOD9031754
_publ_section_title
;
Structure prediction by ZEFSAII (Michael W. Deem and Ramdas Pophale) SiO2 
 PCOD9031754
Probable space group: P -1
;
_chemical_formula_sum "Si O2"
_cell_formula_units_Z 12
_cell_length_a 12.215307
_cell_length_b 7.496015
_cell_length_c 5.750152
_cell_angle_alpha 90.937779
_cell_angle_beta 66.720669
_cell_angle_gamma 109.659576
_cell_volume 451.305350
_symmetry_space_group_name_H-M "P -1"
_symmetry_group_IT_number 2
_symmetry_cell_setting 'triclinic'
loop_
_space_group_symop_operation_xyz
x,y,z
-x,-y,-z
loop_
_atom_site_type_symbol
_atom_site_label
_atom_site_fract_x
_atom_site_fract_y
_atom_site_fract_z
Si Si1 0.119471 0.665495 0.014277
Si Si2 0.936169 0.795940 0.429723
Si Si3 0.757748 0.907577 0.267714
Si Si4 0.511007 0.656944 0.297668
Si Si5 0.279840 0.553810 0.169685
Si Si6 0.605560 0.066988 0.705455
O O1 0.234347 0.586039 0.953088
O O2 0.045826 0.712394 0.294887
O O3 0.000000 0.500000 0.000000
O O4 0.178648 0.871699 0.849537
O O5 0.866300 0.831482 0.257020
O O6 0.824692 0.637887 0.657696
O O7 0.000000 0.000000 0.500000
O O8 0.662682 0.775010 0.150173
O O9 0.663046 0.914602 0.559794
O O10 0.500000 0.500000 0.500000
O O11 0.418001 0.571888 0.152511
O O12 0.455915 0.823066 0.420529
O O13 0.278660 0.751495 0.289539
O O14 0.500000 0.000000 0.000000
#
# Coordination Sequence:
#
# PCOD9031754 Si02
#       6
#     2   2   2   2   2   2
#     4  12  26  45  73 105 145 195 244 288 355 427
#     4  12  25  46  71 103 144 194 243 293 352 424
#     4  12  23  43  72 103 144 185 239 305 354 434
#     4  10  22  43  69 100 138 179 238 297 367 414
#     4  10  23  44  69 100 143 183 235 297 356 423
#     4  10  22  43  68 103 142 183 238 289 372 427
#
# _framework density 26.589538999999998
#
# number of rings (size 3 to 8) (size 9 to 14) (size 15 to 20)
#    1.000    0.000    1.667    5.500    0.000    0.000 
#    0.000    6.667    0.000    0.000    0.000    0.000 
#    0.000    0.000    0.000    0.000    0.000    0.000 
#
# Total GULP energy -66997.170486 kJ/mol
# GULP energy per Si atom -5583.097540 kJ/mol
# Density = 2.652902 g / cm^3
# Si number density = 26.589539 Si / 1000 Ang^3
#
#
#
# Elastic Constant Matrix: (Units=GPa)
#
#
# Indices 1 2 3 4 5 6 
#
# 1 231.8151 61.2453 51.1659 -7.1065 25.0726 13.0749
# 2 61.2453 164.1474 45.9141 -29.5014 -5.0572 30.7410
# 3 51.1659 45.9141 64.9991 -25.8789 -12.1331 0.1009
# 4 -7.1065 -29.5014 -25.8789 54.8160 -16.1523 -2.5327
# 5 25.0726 -5.0572 -12.1331 -16.1523 44.7622 -0.8833
# 6 13.0749 30.7410 0.1009 -2.5327 -0.8833 59.9040
#
#
#
# Elastic Compliance Matrix: (Units=1/GPa)
#
#
# Indices 1 2 3 4 5 6 
#
# 1 0.007847 -0.001552 -0.009942 -0.007523 -0.010007 -0.001365
# 2 -0.001552 0.009097 -0.003376 0.003552 0.002182 -0.004141
# 3 -0.009942 -0.003376 0.039120 0.022697 0.024083 0.005152
# 4 -0.007523 0.003552 0.022697 0.037101 0.024189 0.001706
# 5 -0.010007 0.002182 0.024083 0.024189 0.043501 0.002688
# 6 -0.001365 -0.004141 0.005152 0.001706 0.002688 0.019220
#
#
# Mechanical properties :
#
#
# Convention : Reuss Voigt Hill
#
# Bulk Modulus (GPa) = 37.98878 86.40136 62.19507
# Shear Modulus (GPa) = 25.72010 52.07220 38.89615
#
# Velocity S-wave (km/s) = 3.11352 4.43015 3.82885
# Velocity P-wave (km/s) = 5.21953 7.66377 6.55656
#
# Compressibility (1/GPa) = 0.02632356
#
# Stress axis : x y z
#
# Youngs Moduli (GPa) = 127.44029 109.93103 25.56222
#
# Poissons Ratio (x) = 0.17056 0.25414
# Poissons Ratio (y) = 0.19773 0.08631
# Poissons Ratio (z) = 1.26702 0.37118
#
# Static dielectric constant tensor:
#      x y z
#    x 2.070100 -0.010890 0.029470 
#    y -0.010890 1.965230 0.071610 
#    z 0.029470 0.071610 2.186720 
# 
# From -- ./inp_files/59177.got.cif
#   From: 2010.05.17/outbox.cif.g08.bks.cpg/sg2_30_cif.got.tgz:59177.got - 2010.06.03 11:33:40.
