data_PCOD9031323
_publ_section_title
;
Structure prediction by ZEFSAII (Michael W. Deem and Ramdas Pophale) SiO2 
 PCOD9031323
Probable space group: P -1
;
_chemical_formula_sum "Si O2"
_cell_formula_units_Z 16
_cell_length_a 6.987253
_cell_length_b 7.897502
_cell_length_c 18.427245
_cell_angle_alpha 50.424898
_cell_angle_beta 122.691783
_cell_angle_gamma 105.864506
_cell_volume 655.683972
_symmetry_space_group_name_H-M "P -1"
_symmetry_group_IT_number 2
_symmetry_cell_setting 'triclinic'
loop_
_space_group_symop_operation_xyz
x,y,z
-x,-y,-z
loop_
_atom_site_type_symbol
_atom_site_label
_atom_site_fract_x
_atom_site_fract_y
_atom_site_fract_z
Si Si1 0.244463 0.600621 0.719662
Si Si2 0.915775 0.764235 0.121179
Si Si3 0.426256 0.718589 0.974683
Si Si4 0.728328 0.358530 0.558421
Si Si5 0.801018 0.971096 0.794375
Si Si6 0.055702 0.734240 0.505810
Si Si7 0.703501 0.045351 0.251527
Si Si8 0.753500 0.481877 0.863549
O O1 0.103122 0.405027 0.769289
O O2 0.130659 0.778307 0.590783
O O3 0.497817 0.513487 0.768017
O O4 0.278136 0.723458 0.768075
O O5 0.658327 0.810671 0.025288
O O6 0.030985 0.964391 0.125481
O O7 0.071012 0.645060 0.121688
O O8 0.289365 0.640536 0.036410
O O9 0.500000 0.500000 0.000000
O O10 0.823715 0.722767 0.834723
O O11 0.500000 0.500000 0.500000
O O12 0.786251 0.143991 0.677777
O O13 0.716396 0.297482 0.487780
O O14 0.932851 0.514279 0.556153
O O15 0.549977 0.011069 0.768840
O O16 0.284818 0.903472 0.845190
O O17 0.882448 0.881704 0.377730
#
# Coordination Sequence:
#
# PCOD9031323 Si02
#       8
#     2   2   2   2   2   2   2   2
#     4  10  22  43  66 105 143 179 237 298 349 433
#     4  11  24  44  78 105 142 191 239 298 358 426
#     4  11  22  49  69 101 153 184 234 306 350 420
#     4  11  24  41  64 103 145 184 234 301 346 426
#     4  11  23  45  72 106 145 181 245 297 354 427
#     4  11  24  41  71  98 141 197 229 283 378 418
#     4  11  23  46  69 100 150 186 233 304 350 422
#     4  10  25  46  73 106 144 192 235 301 362 415
#
# _framework density 24.402000999999998
#
# number of rings (size 3 to 8) (size 9 to 14) (size 15 to 20)
#    0.000    1.250    6.250    0.375    3.500    1.000 
#    2.250    1.875    0.000    0.000    0.000    0.000 
#    0.000    0.000    0.000    0.000    0.000    0.000 
#
# Total GULP energy -89508.503204 kJ/mol
# GULP energy per Si atom -5594.281450 kJ/mol
# Density = 2.434646 g / cm^3
# Si number density = 24.402001 Si / 1000 Ang^3
#
#
#
# Elastic Constant Matrix: (Units=GPa)
#
#
# Indices 1 2 3 4 5 6 
#
# 1 142.4528 74.9161 73.4449 -4.7457 -11.1030 -2.4783
# 2 74.9161 93.7937 52.5864 1.4874 -9.4180 -2.6562
# 3 73.4449 52.5864 220.8843 -8.2972 -28.7315 -7.9709
# 4 -4.7457 1.4874 -8.2972 34.9371 -4.1297 -3.7526
# 5 -11.1030 -9.4180 -28.7315 -4.1297 25.9042 -10.0176
# 6 -2.4783 -2.6562 -7.9709 -3.7526 -10.0176 29.7519
#
#
#
# Elastic Compliance Matrix: (Units=1/GPa)
#
#
# Indices 1 2 3 4 5 6 
#
# 1 0.013009 -0.009257 -0.002026 0.001710 0.000240 0.000011
# 2 -0.009257 0.018990 -0.001303 -0.002116 0.001463 0.000801
# 3 -0.002026 -0.001303 0.006932 0.002980 0.008709 0.004880
# 4 0.001710 -0.002116 0.002980 0.031980 0.011747 0.008741
# 5 0.000240 0.001463 0.008709 0.011747 0.060134 0.024213
# 6 0.000011 0.000801 0.004880 0.008741 0.024213 0.044246
#
#
# Mechanical properties :
#
#
# Convention : Reuss Voigt Hill
#
# Bulk Modulus (GPa) = 72.68561 95.44728 84.06644
# Shear Modulus (GPa) = 24.38439 35.19755 29.79097
#
# Velocity S-wave (km/s) = 3.16457 3.80202 3.49784
# Velocity P-wave (km/s) = 6.57298 7.64678 7.13012
#
# Compressibility (1/GPa) = 0.01375788
#
# Stress axis : x y z
#
# Youngs Moduli (GPa) = 76.87261 52.66049 144.26109
#
# Poissons Ratio (x) = 0.48750 0.29222
# Poissons Ratio (y) = 0.71164 0.18798
# Poissons Ratio (z) = 0.15572 0.06862
#
# Static dielectric constant tensor:
#      x y z
#    x 1.979730 -0.054470 0.012240 
#    y -0.054470 1.875860 -0.093330 
#    z 0.012240 -0.093330 1.830310 
# 
# From -- ./inp_files/43315.got.cif
#   From: 2010.05.17/outbox.cif.g08.bks.cpg/sg2_22_cif.got.tgz:43315.got - 2010.06.03 11:33:40.
