data_PCOD9031769
_publ_section_title
;
Structure prediction by ZEFSAII (Michael W. Deem and Ramdas Pophale) SiO2 
 PCOD9031769
Probable space group: P -1
;
_chemical_formula_sum "Si O2"
_cell_formula_units_Z 16
_cell_length_a 9.010021
_cell_length_b 6.327862
_cell_length_c 13.645604
_cell_angle_alpha 115.888433
_cell_angle_beta 96.148980
_cell_angle_gamma 100.405452
_cell_volume 673.031023
_symmetry_space_group_name_H-M "P -1"
_symmetry_group_IT_number 2
_symmetry_cell_setting 'triclinic'
loop_
_space_group_symop_operation_xyz
x,y,z
-x,-y,-z
loop_
_atom_site_type_symbol
_atom_site_label
_atom_site_fract_x
_atom_site_fract_y
_atom_site_fract_z
Si Si1 0.912383 0.181913 0.880199
Si Si2 0.427588 0.250105 0.821030
Si Si3 0.846816 0.926499 0.538397
Si Si4 0.475832 0.245224 0.600086
Si Si5 0.932955 0.431796 0.732777
Si Si6 0.267331 0.286936 0.307841
Si Si7 0.679405 0.296373 0.018243
Si Si8 0.824039 0.095275 0.157262
O O1 0.968036 0.319892 0.812552
O O2 0.843107 0.345298 0.982114
O O3 0.755861 0.976669 0.794530
O O4 0.047350 0.051109 0.892391
O O5 0.496915 0.236256 0.716334
O O6 0.549249 0.245731 0.914993
O O7 0.277843 0.031262 0.785617
O O8 0.364861 0.490052 0.880085
O O9 0.704229 0.778514 0.436092
O O10 0.831906 0.779445 0.611227
O O11 0.840678 0.200951 0.618138
O O12 0.000000 0.000000 0.500000
O O13 0.576306 0.506836 0.620746
O O14 0.500000 0.000000 0.500000
O O15 0.812105 0.592052 0.758187
O O16 0.086953 0.629669 0.752039
O O17 0.709169 0.100786 0.059317
#
# Coordination Sequence:
#
# PCOD9031769 Si02
#       8
#     2   2   2   2   2   2   2   2
#     4  10  23  43  75 103 150 188 244 298 367 442
#     4  11  28  46  71 107 149 192 249 306 366 433
#     4  11  26  43  73 107 146 186 244 310 365 428
#     4  12  26  49  75 104 147 198 246 299 369 439
#     4  10  22  43  68 105 146 184 238 297 362 440
#     4  10  23  45  71 106 142 196 243 289 366 443
#     4  11  25  48  71 104 150 195 245 307 366 437
#     4  11  24  42  73 108 146 194 240 303 373 437
#
# _framework density 23.773047999999999
#
# number of rings (size 3 to 8) (size 9 to 14) (size 15 to 20)
#    0.000    1.250    1.250    2.625    8.750    8.500 
#    0.000    0.000    0.000    0.000    0.000    0.000 
#    0.000    0.000    0.000    0.000    0.000    0.000 
#
# Total GULP energy -89205.844786 kJ/mol
# GULP energy per Si atom -5575.365299 kJ/mol
# Density = 2.371894 g / cm^3
# Si number density = 23.773048 Si / 1000 Ang^3
#
#
#
# Elastic Constant Matrix: (Units=GPa)
#
#
# Indices 1 2 3 4 5 6 
#
# 1 119.1031 65.0130 36.1936 3.7608 3.8586 8.6606
# 2 65.0130 110.6922 40.8736 6.4602 7.2131 9.1173
# 3 36.1936 40.8736 94.9507 8.3649 19.6250 13.5480
# 4 3.7608 6.4602 8.3649 36.9124 3.6218 10.3144
# 5 3.8586 7.2131 19.6250 3.6218 32.5612 -8.1511
# 6 8.6606 9.1173 13.5480 10.3144 -8.1511 42.7396
#
#
#
# Elastic Compliance Matrix: (Units=1/GPa)
#
#
# Indices 1 2 3 4 5 6 
#
# 1 0.012704 -0.006730 -0.002177 0.000347 0.001182 -0.000307
# 2 -0.006730 0.014354 -0.003394 -0.000889 -0.000357 -0.000476
# 3 -0.002177 -0.003394 0.015673 -0.000199 -0.009824 -0.005629
# 4 0.000347 -0.000889 -0.000199 0.029996 -0.005069 -0.008023
# 5 0.001182 -0.000357 -0.009824 -0.005069 0.040094 0.011821
# 6 -0.000307 -0.000476 -0.005629 -0.008023 0.011821 0.029536
#
#
# Mechanical properties :
#
#
# Convention : Reuss Voigt Hill
#
# Bulk Modulus (GPa) = 55.15217 67.65627 61.40422
# Shear Modulus (GPa) = 28.90143 34.62037 31.76090
#
# Velocity S-wave (km/s) = 3.49050 3.82027 3.65910
# Velocity P-wave (km/s) = 6.28448 6.92678 6.61343
#
# Compressibility (1/GPa) = 0.01813165
#
# Stress axis : x y z
#
# Youngs Moduli (GPa) = 78.71492 69.66614 63.80201
#
# Poissons Ratio (x) = 0.46883 0.13887
# Poissons Ratio (y) = 0.52973 0.21653
# Poissons Ratio (z) = 0.17133 0.23643
#
# Static dielectric constant tensor:
#      x y z
#    x 2.369970 -0.302240 -0.327270 
#    y -0.302240 2.166630 0.304300 
#    z -0.327270 0.304300 2.244620 
# 
# From -- ./inp_files/488700.got.cif
#   From: 2010.05.17/outbox.cif.g08.bks.cpg/sg2_245_cif.got.tgz:488700.got - 2010.06.03 11:33:40.
