data_PCOD9031170
_publ_section_title
;
Structure prediction by ZEFSAII (Michael W. Deem and Ramdas Pophale) SiO2 
 PCOD9031170
Probable space group: P -1
;
_chemical_formula_sum "Si O2"
_cell_formula_units_Z 14
_cell_length_a 11.946095
_cell_length_b 5.411752
_cell_length_c 12.300229
_cell_angle_alpha 99.775035
_cell_angle_beta 127.530528
_cell_angle_gamma 70.188002
_cell_volume 592.573210
_symmetry_space_group_name_H-M "P -1"
_symmetry_group_IT_number 2
_symmetry_cell_setting 'triclinic'
loop_
_space_group_symop_operation_xyz
x,y,z
-x,-y,-z
loop_
_atom_site_type_symbol
_atom_site_label
_atom_site_fract_x
_atom_site_fract_y
_atom_site_fract_z
Si Si1 0.585645 0.401777 0.879818
Si Si2 0.581527 0.988901 0.161981
Si Si3 0.868841 0.613250 0.671450
Si Si4 0.367745 0.889142 0.524704
Si Si5 0.679202 0.514572 0.713508
Si Si6 0.155061 0.789422 0.558432
Si Si7 0.803559 0.472078 0.202122
O O1 0.496042 0.189349 0.823380
O O2 0.673359 0.381007 0.816084
O O3 0.690946 0.397048 0.045984
O O4 0.473877 0.696483 0.827785
O O5 0.745093 0.789214 0.212376
O O6 0.500000 0.000000 0.000000
O O7 0.833124 0.553427 0.769342
O O8 0.870106 0.395690 0.565966
O O9 0.030899 0.643623 0.756407
O O10 0.721685 0.842699 0.565539
O O11 0.541872 0.784194 0.644832
O O12 0.347030 0.671992 0.412091
O O13 0.277128 0.906965 0.585339
O O14 0.193939 0.646054 0.685256
O O15 0.000000 0.000000 0.500000
#
# Coordination Sequence:
#
# PCOD9031170 Si02
#       7
#     2   2   2   2   2   2   2
#     4  11  25  45  71 102 135 182 222 277 338 409
#     4  10  23  43  67 101 135 176 221 269 341 406
#     4  11  24  40  63  96 129 176 222 279 336 394
#     4  10  22  43  65  91 128 176 224 285 324 399
#     4  10  24  42  66  91 132 175 235 268 333 399
#     4  11  23  39  64  99 132 168 222 278 346 402
#     4  11  23  41  67  98 136 168 219 285 343 404
#
# _framework density 23.625774
#
# number of rings (size 3 to 8) (size 9 to 14) (size 15 to 20)
#    0.000    1.429    1.429    3.429    4.000    4.000 
#    0.000    0.714    0.000    0.000    0.000    0.000 
#    0.000    0.000    0.000    0.000    0.000    0.000 
#
# Total GULP energy -78138.928725 kJ/mol
# GULP energy per Si atom -5581.352052 kJ/mol
# Density = 2.357200 g / cm^3
# Si number density = 23.625774 Si / 1000 Ang^3
#
#
#
# Elastic Constant Matrix: (Units=GPa)
#
#
# Indices 1 2 3 4 5 6 
#
# 1 179.9564 42.4259 38.2860 -9.8358 -20.6689 -9.0365
# 2 42.4259 133.3842 16.3646 -10.2783 -2.7452 -16.0105
# 3 38.2860 16.3646 71.6466 -23.0036 -9.4510 -9.6819
# 4 -9.8358 -10.2783 -23.0036 31.2885 8.8364 -7.1312
# 5 -20.6689 -2.7452 -9.4510 8.8364 35.6106 5.6763
# 6 -9.0365 -16.0105 -9.6819 -7.1312 5.6763 35.6058
#
#
#
# Elastic Compliance Matrix: (Units=1/GPa)
#
#
# Indices 1 2 3 4 5 6 
#
# 1 0.007087 -0.002066 -0.003841 -0.002647 0.003801 -0.001311
# 2 -0.002066 0.008971 0.001000 0.004834 -0.002256 0.005109
# 3 -0.003841 0.001000 0.022842 0.018810 -0.002323 0.009824
# 4 -0.002647 0.004834 0.018810 0.054647 -0.012857 0.019611
# 5 0.003801 -0.002256 -0.002323 -0.012857 0.034072 -0.008689
# 6 -0.001311 0.005109 0.009824 0.019611 -0.008689 0.038034
#
#
# Mechanical properties :
#
#
# Convention : Reuss Voigt Hill
#
# Bulk Modulus (GPa) = 34.38063 64.34891 49.36477
# Shear Modulus (GPa) = 27.00331 39.69502 33.34917
#
# Velocity S-wave (km/s) = 3.38444 4.10342 3.76115
# Velocity P-wave (km/s) = 5.46409 7.05313 6.30884
#
# Compressibility (1/GPa) = 0.02908614
#
# Stress axis : x y z
#
# Youngs Moduli (GPa) = 141.09992 111.47023 43.77953
#
# Poissons Ratio (x) = 0.23031 0.16815
# Poissons Ratio (y) = 0.29152 -0.04378
# Poissons Ratio (z) = 0.54195 -0.11148
#
# Static dielectric constant tensor:
#      x y z
#    x 2.272240 0.303270 0.394930 
#    y 0.303270 2.202860 0.450950 
#    z 0.394930 0.450950 2.573850 
# 
# From -- ./inp_files/410884.got.cif
#   From: 2010.05.17/outbox.cif.g08.bks.cpg/sg2_206_cif.got.tgz:410884.got - 2010.06.03 11:33:40.
