data_PCOD9031604
_publ_section_title
;
Structure prediction by ZEFSAII (Michael W. Deem and Ramdas Pophale) SiO2 
 PCOD9031604
Probable space group: P -1
;
_chemical_formula_sum "Si O2"
_cell_formula_units_Z 12
_cell_length_a 5.132133
_cell_length_b 9.035052
_cell_length_c 13.591340
_cell_angle_alpha 110.841599
_cell_angle_beta 107.736226
_cell_angle_gamma 54.303699
_cell_volume 474.398690
_symmetry_space_group_name_H-M "P -1"
_symmetry_group_IT_number 2
_symmetry_cell_setting 'triclinic'
loop_
_space_group_symop_operation_xyz
x,y,z
-x,-y,-z
loop_
_atom_site_type_symbol
_atom_site_label
_atom_site_fract_x
_atom_site_fract_y
_atom_site_fract_z
Si Si1 0.645246 0.452926 0.376008
Si Si2 0.728089 0.775936 0.473179
Si Si3 0.493797 0.174847 0.235899
Si Si4 0.118278 0.823763 0.902429
Si Si5 0.773595 0.773646 0.250173
Si Si6 0.436361 0.565471 0.162635
O O1 0.977981 0.309292 0.435918
O O2 0.551732 0.660757 0.446241
O O3 0.654568 0.474749 0.265156
O O4 0.442074 0.352599 0.332578
O O5 0.857447 0.730793 0.364866
O O6 0.500000 0.000000 0.500000
O O7 0.625417 0.992867 0.273785
O O8 0.179878 0.204582 0.152591
O O9 0.761610 0.130795 0.173636
O O10 0.422192 0.623706 0.928267
O O11 0.000000 0.000000 0.000000
O O12 0.076044 0.660804 0.185009
O O13 0.514957 0.719418 0.178614
#
# Coordination Sequence:
#
# PCOD9031604 Si02
#       6
#     2   2   2   2   2   2
#     4   9  22  42  64  99 141 188 237 275 353 394
#     4  10  23  43  69 103 144 189 246 293 329 408
#     4  11  24  43  73 101 142 183 230 286 361 422
#     4  11  24  47  74 103 133 180 235 288 356 433
#     4  11  24  42  66 101 141 181 232 284 349 403
#     4  10  22  43  67  95 138 185 222 286 352 415
#
# _framework density 25.295182
#
# number of rings (size 3 to 8) (size 9 to 14) (size 15 to 20)
#    0.000    1.667    0.000    3.500    9.333    1.333 
#    6.000    5.000    0.000    0.000    0.000    0.000 
#    0.000    0.000    0.000    0.000    0.000    0.000 
#
# Total GULP energy -67075.380511 kJ/mol
# GULP energy per Si atom -5589.615043 kJ/mol
# Density = 2.523761 g / cm^3
# Si number density = 25.295182 Si / 1000 Ang^3
#
#
#
# Elastic Constant Matrix: (Units=GPa)
#
#
# Indices 1 2 3 4 5 6 
#
# 1 145.1189 35.2153 42.4881 31.5524 8.3441 15.9431
# 2 35.2153 171.4572 31.9895 40.5334 -4.9213 23.0536
# 3 42.4881 31.9895 84.0529 24.9586 3.7239 10.0227
# 4 31.5524 40.5334 24.9586 52.3591 3.5358 0.2829
# 5 8.3441 -4.9213 3.7239 3.5358 23.3425 10.4438
# 6 15.9431 23.0536 10.0227 0.2829 10.4438 41.7642
#
#
#
# Elastic Compliance Matrix: (Units=1/GPa)
#
#
# Indices 1 2 3 4 5 6 
#
# 1 0.008945 -0.000096 -0.003035 -0.003781 -0.001120 -0.002328
# 2 -0.000096 0.008462 -0.000814 -0.006446 0.005507 -0.005772
# 3 -0.003035 -0.000814 0.015440 -0.004899 0.000131 -0.002097
# 4 -0.003781 -0.006446 -0.004899 0.029140 -0.007111 0.007758
# 5 -0.001120 0.005507 0.000131 -0.007111 0.052492 -0.015722
# 6 -0.002328 -0.005772 -0.002097 0.007758 -0.015722 0.032401
#
#
# Mechanical properties :
#
#
# Convention : Reuss Voigt Hill
#
# Bulk Modulus (GPa) = 40.06891 68.89054 54.47973
# Shear Modulus (GPa) = 30.65792 42.88890 36.77341
#
# Velocity S-wave (km/s) = 3.48516 4.12216 3.81697
# Velocity P-wave (km/s) = 5.66305 7.06753 6.40391
#
# Compressibility (1/GPa) = 0.02495700
#
# Stress axis : x y z
#
# Youngs Moduli (GPa) = 111.79362 118.17654 64.76679
#
# Poissons Ratio (x) = 0.01138 0.19658
# Poissons Ratio (y) = 0.01076 0.05269
# Poissons Ratio (z) = 0.33931 0.09614
#
# Static dielectric constant tensor:
#      x y z
#    x 2.031360 -0.003310 -0.050450 
#    y -0.003310 2.013130 0.028870 
#    z -0.050450 0.028870 2.084450 
# 
# From -- ./inp_files/548327.got.cif
#   From: 2010.05.17/outbox.cif.g08.bks.cpg/sg2_275_cif.got.tgz:548327.got - 2010.06.03 11:33:40.
