data_PCOD9031079
_publ_section_title
;
Structure prediction by ZEFSAII (Michael W. Deem and Ramdas Pophale) SiO2 
 PCOD9031079
Probable space group: P -1
;
_chemical_formula_sum "Si O2"
_cell_formula_units_Z 16
_cell_length_a 12.255336
_cell_length_b 15.942512
_cell_length_c 7.233500
_cell_angle_alpha 131.036062
_cell_angle_beta 81.746846
_cell_angle_gamma 134.578003
_cell_volume 612.815564
_symmetry_space_group_name_H-M "P -1"
_symmetry_group_IT_number 2
_symmetry_cell_setting 'triclinic'
loop_
_space_group_symop_operation_xyz
x,y,z
-x,-y,-z
loop_
_atom_site_type_symbol
_atom_site_label
_atom_site_fract_x
_atom_site_fract_y
_atom_site_fract_z
Si Si1 0.509867 0.145766 0.386717
Si Si2 0.789762 0.483495 0.278703
Si Si3 0.041074 0.495190 0.199181
Si Si4 0.997330 0.006641 0.235873
Si Si5 0.331393 0.422686 0.317512
Si Si6 0.437123 0.053299 0.846829
Si Si7 0.952835 0.221314 0.660462
Si Si8 0.573597 0.684942 0.313394
O O1 0.737119 0.327437 0.561715
O O2 0.449629 0.207608 0.601454
O O3 0.478249 0.000757 0.281809
O O4 0.418562 0.061758 0.083234
O O5 0.791658 0.596999 0.557510
O O6 0.932350 0.504572 0.342779
O O7 0.854862 0.580432 0.203438
O O8 0.583559 0.261065 0.026457
O O9 0.000000 0.500000 0.000000
O O10 0.957615 0.301924 0.957478
O O11 0.206497 0.143587 0.443170
O O12 0.962344 0.098082 0.466132
O O13 0.000000 0.000000 0.000000
O O14 0.817714 0.787378 0.028300
O O15 0.500000 0.500000 0.500000
O O16 0.438794 0.585185 0.379652
O O17 0.231363 0.894981 0.578743
O O18 0.500000 0.500000 0.000000
#
# Coordination Sequence:
#
# PCOD9031079 Si02
#       8
#     2   2   2   2   2   2   2   2
#     4  11  23  44  65  95 139 168 220 279 331 402
#     4  11  22  40  68  95 131 173 223 270 336 401
#     4  10  22  43  64  94 135 174 211 277 344 392
#     4  12  23  42  77  99 133 186 235 282 340 407
#     4  12  24  44  72 106 131 182 244 277 334 421
#     4  11  23  40  67  96 129 172 225 267 332 402
#     4  11  22  45  66  98 138 167 224 283 335 394
#     4  12  27  48  68 101 146 180 223 295 351 395
#
# _framework density 26.108998
#
# number of rings (size 3 to 8) (size 9 to 14) (size 15 to 20)
#    0.000    0.750    6.250    2.250    0.000    2.500 
#    4.500    0.000    0.000    0.000    0.000    0.000 
#    0.000    0.000    0.000    0.000    0.000    0.000 
#
# Total GULP energy -89565.290175 kJ/mol
# GULP energy per Si atom -5597.830636 kJ/mol
# Density = 2.604957 g / cm^3
# Si number density = 26.108998 Si / 1000 Ang^3
#
#
#
# Elastic Constant Matrix: (Units=GPa)
#
#
# Indices 1 2 3 4 5 6 
#
# 1 143.3127 7.1227 65.7407 -14.0065 -35.7494 19.0926
# 2 7.1227 56.8916 14.3721 9.6600 4.8285 -3.6983
# 3 65.7407 14.3721 148.3912 25.0140 -14.5295 -0.1550
# 4 -14.0065 9.6600 25.0140 42.8266 0.9649 -6.0846
# 5 -35.7494 4.8285 -14.5295 0.9649 70.4501 3.9486
# 6 19.0926 -3.6983 -0.1550 -6.0846 3.9486 35.2670
#
#
#
# Elastic Compliance Matrix: (Units=1/GPa)
#
#
# Indices 1 2 3 4 5 6 
#
# 1 0.012959 -0.002211 -0.006201 0.007284 0.005722 -0.006658
# 2 -0.002211 0.019090 -0.000387 -0.004355 -0.002604 0.002737
# 3 -0.006201 -0.000387 0.010771 -0.007913 -0.000908 0.002100
# 4 0.007284 -0.004355 -0.007913 0.031403 0.001889 0.000772
# 5 0.005722 -0.002604 -0.000908 0.001889 0.017343 -0.004990
# 6 -0.006658 0.002737 0.002100 0.000772 -0.004990 0.032948
#
#
# Mechanical properties :
#
#
# Convention : Reuss Voigt Hill
#
# Bulk Modulus (GPa) = 39.65039 58.11850 48.88445
# Shear Modulus (GPa) = 33.21801 47.13275 40.17538
#
# Velocity S-wave (km/s) = 3.57078 4.25341 3.92695
# Velocity P-wave (km/s) = 5.67627 6.81398 6.27098
#
# Compressibility (1/GPa) = 0.02522044
#
# Stress axis : x y z
#
# Youngs Moduli (GPa) = 77.16877 52.38222 92.84230
#
# Poissons Ratio (x) = 0.11582 0.57575
# Poissons Ratio (y) = 0.17062 0.03596
# Poissons Ratio (z) = 0.47855 0.02029
#
# Static dielectric constant tensor:
#      x y z
#    x 1.819580 -0.005660 0.367780 
#    y -0.005660 2.161830 -0.115340 
#    z 0.367780 -0.115340 1.263340 
# 
# From -- ./inp_files/280112.got.cif
#   From: 2010.05.17/outbox.cif.g08.bks.cpg/sg2_141_cif.got.tgz:280112.got - 2010.06.03 11:33:40.
