data_PCOD9031931
_publ_section_title
;
Structure prediction by ZEFSAII (Michael W. Deem and Ramdas Pophale) SiO2 
 PCOD9031931
Probable space group: P -1
;
_chemical_formula_sum "Si O2"
_cell_formula_units_Z 15
_cell_length_a 8.936446
_cell_length_b 17.507915
_cell_length_c 5.312574
_cell_angle_alpha 51.832455
_cell_angle_beta 79.787429
_cell_angle_gamma 75.638534
_cell_volume 632.756890
_symmetry_space_group_name_H-M "P -1"
_symmetry_group_IT_number 2
_symmetry_cell_setting 'triclinic'
loop_
_space_group_symop_operation_xyz
x,y,z
-x,-y,-z
loop_
_atom_site_type_symbol
_atom_site_label
_atom_site_fract_x
_atom_site_fract_y
_atom_site_fract_z
Si Si1 0.063066 0.174243 0.701070
Si Si2 0.000000 0.500000 0.500000
Si Si3 0.504620 0.354331 0.572467
Si Si4 0.083095 0.887104 0.642680
Si Si5 0.797845 0.634445 0.655946
Si Si6 0.637121 0.960383 0.225662
Si Si7 0.406281 0.857839 0.776387
Si Si8 0.722774 0.490208 0.348723
O O1 0.135640 0.272523 0.458666
O O2 0.211058 0.087404 0.867512
O O3 0.986960 0.149006 0.516119
O O4 0.954986 0.173366 0.976474
O O5 0.889426 0.595471 0.459019
O O6 0.842098 0.446814 0.617057
O O7 0.384444 0.348143 0.394370
O O8 0.645731 0.412870 0.370334
O O9 0.406857 0.424281 0.670672
O O10 0.563163 0.246325 0.882503
O O11 0.268640 0.866663 0.598438
O O12 0.000000 0.000000 0.500000
O O13 0.829970 0.546642 0.028761
O O14 0.568529 0.880412 0.577736
O O15 0.659475 0.051375 0.205580
O O16 0.500000 0.000000 0.000000
#
# Coordination Sequence:
#
# PCOD9031931 Si02
#       8
#     2   1   2   2   2   2   2   2
#     4  12  28  45  77 104 148 195 243 298 375 435
#     4  10  24  42  68  98 140 176 246 290 364 424
#     4  10  23  42  67 101 138 184 239 300 359 427
#     4  12  27  50  71 108 152 194 241 308 368 441
#     4  11  24  44  70  99 140 189 242 296 361 437
#     4  11  24  43  70 103 139 192 238 305 361 441
#     4  11  25  42  71 103 144 187 247 297 363 438
#     4  10  22  43  68  99 139 185 231 305 360 425
#
# _framework density 23.705786
#
# number of rings (size 3 to 8) (size 9 to 14) (size 15 to 20)
#    0.000    1.067    1.333    3.600   11.200    0.000 
#    0.000    0.000    0.000    0.000    0.000    0.000 
#    0.000    0.000    0.000    0.000    0.000    0.000 
#
# Total GULP energy -83691.461075 kJ/mol
# GULP energy per Si atom -5579.430738 kJ/mol
# Density = 2.365183 g / cm^3
# Si number density = 23.705786 Si / 1000 Ang^3
#
#
#
# Elastic Constant Matrix: (Units=GPa)
#
#
# Indices 1 2 3 4 5 6 
#
# 1 -65.5560 34.9365 -113.2297 71.4824 -92.9410 -35.5521
# 2 34.9365 66.4261 23.0123 -3.1654 -10.2785 28.8088
# 3 -113.2297 23.0123 -4.2317 44.2754 -80.8847 -23.3776
# 4 71.4824 -3.1654 44.2754 -6.6818 50.7168 20.1013
# 5 -92.9410 -10.2785 -80.8847 50.7168 -20.7749 -25.6530
# 6 -35.5521 28.8088 -23.3776 20.1013 -25.6530 33.9689
#
#
#
# Elastic Compliance Matrix: (Units=1/GPa)
#
#
# Indices 1 2 3 4 5 6 
#
# 1 0.009338 -0.005278 -0.002618 0.007741 -0.010238 0.000135
# 2 -0.005278 0.025934 -0.001473 -0.007438 0.014567 -0.013129
# 3 -0.002618 -0.001473 0.010951 0.009603 -0.003725 -0.002451
# 4 0.007741 -0.007438 0.009603 0.031151 0.002340 0.004351
# 5 -0.010238 0.014567 -0.003725 0.002340 0.022787 -0.009809
# 6 0.000135 -0.013129 -0.002451 0.004351 -0.009809 0.029046
#
#
# Mechanical properties :
#
#
# Convention : Reuss Voigt Hill
#
# Bulk Modulus (GPa) = 36.38353 -12.65816 11.86269
# Shear Modulus (GPa) = 31.82584 4.76373 18.29479
#
# Velocity S-wave (km/s) = 3.66804 1.41911 2.78104
# Velocity P-wave (km/s) = 5.77240 1.63282 3.91500
#
# Compressibility (1/GPa) = 0.02748496
#
# Stress axis : x y z
#
# Youngs Moduli (GPa) = 107.09484 38.55953 91.31713
#
# Poissons Ratio (x) = 0.20351 0.23910
# Poissons Ratio (y) = 0.56521 0.13448
# Poissons Ratio (z) = 0.28041 0.05679
#
# Static dielectric constant tensor:
#      x y z
#    x 2.038780 0.099800 0.060300 
#    y 0.099800 1.922160 0.113440 
#    z 0.060300 0.113440 2.040890 
# 
# From -- ./inp_files/46214.got.cif
#   From: 2010.05.17/outbox.cif.g08.bks.cpg/sg2_24_cif.got.tgz:46214.got - 2010.06.03 11:33:40.
