data_PCOD9031678
_publ_section_title
;
Structure prediction by ZEFSAII (Michael W. Deem and Ramdas Pophale) SiO2 
 PCOD9031678
Probable space group: P -1
;
_chemical_formula_sum "Si O2"
_cell_formula_units_Z 12
_cell_length_a 7.753670
_cell_length_b 13.234426
_cell_length_c 4.944484
_cell_angle_alpha 104.298534
_cell_angle_beta 77.324208
_cell_angle_gamma 80.239633
_cell_volume 466.054979
_symmetry_space_group_name_H-M "P -1"
_symmetry_group_IT_number 2
_symmetry_cell_setting 'triclinic'
loop_
_space_group_symop_operation_xyz
x,y,z
-x,-y,-z
loop_
_atom_site_type_symbol
_atom_site_label
_atom_site_fract_x
_atom_site_fract_y
_atom_site_fract_z
Si Si1 0.542970 0.348497 0.954456
Si Si2 0.740409 0.115618 0.785501
Si Si3 0.318146 0.012454 0.753241
Si Si4 0.055085 0.229068 0.931355
Si Si5 0.177690 0.412810 0.785518
Si Si6 0.243818 0.595198 0.574178
O O1 0.580255 0.220087 0.848427
O O2 0.348408 0.396025 0.918776
O O3 0.687331 0.381534 0.724263
O O4 0.606990 0.382303 0.245893
O O5 0.794664 0.044677 0.453310
O O6 0.905841 0.166855 0.846012
O O7 0.675633 0.050644 0.009527
O O8 0.500000 0.000000 0.500000
O O9 0.218939 0.135581 0.919615
O O10 0.128650 0.297919 0.722450
O O11 0.943718 0.319386 0.233039
O O12 0.225157 0.474410 0.547414
O O13 0.000000 0.500000 0.000000
#
# Coordination Sequence:
#
# PCOD9031678 Si02
#       6
#     2   2   2   2   2   2
#     4  11  22  44  69  96 130 172 217 266 320 381
#     4  11  24  44  67  96 130 171 214 264 323 384
#     4  12  25  44  68  97 129 170 216 267 322 384
#     4  10  23  42  66  97 133 171 215 266 322 383
#     4  10  22  43  67  99 133 170 216 267 322 384
#     4  10  23  43  67  95 129 174 218 266 319 376
#
# _framework density 25.748035000000002
#
# number of rings (size 3 to 8) (size 9 to 14) (size 15 to 20)
#    0.000    1.333    0.000    5.500    0.000    2.667 
#    0.000   32.500    0.000    0.000    0.000    0.000 
#    0.000    0.000    0.000    0.000    0.000    0.000 
#
# Total GULP energy -67232.707738 kJ/mol
# GULP energy per Si atom -5602.725645 kJ/mol
# Density = 2.568943 g / cm^3
# Si number density = 25.748035 Si / 1000 Ang^3
#
#
#
# Elastic Constant Matrix: (Units=GPa)
#
#
# Indices 1 2 3 4 5 6 
#
# 1 90.4720 63.9683 13.7781 10.6478 -14.8820 -0.4916
# 2 63.9683 251.3491 56.5848 5.5509 -23.3047 1.1325
# 3 13.7781 56.5848 103.5676 -13.9765 -8.9062 -2.8399
# 4 10.6478 5.5509 -13.9765 26.2549 -9.2074 -2.3597
# 5 -14.8820 -23.3047 -8.9062 -9.2074 24.4559 9.0921
# 6 -0.4916 1.1325 -2.8399 -2.3597 9.0921 49.3850
#
#
#
# Elastic Compliance Matrix: (Units=1/GPa)
#
#
# Indices 1 2 3 4 5 6 
#
# 1 0.014506 -0.003087 -0.000401 -0.003913 0.004578 -0.000838
# 2 -0.003087 0.005585 -0.002482 -0.000376 0.002703 -0.000817
# 3 -0.000401 -0.002482 0.012828 0.009482 0.005550 0.000222
# 4 -0.003913 -0.000376 0.009482 0.051943 0.020563 -0.000789
# 5 0.004578 0.002703 0.005550 0.020563 0.059617 -0.009690
# 6 -0.000838 -0.000817 0.000222 -0.000789 -0.009690 0.022019
#
#
# Mechanical properties :
#
#
# Convention : Reuss Voigt Hill
#
# Bulk Modulus (GPa) = 47.66342 79.33900 63.50121
# Shear Modulus (GPa) = 26.96450 40.75631 33.86040
#
# Velocity S-wave (km/s) = 3.23963 3.98287 3.63032
# Velocity P-wave (km/s) = 5.70484 7.21329 6.50295
#
# Compressibility (1/GPa) = 0.02098045
#
# Stress axis : x y z
#
# Youngs Moduli (GPa) = 68.93807 179.03899 77.95621
#
# Poissons Ratio (x) = 0.55267 0.03124
# Poissons Ratio (y) = 0.21280 0.19346
# Poissons Ratio (z) = 0.02762 0.44431
#
# Static dielectric constant tensor:
#      x y z
#    x 2.129640 -0.023660 0.015650 
#    y -0.023660 1.998700 0.025560 
#    z 0.015650 0.025560 1.992310 
# 
# From -- ./inp_files/39785.got.cif
#   From: 2010.05.17/outbox.cif.g08.bks.cpg/sg2_20_cif.got.tgz:39785.got - 2010.06.03 11:33:40.
