data_PCOD9031055
_publ_section_title
;
Structure prediction by ZEFSAII (Michael W. Deem and Ramdas Pophale) SiO2 
 PCOD9031055
Probable space group: P -1
;
_chemical_formula_sum "Si O2"
_cell_formula_units_Z 14
_cell_length_a 8.035835
_cell_length_b 17.022194
_cell_length_c 11.041505
_cell_angle_alpha 39.984436
_cell_angle_beta 134.730441
_cell_angle_gamma 105.853434
_cell_volume 560.264127
_symmetry_space_group_name_H-M "P -1"
_symmetry_group_IT_number 2
_symmetry_cell_setting 'triclinic'
loop_
_space_group_symop_operation_xyz
x,y,z
-x,-y,-z
loop_
_atom_site_type_symbol
_atom_site_label
_atom_site_fract_x
_atom_site_fract_y
_atom_site_fract_z
Si Si1 0.187053 0.582339 0.802585
Si Si2 0.197471 0.422417 0.576340
Si Si3 0.352005 0.869849 0.724048
Si Si4 0.832750 0.146882 0.587955
Si Si5 0.662063 0.492663 0.749483
Si Si6 0.384341 0.822340 0.287555
Si Si7 0.872260 0.833074 0.630888
O O1 0.051431 0.755670 0.503227
O O2 0.994849 0.545145 0.676563
O O3 0.500000 0.500000 0.000000
O O4 0.237031 0.540150 0.018273
O O5 0.404458 0.476131 0.610754
O O6 0.000000 0.500000 0.500000
O O7 0.395491 0.245738 0.919725
O O8 0.408058 0.815229 0.679027
O O9 0.086962 0.861868 0.638027
O O10 0.277595 0.033816 0.505565
O O11 0.706753 0.190583 0.607081
O O12 0.089946 0.971086 0.912944
O O13 0.520929 0.670484 0.458793
O O14 0.937250 0.336466 0.020206
O O15 0.627957 0.849946 0.400876
#
# Coordination Sequence:
#
# PCOD9031055 Si02
#       7
#     2   2   2   2   2   2   2
#     4  12  20  40  69  98 124 171 226 261 321 383
#     4  11  20  36  68  98 127 162 220 282 307 372
#     4  10  22  43  66  95 129 170 229 261 318 390
#     4  11  22  42  65  98 128 169 221 274 316 389
#     4  11  23  43  63  96 135 170 217 265 321 396
#     4  11  24  40  65  96 137 167 214 272 338 371
#     4  10  22  43  64  90 133 177 212 270 318 392
#
# _framework density 24.988215
#
# number of rings (size 3 to 8) (size 9 to 14) (size 15 to 20)
#    0.000    1.143    5.714    1.286    0.000    2.286 
#   10.286    0.714    0.000    0.000    0.000    0.000 
#    0.000    0.000    0.000    0.000    0.000    0.000 
#
# Total GULP energy -78378.080000 kJ/mol
# GULP energy per Si atom -5598.434286 kJ/mol
# Density = 2.493134 g / cm^3
# Si number density = 24.988215 Si / 1000 Ang^3
#
#
#
# Elastic Constant Matrix: (Units=GPa)
#
#
# Indices 1 2 3 4 5 6 
#
# 1 49.5923 14.5048 30.6175 -12.3307 0.6949 2.3316
# 2 14.5048 178.4171 71.1500 -10.5836 3.0200 10.6506
# 3 30.6175 71.1500 115.8112 -5.2257 0.5781 8.5016
# 4 -12.3307 -10.5836 -5.2257 63.4295 0.7192 4.8101
# 5 0.6949 3.0200 0.5781 0.7192 36.0257 -0.2329
# 6 2.3316 10.6506 8.5016 4.8101 -0.2329 18.3346
#
#
#
# Elastic Compliance Matrix: (Units=1/GPa)
#
#
# Indices 1 2 3 4 5 6 
#
# 1 0.025472 0.001159 -0.007093 0.004709 -0.000581 -0.001866
# 2 0.001159 0.007657 -0.004745 0.001328 -0.000632 -0.002751
# 3 -0.007093 -0.004745 0.013560 -0.000876 0.000319 -0.002395
# 4 0.004709 0.001328 -0.000876 0.017254 -0.000568 -0.005498
# 5 -0.000581 -0.000632 0.000319 -0.000568 0.027834 0.000796
# 6 -0.001866 -0.002751 -0.002395 -0.005498 0.000796 0.058940
#
#
# Mechanical properties :
#
#
# Convention : Reuss Voigt Hill
#
# Bulk Modulus (GPa) = 39.48200 64.04057 51.76129
# Shear Modulus (GPa) = 27.69793 38.72784 33.21288
#
# Velocity S-wave (km/s) = 3.33294 3.94108 3.64970
# Velocity P-wave (km/s) = 5.53587 6.81127 6.20642
#
# Compressibility (1/GPa) = 0.02532800
#
# Stress axis : x y z
#
# Youngs Moduli (GPa) = 39.25945 130.60502 73.74570
#
# Poissons Ratio (x) = -0.15131 0.52311
# Poissons Ratio (y) = -0.04548 0.34994
# Poissons Ratio (z) = 0.27849 0.61975
#
# Static dielectric constant tensor:
#      x y z
#    x 2.175870 0.042830 -0.015630 
#    y 0.042830 1.986750 -0.023930 
#    z -0.015630 -0.023930 1.999840 
# 
# From -- ./inp_files/392199.got.cif
#   From: 2010.05.17/outbox.cif.g08.bks.cpg/sg2_197_cif.got.tgz:392199.got - 2010.06.03 11:33:40.
