data_PCOD9031383
_publ_section_title
;
Structure prediction by ZEFSAII (Michael W. Deem and Ramdas Pophale) SiO2 
 PCOD9031383
Probable space group: P -1
;
_chemical_formula_sum "Si O2"
_cell_formula_units_Z 16
_cell_length_a 11.559323
_cell_length_b 17.110599
_cell_length_c 8.388887
_cell_angle_alpha 80.183493
_cell_angle_beta 46.565324
_cell_angle_gamma 46.371501
_cell_volume 711.575299
_symmetry_space_group_name_H-M "P -1"
_symmetry_group_IT_number 2
_symmetry_cell_setting 'triclinic'
loop_
_space_group_symop_operation_xyz
x,y,z
-x,-y,-z
loop_
_atom_site_type_symbol
_atom_site_label
_atom_site_fract_x
_atom_site_fract_y
_atom_site_fract_z
Si Si1 0.135934 0.869841 0.144352
Si Si2 0.735886 0.439361 0.404189
Si Si3 0.995332 0.365632 0.486540
Si Si4 0.852653 0.826679 0.053779
Si Si5 0.332871 0.382561 0.082477
Si Si6 0.256751 0.114397 0.484806
Si Si7 0.846415 0.134429 0.256279
Si Si8 0.686321 0.616126 0.255478
O O1 0.933990 0.881829 0.385075
O O2 0.416352 0.738679 0.003596
O O3 0.133200 0.872676 0.952543
O O4 0.028406 0.001247 0.228725
O O5 0.500000 0.500000 0.500000
O O6 0.654086 0.563885 0.440760
O O7 0.797608 0.397776 0.543439
O O8 0.007985 0.307903 0.098902
O O9 0.158746 0.370865 0.242381
O O10 0.190593 0.222417 0.422284
O O11 0.832445 0.479785 0.732264
O O12 0.811948 0.842034 0.278147
O O13 0.558949 0.966179 0.224424
O O14 0.055325 0.816088 0.813082
O O15 0.395973 0.380812 0.842655
O O16 0.541457 0.230233 0.545143
O O17 0.000000 0.500000 0.000000
#
# Coordination Sequence:
#
# PCOD9031383 Si02
#       8
#     2   2   2   2   2   2   2   2
#     4  10  23  40  69  98 128 172 215 270 324 384
#     4  12  25  43  68  96 133 174 215 269 328 381
#     4  11  25  44  66  97 132 172 217 269 325 384
#     4  10  22  43  66  94 134 171 213 268 325 389
#     4  11  25  43  67  95 133 172 217 269 321 389
#     4  10  23  41  68 100 127 170 220 267 326 384
#     4  10  22  43  66  95 134 171 215 265 327 387
#     4  12  25  43  66  98 132 174 219 264 322 391
#
# _framework density 22.485322
#
# number of rings (size 3 to 8) (size 9 to 14) (size 15 to 20)
#    0.000    1.250    2.500    2.250    7.000    2.500 
#    0.000    0.000    0.000    0.000    0.000    0.000 
#    0.000    0.000    0.000    0.000    0.000    0.000 
#
# Total GULP energy -89245.320193 kJ/mol
# GULP energy per Si atom -5577.832512 kJ/mol
# Density = 2.243414 g / cm^3
# Si number density = 22.485322 Si / 1000 Ang^3
#
#
#
# Elastic Constant Matrix: (Units=GPa)
#
#
# Indices 1 2 3 4 5 6 
#
# 1 53.6823 17.8676 1.7195 1.6674 -15.8548 -8.6980
# 2 17.8676 102.0835 19.1124 25.0825 -2.6303 -11.2406
# 3 1.7195 19.1124 70.3193 15.8841 -9.0886 1.3088
# 4 1.6674 25.0825 15.8841 28.6438 -3.0297 -0.8100
# 5 -15.8548 -2.6303 -9.0886 -3.0297 25.6878 4.9684
# 6 -8.6980 -11.2406 1.3088 -0.8100 4.9684 26.7186
#
#
#
# Elastic Compliance Matrix: (Units=1/GPa)
#
#
# Indices 1 2 3 4 5 6 
#
# 1 0.025178 -0.004848 0.001854 0.003481 0.015473 0.003294
# 2 -0.004848 0.014251 -0.001828 -0.011518 -0.004504 0.004995
# 3 0.001854 -0.001828 0.017262 -0.007444 0.006665 -0.002476
# 4 0.003481 -0.011518 -0.007444 0.049342 0.004681 -0.002723
# 5 0.015473 -0.004504 0.006665 0.004681 0.052235 -0.006756
# 6 0.003294 0.004995 -0.002476 -0.002723 -0.006756 0.041896
#
#
# Mechanical properties :
#
#
# Convention : Reuss Voigt Hill
#
# Bulk Modulus (GPa) = 21.25559 33.72046 27.48802
# Shear Modulus (GPa) = 22.17407 28.70239 25.43823
#
# Velocity S-wave (km/s) = 3.14372 3.57668 3.36717
# Velocity P-wave (km/s) = 4.75930 5.66446 5.23149
#
# Compressibility (1/GPa) = 0.04704645
#
# Stress axis : x y z
#
# Youngs Moduli (GPa) = 39.71750 70.17171 57.93230
#
# Poissons Ratio (x) = 0.34019 -0.10742
# Poissons Ratio (y) = 0.19255 0.10590
# Poissons Ratio (z) = -0.07364 0.12828
#
# Static dielectric constant tensor:
#      x y z
#    x 1.872130 0.051170 -0.044440 
#    y 0.051170 1.816360 -0.020070 
#    z -0.044440 -0.020070 1.879220 
# 
# From -- ./inp_files/262332.got.cif
#   From: 2010.05.17/outbox.cif.g08.bks.cpg/sg2_132_cif.got.tgz:262332.got - 2010.06.03 11:33:40.
