data_PCOD9031368
_publ_section_title
;
Structure prediction by ZEFSAII (Michael W. Deem and Ramdas Pophale) SiO2 
 PCOD9031368
Probable space group: P -1
;
_chemical_formula_sum "Si O2"
_cell_formula_units_Z 10
_cell_length_a 7.711942
_cell_length_b 9.017287
_cell_length_c 9.750594
_cell_angle_alpha 117.945535
_cell_angle_beta 132.495687
_cell_angle_gamma 53.663785
_cell_volume 400.064811
_symmetry_space_group_name_H-M "P -1"
_symmetry_group_IT_number 2
_symmetry_cell_setting 'triclinic'
loop_
_space_group_symop_operation_xyz
x,y,z
-x,-y,-z
loop_
_atom_site_type_symbol
_atom_site_label
_atom_site_fract_x
_atom_site_fract_y
_atom_site_fract_z
Si Si1 0.168292 0.467671 0.796405
Si Si2 0.061561 0.818494 0.044960
Si Si3 0.735278 0.447929 0.400176
Si Si4 0.607536 0.749733 0.908275
Si Si5 0.967804 0.034271 0.336615
O O1 0.292493 0.429092 0.694898
O O2 0.210673 0.642648 0.952479
O O3 0.869781 0.506430 0.620217
O O4 0.280589 0.314580 0.907732
O O5 0.818175 0.774290 0.937657
O O6 0.147069 0.872379 0.260908
O O7 0.000000 0.000000 0.000000
O O8 0.481642 0.408857 0.264996
O O9 0.953785 0.237375 0.389369
O O10 0.329943 0.924608 0.837587
O O11 0.000000 0.000000 0.500000
#
# Coordination Sequence:
#
# PCOD9031368 Si02
#       5
#     2   2   2   2   2
#     4  11  21  43  68  97 131 169 221 270 314 393
#     4  12  23  41  66 102 132 166 217 278 320 377
#     4   9  22  39  69  92 131 174 219 252 331 393
#     4  10  23  41  71  88 133 180 213 258 333 391
#     4  10  22  43  66  93 131 171 217 262 326 387
#
# _framework density 24.995951000000002
#
# number of rings (size 3 to 8) (size 9 to 14) (size 15 to 20)
#    1.200    0.400    2.000    3.000    0.000    0.800 
#    3.600    3.000    0.000    0.000    0.000    0.000 
#    0.000    0.000    0.000    0.000    0.000    0.000 
#
# Total GULP energy -55786.611635 kJ/mol
# GULP energy per Si atom -5578.661164 kJ/mol
# Density = 2.493906 g / cm^3
# Si number density = 24.995951 Si / 1000 Ang^3
#
#
#
# Elastic Constant Matrix: (Units=GPa)
#
#
# Indices 1 2 3 4 5 6 
#
# 1 90.5339 32.2827 46.8854 -9.5763 -6.7201 35.7400
# 2 32.2827 99.3562 58.4202 -7.9305 -14.1880 23.8821
# 3 46.8854 58.4202 205.4788 -15.0793 -11.9841 9.2397
# 4 -9.5763 -7.9305 -15.0793 54.1840 2.2510 -5.7986
# 5 -6.7201 -14.1880 -11.9841 2.2510 39.2200 18.0934
# 6 35.7400 23.8821 9.2397 -5.7986 18.0934 40.9437
#
#
#
# Elastic Compliance Matrix: (Units=1/GPa)
#
#
# Indices 1 2 3 4 5 6 
#
# 1 0.027196 0.005702 -0.005000 -0.000454 0.021625 -0.035557
# 2 0.005702 0.018602 -0.004674 -0.000631 0.016544 -0.022173
# 3 -0.005000 -0.004674 0.006864 0.001309 -0.003979 0.007485
# 4 -0.000454 -0.000631 0.001309 0.019267 -0.003124 0.004578
# 5 0.021625 0.016544 -0.003979 -0.003124 0.059162 -0.054215
# 6 -0.035557 -0.022173 0.007485 0.004578 -0.054215 0.091313
#
#
# Mechanical properties :
#
#
# Convention : Reuss Voigt Hill
#
# Bulk Modulus (GPa) = 22.36243 74.50503 48.43373
# Shear Modulus (GPa) = 20.38710 44.05490 32.22100
#
# Velocity S-wave (km/s) = 2.85900 4.20275 3.59423
# Velocity P-wave (km/s) = 4.45694 7.30906 6.05337
#
# Compressibility (1/GPa) = 0.04471786
#
# Stress axis : x y z
#
# Youngs Moduli (GPa) = 36.77053 53.75659 145.69009
#
# Poissons Ratio (x) = -0.30652 0.72842
# Poissons Ratio (y) = -0.20967 0.68100
# Poissons Ratio (z) = 0.18384 0.25128
#
# Static dielectric constant tensor:
#      x y z
#    x 2.085330 -0.090280 0.005610 
#    y -0.090280 2.084350 0.047490 
#    z 0.005610 0.047490 2.032780 
# 
# From -- ./inp_files/20762.got.cif
#   From: 2010.05.17/outbox.cif.g08.bks.cpg/sg2_11_cif.got.tgz:20762.got - 2010.06.03 11:33:40.
