data_PCOD9031794
_publ_section_title
;
Structure prediction by ZEFSAII (Michael W. Deem and Ramdas Pophale) SiO2 
 PCOD9031794
Probable space group: P -1
;
_chemical_formula_sum "Si O2"
_cell_formula_units_Z 14
_cell_length_a 10.049093
_cell_length_b 8.810870
_cell_length_c 11.755769
_cell_angle_alpha 104.290764
_cell_angle_beta 123.391889
_cell_angle_gamma 47.967010
_cell_volume 632.952267
_symmetry_space_group_name_H-M "P -1"
_symmetry_group_IT_number 2
_symmetry_cell_setting 'triclinic'
loop_
_space_group_symop_operation_xyz
x,y,z
-x,-y,-z
loop_
_atom_site_type_symbol
_atom_site_label
_atom_site_fract_x
_atom_site_fract_y
_atom_site_fract_z
Si Si1 0.245975 0.978191 0.343994
Si Si2 0.457185 0.585013 0.204526
Si Si3 0.807388 0.863242 0.135794
Si Si4 0.554485 0.891631 0.668978
Si Si5 0.180893 0.502702 0.126131
Si Si6 0.455483 0.191536 0.860509
Si Si7 0.863499 0.127371 0.347573
O O1 0.336084 0.783397 0.268809
O O2 0.412949 0.900022 0.509680
O O3 0.255903 0.133099 0.305606
O O4 0.022326 0.086848 0.316747
O O5 0.296205 0.545051 0.101476
O O6 0.523822 0.643477 0.137179
O O7 0.671307 0.373214 0.319466
O O8 0.718606 0.757835 0.123907
O O9 0.052840 0.690998 0.191121
O O10 0.770057 0.025386 0.237365
O O11 0.675889 0.994466 0.985910
O O12 0.644922 0.708997 0.765202
O O13 0.424903 0.108220 0.716687
O O14 0.000000 0.500000 0.000000
O O15 0.000000 0.000000 0.500000
#
# Coordination Sequence:
#
# PCOD9031794 Si02
#       7
#     2   2   2   2   2   2   2
#     4  10  23  45  66  99 129 178 214 275 323 383
#     4  11  26  44  69  98 132 173 223 270 321 396
#     4  11  24  42  66  95 134 176 214 274 332 382
#     4  10  22  43  68  92 138 166 222 269 326 390
#     4  12  24  41  67  98 129 177 215 270 335 387
#     4  10  23  45  64  96 132 172 222 270 324 392
#     4  12  26  43  67  98 135 172 223 269 328 387
#
# _framework density 22.118572
#
# number of rings (size 3 to 8) (size 9 to 14) (size 15 to 20)
#    0.000    1.143    2.857    2.571    6.000    3.429 
#    0.000    2.857    0.000    0.000    0.000    0.000 
#    0.000    0.000    0.000    0.000    0.000    0.000 
#
# Total GULP energy -78250.730643 kJ/mol
# GULP energy per Si atom -5589.337903 kJ/mol
# Density = 2.206823 g / cm^3
# Si number density = 22.118572 Si / 1000 Ang^3
#
#
#
# Elastic Constant Matrix: (Units=GPa)
#
#
# Indices 1 2 3 4 5 6 
#
# 1 176.4063 41.6577 20.6904 -18.6274 9.0901 29.2586
# 2 41.6577 57.0515 2.4825 -4.0401 4.6672 4.0578
# 3 20.6904 2.4825 54.4922 13.8497 1.5152 20.8161
# 4 -18.6274 -4.0401 13.8497 25.7771 4.1055 2.1169
# 5 9.0901 4.6672 1.5152 4.1055 26.8045 -1.5251
# 6 29.2586 4.0578 20.8161 2.1169 -1.5251 39.7619
#
#
#
# Elastic Compliance Matrix: (Units=1/GPa)
#
#
# Indices 1 2 3 4 5 6 
#
# 1 0.009293 -0.005356 -0.003460 0.008734 -0.003651 -0.005085
# 2 -0.005356 0.021400 0.000805 -0.000776 -0.001762 0.001310
# 3 -0.003460 0.000805 0.028199 -0.016811 0.001368 -0.011351
# 4 0.008734 -0.000776 -0.016811 0.055760 -0.010469 -0.000917
# 5 -0.003651 -0.001762 0.001368 -0.010469 0.040621 0.004265
# 6 -0.005085 0.001310 -0.011351 -0.000917 0.004265 0.034913
#
#
# Mechanical properties :
#
#
# Convention : Reuss Voigt Hill
#
# Bulk Modulus (GPa) = 23.32721 46.40124 34.86423
# Shear Modulus (GPa) = 22.67572 33.34331 28.00952
#
# Velocity S-wave (km/s) = 3.20533 3.88684 3.56242
# Velocity P-wave (km/s) = 4.92628 6.41618 5.71994
#
# Compressibility (1/GPa) = 0.04286839
#
# Stress axis : x y z
#
# Youngs Moduli (GPa) = 107.60407 46.72875 35.46174
#
# Poissons Ratio (x) = 0.25030 0.12271
# Poissons Ratio (y) = 0.57636 -0.02853
# Poissons Ratio (z) = 0.37236 -0.03760
#
# Static dielectric constant tensor:
#      x y z
#    x 1.851780 -0.002830 0.001720 
#    y -0.002830 1.826770 0.039850 
#    z 0.001720 0.039850 1.778250 
# 
# From -- ./inp_files/185682.got.cif
#   From: 2010.05.17/outbox.cif.g08.bks.cpg/sg2_93_cif.got.tgz:185682.got - 2010.06.03 11:33:40.
