data_PCOD9031550
_publ_section_title
;
Structure prediction by ZEFSAII (Michael W. Deem and Ramdas Pophale) SiO2 
 PCOD9031550
Probable space group: P -1
;
_chemical_formula_sum "Si O2"
_cell_formula_units_Z 16
_cell_length_a 16.350396
_cell_length_b 16.084669
_cell_length_c 8.697634
_cell_angle_alpha 98.373580
_cell_angle_beta 98.987700
_cell_angle_gamma 153.795961
_cell_volume 753.614797
_symmetry_space_group_name_H-M "P -1"
_symmetry_group_IT_number 2
_symmetry_cell_setting 'triclinic'
loop_
_space_group_symop_operation_xyz
x,y,z
-x,-y,-z
loop_
_atom_site_type_symbol
_atom_site_label
_atom_site_fract_x
_atom_site_fract_y
_atom_site_fract_z
Si Si1 0.231221 0.746878 0.536510
Si Si2 0.056426 0.373167 0.701601
Si Si3 0.106236 0.861693 0.087153
Si Si4 0.627672 0.667195 0.937389
Si Si5 0.148390 0.241625 0.209695
Si Si6 0.313579 0.757167 0.018817
Si Si7 0.917143 0.517321 0.802572
Si Si8 0.365704 0.557041 0.636553
O O1 0.279043 0.710982 0.434134
O O2 0.000000 0.500000 0.500000
O O3 0.155560 0.760123 0.428721
O O4 0.439050 0.967773 0.776145
O O5 0.134046 0.387987 0.588515
O O6 0.982285 0.251435 0.799846
O O7 0.297200 0.662317 0.877056
O O8 0.396887 0.158267 0.254172
O O9 0.965996 0.810163 0.973382
O O10 0.022164 0.710907 0.896418
O O11 0.669033 0.646955 0.795051
O O12 0.462814 0.587311 0.807564
O O13 0.500000 0.500000 0.000000
O O14 0.907048 0.965124 0.135311
O O15 0.283511 0.425502 0.428214
O O16 0.190983 0.603084 0.094768
O O17 0.143413 0.670326 0.892342
#
# Coordination Sequence:
#
# PCOD9031550 Si02
#       8
#     2   2   2   2   2   2   2   2
#     4  11  24  34  58  88 117 160 213 259 308 362
#     4  10  24  41  56  91 122 162 208 254 308 360
#     4  10  23  40  61  86 126 161 199 255 307 357
#     4  10  22  43  67  92 126 159 190 244 298 359
#     4  10  23  40  63  97 121 155 204 237 300 367
#     4   9  20  39  57  79 117 158 207 255 302 359
#     4   9  20  37  58  81 112 163 204 251 307 354
#     4  11  24  39  66  93 124 158 200 248 297 365
#
# _framework density 21.231006000000001
#
# number of rings (size 3 to 8) (size 9 to 14) (size 15 to 20)
#    0.000    2.000    0.000    2.250    5.250    5.500 
#    0.000    0.000    0.000    0.000    0.000    0.000 
#    0.000    0.000    0.000    0.000    0.000    0.000 
#
# Total GULP energy -89277.683299 kJ/mol
# GULP energy per Si atom -5579.855206 kJ/mol
# Density = 2.118268 g / cm^3
# Si number density = 21.231006 Si / 1000 Ang^3
#
#
#
# Elastic Constant Matrix: (Units=GPa)
#
#
# Indices 1 2 3 4 5 6 
#
# 1 74.9969 26.0548 22.2611 7.0084 -24.0732 -1.6527
# 2 26.0548 107.0319 22.5152 9.1720 -1.9107 -9.1449
# 3 22.2611 22.5152 101.0474 17.6684 -21.4413 -1.7835
# 4 7.0084 9.1720 17.6684 27.3411 -4.5839 -3.0331
# 5 -24.0732 -1.9107 -21.4413 -4.5839 37.2851 -6.9799
# 6 -1.6527 -9.1449 -1.7835 -3.0331 -6.9799 26.3456
#
#
#
# Elastic Compliance Matrix: (Units=1/GPa)
#
#
# Indices 1 2 3 4 5 6 
#
# 1 0.018901 -0.003958 -0.000508 -0.000830 0.012150 0.002901
# 2 -0.003958 0.011001 -0.001831 -0.001680 -0.002780 0.002516
# 3 -0.000508 -0.001831 0.012923 -0.006395 0.006444 0.001178
# 4 -0.000830 -0.001680 -0.006395 0.042237 0.001687 0.004242
# 5 0.012150 -0.002780 0.006444 0.001687 0.040526 0.011164
# 6 0.002901 0.002516 0.001178 0.004242 0.011164 0.042538
#
#
# Mechanical properties :
#
#
# Convention : Reuss Voigt Hill
#
# Bulk Modulus (GPa) = 33.07892 47.19316 40.13604
# Shear Modulus (GPa) = 26.20581 32.34403 29.27492
#
# Velocity S-wave (km/s) = 3.51710 3.90735 3.71735
# Velocity P-wave (km/s) = 5.66636 6.52941 6.11313
#
# Compressibility (1/GPa) = 0.03023074
#
# Stress axis : x y z
#
# Youngs Moduli (GPa) = 52.90652 90.90001 77.38394
#
# Poissons Ratio (x) = 0.35983 0.03927
# Poissons Ratio (y) = 0.20943 0.14170
# Poissons Ratio (z) = 0.02685 0.16645
#
# Static dielectric constant tensor:
#      x y z
#    x 1.857270 -0.017090 -0.030210 
#    y -0.017090 1.765070 0.010310 
#    z -0.030210 0.010310 1.844330 
# 
# From -- ./inp_files/315464.got.cif
#   From: 2010.05.17/outbox.cif.g08.bks.cpg/sg2_158_cif.got.tgz:315464.got - 2010.06.03 11:33:40.
