data_PCOD9031216
_publ_section_title
;
Structure prediction by ZEFSAII (Michael W. Deem and Ramdas Pophale) SiO2 
 PCOD9031216
Probable space group: P -1
;
_chemical_formula_sum "Si O2"
_cell_formula_units_Z 14
_cell_length_a 5.176391
_cell_length_b 5.844938
_cell_length_c 21.737323
_cell_angle_alpha 61.954991
_cell_angle_beta 76.888964
_cell_angle_gamma 85.540729
_cell_volume 565.001419
_symmetry_space_group_name_H-M "P -1"
_symmetry_group_IT_number 2
_symmetry_cell_setting 'triclinic'
loop_
_space_group_symop_operation_xyz
x,y,z
-x,-y,-z
loop_
_atom_site_type_symbol
_atom_site_label
_atom_site_fract_x
_atom_site_fract_y
_atom_site_fract_z
Si Si1 0.088286 0.550806 0.919585
Si Si2 0.921851 0.240776 0.674676
Si Si3 0.941688 0.898439 0.188241
Si Si4 0.673809 0.949219 0.407483
Si Si5 0.496112 0.433432 0.279877
Si Si6 0.856434 0.219995 0.548684
Si Si7 0.363607 0.571491 0.140457
O O1 0.340097 0.382440 0.908210
O O2 0.837254 0.515537 0.891810
O O3 0.174520 0.851977 0.868456
O O4 0.000000 0.500000 0.000000
O O5 0.769750 0.474516 0.683717
O O6 0.755372 0.169245 0.631667
O O7 0.968375 0.050263 0.752887
O O8 0.204150 0.253002 0.623163
O O9 0.717938 0.667863 0.233248
O O10 0.202772 0.805096 0.150338
O O11 0.411511 0.825543 0.467002
O O12 0.909120 0.979966 0.440595
O O13 0.622034 0.212431 0.341548
O O14 0.413172 0.381404 0.220196
O O15 0.000000 0.500000 0.500000
#
# Coordination Sequence:
#
# PCOD9031216 Si02
#       7
#     2   2   2   2   2   2   2
#     4  12  28  47  70 100 138 183 223 272 344 407
#     4   9  23  36  70  91 135 167 229 266 341 381
#     4  11  25  43  71 101 136 174 228 286 335 396
#     4  10  23  38  68  91 133 172 222 273 334 390
#     4  11  23  43  68 105 131 171 231 283 336 389
#     4  10  22  43  65  94 135 181 219 270 336 400
#     4  11  26  45  70  97 138 173 229 278 337 399
#
# _framework density 24.778699
#
# number of rings (size 3 to 8) (size 9 to 14) (size 15 to 20)
#    0.857    0.571    1.429    2.571   10.000    1.143 
#    0.000    1.429    0.000    0.000    0.000    0.000 
#    0.000    0.000    0.000    0.000    0.000    0.000 
#
# Total GULP energy -78133.300065 kJ/mol
# GULP energy per Si atom -5580.950005 kJ/mol
# Density = 2.472230 g / cm^3
# Si number density = 24.778699 Si / 1000 Ang^3
#
#
#
# Elastic Constant Matrix: (Units=GPa)
#
#
# Indices 1 2 3 4 5 6 
#
# 1 161.0293 31.8636 24.7287 7.4233 -10.3631 -21.7384
# 2 31.8636 57.2658 51.3952 23.4198 -11.7813 -24.9346
# 3 24.7287 51.3952 87.4390 10.1456 2.3009 -13.7940
# 4 7.4233 23.4198 10.1456 35.1023 -7.2394 -12.3153
# 5 -10.3631 -11.7813 2.3009 -7.2394 34.3730 5.3578
# 6 -21.7384 -24.9346 -13.7940 -12.3153 5.3578 46.6933
#
#
#
# Elastic Compliance Matrix: (Units=1/GPa)
#
#
# Indices 1 2 3 4 5 6 
#
# 1 0.007181 -0.004618 0.000668 0.002059 0.000732 0.001533
# 2 -0.004618 0.081039 -0.040300 -0.030776 0.019662 0.018847
# 3 0.000668 -0.040300 0.032733 0.012369 -0.012124 -0.006886
# 4 0.002059 -0.030776 0.012369 0.044784 -0.001346 0.000144
# 5 0.000732 0.019662 -0.012124 -0.001346 0.036151 0.002755
# 6 0.001533 0.018847 -0.006886 0.000144 0.002755 0.029882
#
#
# Mechanical properties :
#
#
# Convention : Reuss Voigt Hill
#
# Bulk Modulus (GPa) = 30.81654 57.96766 44.39210
# Shear Modulus (GPa) = 15.10171 36.41682 25.75927
#
# Velocity S-wave (km/s) = 2.47141 3.83780 3.22774
# Velocity P-wave (km/s) = 4.53955 6.56378 5.64317
#
# Compressibility (1/GPa) = 0.03245010
#
# Stress axis : x y z
#
# Youngs Moduli (GPa) = 139.26558 12.33975 30.55018
#
# Poissons Ratio (x) = 0.05699 -0.02040
# Poissons Ratio (y) = 0.64319 1.23118
# Poissons Ratio (z) = -0.09297 0.49730
#
# Static dielectric constant tensor:
#      x y z
#    x 2.070820 0.034980 0.023560 
#    y 0.034980 2.034090 0.004150 
#    z 0.023560 0.004150 1.936100 
# 
# From -- ./inp_files/614635.got.cif
#   From: 2010.05.17/outbox.cif.g08.bks.cpg/sg2_308_cif.got.tgz:614635.got - 2010.06.03 11:33:40.
