data_PCOD9031466
_publ_section_title
;
Structure prediction by ZEFSAII (Michael W. Deem and Ramdas Pophale) SiO2 
 PCOD9031466
Probable space group: P -1
;
_chemical_formula_sum "Si O2"
_cell_formula_units_Z 16
_cell_length_a 12.350712
_cell_length_b 26.684313
_cell_length_c 6.687131
_cell_angle_alpha 57.123284
_cell_angle_beta 132.103529
_cell_angle_gamma 154.684291
_cell_volume 685.156319
_symmetry_space_group_name_H-M "P -1"
_symmetry_group_IT_number 2
_symmetry_cell_setting 'triclinic'
loop_
_space_group_symop_operation_xyz
x,y,z
-x,-y,-z
loop_
_atom_site_type_symbol
_atom_site_label
_atom_site_fract_x
_atom_site_fract_y
_atom_site_fract_z
Si Si1 0.282871 0.418552 0.097525
Si Si2 0.754210 0.982821 0.356737
Si Si3 0.198446 0.796713 0.312548
Si Si4 0.374789 0.243804 0.060094
Si Si5 0.783125 0.307024 0.186109
Si Si6 0.769264 0.067209 0.810004
Si Si7 0.390276 0.553743 0.278860
Si Si8 0.385904 0.197364 0.576873
O O1 0.318855 0.487801 0.138285
O O2 0.372102 0.395273 0.400729
O O3 0.500000 0.500000 0.000000
O O4 0.970342 0.296261 0.874218
O O5 0.532638 0.922569 0.385120
O O6 0.712685 0.897725 0.453080
O O7 0.099882 0.116203 0.523056
O O8 0.671334 0.989911 0.037387
O O9 0.170093 0.745158 0.583908
O O10 0.074757 0.818381 0.153663
O O11 0.500419 0.344331 0.880003
O O12 0.022244 0.121390 0.888385
O O13 0.540031 0.245867 0.167789
O O14 0.455374 0.270643 0.337018
O O15 0.093958 0.449865 0.267818
O O16 0.648831 0.272369 0.879973
O O17 0.500000 0.000000 0.500000
#
# Coordination Sequence:
#
# PCOD9031466 Si02
#       8
#     2   2   2   2   2   2   2   2
#     4  11  24  46  72 102 141 180 231 290 346 409
#     4  10  22  43  66  98 135 179 229 284 347 399
#     4  12  24  43  73 100 138 183 230 283 351 409
#     4  11  26  46  65 103 140 180 230 286 339 410
#     4  12  25  43  71 101 135 191 227 275 353 406
#     4  11  26  43  68 105 138 178 236 287 344 415
#     4  11  26  43  73 104 138 185 233 282 345 409
#     4  10  23  44  67  97 141 178 228 287 336 412
#
# _framework density 23.352336000000001
#
# number of rings (size 3 to 8) (size 9 to 14) (size 15 to 20)
#    0.000    1.000    2.500    3.000    5.250    4.000 
#    0.000    0.000    0.000    0.000    0.000    0.000 
#    0.000    0.000    0.000    0.000    0.000    0.000 
#
# Total GULP energy -89530.322911 kJ/mol
# GULP energy per Si atom -5595.645182 kJ/mol
# Density = 2.329919 g / cm^3
# Si number density = 23.352336 Si / 1000 Ang^3
#
#
#
# Elastic Constant Matrix: (Units=GPa)
#
#
# Indices 1 2 3 4 5 6 
#
# 1 62.7978 4.6670 11.5169 2.3896 1.9382 14.5750
# 2 4.6670 63.1269 35.3948 -24.8201 1.6697 18.9070
# 3 11.5169 35.3948 118.2635 -14.9235 4.8273 5.8047
# 4 2.3896 -24.8201 -14.9235 45.0277 -1.4896 1.3749
# 5 1.9382 1.6697 4.8273 -1.4896 24.9860 -2.8113
# 6 14.5750 18.9070 5.8047 1.3749 -2.8113 33.7864
#
#
#
# Elastic Compliance Matrix: (Units=1/GPa)
#
#
# Indices 1 2 3 4 5 6 
#
# 1 0.018301 0.002581 -0.002014 -0.000010 -0.002236 -0.009179
# 2 0.002581 0.030696 -0.006568 0.015085 -0.002103 -0.017951
# 3 -0.002014 -0.006568 0.010516 -0.000147 -0.001147 0.002648
# 4 -0.000010 0.015085 -0.000147 0.030763 -0.000234 -0.009684
# 5 -0.002236 -0.002103 -0.001147 -0.000234 0.041194 0.005776
# 6 -0.009179 -0.017951 0.002648 -0.009684 0.005776 0.044023
#
#
# Mechanical properties :
#
#
# Convention : Reuss Voigt Hill
#
# Bulk Modulus (GPa) = 21.04784 38.59396 29.82090
# Shear Modulus (GPa) = 24.59020 33.60066 29.09543
#
# Velocity S-wave (km/s) = 3.24853 3.79734 3.53361
# Velocity P-wave (km/s) = 4.80659 5.98240 5.42644
#
# Compressibility (1/GPa) = 0.04751082
#
# Stress axis : x y z
#
# Youngs Moduli (GPa) = 54.64047 32.57738 95.09501
#
# Poissons Ratio (x) = -0.08407 0.19153
# Poissons Ratio (y) = -0.14100 0.62456
# Poissons Ratio (z) = 0.11005 0.21396
#
# Static dielectric constant tensor:
#      x y z
#    x 1.912950 0.015620 -0.018080 
#    y 0.015620 1.861170 0.036060 
#    z -0.018080 0.036060 1.844330 
# 
# From -- ./inp_files/85035.got.cif
#   From: 2010.05.17/outbox.cif.g08.bks.cpg/sg2_43_cif.got.tgz:85035.got - 2010.06.03 11:33:40.
