data_PCOD9031346
_publ_section_title
;
Structure prediction by ZEFSAII (Michael W. Deem and Ramdas Pophale) SiO2 
 PCOD9031346
Probable space group: P -1
;
_chemical_formula_sum "Si O2"
_cell_formula_units_Z 16
_cell_length_a 12.070264
_cell_length_b 12.103292
_cell_length_c 15.381922
_cell_angle_alpha 120.515945
_cell_angle_beta 28.026896
_cell_angle_gamma 104.620193
_cell_volume 796.132318
_symmetry_space_group_name_H-M "P -1"
_symmetry_group_IT_number 2
_symmetry_cell_setting 'triclinic'
loop_
_space_group_symop_operation_xyz
x,y,z
-x,-y,-z
loop_
_atom_site_type_symbol
_atom_site_label
_atom_site_fract_x
_atom_site_fract_y
_atom_site_fract_z
Si Si1 0.189924 0.554192 0.713105
Si Si2 0.244860 0.626786 0.523255
Si Si3 0.694647 0.121289 0.450272
Si Si4 0.728151 0.186215 0.840715
Si Si5 0.879381 0.674200 0.645235
Si Si6 0.087059 0.195815 0.871032
Si Si7 0.842115 0.401390 0.955371
Si Si8 0.139622 0.846985 0.458205
O O1 0.500000 0.500000 0.500000
O O2 0.191159 0.543817 0.604450
O O3 0.029658 0.474537 0.831997
O O4 0.044508 0.719339 0.915833
O O5 0.276717 0.764063 0.586012
O O6 0.981771 0.703469 0.676930
O O7 0.526382 0.521431 0.236700
O O8 0.398031 0.149929 0.647458
O O9 0.716052 0.158471 0.552056
O O10 0.912126 0.954310 0.212725
O O11 0.852328 0.287121 0.829910
O O12 0.693264 0.196430 0.764418
O O13 0.438805 0.247487 0.110388
O O14 0.915504 0.016738 0.668315
O O15 0.000000 0.500000 0.500000
O O16 0.009353 0.739465 0.513734
O O17 0.948580 0.311410 0.935245
#
# Coordination Sequence:
#
# PCOD9031346 Si02
#       8
#     2   2   2   2   2   2   2   2
#     4  12  25  40  68  99 127 170 221 263 317 393
#     4  11  24  42  62  97 131 168 214 264 327 374
#     4  10  22  43  66  91 131 168 210 267 322 377
#     4  11  24  43  68  95 127 177 216 259 326 386
#     4  11  24  40  66  96 131 164 214 272 317 378
#     4  11  22  41  68  92 127 172 212 263 323 374
#     4  12  23  43  67  93 137 170 212 265 323 386
#     4  10  24  45  65  94 130 174 215 263 321 388
#
# _framework density 20.097161
#
# number of rings (size 3 to 8) (size 9 to 14) (size 15 to 20)
#    0.000    1.000    5.000    1.500    3.500    1.000 
#    0.000    2.500    0.000    0.000    0.000    0.000 
#    0.000    0.000    0.000    0.000    0.000    0.000 
#
# Total GULP energy -89206.471207 kJ/mol
# GULP energy per Si atom -5575.404450 kJ/mol
# Density = 2.005142 g / cm^3
# Si number density = 20.097161 Si / 1000 Ang^3
#
#
#
# Elastic Constant Matrix: (Units=GPa)
#
#
# Indices 1 2 3 4 5 6 
#
# 1 38.6613 1.6825 -9.2138 1.5988 -8.8358 7.5861
# 2 1.6825 93.4952 25.3252 12.5045 10.5086 8.0559
# 3 -9.2138 25.3252 46.1714 7.6814 -2.0719 10.6829
# 4 1.5988 12.5045 7.6814 23.1205 4.7433 0.7467
# 5 -8.8358 10.5086 -2.0719 4.7433 24.1392 5.1964
# 6 7.5861 8.0559 10.6829 0.7467 5.1964 29.9988
#
#
#
# Elastic Compliance Matrix: (Units=1/GPa)
#
#
# Indices 1 2 3 4 5 6 
#
# 1 0.040434 -0.005452 0.018405 -0.010462 0.024982 -0.019382
# 2 -0.005452 0.014561 -0.009673 -0.002473 -0.009233 0.002574
# 3 0.018405 -0.009673 0.037973 -0.012291 0.020681 -0.018856
# 4 -0.010462 -0.002473 -0.012291 0.052399 -0.016077 0.009167
# 5 0.024982 -0.009233 0.020681 -0.016077 0.064245 -0.021931
# 6 -0.019382 0.002574 -0.018856 0.009167 -0.021931 0.047830
#
#
# Mechanical properties :
#
#
# Convention : Reuss Voigt Hill
#
# Bulk Modulus (GPa) = 10.04732 23.76844 16.90788
# Shear Modulus (GPa) = 17.60211 26.15395 21.87803
#
# Velocity S-wave (km/s) = 2.96269 3.61137 3.30299
# Velocity P-wave (km/s) = 4.08823 5.40757 4.79350
#
# Compressibility (1/GPa) = 0.09952898
#
# Stress axis : x y z
#
# Youngs Moduli (GPa) = 24.73139 68.67807 26.33479
#
# Poissons Ratio (x) = 0.37442 -0.48470
# Poissons Ratio (y) = 0.13483 0.25473
# Poissons Ratio (z) = -0.45519 0.66432
#
# Static dielectric constant tensor:
#      x y z
#    x 0.299870 -1.892110 0.996230 
#    y -1.892110 -0.791090 1.303970 
#    z 0.996230 1.303970 1.062610 
# 
# From -- ./inp_files/47893.got.cif
#   From: 2010.05.17/outbox.cif.g08.bks.cpg/sg2_24_cif.got.tgz:47893.got - 2010.06.03 11:33:40.
