data_PCOD9031241
_publ_section_title
;
Structure prediction by ZEFSAII (Michael W. Deem and Ramdas Pophale) SiO2 
 PCOD9031241
Probable space group: P -1
;
_chemical_formula_sum "Si O2"
_cell_formula_units_Z 10
_cell_length_a 13.980214
_cell_length_b 9.119120
_cell_length_c 11.206284
_cell_angle_alpha 143.225823
_cell_angle_beta 29.426540
_cell_angle_gamma 122.731780
_cell_volume 355.377900
_symmetry_space_group_name_H-M "P -1"
_symmetry_group_IT_number 2
_symmetry_cell_setting 'triclinic'
loop_
_space_group_symop_operation_xyz
x,y,z
-x,-y,-z
loop_
_atom_site_type_symbol
_atom_site_label
_atom_site_fract_x
_atom_site_fract_y
_atom_site_fract_z
Si Si1 0.961104 0.978291 0.274160
Si Si2 0.030273 0.538670 0.315823
Si Si3 0.333525 0.939881 0.560726
Si Si4 0.363804 0.435365 0.333022
Si Si5 0.713233 0.319436 0.058559
O O1 0.937790 0.288886 0.502475
O O2 0.732637 0.028361 0.488379
O O3 0.170168 0.697049 0.798037
O O4 0.060425 0.886701 0.242477
O O5 0.764221 0.711257 0.678705
O O6 0.200870 0.508603 0.003353
O O7 0.097268 0.211312 0.047812
O O8 0.401776 0.623435 0.318769
O O9 0.500000 0.000000 0.500000
O O10 0.588531 0.237968 0.039203
O O11 0.500000 0.500000 0.500000
#
# Coordination Sequence:
#
# PCOD9031241 Si02
#       5
#     2   2   2   2   2
#     4  10  23  40  66  96 127 166 214 257 317 372
#     4  11  22  42  68  93 133 160 213 270 303 378
#     4  11  23  43  66  92 129 170 212 259 317 378
#     4  10  23  43  64  94 129 168 209 255 325 372
#     4  10  22  43  65  96 128 169 210 255 322 378
#
# _framework density 28.139061999999999
#
# number of rings (size 3 to 8) (size 9 to 14) (size 15 to 20)
#    0.000    1.600    2.000    3.000    0.000   12.000 
#    3.600    0.000    0.000    0.000    0.000    0.000 
#    0.000    0.000    0.000    0.000    0.000    0.000 
#
# Total GULP energy -55715.753208 kJ/mol
# GULP energy per Si atom -5571.575321 kJ/mol
# Density = 2.807502 g / cm^3
# Si number density = 28.139062 Si / 1000 Ang^3
#
#
#
# Elastic Constant Matrix: (Units=GPa)
#
#
# Indices 1 2 3 4 5 6 
#
# 1 315.5406 63.2926 57.6501 -15.7078 -52.4965 19.6283
# 2 63.2926 68.1036 24.4332 -13.8270 -4.1858 14.2688
# 3 57.6501 24.4332 123.4736 -10.6478 -33.8928 2.4022
# 4 -15.7078 -13.8270 -10.6478 42.5071 6.5348 -0.6582
# 5 -52.4965 -4.1858 -33.8928 6.5348 70.8744 -1.9584
# 6 19.6283 14.2688 2.4022 -0.6582 -1.9584 63.8096
#
#
#
# Elastic Compliance Matrix: (Units=1/GPa)
#
#
# Indices 1 2 3 4 5 6 
#
# 1 0.004524 -0.003753 -0.000592 -0.000142 0.002847 -0.000444
# 2 -0.003753 0.020719 -0.002787 0.005133 -0.003457 -0.003427
# 3 -0.000592 -0.002787 0.010132 0.000778 0.004186 0.000560
# 4 -0.000142 0.005133 0.000778 0.025603 -0.001816 -0.000925
# 5 0.002847 -0.003457 0.004186 -0.001816 0.018191 0.000279
# 6 -0.000444 -0.003427 0.000560 -0.000925 0.000279 0.016552
#
#
# Mechanical properties :
#
#
# Convention : Reuss Voigt Hill
#
# Bulk Modulus (GPa) = 47.36832 88.65216 68.01024
# Shear Modulus (GPa) = 42.72655 59.55434 51.14044
#
# Velocity S-wave (km/s) = 3.90090 4.60546 4.26774
# Velocity P-wave (km/s) = 6.09587 7.73652 6.96467
#
# Compressibility (1/GPa) = 0.02111116
#
# Stress axis : x y z
#
# Youngs Moduli (GPa) = 221.02341 48.26450 98.69764
#
# Poissons Ratio (x) = 0.18115 0.05841
# Poissons Ratio (y) = 0.82954 0.27509
# Poissons Ratio (z) = 0.13079 0.13452
#
# Static dielectric constant tensor:
#      x y z
#    x 2.313800 -0.075040 -0.058550 
#    y -0.075040 2.302000 -0.008030 
#    z -0.058550 -0.008030 2.332350 
# 
# From -- ./inp_files/270326.got.cif
#   From: 2010.05.17/outbox.cif.g08.bks.cpg/sg2_136_cif.got.tgz:270326.got - 2010.06.03 11:33:40.
