data_PCOD9031492
_publ_section_title
;
Structure prediction by ZEFSAII (Michael W. Deem and Ramdas Pophale) SiO2 
 PCOD9031492
Probable space group: P -1
;
_chemical_formula_sum "Si O2"
_cell_formula_units_Z 16
_cell_length_a 19.042456
_cell_length_b 14.222522
_cell_length_c 9.716993
_cell_angle_alpha 105.537023
_cell_angle_beta 128.049359
_cell_angle_gamma 28.831865
_cell_volume 697.209966
_symmetry_space_group_name_H-M "P -1"
_symmetry_group_IT_number 2
_symmetry_cell_setting 'triclinic'
loop_
_space_group_symop_operation_xyz
x,y,z
-x,-y,-z
loop_
_atom_site_type_symbol
_atom_site_label
_atom_site_fract_x
_atom_site_fract_y
_atom_site_fract_z
Si Si1 0.157791 0.055475 0.488399
Si Si2 0.058918 0.748733 0.188825
Si Si3 0.135128 0.580939 0.489298
Si Si4 0.196555 0.814011 0.289021
Si Si5 0.373019 0.320776 0.179651
Si Si6 0.679114 0.900510 0.623475
Si Si7 0.064281 0.506646 0.706391
Si Si8 0.303970 0.014502 0.045448
O O1 0.030651 0.287201 0.373371
O O2 0.997370 0.202681 0.490858
O O3 0.139296 0.978485 0.345993
O O4 0.456883 0.778208 0.741711
O O5 0.213673 0.537862 0.416500
O O6 0.131430 0.786731 0.291701
O O7 0.135599 0.620946 0.084351
O O8 0.773558 0.014871 0.003683
O O9 0.402261 0.269053 0.748097
O O10 0.885601 0.772157 0.226491
O O11 0.500000 0.500000 0.500000
O O12 0.000000 0.000000 0.000000
O O13 0.528432 0.126279 0.426003
O O14 0.323674 0.276053 0.006897
O O15 0.901455 0.637339 0.690593
O O16 0.500000 0.000000 0.500000
O O17 0.778221 0.842396 0.863039
O O18 0.000000 0.500000 0.500000
#
# Coordination Sequence:
#
# PCOD9031492 Si02
#       8
#     2   2   2   2   2   2   2   2
#     4  11  27  44  68 106 141 185 234 294 355 421
#     4  10  22  43  74  96 139 178 240 280 357 405
#     4  10  24  40  72  94 142 178 229 281 356 406
#     4  12  27  42  75 109 139 187 239 291 352 423
#     4  11  22  45  69  96 139 183 234 293 350 427
#     4  11  24  39  66  96 132 180 244 285 349 416
#     4  11  26  42  67  99 141 185 232 296 355 417
#     4  10  22  43  67 101 130 187 224 293 338 418
#
# _framework density 22.948612000000001
#
# number of rings (size 3 to 8) (size 9 to 14) (size 15 to 20)
#    0.750    0.500    3.750    0.750    7.000    4.000 
#    0.000    0.625    0.000    0.000    0.000    0.000 
#    0.000    0.000    0.000    0.000    0.000    0.000 
#
# Total GULP energy -89083.684487 kJ/mol
# GULP energy per Si atom -5567.730280 kJ/mol
# Density = 2.289638 g / cm^3
# Si number density = 22.948612 Si / 1000 Ang^3
#
#
#
# Elastic Constant Matrix: (Units=GPa)
#
#
# Indices 1 2 3 4 5 6 
#
# 1 43.1324 17.6523 9.4244 7.5925 20.4117 -7.4433
# 2 17.6523 143.9504 68.5137 31.6180 14.9368 -5.9865
# 3 9.4244 68.5137 133.0309 8.5082 22.5400 -2.9069
# 4 7.5925 31.6180 8.5082 39.3635 3.6254 8.7136
# 5 20.4117 14.9368 22.5400 3.6254 37.5346 -2.4051
# 6 -7.4433 -5.9865 -2.9069 8.7136 -2.4051 38.8174
#
#
#
# Elastic Compliance Matrix: (Units=1/GPa)
#
#
# Indices 1 2 3 4 5 6 
#
# 1 0.034131 -0.001868 0.002100 -0.005299 -0.018151 0.006479
# 2 -0.001868 0.011679 -0.005372 -0.008581 0.000616 0.003005
# 3 0.002100 -0.005372 0.010974 0.002176 -0.005834 -0.000454
# 4 -0.005299 -0.008581 0.002176 0.034965 0.000974 -0.009965
# 5 -0.018151 0.000616 -0.005834 0.000974 0.039575 -0.001589
# 6 0.006479 0.003005 -0.000454 -0.009965 -0.001589 0.029572
#
#
# Mechanical properties :
#
#
# Convention : Reuss Voigt Hill
#
# Bulk Modulus (GPa) = 21.50391 56.81051 39.15721
# Shear Modulus (GPa) = 26.78415 38.11133 32.44774
#
# Velocity S-wave (km/s) = 3.42004 4.07962 3.76431
# Velocity P-wave (km/s) = 4.99864 6.85568 5.99945
#
# Compressibility (1/GPa) = 0.04650318
#
# Stress axis : x y z
#
# Youngs Moduli (GPa) = 29.29916 85.62533 91.12042
#
# Poissons Ratio (x) = 0.15996 -0.19136
# Poissons Ratio (y) = 0.05474 0.48953
# Poissons Ratio (z) = -0.06153 0.46001
#
# Static dielectric constant tensor:
#      x y z
#    x 1.961210 0.033940 -0.240860 
#    y 0.033940 1.926730 -0.069930 
#    z -0.240860 -0.069930 2.684590 
# 
# From -- ./inp_files/335724.got.cif
#   From: 2010.05.17/outbox.cif.g08.bks.cpg/sg2_168_cif.got.tgz:335724.got - 2010.06.03 11:33:40.
