data_PCOD9031419
_publ_section_title
;
Structure prediction by ZEFSAII (Michael W. Deem and Ramdas Pophale) SiO2 
 PCOD9031419
Probable space group: P -1
;
_chemical_formula_sum "Si O2"
_cell_formula_units_Z 16
_cell_length_a 8.648716
_cell_length_b 8.987837
_cell_length_c 12.097808
_cell_angle_alpha 92.667574
_cell_angle_beta 101.526960
_cell_angle_gamma 56.541340
_cell_volume 766.405616
_symmetry_space_group_name_H-M "P -1"
_symmetry_group_IT_number 2
_symmetry_cell_setting 'triclinic'
loop_
_space_group_symop_operation_xyz
x,y,z
-x,-y,-z
loop_
_atom_site_type_symbol
_atom_site_label
_atom_site_fract_x
_atom_site_fract_y
_atom_site_fract_z
Si Si1 0.333892 0.647034 0.406801
Si Si2 0.043575 0.325906 0.571410
Si Si3 0.309073 0.020395 0.432340
Si Si4 0.211663 0.945244 0.039858
Si Si5 0.575954 0.723557 0.950586
Si Si6 0.266297 0.628049 0.154897
Si Si7 0.103590 0.354278 0.830269
Si Si8 0.787567 0.771850 0.804605
O O1 0.500000 0.500000 0.500000
O O2 0.363697 0.568074 0.285268
O O3 0.146226 0.661882 0.422463
O O4 0.320789 0.834627 0.415168
O O5 0.158674 0.152011 0.506140
O O6 0.144559 0.305708 0.704203
O O7 0.000000 0.500000 0.500000
O O8 0.253989 0.128745 0.313227
O O9 0.500000 0.000000 0.500000
O O10 0.295260 0.782559 0.131296
O O11 0.191406 0.113157 0.097983
O O12 0.359519 0.864234 0.957762
O O13 0.000000 0.000000 0.000000
O O14 0.643104 0.519338 0.933256
O O15 0.619048 0.765649 0.836013
O O16 0.715471 0.717915 0.066073
O O17 0.046456 0.691573 0.146311
O O18 0.971890 0.571033 0.820883
#
# Coordination Sequence:
#
# PCOD9031419 Si02
#       8
#     2   2   2   2   2   2   2   2
#     4  11  25  46  70 101 139 181 233 287 343 415
#     4  11  23  44  73 103 137 185 227 284 348 402
#     4  12  26  45  69 102 140 180 236 286 344 413
#     4  12  24  42  63  98 139 171 224 279 337 404
#     4  11  24  42  69  99 131 184 224 270 349 409
#     4  10  22  43  66  96 133 174 224 279 341 401
#     4  10  22  43  72  95 138 176 228 276 338 416
#     4  11  23  44  66  99 136 173 226 283 337 404
#
# _framework density 20.876674000000001
#
# number of rings (size 3 to 8) (size 9 to 14) (size 15 to 20)
#    0.000    1.000    2.500    4.875    5.250    1.000 
#    4.500    0.000    0.000    0.000    0.000    0.000 
#    0.000    0.000    0.000    0.000    0.000    0.000 
#
# Total GULP energy -89324.988346 kJ/mol
# GULP energy per Si atom -5582.811772 kJ/mol
# Density = 2.082916 g / cm^3
# Si number density = 20.876674 Si / 1000 Ang^3
#
#
#
# Elastic Constant Matrix: (Units=GPa)
#
#
# Indices 1 2 3 4 5 6 
#
# 1 68.2822 37.1223 34.3623 1.0499 -1.1592 2.7632
# 2 37.1223 67.2657 50.2959 2.3883 -6.8838 11.9869
# 3 34.3623 50.2959 129.6769 16.5501 -11.4919 -8.1013
# 4 1.0499 2.3883 16.5501 20.8228 5.4784 -7.5026
# 5 -1.1592 -6.8838 -11.4919 5.4784 29.6143 1.1450
# 6 2.7632 11.9869 -8.1013 -7.5026 1.1450 43.3128
#
#
#
# Elastic Compliance Matrix: (Units=1/GPa)
#
#
# Indices 1 2 3 4 5 6 
#
# 1 0.021549 -0.011267 -0.001920 0.003313 -0.003213 0.002043
# 2 -0.011267 0.029643 -0.008775 -0.000082 0.003416 -0.009231
# 3 -0.001920 -0.008775 0.013490 -0.009702 0.004788 0.003267
# 4 0.003313 -0.000082 -0.009702 0.063067 -0.015682 0.009336
# 5 -0.003213 0.003416 0.004788 -0.015682 0.039334 -0.003601
# 6 0.002043 -0.009231 0.003267 0.009336 -0.003601 0.027836
#
#
# Mechanical properties :
#
#
# Convention : Reuss Voigt Hill
#
# Bulk Modulus (GPa) = 48.17436 56.53176 52.35306
# Shear Modulus (GPa) = 20.34482 28.31294 24.32888
#
# Velocity S-wave (km/s) = 3.12512 3.68666 3.41744
# Velocity P-wave (km/s) = 6.01229 6.72753 6.37994
#
# Compressibility (1/GPa) = 0.02075793
#
# Stress axis : x y z
#
# Youngs Moduli (GPa) = 46.40678 33.73439 74.12705
#
# Poissons Ratio (x) = 0.38009 0.14232
# Poissons Ratio (y) = 0.52287 0.65048
# Poissons Ratio (z) = 0.08910 0.29603
#
# Static dielectric constant tensor:
#      x y z
#    x 1.733180 -0.337740 -0.093050 
#    y -0.337740 1.660440 -0.018260 
#    z -0.093050 -0.018260 1.778240 
# 
# From -- ./inp_files/241038.got.cif
#   From: 2010.05.17/outbox.cif.g08.bks.cpg/sg2_121_cif.got.tgz:241038.got - 2010.06.03 11:33:40.
