data_PCOD9031496
_publ_section_title
;
Structure prediction by ZEFSAII (Michael W. Deem and Ramdas Pophale) SiO2 
 PCOD9031496
Probable space group: P -1
;
_chemical_formula_sum "Si O2"
_cell_formula_units_Z 14
_cell_length_a 24.239245
_cell_length_b 18.494917
_cell_length_c 9.079734
_cell_angle_alpha 27.358463
_cell_angle_beta 36.291356
_cell_angle_gamma 20.386443
_cell_volume 642.636237
_symmetry_space_group_name_H-M "P -1"
_symmetry_group_IT_number 2
_symmetry_cell_setting 'triclinic'
loop_
_space_group_symop_operation_xyz
x,y,z
-x,-y,-z
loop_
_atom_site_type_symbol
_atom_site_label
_atom_site_fract_x
_atom_site_fract_y
_atom_site_fract_z
Si Si1 0.317041 0.903659 0.554608
Si Si2 0.150458 0.674298 0.254360
Si Si3 0.188205 0.751996 0.584032
Si Si4 0.412309 0.290179 0.143797
Si Si5 0.670132 0.447254 0.675555
Si Si6 0.714061 0.071299 0.779528
Si Si7 0.010639 0.532847 0.746518
O O1 0.484958 0.745238 0.527943
O O2 0.305165 0.909863 0.390949
O O3 0.309580 0.736967 0.935714
O O4 0.170956 0.204647 0.389919
O O5 0.309053 0.484346 0.157511
O O6 0.218642 0.572327 0.457388
O O7 0.080271 0.611759 0.454148
O O8 0.000000 0.000000 0.000000
O O9 0.275223 0.667986 0.396278
O O10 0.231069 0.833937 0.455244
O O11 0.278016 0.480196 0.958552
O O12 0.000000 0.000000 0.500000
O O13 0.500000 0.000000 0.500000
O O14 0.551554 0.224896 0.921918
O O15 0.862059 0.756071 0.077241
O O16 0.000000 0.500000 0.000000
#
# Coordination Sequence:
#
# PCOD9031496 Si02
#       7
#     2   2   2   2   2   2   2
#     4  10  22  43  67 101 136 184 236 283 352 427
#     4  12  24  44  75 101 143 190 239 288 356 436
#     4  12  28  45  74 106 144 185 243 301 362 423
#     4  12  26  49  74 107 145 191 240 294 363 431
#     4  11  24  40  70 105 135 180 240 289 349 422
#     4  11  24  49  71 100 142 195 234 293 361 431
#     4  10  23  42  70  98 135 189 238 283 350 423
#
# _framework density 21.785266
#
# number of rings (size 3 to 8) (size 9 to 14) (size 15 to 20)
#    0.000    0.857    4.286    2.143   10.000    0.000 
#    2.571    5.000    0.000    0.000    0.000    0.000 
#    0.000    0.000    0.000    0.000    0.000    0.000 
#
# Total GULP energy -78201.262624 kJ/mol
# GULP energy per Si atom -5585.804473 kJ/mol
# Density = 2.173568 g / cm^3
# Si number density = 21.785266 Si / 1000 Ang^3
#
#
#
# Elastic Constant Matrix: (Units=GPa)
#
#
# Indices 1 2 3 4 5 6 
#
# 1 59.3693 21.4056 29.9067 -24.0097 14.8192 -13.0049
# 2 21.4056 135.3223 56.8126 -44.9479 9.8515 -16.0003
# 3 29.9067 56.8126 105.8883 -29.5233 4.6281 -5.7246
# 4 -24.0097 -44.9479 -29.5233 42.4289 -2.8569 13.3198
# 5 14.8192 9.8515 4.6281 -2.8569 24.6768 -7.1766
# 6 -13.0049 -16.0003 -5.7246 13.3198 -7.1766 41.8397
#
#
#
# Elastic Compliance Matrix: (Units=1/GPa)
#
#
# Indices 1 2 3 4 5 6 
#
# 1 0.028389 0.004066 -0.005228 0.014992 -0.015296 0.002267
# 2 0.004066 0.013318 -0.004486 0.012682 -0.005213 0.000812
# 3 -0.005228 -0.004486 0.013885 0.002701 0.002074 -0.001945
# 4 0.014992 0.012682 0.002701 0.049014 -0.011118 -0.007631
# 5 -0.015296 -0.005213 0.002074 -0.011118 0.051851 0.005969
# 6 0.002267 0.000812 -0.001945 -0.007631 0.005969 0.028103
#
#
# Mechanical properties :
#
#
# Convention : Reuss Voigt Hill
#
# Bulk Modulus (GPa) = 22.57621 57.42551 40.00086
# Shear Modulus (GPa) = 23.73926 34.61942 29.17934
#
# Velocity S-wave (km/s) = 3.30463 3.99070 3.66376
# Velocity P-wave (km/s) = 4.99463 6.90299 6.02485
#
# Compressibility (1/GPa) = 0.04429441
#
# Stress axis : x y z
#
# Youngs Moduli (GPa) = 35.22446 75.08721 72.02167
#
# Poissons Ratio (x) = -0.30528 0.37655
# Poissons Ratio (y) = -0.14321 0.32310
# Poissons Ratio (z) = 0.18417 0.33685
#
# Static dielectric constant tensor:
#      x y z
#    x 1.800590 -0.020530 -0.000610 
#    y -0.020530 1.830760 -0.003300 
#    z -0.000610 -0.003300 1.830130 
# 
# From -- ./inp_files/185294.got.cif
#   From: 2010.05.17/outbox.cif.g08.bks.cpg/sg2_93_cif.got.tgz:185294.got - 2010.06.03 11:33:40.
