data_PCOD9031590
_publ_section_title
;
Structure prediction by ZEFSAII (Michael W. Deem and Ramdas Pophale) SiO2 
 PCOD9031590
Probable space group: P -1
;
_chemical_formula_sum "Si O2"
_cell_formula_units_Z 16
_cell_length_a 13.678478
_cell_length_b 10.981447
_cell_length_c 8.584155
_cell_angle_alpha 70.655565
_cell_angle_beta 119.917668
_cell_angle_gamma 62.260119
_cell_volume 671.330080
_symmetry_space_group_name_H-M "P -1"
_symmetry_group_IT_number 2
_symmetry_cell_setting 'triclinic'
loop_
_space_group_symop_operation_xyz
x,y,z
-x,-y,-z
loop_
_atom_site_type_symbol
_atom_site_label
_atom_site_fract_x
_atom_site_fract_y
_atom_site_fract_z
Si Si1 0.840257 0.917137 0.763845
Si Si2 0.714982 0.875622 0.138798
Si Si3 0.495065 0.121416 0.566624
Si Si4 0.639157 0.161496 0.208727
Si Si5 0.865779 0.447957 0.016708
Si Si6 0.842994 0.165430 0.182331
Si Si7 0.009951 0.179040 0.767891
Si Si8 0.245086 0.440555 0.779937
O O1 0.662274 0.055714 0.664191
O O2 0.770324 0.058903 0.502103
O O3 0.984269 0.838034 0.035836
O O4 0.945502 0.704848 0.856127
O O5 0.877801 0.793823 0.207392
O O6 0.746403 0.696229 0.258733
O O7 0.693351 0.987923 0.222046
O O8 0.547430 0.036794 0.819572
O O9 0.301905 0.352398 0.296325
O O10 0.500000 0.000000 0.500000
O O11 0.666680 0.261210 0.079408
O O12 0.441921 0.306677 0.045077
O O13 0.836896 0.319614 0.071417
O O14 0.860439 0.500388 0.169745
O O15 0.892309 0.030035 0.136117
O O16 0.000000 0.000000 0.500000
O O17 0.828891 0.373206 0.454903
#
# Coordination Sequence:
#
# PCOD9031590 Si02
#       8
#     2   2   2   2   2   2   2   2
#     4  11  24  44  66 102 134 176 224 275 338 391
#     4  10  22  43  67  94 143 174 221 278 336 403
#     4  11  23  45  65 102 139 169 220 284 331 401
#     4  11  23  43  68  97 136 182 223 278 338 391
#     4  12  24  42  71  95 134 177 225 264 348 384
#     4  11  22  46  67  93 134 179 226 278 326 410
#     4  10  24  42  66  99 136 174 226 275 335 397
#     4  12  22  42  69 103 132 180 227 273 337 408
#
# _framework density 23.833283999999999
#
# number of rings (size 3 to 8) (size 9 to 14) (size 15 to 20)
#    0.000    1.000    5.000    1.500    1.750    1.500 
#    2.250    5.625    0.000    0.000    0.000    0.000 
#    0.000    0.000    0.000    0.000    0.000    0.000 
#
# Total GULP energy -89434.109686 kJ/mol
# GULP energy per Si atom -5589.631855 kJ/mol
# Density = 2.377904 g / cm^3
# Si number density = 23.833284 Si / 1000 Ang^3
#
#
#
# Elastic Constant Matrix: (Units=GPa)
#
#
# Indices 1 2 3 4 5 6 
#
# 1 48.3235 8.0114 -9.0466 -7.9654 8.1183 -5.3528
# 2 8.0114 69.3693 12.0493 10.1956 -13.6431 -4.8479
# 3 -9.0466 12.0493 107.4728 -5.1118 -8.7493 -13.2173
# 4 -7.9654 10.1956 -5.1118 38.3919 -4.8999 -13.0797
# 5 8.1183 -13.6431 -8.7493 -4.8999 25.0957 -0.4225
# 6 -5.3528 -4.8479 -13.2173 -13.0797 -0.4225 35.5269
#
#
#
# Elastic Compliance Matrix: (Units=1/GPa)
#
#
# Indices 1 2 3 4 5 6 
#
# 1 0.026170 -0.006138 0.003556 0.009033 -0.008671 0.007651
# 2 -0.006138 0.018200 -0.002142 -0.005500 0.010040 -0.001144
# 3 0.003556 -0.002142 0.011096 0.005292 0.002694 0.006352
# 4 0.009033 -0.005500 0.005292 0.035889 0.003206 0.015831
# 5 -0.008671 0.010040 0.002694 0.003206 0.049723 0.002838
# 6 0.007651 -0.001144 0.006352 0.015831 0.002838 0.037369
#
#
# Mechanical properties :
#
#
# Convention : Reuss Voigt Hill
#
# Bulk Modulus (GPa) = 21.73104 27.46597 24.59851
# Shear Modulus (GPa) = 24.60183 34.07968 29.34076
#
# Velocity S-wave (km/s) = 3.21635 3.78553 3.51249
# Velocity P-wave (km/s) = 4.78862 5.53681 5.17625
#
# Compressibility (1/GPa) = 0.04601713
#
# Stress axis : x y z
#
# Youngs Moduli (GPa) = 38.21111 54.94618 90.11955
#
# Poissons Ratio (x) = 0.33728 -0.32045
# Poissons Ratio (y) = 0.23455 0.19305
# Poissons Ratio (z) = -0.13587 0.11770
#
# Static dielectric constant tensor:
#      x y z
#    x 2.027900 -0.024300 0.064140 
#    y -0.024300 1.925990 0.006010 
#    z 0.064140 0.006010 1.961310 
# 
# From -- ./inp_files/307146.got.cif
#   From: 2010.05.17/outbox.cif.g08.bks.cpg/sg2_154_cif.got.tgz:307146.got - 2010.06.03 11:33:40.
