data_PCOD9031592
_publ_section_title
;
Structure prediction by ZEFSAII (Michael W. Deem and Ramdas Pophale) SiO2 
 PCOD9031592
Probable space group: P -1
;
_chemical_formula_sum "Si O2"
_cell_formula_units_Z 16
_cell_length_a 6.800502
_cell_length_b 18.621078
_cell_length_c 8.537263
_cell_angle_alpha 75.444805
_cell_angle_beta 94.467918
_cell_angle_gamma 138.411464
_cell_volume 684.307589
_symmetry_space_group_name_H-M "P -1"
_symmetry_group_IT_number 2
_symmetry_cell_setting 'triclinic'
loop_
_space_group_symop_operation_xyz
x,y,z
-x,-y,-z
loop_
_atom_site_type_symbol
_atom_site_label
_atom_site_fract_x
_atom_site_fract_y
_atom_site_fract_z
Si Si1 0.105390 0.669774 0.672190
Si Si2 0.704960 0.423077 0.415638
Si Si3 0.565667 0.531460 0.168858
Si Si4 0.978246 0.776552 0.424468
Si Si5 0.345156 0.841385 0.858653
Si Si6 0.960062 0.050262 0.601280
Si Si7 0.067829 0.213687 0.926504
Si Si8 0.708829 0.872140 0.110727
O O1 0.293329 0.650693 0.650521
O O2 0.187811 0.733468 0.804957
O O3 0.755798 0.548443 0.724606
O O4 0.124023 0.741740 0.508231
O O5 0.715465 0.501206 0.271376
O O6 0.385030 0.335808 0.533786
O O7 0.000000 0.500000 0.500000
O O8 0.761052 0.660170 0.125699
O O9 0.500000 0.500000 0.000000
O O10 0.044735 0.864719 0.494634
O O11 0.086560 0.832296 0.229366
O O12 0.430248 0.834878 0.039911
O O13 0.645524 0.946823 0.727059
O O14 0.131402 0.847718 0.895662
O O15 0.232780 0.120255 0.705931
O O16 0.000000 0.000000 0.500000
O O17 0.286447 0.205887 0.931012
O O18 0.000000 0.000000 0.000000
#
# Coordination Sequence:
#
# PCOD9031592 Si02
#       8
#     2   2   2   2   2   2   2   2
#     4  11  24  42  67  97 131 173 225 273 330 402
#     4  11  24  43  68  96 133 179 230 268 337 406
#     4  11  24  42  64 101 138 173 218 284 333 382
#     4  10  24  43  65  96 133 173 219 283 331 387
#     4  11  24  40  66  96 126 177 217 266 335 400
#     4  10  22  43  67  95 129 171 222 278 334 390
#     4  11  23  42  66  93 135 170 218 268 335 394
#     4   9  23  42  64  93 129 168 212 274 327 382
#
# _framework density 23.381297
#
# number of rings (size 3 to 8) (size 9 to 14) (size 15 to 20)
#    0.000    1.500    1.250    2.250    1.750   15.500 
#    0.000    1.250    0.000    0.000    0.000    0.000 
#    0.000    0.000    0.000    0.000    0.000    0.000 
#
# Total GULP energy -89460.867625 kJ/mol
# GULP energy per Si atom -5591.304227 kJ/mol
# Density = 2.332808 g / cm^3
# Si number density = 23.381297 Si / 1000 Ang^3
#
#
#
# Elastic Constant Matrix: (Units=GPa)
#
#
# Indices 1 2 3 4 5 6 
#
# 1 89.3391 34.0256 32.5253 -2.9189 -13.6550 -8.8472
# 2 34.0256 103.8689 17.1930 3.9884 -6.9706 -12.6537
# 3 32.5253 17.1930 72.5442 3.6642 -13.5413 -1.9685
# 4 -2.9189 3.9884 3.6642 38.4278 -6.0846 0.3816
# 5 -13.6550 -6.9706 -13.5413 -6.0846 40.7988 3.3797
# 6 -8.8472 -12.6537 -1.9685 0.3816 3.3797 37.1212
#
#
#
# Elastic Compliance Matrix: (Units=1/GPa)
#
#
# Indices 1 2 3 4 5 6 
#
# 1 0.015352 -0.003801 -0.005523 0.002526 0.002885 0.001782
# 2 -0.003801 0.011427 -0.000864 -0.001432 -0.000066 0.002964
# 3 -0.005523 -0.000864 0.017177 -0.001391 0.003581 -0.001012
# 4 0.002526 -0.001432 -0.001391 0.027174 0.004244 -0.000626
# 5 0.002885 -0.000066 0.003581 0.004244 0.027426 -0.001686
# 6 0.001782 0.002964 -0.001012 -0.000626 -0.001686 0.028480
#
#
# Mechanical properties :
#
#
# Convention : Reuss Voigt Hill
#
# Bulk Modulus (GPa) = 42.40722 48.13775 45.27249
# Shear Modulus (GPa) = 32.20174 35.40345 33.80259
#
# Velocity S-wave (km/s) = 3.71515 3.89547 3.80638
# Velocity P-wave (km/s) = 6.04812 6.39263 6.22276
#
# Compressibility (1/GPa) = 0.02358089
#
# Stress axis : x y z
#
# Youngs Moduli (GPa) = 65.14006 87.50947 58.21791
#
# Poissons Ratio (x) = 0.33263 0.32153
# Poissons Ratio (y) = 0.24760 0.05027
# Poissons Ratio (z) = 0.35976 0.07557
#
# Static dielectric constant tensor:
#      x y z
#    x 1.707330 0.034530 0.020780 
#    y 0.034530 1.892210 0.019170 
#    z 0.020780 0.019170 1.919990 
# 
# From -- ./inp_files/138961.got.cif
#   From: 2010.05.17/outbox.cif.g08.bks.cpg/sg2_70_cif.got.tgz:138961.got - 2010.06.03 11:33:40.
