data_PCOD9031856
_publ_section_title
;
Structure prediction by ZEFSAII (Michael W. Deem and Ramdas Pophale) SiO2 
 PCOD9031856
Probable space group: P -1
;
_chemical_formula_sum "Si O2"
_cell_formula_units_Z 14
_cell_length_a 12.954950
_cell_length_b 19.424983
_cell_length_c 19.205667
_cell_angle_alpha 19.715247
_cell_angle_beta 152.119350
_cell_angle_gamma 153.454340
_cell_volume 700.110522
_symmetry_space_group_name_H-M "P -1"
_symmetry_group_IT_number 2
_symmetry_cell_setting 'triclinic'
loop_
_space_group_symop_operation_xyz
x,y,z
-x,-y,-z
loop_
_atom_site_type_symbol
_atom_site_label
_atom_site_fract_x
_atom_site_fract_y
_atom_site_fract_z
Si Si1 0.612795 0.380592 0.736322
Si Si2 0.424614 0.257652 0.157745
Si Si3 0.692158 0.989006 0.532478
Si Si4 0.244559 0.183243 0.506133
Si Si5 0.797119 0.022051 0.176838
Si Si6 0.899973 0.752048 0.151629
Si Si7 0.370403 0.664805 0.532302
O O1 0.500000 0.500000 0.500000
O O2 0.735677 0.575127 0.681610
O O3 0.374459 0.146896 0.822746
O O4 0.799508 0.268167 0.933631
O O5 0.334783 0.096973 0.322882
O O6 0.637498 0.209442 0.293075
O O7 0.500000 0.500000 0.000000
O O8 0.217531 0.236200 0.001918
O O9 0.488715 0.821079 0.520582
O O10 0.948008 0.999107 0.651290
O O11 0.444551 0.253408 0.498416
O O12 0.297328 0.062363 0.720621
O O13 0.000000 0.000000 0.500000
O O14 0.702852 0.584788 0.245706
O O15 0.120887 0.677355 0.349590
O O16 0.000000 0.000000 0.000000
#
# Coordination Sequence:
#
# PCOD9031856 Si02
#       7
#     2   2   2   2   2   2   2
#     4   9  22  43  64  95 135 177 231 273 328 409
#     4  11  24  41  66  97 130 174 229 279 341 396
#     4  11  23  42  67 100 133 174 228 283 338 412
#     4  11  23  41  66 102 138 179 223 276 336 414
#     4  10  22  43  68  96 138 179 223 281 343 400
#     4  11  24  44  68  94 135 176 224 285 342 400
#     4  11  24  43  67 101 137 177 228 278 342 410
#
# _framework density 19.996842999999998
#
# number of rings (size 3 to 8) (size 9 to 14) (size 15 to 20)
#    0.000    1.429    4.286    0.000    0.000    9.714 
#    2.571    0.000    0.000    0.000    0.000    0.000 
#    0.000    0.000    0.000    0.000    0.000    0.000 
#
# Total GULP energy -77940.138143 kJ/mol
# GULP energy per Si atom -5567.152724 kJ/mol
# Density = 1.995133 g / cm^3
# Si number density = 19.996843 Si / 1000 Ang^3
#
#
#
# Elastic Constant Matrix: (Units=GPa)
#
#
# Indices 1 2 3 4 5 6 
#
# 1 97.4435 48.7013 49.9934 2.9361 -7.6637 6.8774
# 2 48.7013 136.3365 66.6398 0.8354 11.3721 -23.9081
# 3 49.9934 66.6398 121.9168 -5.4207 12.7079 -15.7261
# 4 2.9361 0.8354 -5.4207 42.4761 -5.6504 1.0820
# 5 -7.6637 11.3721 12.7079 -5.6504 27.2424 -0.6455
# 6 6.8774 -23.9081 -15.7261 1.0820 -0.6455 33.9816
#
#
#
# Elastic Compliance Matrix: (Units=1/GPa)
#
#
# Indices 1 2 3 4 5 6 
#
# 1 0.018333 -0.006039 -0.006726 -0.000335 0.010489 -0.010862
# 2 -0.006039 0.012972 -0.002912 -0.001208 -0.005794 0.008929
# 3 -0.006726 -0.002912 0.014049 0.001262 -0.006834 0.005644
# 4 -0.000335 -0.001208 0.001262 0.024420 0.004865 -0.000883
# 5 0.010489 -0.005794 -0.006834 0.004865 0.046069 -0.008642
# 6 -0.010862 0.008929 0.005644 -0.000883 -0.008642 0.040384
#
#
# Mechanical properties :
#
#
# Convention : Reuss Voigt Hill
#
# Bulk Modulus (GPa) = 71.43053 76.26286 73.84669
# Shear Modulus (GPa) = 26.00811 33.43082 29.71946
#
# Velocity S-wave (km/s) = 3.61031 4.09321 3.85932
# Velocity P-wave (km/s) = 7.29230 7.78199 7.54112
#
# Compressibility (1/GPa) = 0.01399962
#
# Stress axis : x y z
#
# Youngs Moduli (GPa) = 54.54683 77.08979 71.18079
#
# Poissons Ratio (x) = 0.46552 0.47877
# Poissons Ratio (y) = 0.32939 0.20729
# Poissons Ratio (z) = 0.36689 0.22450
#
# Static dielectric constant tensor:
#      x y z
#    x 1.713490 0.012950 0.028710 
#    y 0.012950 1.707480 -0.007670 
#    z 0.028710 -0.007670 1.715830 
# 
# From -- ./inp_files/77366.got.cif
#   From: 2010.05.17/outbox.cif.g08.bks.cpg/sg2_39_cif.got.tgz:77366.got - 2010.06.03 11:33:40.
