data_PCOD9031584
_publ_section_title
;
Structure prediction by ZEFSAII (Michael W. Deem and Ramdas Pophale) SiO2 
 PCOD9031584
Probable space group: P -1
;
_chemical_formula_sum "Si O2"
_cell_formula_units_Z 12
_cell_length_a 10.785464
_cell_length_b 15.992821
_cell_length_c 20.381887
_cell_angle_alpha 18.871184
_cell_angle_beta 32.965040
_cell_angle_gamma 44.255097
_cell_volume 555.229296
_symmetry_space_group_name_H-M "P -1"
_symmetry_group_IT_number 2
_symmetry_cell_setting 'triclinic'
loop_
_space_group_symop_operation_xyz
x,y,z
-x,-y,-z
loop_
_atom_site_type_symbol
_atom_site_label
_atom_site_fract_x
_atom_site_fract_y
_atom_site_fract_z
Si Si1 0.279340 0.435939 0.698456
Si Si2 0.548129 0.907896 0.866881
Si Si3 0.462853 0.453568 0.741231
Si Si4 0.015773 0.899122 0.140774
Si Si5 0.318645 0.323635 0.151420
Si Si6 0.074391 0.680662 0.766154
O O1 0.500000 0.500000 0.500000
O O2 0.359379 0.327591 0.809385
O O3 0.283284 0.748081 0.470635
O O4 0.039813 0.163435 0.979800
O O5 0.541915 0.749422 0.918369
O O6 0.635948 0.766806 0.991546
O O7 0.272208 0.861445 0.050013
O O8 0.342346 0.677915 0.634261
O O9 0.765227 0.620660 0.478455
O O10 0.000000 0.000000 0.000000
O O11 0.144608 0.449452 0.096436
O O12 0.131112 0.013678 0.495832
O O13 0.500000 0.500000 0.000000
O O14 0.000000 0.500000 0.000000
#
# Coordination Sequence:
#
# PCOD9031584 Si02
#       6
#     2   2   2   2   2   2
#     4  10  22  43  67  94 135 180 214 277 339 395
#     4  11  23  45  68 100 134 179 226 278 339 405
#     4  12  23  44  67  99 139 172 227 279 340 403
#     4  11  22  43  68  98 138 173 219 278 335 404
#     4  11  25  48  72  99 134 181 232 282 340 405
#     4  11  24  47  69  97 137 178 229 287 334 402
#
# _framework density 21.612691999999999
#
# number of rings (size 3 to 8) (size 9 to 14) (size 15 to 20)
#    0.000    1.000    6.667    0.500    0.000    6.000 
#    6.000    0.000    0.000    0.000    0.000    0.000 
#    0.000    0.000    0.000    0.000    0.000    0.000 
#
# Total GULP energy -66903.651020 kJ/mol
# GULP energy per Si atom -5575.304252 kJ/mol
# Density = 2.156350 g / cm^3
# Si number density = 21.612692 Si / 1000 Ang^3
#
#
#
# Elastic Constant Matrix: (Units=GPa)
#
#
# Indices 1 2 3 4 5 6 
#
# 1 186.5634 39.0287 82.1034 -19.8020 20.4295 21.4470
# 2 39.0287 95.3850 20.3731 2.6864 2.8423 -0.3007
# 3 82.1034 20.3731 95.6282 4.2510 18.4060 20.2926
# 4 -19.8020 2.6864 4.2510 27.7788 2.0955 -0.2168
# 5 20.4295 2.8423 18.4060 2.0955 51.2671 -1.6052
# 6 21.4470 -0.3007 20.2926 -0.2168 -1.6052 48.4866
#
#
#
# Elastic Compliance Matrix: (Units=1/GPa)
#
#
# Indices 1 2 3 4 5 6 
#
# 1 0.011239 -0.002933 -0.008886 0.009763 -0.001565 -0.001279
# 2 -0.002933 0.011828 -0.000338 -0.003232 0.000814 0.001525
# 3 -0.008886 -0.000338 0.020231 -0.009172 -0.003476 -0.004695
# 4 0.009763 -0.003232 -0.009172 0.044842 -0.002263 -0.000374
# 5 -0.001565 0.000814 -0.003476 -0.002263 0.021514 0.002854
# 6 -0.001279 0.001525 -0.004695 -0.000374 0.002854 0.023257
#
#
# Mechanical properties :
#
#
# Convention : Reuss Voigt Hill
#
# Bulk Modulus (GPa) = 52.67694 73.39853 63.03773
# Shear Modulus (GPa) = 30.57099 41.24460 35.90780
#
# Velocity S-wave (km/s) = 3.76505 4.37321 4.08048
# Velocity P-wave (km/s) = 6.58232 7.71586 7.17152
#
# Compressibility (1/GPa) = 0.01898364
#
# Stress axis : x y z
#
# Youngs Moduli (GPa) = 88.97692 84.54681 49.42796
#
# Poissons Ratio (x) = 0.24798 0.43921
# Poissons Ratio (y) = 0.26097 0.01672
# Poissons Ratio (z) = 0.79064 0.02860
#
# Static dielectric constant tensor:
#      x y z
#    x 1.859400 -0.042970 -0.051580 
#    y -0.042970 1.956130 0.011230 
#    z -0.051580 0.011230 1.830380 
# 
# From -- ./inp_files/335686.got.cif
#   From: 2010.05.17/outbox.cif.g08.bks.cpg/sg2_168_cif.got.tgz:335686.got - 2010.06.03 11:33:40.
