data_PCOD9031164
_publ_section_title
;
Structure prediction by ZEFSAII (Michael W. Deem and Ramdas Pophale) SiO2 
 PCOD9031164
Probable space group: P -1
;
_chemical_formula_sum "Si O2"
_cell_formula_units_Z 14
_cell_length_a 22.323000
_cell_length_b 4.970998
_cell_length_c 11.659145
_cell_angle_alpha 108.424359
_cell_angle_beta 143.701229
_cell_angle_gamma 93.703886
_cell_volume 597.790004
_symmetry_space_group_name_H-M "P -1"
_symmetry_group_IT_number 2
_symmetry_cell_setting 'triclinic'
loop_
_space_group_symop_operation_xyz
x,y,z
-x,-y,-z
loop_
_atom_site_type_symbol
_atom_site_label
_atom_site_fract_x
_atom_site_fract_y
_atom_site_fract_z
Si Si1 0.870850 0.259923 0.207536
Si Si2 0.289294 0.470620 0.069019
Si Si3 0.758865 0.626072 0.428212
Si Si4 0.765258 0.695128 0.795237
Si Si5 0.428762 0.505579 0.703535
Si Si6 0.584115 0.219085 0.917829
Si Si7 0.870620 0.411138 0.744834
O O1 0.817590 0.472330 0.112608
O O2 0.000000 0.500000 0.500000
O O3 0.770963 0.938192 0.090614
O O4 0.869460 0.047857 0.066179
O O5 0.318768 0.534121 0.257926
O O6 0.395127 0.712295 0.176277
O O7 0.636124 0.406272 0.287904
O O8 0.862756 0.603553 0.647496
O O9 0.793271 0.009859 0.539870
O O10 0.716854 0.470608 0.216805
O O11 0.683255 0.747509 0.589243
O O12 0.815827 0.515229 0.776470
O O13 0.495909 0.339025 0.832906
O O14 0.523392 0.839436 0.820140
O O15 0.000000 0.500000 0.000000
#
# Coordination Sequence:
#
# PCOD9031164 Si02
#       7
#     2   2   2   2   2   2   2
#     4  10  22  43  65  90 128 175 211 258 332 380
#     4  10  24  41  63  98 130 163 222 262 320 384
#     4  11  24  44  66  97 134 166 225 263 319 397
#     4   9  25  41  67  94 134 162 225 260 323 397
#     4  11  23  40  68  92 131 180 210 267 329 371
#     4  12  24  42  64  99 133 171 218 267 319 382
#     4  11  24  44  70  98 126 173 213 275 326 373
#
# _framework density 23.419595999999999
#
# number of rings (size 3 to 8) (size 9 to 14) (size 15 to 20)
#    0.857    0.571    0.000    5.143    6.000    2.286 
#    2.571    0.000    0.000    0.000    0.000    0.000 
#    0.000    0.000    0.000    0.000    0.000    0.000 
#
# Total GULP energy -78263.528273 kJ/mol
# GULP energy per Si atom -5590.252019 kJ/mol
# Density = 2.336629 g / cm^3
# Si number density = 23.419596 Si / 1000 Ang^3
#
#
#
# Elastic Constant Matrix: (Units=GPa)
#
#
# Indices 1 2 3 4 5 6 
#
# 1 55.4555 5.2569 11.7750 -2.7303 -11.0237 2.7410
# 2 5.2569 93.3226 22.2479 -13.9817 -13.1898 -11.8520
# 3 11.7750 22.2479 93.4390 -0.9261 -21.2889 -14.2921
# 4 -2.7303 -13.9817 -0.9261 41.6880 -2.0913 4.5519
# 5 -11.0237 -13.1898 -21.2889 -2.0913 27.2427 -2.3880
# 6 2.7410 -11.8520 -14.2921 4.5519 -2.3880 30.1257
#
#
#
# Elastic Compliance Matrix: (Units=1/GPa)
#
#
# Indices 1 2 3 4 5 6 
#
# 1 0.019891 0.000215 -0.001213 0.001929 0.007175 -0.002024
# 2 0.000215 0.013033 -0.000942 0.004189 0.006380 0.004534
# 3 -0.001213 -0.000942 0.014830 -0.000343 0.011293 0.007722
# 4 0.001929 0.004189 -0.000343 0.025977 0.004336 -0.002271
# 5 0.007175 0.006380 0.011293 0.004336 0.052799 0.010745
# 6 -0.002024 0.004534 0.007722 -0.002271 0.010745 0.040021
#
#
# Mechanical properties :
#
#
# Convention : Reuss Voigt Hill
#
# Bulk Modulus (GPa) = 22.79251 35.64184 29.21717
# Shear Modulus (GPa) = 27.01889 33.34044 30.17966
#
# Velocity S-wave (km/s) = 3.40028 3.77717 3.59367
# Velocity P-wave (km/s) = 5.01690 5.85445 5.45178
#
# Compressibility (1/GPa) = 0.04387407
#
# Stress axis : x y z
#
# Youngs Moduli (GPa) = 50.27383 76.72772 67.43091
#
# Poissons Ratio (x) = -0.01649 0.08182
# Poissons Ratio (y) = -0.01080 0.06349
# Poissons Ratio (z) = 0.06100 0.07225
#
# Static dielectric constant tensor:
#      x y z
#    x 1.920330 0.030970 0.009410 
#    y 0.030970 1.856990 0.021160 
#    z 0.009410 0.021160 1.878310 
# 
# From -- ./inp_files/473307.got.cif
#   From: 2010.05.17/outbox.cif.g08.bks.cpg/sg2_237_cif.got.tgz:473307.got - 2010.06.03 11:33:40.
