data_PCOD9031666
_publ_section_title
;
Structure prediction by ZEFSAII (Michael W. Deem and Ramdas Pophale) SiO2 
 PCOD9031666
Probable space group: P -1
;
_chemical_formula_sum "Si O2"
_cell_formula_units_Z 14
_cell_length_a 6.484478
_cell_length_b 20.977858
_cell_length_c 6.055160
_cell_angle_alpha 54.423028
_cell_angle_beta 79.392473
_cell_angle_gamma 63.413035
_cell_volume 595.785151
_symmetry_space_group_name_H-M "P -1"
_symmetry_group_IT_number 2
_symmetry_cell_setting 'triclinic'
loop_
_space_group_symop_operation_xyz
x,y,z
-x,-y,-z
loop_
_atom_site_type_symbol
_atom_site_label
_atom_site_fract_x
_atom_site_fract_y
_atom_site_fract_z
Si Si1 0.789640 0.081549 0.137814
Si Si2 0.239214 0.797414 0.724007
Si Si3 0.602041 0.806310 0.344276
Si Si4 0.164549 0.088120 0.727447
Si Si5 0.945509 0.317739 0.744866
Si Si6 0.904642 0.575880 0.180699
Si Si7 0.710732 0.479432 0.162303
O O1 0.784861 0.117338 0.309217
O O2 0.761082 0.993753 0.283618
O O3 0.578319 0.155085 0.897848
O O4 0.030110 0.069673 0.997114
O O5 0.484129 0.763837 0.619818
O O6 0.032208 0.830100 0.522012
O O7 0.190706 0.733940 0.024428
O O8 0.634079 0.886167 0.289105
O O9 0.853193 0.741911 0.339771
O O10 0.767700 0.402318 0.481029
O O11 0.083533 0.344108 0.854987
O O12 0.691658 0.562920 0.138047
O O13 0.000000 0.500000 0.500000
O O14 0.076811 0.554375 0.983446
O O15 0.500000 0.500000 0.000000
#
# Coordination Sequence:
#
# PCOD9031666 Si02
#       7
#     2   2   2   2   2   2   2
#     4  10  22  43  67  98 135 187 231 282 337 398
#     4  11  25  43  66 102 134 182 232 274 349 391
#     4  11  25  43  66 101 137 178 234 277 342 399
#     4  10  22  43  68  95 141 179 237 284 326 409
#     4  11  25  47  68  99 146 171 218 293 331 402
#     4   9  22  47  70 100 133 172 215 268 344 402
#     4  10  23  49  74 101 130 175 226 266 336 417
#
# _framework density 23.498401999999999
#
# number of rings (size 3 to 8) (size 9 to 14) (size 15 to 20)
#    0.000    1.714    1.429    0.857    4.000    2.857 
#   20.571    0.000    0.000    0.000    0.000    0.000 
#    0.000    0.000    0.000    0.000    0.000    0.000 
#
# Total GULP energy -78311.079164 kJ/mol
# GULP energy per Si atom -5593.648512 kJ/mol
# Density = 2.344492 g / cm^3
# Si number density = 23.498402 Si / 1000 Ang^3
#
#
#
# Elastic Constant Matrix: (Units=GPa)
#
#
# Indices 1 2 3 4 5 6 
#
# 1 107.4169 34.4207 37.4658 4.1146 5.1781 16.0554
# 2 34.4207 98.9799 26.4080 3.3878 -10.3005 19.5741
# 3 37.4658 26.4080 83.1732 3.9574 -13.5291 -2.9530
# 4 4.1146 3.3878 3.9574 27.6703 4.6554 6.3053
# 5 5.1781 -10.3005 -13.5291 4.6554 42.2723 13.4926
# 6 16.0554 19.5741 -2.9530 6.3053 13.4926 37.7210
#
#
#
# Elastic Compliance Matrix: (Units=1/GPa)
#
#
# Indices 1 2 3 4 5 6 
#
# 1 0.012710 -0.002551 -0.005532 0.000511 -0.002863 -0.003581
# 2 -0.002551 0.013920 -0.002672 0.000027 0.005501 -0.008319
# 3 -0.005532 -0.002672 0.016338 -0.002811 0.004304 0.003951
# 4 0.000511 0.000027 -0.002811 0.038318 -0.003372 -0.005651
# 5 -0.002863 0.005501 0.004304 -0.003372 0.030854 -0.011772
# 6 -0.003581 -0.008319 0.003951 -0.005651 -0.011772 0.037816
#
#
# Mechanical properties :
#
#
# Convention : Reuss Voigt Hill
#
# Bulk Modulus (GPa) = 46.60678 54.01765 50.31222
# Shear Modulus (GPa) = 27.99251 34.28440 31.13846
#
# Velocity S-wave (km/s) = 3.45520 3.82384 3.64418
# Velocity P-wave (km/s) = 5.98289 6.52176 6.25813
#
# Compressibility (1/GPa) = 0.02145611
#
# Stress axis : x y z
#
# Youngs Moduli (GPa) = 78.67608 71.83920 61.20772
#
# Poissons Ratio (x) = 0.18328 0.33863
# Poissons Ratio (y) = 0.20073 0.16356
# Poissons Ratio (z) = 0.43527 0.19197
#
# Static dielectric constant tensor:
#      x y z
#    x 1.928460 -0.003330 -0.001010 
#    y -0.003330 1.916280 -0.028770 
#    z -0.001010 -0.028770 1.877270 
# 
# From -- ./inp_files/6437.got.cif
#   From: 2010.05.17/outbox.cif.g08.bks.cpg/sg2_4_cif.got.tgz:6437.got - 2010.06.03 11:33:40.
