data_PCOD9031672
_publ_section_title
;
Structure prediction by ZEFSAII (Michael W. Deem and Ramdas Pophale) SiO2 
 PCOD9031672
Probable space group: P -1
;
_chemical_formula_sum "Si O2"
_cell_formula_units_Z 16
_cell_length_a 8.964986
_cell_length_b 5.417353
_cell_length_c 16.386426
_cell_angle_alpha 51.527434
_cell_angle_beta 85.194991
_cell_angle_gamma 83.586583
_cell_volume 619.057754
_symmetry_space_group_name_H-M "P -1"
_symmetry_group_IT_number 2
_symmetry_cell_setting 'triclinic'
loop_
_space_group_symop_operation_xyz
x,y,z
-x,-y,-z
loop_
_atom_site_type_symbol
_atom_site_label
_atom_site_fract_x
_atom_site_fract_y
_atom_site_fract_z
Si Si1 0.358905 0.313623 0.388598
Si Si2 0.141622 0.651696 0.427823
Si Si3 0.803576 0.675037 0.198172
Si Si4 0.851005 0.341308 0.071516
Si Si5 0.347037 0.181889 0.106933
Si Si6 0.491284 0.491650 0.185678
Si Si7 0.332457 0.606777 0.581974
Si Si8 0.055659 0.242266 0.223349
O O1 0.205413 0.525966 0.364428
O O2 0.414450 0.269273 0.302162
O O3 0.496255 0.495695 0.382693
O O4 0.334105 0.989497 0.504074
O O5 0.272406 0.556008 0.505455
O O6 0.000000 0.500000 0.500000
O O7 0.089882 0.016909 0.344343
O O8 0.666792 0.503268 0.196505
O O9 0.771842 0.558554 0.315388
O O10 0.977543 0.575281 0.188314
O O11 0.785339 0.038407 0.095577
O O12 0.917353 0.167255 0.186245
O O13 0.724329 0.623315 0.006356
O O14 0.000000 0.500000 0.000000
O O15 0.460032 0.355633 0.125547
O O16 0.203570 0.205344 0.169959
O O17 0.413471 0.841182 0.140974
#
# Coordination Sequence:
#
# PCOD9031672 Si02
#       8
#     2   2   2   2   2   2   2   2
#     4  10  22  43  67  98 141 189 234 291 358 428
#     4  12  23  38  66 101 140 181 239 290 354 428
#     4  11  26  45  70 103 147 185 244 305 363 430
#     4  10  26  46  71 102 143 187 242 301 374 427
#     4  11  26  47  77 104 143 193 248 297 368 433
#     4  11  26  47  75 111 145 192 241 306 361 431
#     4  10  23  42  66 100 137 189 238 291 360 425
#     4  11  25  43  69 102 141 193 237 300 360 438
#
# _framework density 25.845732000000002
#
# number of rings (size 3 to 8) (size 9 to 14) (size 15 to 20)
#    0.000    1.250    1.250    2.625    7.000    6.000 
#    4.500    0.000    0.000    0.000    0.000    0.000 
#    0.000    0.000    0.000    0.000    0.000    0.000 
#
# Total GULP energy -89276.716402 kJ/mol
# GULP energy per Si atom -5579.794775 kJ/mol
# Density = 2.578691 g / cm^3
# Si number density = 25.845732 Si / 1000 Ang^3
#
#
#
# Elastic Constant Matrix: (Units=GPa)
#
#
# Indices 1 2 3 4 5 6 
#
# 1 94.3426 19.6094 24.0754 -0.1668 -19.4763 -9.4761
# 2 19.6094 75.5814 26.9684 -7.5171 -5.5452 -5.4647
# 3 24.0754 26.9684 109.0967 4.0898 -7.4599 4.3098
# 4 -0.1668 -7.5171 4.0898 42.4200 11.9723 9.0254
# 5 -19.4763 -5.5452 -7.4599 11.9723 36.2317 6.4613
# 6 -9.4761 -5.4647 4.3098 9.0254 6.4613 44.3084
#
#
#
# Elastic Compliance Matrix: (Units=1/GPa)
#
#
# Indices 1 2 3 4 5 6 
#
# 1 0.013187 -0.002355 -0.001855 -0.002583 0.006800 0.002245
# 2 -0.002355 0.015426 -0.003515 0.003039 -0.000856 0.001246
# 3 -0.001855 -0.003515 0.010684 -0.001726 0.001546 -0.001743
# 4 -0.002583 0.003039 -0.001726 0.027929 -0.009745 -0.004278
# 5 0.006800 -0.000856 0.001546 -0.009745 0.035005 -0.001921
# 6 0.002245 0.001246 -0.001743 -0.004278 -0.001921 0.024524
#
#
# Mechanical properties :
#
#
# Convention : Reuss Voigt Hill
#
# Bulk Modulus (GPa) = 41.93548 46.70301 44.31924
# Shear Modulus (GPa) = 33.29913 38.48320 35.89116
#
# Velocity S-wave (km/s) = 3.59330 3.86289 3.73053
# Velocity P-wave (km/s) = 5.78586 6.16482 5.97835
#
# Compressibility (1/GPa) = 0.02384616
#
# Stress axis : x y z
#
# Youngs Moduli (GPa) = 75.83099 64.82685 93.60075
#
# Poissons Ratio (x) = 0.15269 0.17361
# Poissons Ratio (y) = 0.17861 0.32902
# Poissons Ratio (z) = 0.14065 0.22787
#
# Static dielectric constant tensor:
#      x y z
#    x 2.000930 0.017100 -0.015130 
#    y 0.017100 2.303180 0.086470 
#    z -0.015130 0.086470 2.092990 
# 
# From -- ./inp_files/135366.got.cif
#   From: 2010.05.17/outbox.cif.g08.bks.cpg/sg2_68_cif.got.tgz:135366.got - 2010.06.03 11:33:40.
