data_PCOD9031629
_publ_section_title
;
Structure prediction by ZEFSAII (Michael W. Deem and Ramdas Pophale) SiO2 
 PCOD9031629
Probable space group: P -1
;
_chemical_formula_sum "Si O2"
_cell_formula_units_Z 14
_cell_length_a 5.747079
_cell_length_b 20.728591
_cell_length_c 8.083880
_cell_angle_alpha 58.068813
_cell_angle_beta 37.565331
_cell_angle_gamma 61.019081
_cell_volume 494.299407
_symmetry_space_group_name_H-M "P -1"
_symmetry_group_IT_number 2
_symmetry_cell_setting 'triclinic'
loop_
_space_group_symop_operation_xyz
x,y,z
-x,-y,-z
loop_
_atom_site_type_symbol
_atom_site_label
_atom_site_fract_x
_atom_site_fract_y
_atom_site_fract_z
Si Si1 0.201294 0.932073 0.863899
Si Si2 0.478713 0.237012 0.122889
Si Si3 0.460367 0.618738 0.282355
Si Si4 0.450672 0.337748 0.307917
Si Si5 0.891573 0.899514 0.743139
Si Si6 0.547219 0.523923 0.697770
Si Si7 0.358921 0.799591 0.376926
O O1 0.633543 0.935218 0.686978
O O2 0.008712 0.945796 0.772695
O O3 0.220839 0.837919 0.982178
O O4 0.000000 0.000000 0.000000
O O5 0.611472 0.287883 0.128726
O O6 0.070179 0.208869 0.437497
O O7 0.390090 0.300167 0.942482
O O8 0.519957 0.575321 0.479162
O O9 0.615909 0.555513 0.141488
O O10 0.001947 0.639880 0.495400
O O11 0.614256 0.417648 0.146236
O O12 0.493637 0.281648 0.516873
O O13 0.627645 0.838584 0.049090
O O14 0.275961 0.857734 0.500289
O O15 0.000000 0.500000 0.500000
#
# Coordination Sequence:
#
# PCOD9031629 Si02
#       7
#     2   2   2   2   2   2   2
#     4  11  25  50  77 113 155 201 253 316 379 452
#     4  11  25  41  69 102 138 194 245 306 373 453
#     4  10  22  43  67  96 142 184 242 302 377 445
#     4  11  22  39  67  98 141 182 246 300 373 442
#     4  11  26  48  77 109 156 201 256 310 384 450
#     4   9  21  40  66  99 139 184 237 307 372 449
#     4  11  26  43  73 110 147 198 253 309 373 456
#
# _framework density 28.322917
#
# number of rings (size 3 to 8) (size 9 to 14) (size 15 to 20)
#    0.000    1.429    1.429    2.143   10.000    1.714 
#    0.000   20.000    0.000    0.000    0.000    0.000 
#    0.000    0.000    0.000    0.000    0.000    0.000 
#
# Total GULP energy -78374.969718 kJ/mol
# GULP energy per Si atom -5598.212123 kJ/mol
# Density = 2.825845 g / cm^3
# Si number density = 28.322917 Si / 1000 Ang^3
#
#
#
# Elastic Constant Matrix: (Units=GPa)
#
#
# Indices 1 2 3 4 5 6 
#
# 1 -18.6866 -95.3550 -40.4530 29.0505 -155.0400 134.3347
# 2 -95.3550 131.8251 5.9073 20.8109 -123.0419 135.9538
# 3 -40.4530 5.9073 99.2463 -18.0037 -48.0232 31.4178
# 4 29.0505 20.8109 -18.0037 39.3999 22.6990 -15.1834
# 5 -155.0400 -123.0419 -48.0232 22.6990 -91.3534 109.4244
# 6 134.3347 135.9538 31.4178 -15.1834 109.4244 3.6316
#
#
#
# Elastic Compliance Matrix: (Units=1/GPa)
#
#
# Indices 1 2 3 4 5 6 
#
# 1 0.005424 -0.001925 -0.000303 0.000031 -0.004237 0.001844
# 2 -0.001925 0.004588 -0.002297 -0.000745 -0.002757 -0.000724
# 3 -0.000303 -0.002297 0.011293 0.006600 0.000857 0.001290
# 4 0.000031 -0.000745 0.006600 0.026743 0.002741 -0.001156
# 5 -0.004237 -0.002757 0.000857 0.002741 0.008530 0.006964
# 6 0.001844 -0.000724 0.001290 -0.001156 0.006964 0.008419
#
#
# Mechanical properties :
#
#
# Convention : Reuss Voigt Hill
#
# Bulk Modulus (GPa) = 81.60507 -5.26851 38.16828
# Shear Modulus (GPa) = 63.99485 13.15465 38.57475
#
# Velocity S-wave (km/s) = 4.75855 2.15745 3.69448
# Velocity P-wave (km/s) = 7.68548 2.08373 5.63066
#
# Compressibility (1/GPa) = 0.01225414
#
# Stress axis : x y z
#
# Youngs Moduli (GPa) = 184.36487 217.98215 88.55064
#
# Poissons Ratio (x) = 0.41953 0.02685
# Poissons Ratio (y) = 0.35483 0.20344
# Poissons Ratio (z) = 0.05590 0.50079
#
# Static dielectric constant tensor:
#      x y z
#    x 2.288030 0.054900 0.031120 
#    y 0.054900 2.235250 0.004300 
#    z 0.031120 0.004300 2.163410 
# 
# From -- ./inp_files/12643.got.cif
#   From: 2010.05.17/outbox.cif.g08.bks.cpg/sg2_7_cif.got.tgz:12643.got - 2010.06.03 11:33:40.
