data_PCOD9031923
_publ_section_title
;
Structure prediction by ZEFSAII (Michael W. Deem and Ramdas Pophale) SiO2 
 PCOD9031923
Probable space group: P -1
;
_chemical_formula_sum "Si O2"
_cell_formula_units_Z 16
_cell_length_a 9.370856
_cell_length_b 9.119576
_cell_length_c 13.280929
_cell_angle_alpha 89.145035
_cell_angle_beta 96.723921
_cell_angle_gamma 40.127303
_cell_volume 716.702637
_symmetry_space_group_name_H-M "P -1"
_symmetry_group_IT_number 2
_symmetry_cell_setting 'triclinic'
loop_
_space_group_symop_operation_xyz
x,y,z
-x,-y,-z
loop_
_atom_site_type_symbol
_atom_site_label
_atom_site_fract_x
_atom_site_fract_y
_atom_site_fract_z
Si Si1 0.143818 0.741232 0.435718
Si Si2 0.428352 0.371988 0.826761
Si Si3 0.918773 0.407578 0.034293
Si Si4 0.407185 0.290678 0.340222
Si Si5 0.711428 0.922538 0.757386
Si Si6 0.092401 0.844580 0.105255
Si Si7 0.221606 0.826797 0.740910
Si Si8 0.754993 0.024300 0.540165
O O1 0.238778 0.538455 0.376513
O O2 0.302505 0.754864 0.473791
O O3 0.953222 0.984016 0.359120
O O4 0.001941 0.792965 0.517417
O O5 0.481855 0.177065 0.778363
O O6 0.666973 0.271428 0.849602
O O7 0.269685 0.616360 0.756652
O O8 0.315078 0.423468 0.924103
O O9 0.106037 0.208362 0.135401
O O10 0.000000 0.500000 0.000000
O O11 0.891849 0.331764 0.932657
O O12 0.552476 0.266867 0.271166
O O13 0.571415 0.103813 0.446035
O O14 0.301362 0.235637 0.276023
O O15 0.748605 0.980419 0.655362
O O16 0.902807 0.018536 0.171433
O O17 0.000000 0.000000 0.000000
#
# Coordination Sequence:
#
# PCOD9031923 Si02
#       8
#     2   2   2   2   2   2   2   2
#     4  10  22  43  71 102 136 178 237 284 338 414
#     4  12  25  47  73  99 139 186 234 281 344 410
#     4  12  30  45  70 103 142 184 228 290 350 407
#     4  11  25  41  70 105 141 184 224 288 351 409
#     4  12  27  45  66 104 144 182 229 287 352 412
#     4  12  24  46  71 102 134 182 240 285 339 410
#     4  11  24  42  73 103 136 183 233 289 336 409
#     4  10  22  43  68  99 136 183 234 281 342 415
#
# _framework density 22.324460999999999
#
# number of rings (size 3 to 8) (size 9 to 14) (size 15 to 20)
#    0.000    0.750    2.500    4.125    5.250    5.000 
#    0.000    0.000    0.000    0.000    0.000    0.000 
#    0.000    0.000    0.000    0.000    0.000    0.000 
#
# Total GULP energy -89359.967066 kJ/mol
# GULP energy per Si atom -5584.997942 kJ/mol
# Density = 2.227365 g / cm^3
# Si number density = 22.324461 Si / 1000 Ang^3
#
#
#
# Elastic Constant Matrix: (Units=GPa)
#
#
# Indices 1 2 3 4 5 6 
#
# 1 63.1016 60.8130 3.6953 9.3326 1.0910 16.6149
# 2 60.8130 154.9273 46.1590 41.9523 -7.7110 3.2555
# 3 3.6953 46.1590 94.2890 7.2114 -7.0226 -8.9120
# 4 9.3326 41.9523 7.2114 43.5239 0.8810 1.7997
# 5 1.0910 -7.7110 -7.0226 0.8810 45.4817 9.5629
# 6 16.6149 3.2555 -8.9120 1.7997 9.5629 27.5022
#
#
#
# Elastic Compliance Matrix: (Units=1/GPa)
#
#
# Indices 1 2 3 4 5 6 
#
# 1 0.036379 -0.017808 0.004818 0.009344 0.000700 -0.019163
# 2 -0.017808 0.019178 -0.006895 -0.013830 0.001485 0.006643
# 3 0.004818 -0.006895 0.013762 0.003241 0.000351 0.002031
# 4 0.009344 -0.013830 0.003241 0.033990 -0.001766 -0.004568
# 5 0.000700 0.001485 0.000351 -0.001766 0.024154 -0.008768
# 6 -0.019163 0.006643 0.002031 -0.004568 -0.008768 0.051157
#
#
# Mechanical properties :
#
#
# Convention : Reuss Voigt Hill
#
# Bulk Modulus (GPa) = 33.83970 59.29473 46.56722
# Shear Modulus (GPa) = 21.90675 36.74493 29.32584
#
# Velocity S-wave (km/s) = 3.13595 4.06143 3.62832
# Velocity P-wave (km/s) = 5.32008 6.97221 6.20141
#
# Compressibility (1/GPa) = 0.02955109
#
# Stress axis : x y z
#
# Youngs Moduli (GPa) = 27.48813 52.14242 72.66259
#
# Poissons Ratio (x) = 0.92857 -0.35012
# Poissons Ratio (y) = 0.48952 0.50098
# Poissons Ratio (z) = -0.13245 0.35950
#
# Static dielectric constant tensor:
#      x y z
#    x 1.942050 -0.084130 -0.061410 
#    y -0.084130 2.268900 0.496870 
#    z -0.061410 0.496870 2.466210 
# 
# From -- ./inp_files/494888.got.cif
#   From: 2010.05.17/outbox.cif.g08.bks.cpg/sg2_248_cif.got.tgz:494888.got - 2010.06.03 11:33:40.
