data_PCOD9031332
_publ_section_title
;
Structure prediction by ZEFSAII (Michael W. Deem and Ramdas Pophale) SiO2 
 PCOD9031332
Probable space group: P -1
;
_chemical_formula_sum "Si O2"
_cell_formula_units_Z 14
_cell_length_a 9.622463
_cell_length_b 14.524561
_cell_length_c 12.600401
_cell_angle_alpha 30.989346
_cell_angle_beta 51.286247
_cell_angle_gamma 67.993194
_cell_volume 647.867152
_symmetry_space_group_name_H-M "P -1"
_symmetry_group_IT_number 2
_symmetry_cell_setting 'triclinic'
loop_
_space_group_symop_operation_xyz
x,y,z
-x,-y,-z
loop_
_atom_site_type_symbol
_atom_site_label
_atom_site_fract_x
_atom_site_fract_y
_atom_site_fract_z
Si Si1 0.370626 0.866344 0.100991
Si Si2 0.397948 0.353724 0.887718
Si Si3 0.447293 0.728736 0.893554
Si Si4 0.352600 0.202501 0.671943
Si Si5 0.706682 0.924415 0.395166
Si Si6 0.099449 0.225999 0.969972
Si Si7 0.980137 0.537849 0.598506
O O1 0.443973 0.699635 0.200488
O O2 0.138296 0.754576 0.334313
O O3 0.500000 0.000000 0.000000
O O4 0.418725 0.026153 0.828716
O O5 0.406961 0.269287 0.083255
O O6 0.475306 0.586469 0.627649
O O7 0.209461 0.272039 0.983922
O O8 0.449376 0.248259 0.291803
O O9 0.248699 0.537516 0.194798
O O10 0.381301 0.911602 0.746063
O O11 0.238726 0.149051 0.668631
O O12 0.232433 0.200467 0.836817
O O13 0.900823 0.035939 0.258692
O O14 0.045102 0.399208 0.779444
O O15 0.000000 0.500000 0.500000
#
# Coordination Sequence:
#
# PCOD9031332 Si02
#       7
#     2   2   2   2   2   2   2
#     4  12  22  38  64  97 129 163 201 260 322 367
#     4  12  23  41  63  96 132 161 204 268 312 368
#     4  10  22  43  66  88 131 168 212 254 316 368
#     4  12  22  38  67  95 125 160 215 256 311 370
#     4  10  23  41  66  92 124 172 213 255 306 383
#     4  11  22  38  64  98 127 160 211 263 312 367
#     4  11  20  40  66  91 126 168 207 260 311 366
#
# _framework density 21.609369999999998
#
# number of rings (size 3 to 8) (size 9 to 14) (size 15 to 20)
#    0.000    0.857    5.714    2.571    0.000    2.286 
#    0.000    0.000    3.143    3.429    0.000    0.000 
#    0.000    0.000    0.000    0.000    0.000    0.000 
#
# Total GULP energy -78163.595715 kJ/mol
# GULP energy per Si atom -5583.113980 kJ/mol
# Density = 2.156019 g / cm^3
# Si number density = 21.609370 Si / 1000 Ang^3
#
#
#
# Elastic Constant Matrix: (Units=GPa)
#
#
# Indices 1 2 3 4 5 6 
#
# 1 152.3742 21.4091 61.2707 6.2358 -24.6617 -9.7064
# 2 21.4091 29.7797 15.0112 -2.7086 -0.0572 0.0920
# 3 61.2707 15.0112 135.4082 -5.4798 -13.5671 3.1276
# 4 6.2358 -2.7086 -5.4798 14.5741 2.2428 2.2101
# 5 -24.6617 -0.0572 -13.5671 2.2428 34.0586 -3.9369
# 6 -9.7064 0.0920 3.1276 2.2101 -3.9369 24.5128
#
#
#
# Elastic Compliance Matrix: (Units=1/GPa)
#
#
# Indices 1 2 3 4 5 6 
#
# 1 0.011408 -0.007037 -0.004147 -0.010100 0.008104 0.007285
# 2 -0.007037 0.040421 -0.001400 0.011812 -0.006933 -0.004938
# 3 -0.004147 -0.001400 0.009735 0.005669 0.000110 -0.003372
# 4 -0.010100 0.011812 0.005669 0.081237 -0.012005 -0.014019
# 5 0.008104 -0.006933 0.000110 -0.012005 0.037240 0.010284
# 6 0.007285 -0.004938 -0.003372 -0.014019 0.010284 0.047044
#
#
# Mechanical properties :
#
#
# Convention : Reuss Voigt Hill
#
# Bulk Modulus (GPa) = 27.47462 56.99379 42.23421
# Shear Modulus (GPa) = 18.91193 29.28717 24.09955
#
# Velocity S-wave (km/s) = 2.96154 3.68543 3.34314
# Velocity P-wave (km/s) = 4.94329 6.67396 5.87273
#
# Compressibility (1/GPa) = 0.03639723
#
# Stress axis : x y z
#
# Youngs Moduli (GPa) = 87.65800 24.73991 102.72240
#
# Poissons Ratio (x) = 0.17408 0.42598
# Poissons Ratio (y) = 0.61681 0.14377
# Poissons Ratio (z) = 0.36351 0.03463
#
# Static dielectric constant tensor:
#      x y z
#    x 1.846800 -0.039840 0.011000 
#    y -0.039840 1.828480 -0.036920 
#    z 0.011000 -0.036920 1.771730 
# 
# From -- ./inp_files/338425.got.cif
#   From: 2010.05.17/outbox.cif.g08.bks.cpg/sg2_170_cif.got.tgz:338425.got - 2010.06.03 11:33:40.
