data_PCOD9031932
_publ_section_title
;
Structure prediction by ZEFSAII (Michael W. Deem and Ramdas Pophale) SiO2 
 PCOD9031932
Probable space group: P -1
;
_chemical_formula_sum "Si O2"
_cell_formula_units_Z 15
_cell_length_a 9.239876
_cell_length_b 12.443117
_cell_length_c 7.908974
_cell_angle_alpha 55.350278
_cell_angle_beta 106.368430
_cell_angle_gamma 75.740095
_cell_volume 615.195409
_symmetry_space_group_name_H-M "P -1"
_symmetry_group_IT_number 2
_symmetry_cell_setting 'triclinic'
loop_
_space_group_symop_operation_xyz
x,y,z
-x,-y,-z
loop_
_atom_site_type_symbol
_atom_site_label
_atom_site_fract_x
_atom_site_fract_y
_atom_site_fract_z
Si Si1 0.351440 0.711845 0.441931
Si Si2 0.000000 0.500000 0.500000
Si Si3 0.619171 0.414728 0.958602
Si Si4 0.031381 0.109112 0.785376
Si Si5 0.851171 0.524124 0.056266
Si Si6 0.438742 0.151951 0.456105
Si Si7 0.332532 0.856909 0.949331
Si Si8 0.306820 0.206246 0.747622
O O1 0.510028 0.539650 0.667047
O O2 0.402409 0.823669 0.455136
O O3 0.328674 0.763083 0.194986
O O4 0.163866 0.746949 0.419025
O O5 0.915621 0.499745 0.289547
O O6 0.798061 0.613681 0.413759
O O7 0.637433 0.253291 0.093347
O O8 0.500000 0.500000 0.000000
O O9 0.797042 0.408395 0.066025
O O10 0.171817 0.161455 0.831633
O O11 0.139601 0.006670 0.752525
O O12 0.000000 0.000000 0.000000
O O13 0.692224 0.698158 0.827421
O O14 0.000000 0.500000 0.000000
O O15 0.339674 0.170580 0.588855
O O16 0.500000 0.000000 0.500000
O O17 0.502550 0.870010 0.031945
#
# Coordination Sequence:
#
# PCOD9031932 Si02
#       8
#     2   1   2   2   2   2   2   2
#     4   9  22  41  65  97 141 188 244 292 369 438
#     4  12  26  44  78 114 148 196 250 314 370 448
#     4  11  24  41  65  97 143 185 241 299 361 437
#     4  10  23  42  66 108 147 185 244 307 371 454
#     4  11  25  46  70 111 152 196 256 304 376 446
#     4  10  23  46  73 104 153 201 247 319 375 451
#     4  10  22  43  68  99 139 193 237 299 370 432
#     4  11  24  42  74 107 148 194 258 299 382 446
#
# _framework density 24.382496
#
# number of rings (size 3 to 8) (size 9 to 14) (size 15 to 20)
#    0.000    1.600    1.333    1.600    3.733    9.600 
#    0.000    1.333    0.000    0.000    0.000    0.000 
#    0.000    0.000    0.000    0.000    0.000    0.000 
#
# Total GULP energy -83530.160759 kJ/mol
# GULP energy per Si atom -5568.677384 kJ/mol
# Density = 2.432700 g / cm^3
# Si number density = 24.382496 Si / 1000 Ang^3
#
#
#
# Elastic Constant Matrix: (Units=GPa)
#
#
# Indices 1 2 3 4 5 6 
#
# 1 182.9906 43.1960 17.8083 11.6740 11.5786 3.9343
# 2 43.1960 138.4211 4.6953 6.5496 8.5596 -12.3715
# 3 17.8083 4.6953 76.8089 11.0055 5.8830 0.5106
# 4 11.6740 6.5496 11.0055 19.9042 -1.6017 -3.2573
# 5 11.5786 8.5596 5.8830 -1.6017 29.6953 -2.7592
# 6 3.9343 -12.3715 0.5106 -3.2573 -2.7592 34.9256
#
#
#
# Elastic Compliance Matrix: (Units=1/GPa)
#
#
# Indices 1 2 3 4 5 6 
#
# 1 0.006347 -0.001835 -0.000726 -0.003187 -0.002143 -0.001821
# 2 -0.001835 0.008204 0.000220 -0.001398 -0.001502 0.002861
# 3 -0.000726 0.000220 0.014595 -0.008149 -0.003210 -0.001067
# 4 -0.003187 -0.001398 -0.008149 0.058620 0.006980 0.006002
# 5 -0.002143 -0.001502 -0.003210 0.006980 0.036260 0.003272
# 6 -0.001821 0.002861 -0.001067 0.006002 0.003272 0.030685
#
#
# Mechanical properties :
#
#
# Convention : Reuss Voigt Hill
#
# Bulk Modulus (GPa) = 40.87772 58.84663 49.86218
# Shear Modulus (GPa) = 29.84216 39.07309 34.45762
#
# Velocity S-wave (km/s) = 3.50225 4.00747 3.76335
# Velocity P-wave (km/s) = 5.75812 6.75280 6.27520
#
# Compressibility (1/GPa) = 0.02446320
#
# Stress axis : x y z
#
# Youngs Moduli (GPa) = 157.56015 121.88675 68.51700
#
# Poissons Ratio (x) = 0.22371 0.04977
# Poissons Ratio (y) = 0.28918 -0.01510
# Poissons Ratio (z) = 0.11445 -0.02686
#
# Static dielectric constant tensor:
#      x y z
#    x 1.936580 0.028990 -0.062940 
#    y 0.028990 2.041810 -0.083830 
#    z -0.062940 -0.083830 2.094040 
# 
# From -- ./inp_files/175456.got.cif
#   From: 2010.05.17/outbox.cif.g08.bks.cpg/sg2_88_cif.got.tgz:175456.got - 2010.06.03 11:33:40.
