data_PCOD9031572
_publ_section_title
;
Structure prediction by ZEFSAII (Michael W. Deem and Ramdas Pophale) SiO2 
 PCOD9031572
Probable space group: P -1
;
_chemical_formula_sum "Si O2"
_cell_formula_units_Z 16
_cell_length_a 21.466845
_cell_length_b 12.478013
_cell_length_c 18.428852
_cell_angle_alpha 147.375006
_cell_angle_beta 19.704268
_cell_angle_gamma 147.935280
_cell_volume 855.982605
_symmetry_space_group_name_H-M "P -1"
_symmetry_group_IT_number 2
_symmetry_cell_setting 'triclinic'
loop_
_space_group_symop_operation_xyz
x,y,z
-x,-y,-z
loop_
_atom_site_type_symbol
_atom_site_label
_atom_site_fract_x
_atom_site_fract_y
_atom_site_fract_z
Si Si1 0.560847 0.101840 0.327676
Si Si2 0.951073 0.082617 0.820279
Si Si3 0.570018 0.203693 0.090060
Si Si4 0.977464 0.184712 0.681029
Si Si5 0.615879 0.741593 0.523474
Si Si6 0.388939 0.524830 0.404510
Si Si7 0.164666 0.399376 0.288560
Si Si8 0.458373 0.627139 0.218813
O O1 0.428889 0.129247 0.420994
O O2 0.564692 0.269608 0.480560
O O3 0.495760 0.869530 0.297785
O O4 0.775336 0.143722 0.083896
O O5 0.940017 0.101378 0.756539
O O6 0.157705 0.229045 0.702508
O O7 0.929590 0.845886 0.732429
O O8 0.451464 0.181592 0.283029
O O9 0.529702 0.392707 0.199223
O O10 0.792463 0.245332 0.890550
O O11 0.500000 0.000000 0.000000
O O12 0.172780 0.375689 0.572377
O O13 0.000000 0.000000 0.500000
O O14 0.500000 0.500000 0.500000
O O15 0.413214 0.577910 0.323819
O O16 0.277931 0.500957 0.295175
O O17 0.000000 0.500000 0.500000
O O18 0.344645 0.426181 0.050575
#
# Coordination Sequence:
#
# PCOD9031572 Si02
#       8
#     2   2   2   2   2   2   2   2
#     4  11  24  42  66  92 130 173 221 269 318 389
#     4  11  23  39  65  94 125 168 220 269 320 387
#     4  12  25  40  63  95 130 169 211 270 327 383
#     4  12  23  40  61  94 127 165 210 267 332 382
#     4  12  23  41  65  96 131 170 219 269 325 390
#     4  12  25  42  63  94 134 172 212 267 329 391
#     4  10  22  43  67  94 124 168 218 271 323 379
#     4  10  24  42  66  95 127 171 217 264 324 390
#
# _framework density 18.691969
#
# number of rings (size 3 to 8) (size 9 to 14) (size 15 to 20)
#    0.000    0.750    5.000    1.875    1.750    5.000 
#    0.000    0.000    0.000    6.000    0.000    0.000 
#    0.000    0.000    0.000    0.000    0.000    0.000 
#
# Total GULP energy -89489.127752 kJ/mol
# GULP energy per Si atom -5593.070485 kJ/mol
# Density = 1.864943 g / cm^3
# Si number density = 18.691969 Si / 1000 Ang^3
#
#
#
# Elastic Constant Matrix: (Units=GPa)
#
#
# Indices 1 2 3 4 5 6 
#
# 1 133.5778 27.8532 55.8358 4.9692 5.0907 -11.5190
# 2 27.8532 47.9920 18.5289 0.3511 0.3311 9.0160
# 3 55.8358 18.5289 77.6037 6.7990 -12.4407 -5.0034
# 4 4.9692 0.3511 6.7990 30.2711 6.6636 1.1210
# 5 5.0907 0.3311 -12.4407 6.6636 50.5975 -2.0135
# 6 -11.5190 9.0160 -5.0034 1.1210 -2.0135 36.7311
#
#
#
# Elastic Compliance Matrix: (Units=1/GPa)
#
#
# Indices 1 2 3 4 5 6 
#
# 1 0.012211 -0.004700 -0.007945 0.000368 -0.003052 0.003722
# 2 -0.004700 0.026710 -0.003930 0.001946 -0.001271 -0.008695
# 3 -0.007945 -0.003930 0.021181 -0.004966 0.006762 0.001881
# 4 0.000368 0.001946 -0.004966 0.035488 -0.006042 -0.002453
# 5 -0.003052 -0.001271 0.006762 -0.006042 0.022605 0.001699
# 6 0.003722 -0.008695 0.001881 -0.002453 0.001699 0.030951
#
#
# Mechanical properties :
#
#
# Convention : Reuss Voigt Hill
#
# Bulk Modulus (GPa) = 37.10448 51.51215 44.30831
# Shear Modulus (GPa) = 26.13954 33.98363 30.06159
#
# Velocity S-wave (km/s) = 3.74363 4.26853 4.01467
# Velocity P-wave (km/s) = 6.21127 7.20500 6.72651
#
# Compressibility (1/GPa) = 0.02695092
#
# Stress axis : x y z
#
# Youngs Moduli (GPa) = 81.89317 37.43896 47.21183
#
# Poissons Ratio (x) = 0.17598 0.37510
# Poissons Ratio (y) = 0.38493 0.18555
# Poissons Ratio (z) = 0.65064 0.14714
#
# Static dielectric constant tensor:
#      x y z
#    x 1.611550 0.002700 0.008330 
#    y 0.002700 1.624350 0.003620 
#    z 0.008330 0.003620 1.648920 
# 
# From -- ./inp_files/282848.got.cif
#   From: 2010.05.17/outbox.cif.g08.bks.cpg/sg2_142_cif.got.tgz:282848.got - 2010.06.03 11:33:40.
