data_PCOD9031467
_publ_section_title
;
Structure prediction by ZEFSAII (Michael W. Deem and Ramdas Pophale) SiO2 
 PCOD9031467
Probable space group: P -1
;
_chemical_formula_sum "Si O2"
_cell_formula_units_Z 14
_cell_length_a 11.814741
_cell_length_b 8.906442
_cell_length_c 8.120908
_cell_angle_alpha 51.340396
_cell_angle_beta 73.250410
_cell_angle_gamma 55.208552
_cell_volume 544.885828
_symmetry_space_group_name_H-M "P -1"
_symmetry_group_IT_number 2
_symmetry_cell_setting 'triclinic'
loop_
_space_group_symop_operation_xyz
x,y,z
-x,-y,-z
loop_
_atom_site_type_symbol
_atom_site_label
_atom_site_fract_x
_atom_site_fract_y
_atom_site_fract_z
Si Si1 0.618662 0.362756 0.910785
Si Si2 0.368393 0.226234 0.482032
Si Si3 0.862788 0.603588 0.095394
Si Si4 0.148420 0.139643 0.748843
Si Si5 0.485293 0.808086 0.233453
Si Si6 0.212462 0.005892 0.345148
Si Si7 0.053988 0.805285 0.446757
O O1 0.665213 0.539817 0.737441
O O2 0.547226 0.310517 0.822321
O O3 0.500000 0.500000 0.000000
O O4 0.748145 0.127111 0.082391
O O5 0.236943 0.199724 0.547935
O O6 0.392385 0.257449 0.642848
O O7 0.500000 0.000000 0.500000
O O8 0.868895 0.733326 0.161367
O O9 0.860251 0.394254 0.319702
O O10 0.765502 0.796781 0.873243
O O11 0.000000 0.500000 0.000000
O O12 0.995166 0.236078 0.676743
O O13 0.372701 0.820371 0.408361
O O14 0.500000 0.000000 0.000000
O O15 0.100797 0.056306 0.499236
O O16 0.137735 0.928547 0.297650
#
# Coordination Sequence:
#
# PCOD9031467 Si02
#       7
#     2   2   2   2   2   2   2
#     4  12  26  46  70 108 145 192 242 298 367 436
#     4  12  25  46  73 106 142 187 246 298 369 434
#     4  10  22  43  66  98 135 182 239 291 350 422
#     4  12  24  45  69 100 149 180 243 295 364 429
#     4  12  23  47  73 102 147 192 241 303 357 433
#     4  10  22  44  67  98 139 178 240 289 355 427
#     4  10  24  42  70 100 136 186 234 292 357 426
#
# _framework density 25.693453999999999
#
# number of rings (size 3 to 8) (size 9 to 14) (size 15 to 20)
#    0.000    0.857    4.286    1.714    2.000    1.714 
#    2.571    4.286    0.000    0.000    0.000    0.000 
#    0.000    0.000    0.000    0.000    0.000    0.000 
#
# Total GULP energy -78019.038926 kJ/mol
# GULP energy per Si atom -5572.788495 kJ/mol
# Density = 2.563497 g / cm^3
# Si number density = 25.693454 Si / 1000 Ang^3
#
#
#
# Elastic Constant Matrix: (Units=GPa)
#
#
# Indices 1 2 3 4 5 6 
#
# 1 119.2602 21.9803 15.3007 -6.3785 -26.8777 -1.7979
# 2 21.9803 99.0300 33.6882 -3.6639 -26.9851 -1.8672
# 3 15.3007 33.6882 128.7882 -33.3827 -22.6258 -2.1212
# 4 -6.3785 -3.6639 -33.3827 43.0133 5.8465 -14.8721
# 5 -26.8777 -26.9851 -22.6258 5.8465 30.8922 6.2338
# 6 -1.7979 -1.8672 -2.1212 -14.8721 6.2338 27.8014
#
#
#
# Elastic Compliance Matrix: (Units=1/GPa)
#
#
# Indices 1 2 3 4 5 6 
#
# 1 0.010509 0.000197 0.000432 0.000055 0.009919 -0.001469
# 2 0.000197 0.014006 -0.002638 -0.003838 0.012006 -0.003993
# 3 0.000432 -0.002638 0.011844 0.010443 0.003655 0.005521
# 4 0.000055 -0.003838 0.010443 0.040444 -0.008154 0.024006
# 5 0.009919 0.012006 0.003655 -0.008154 0.058905 -0.015843
# 6 -0.001469 -0.003993 0.005521 0.024006 -0.015843 0.052422
#
#
# Mechanical properties :
#
#
# Convention : Reuss Voigt Hill
#
# Bulk Modulus (GPa) = 30.91987 54.33521 42.62754
# Shear Modulus (GPa) = 24.63937 38.74866 31.69402
#
# Velocity S-wave (km/s) = 3.10009 3.88766 3.51600
# Velocity P-wave (km/s) = 4.98742 6.43003 5.75411
#
# Compressibility (1/GPa) = 0.03234166
#
# Stress axis : x y z
#
# Youngs Moduli (GPa) = 95.15320 71.39830 84.43403
#
# Poissons Ratio (x) = -0.01410 -0.03651
# Poissons Ratio (y) = -0.01879 0.22277
# Poissons Ratio (z) = -0.04114 0.18838
#
# Static dielectric constant tensor:
#      x y z
#    x 2.006550 0.178140 0.180990 
#    y 0.178140 1.852230 -0.172710 
#    z 0.180990 -0.172710 2.128750 
# 
# From -- ./inp_files/241935.got.cif
#   From: 2010.05.17/outbox.cif.g08.bks.cpg/sg2_121_cif.got.tgz:241935.got - 2010.06.03 11:33:40.
