data_PCOD9031619
_publ_section_title
;
Structure prediction by ZEFSAII (Michael W. Deem and Ramdas Pophale) SiO2 
 PCOD9031619
Probable space group: P -1
;
_chemical_formula_sum "Si O2"
_cell_formula_units_Z 16
_cell_length_a 13.441734
_cell_length_b 9.478702
_cell_length_c 8.307481
_cell_angle_alpha 66.761838
_cell_angle_beta 55.673082
_cell_angle_gamma 57.631554
_cell_volume 731.750351
_symmetry_space_group_name_H-M "P -1"
_symmetry_group_IT_number 2
_symmetry_cell_setting 'triclinic'
loop_
_space_group_symop_operation_xyz
x,y,z
-x,-y,-z
loop_
_atom_site_type_symbol
_atom_site_label
_atom_site_fract_x
_atom_site_fract_y
_atom_site_fract_z
Si Si1 0.572235 0.551718 0.552073
Si Si2 0.142752 0.096370 0.885866
Si Si3 0.374268 0.165407 0.500267
Si Si4 0.390699 0.174303 0.097874
Si Si5 0.147001 0.739972 0.947366
Si Si6 0.136600 0.114865 0.267870
Si Si7 0.830186 0.243178 0.460944
Si Si8 0.398256 0.514216 0.948182
O O1 0.500000 0.500000 0.500000
O O2 0.629048 0.691217 0.435895
O O3 0.694653 0.388647 0.586532
O O4 0.441551 0.633514 0.743606
O O5 0.248156 0.131214 0.670997
O O6 0.142850 0.921040 0.909852
O O7 0.159960 0.083615 0.068808
O O8 0.000561 0.244545 0.914289
O O9 0.388808 0.196862 0.283898
O O10 0.500000 0.000000 0.500000
O O11 0.244616 0.185144 0.187451
O O12 0.422287 0.330863 0.938871
O O13 0.500000 0.000000 0.000000
O O14 0.184717 0.710959 0.736941
O O15 0.241671 0.609810 0.048793
O O16 0.977421 0.226161 0.384466
O O17 0.166996 0.939004 0.413769
O O18 0.500000 0.500000 0.000000
#
# Coordination Sequence:
#
# PCOD9031619 Si02
#       8
#     2   2   2   2   2   2   2   2
#     4  12  26  43  69  99 132 179 220 275 330 392
#     4  10  23  41  69  99 132 175 221 272 337 391
#     4  12  27  44  66  99 135 174 224 276 332 399
#     4  12  27  44  67  98 134 175 222 279 333 392
#     4  10  22  43  67  96 136 178 217 273 331 398
#     4  10  23  41  68 100 131 176 220 276 328 396
#     4  10  22  43  67  98 135 173 225 267 333 397
#     4  12  26  45  65  98 136 175 226 273 328 394
#
# _framework density 21.865379999999998
#
# number of rings (size 3 to 8) (size 9 to 14) (size 15 to 20)
#    0.000    1.000    2.500    3.000    8.750    2.000 
#    0.000    3.750    0.000    0.000    0.000    0.000 
#    0.000    0.000    0.000    0.000    0.000    0.000 
#
# Total GULP energy -89125.865622 kJ/mol
# GULP energy per Si atom -5570.366601 kJ/mol
# Density = 2.181561 g / cm^3
# Si number density = 21.865380 Si / 1000 Ang^3
#
#
#
# Elastic Constant Matrix: (Units=GPa)
#
#
# Indices 1 2 3 4 5 6 
#
# 1 146.1653 48.1453 22.4379 1.0784 -13.5671 -8.6165
# 2 48.1453 87.7350 -2.1387 -1.4323 -16.1805 -13.1221
# 3 22.4379 -2.1387 64.9146 8.2933 -13.5363 -4.9500
# 4 1.0784 -1.4323 8.2933 21.1791 1.7156 -4.6000
# 5 -13.5671 -16.1805 -13.5363 1.7156 29.7815 -1.5595
# 6 -8.6165 -13.1221 -4.9500 -4.6000 -1.5595 40.0025
#
#
#
# Elastic Compliance Matrix: (Units=1/GPa)
#
#
# Indices 1 2 3 4 5 6 
#
# 1 0.009004 -0.005073 -0.003404 0.000530 -0.000237 -0.000094
# 2 -0.005073 0.016790 0.004633 -0.000004 0.009197 0.005346
# 3 -0.003404 0.004633 0.020164 -0.007665 0.010720 0.002818
# 4 0.000530 -0.000004 -0.007665 0.051734 -0.005970 0.004881
# 5 -0.000237 0.009197 0.010720 -0.005970 0.043962 0.005320
# 6 -0.000094 0.005346 0.002818 0.004881 0.005320 0.027849
#
#
# Mechanical properties :
#
#
# Convention : Reuss Voigt Hill
#
# Bulk Modulus (GPa) = 26.13001 48.41155 37.27078
# Shear Modulus (GPa) = 26.32308 33.55064 29.93686
#
# Velocity S-wave (km/s) = 3.47345 3.92141 3.70421
# Velocity P-wave (km/s) = 5.29743 6.53392 5.94790
#
# Compressibility (1/GPa) = 0.03827017
#
# Stress axis : x y z
#
# Youngs Moduli (GPa) = 111.06749 59.55772 49.59434
#
# Poissons Ratio (x) = 0.30213 0.16880
# Poissons Ratio (y) = 0.56343 -0.22976
# Poissons Ratio (z) = 0.37802 -0.27591
#
# Static dielectric constant tensor:
#      x y z
#    x 1.935540 -0.000530 0.143830 
#    y -0.000530 1.798470 0.056780 
#    z 0.143830 0.056780 2.107120 
# 
# From -- ./inp_files/242869.got.cif
#   From: 2010.05.17/outbox.cif.g08.bks.cpg/sg2_122_cif.got.tgz:242869.got - 2010.06.03 11:33:40.
