data_PCOD9031757
_publ_section_title
;
Structure prediction by ZEFSAII (Michael W. Deem and Ramdas Pophale) SiO2 
 PCOD9031757
Probable space group: P -1
;
_chemical_formula_sum "Si O2"
_cell_formula_units_Z 14
_cell_length_a 11.914580
_cell_length_b 5.564645
_cell_length_c 12.196277
_cell_angle_alpha 95.371082
_cell_angle_beta 50.006481
_cell_angle_gamma 83.736807
_cell_volume 601.399393
_symmetry_space_group_name_H-M "P -1"
_symmetry_group_IT_number 2
_symmetry_cell_setting 'triclinic'
loop_
_space_group_symop_operation_xyz
x,y,z
-x,-y,-z
loop_
_atom_site_type_symbol
_atom_site_label
_atom_site_fract_x
_atom_site_fract_y
_atom_site_fract_z
Si Si1 0.178767 0.346894 0.096104
Si Si2 0.660351 0.425890 0.162965
Si Si3 0.233110 0.960296 0.438812
Si Si4 0.465550 0.751714 0.457256
Si Si5 0.942326 0.275523 0.091398
Si Si6 0.515289 0.053111 0.123218
Si Si7 0.939699 0.343403 0.620473
O O1 0.167093 0.460475 0.227245
O O2 0.021292 0.286721 0.159112
O O3 0.217350 0.560125 0.004819
O O4 0.317996 0.122696 0.972927
O O5 0.579584 0.679600 0.280519
O O6 0.764289 0.301195 0.192999
O O7 0.540141 0.310663 0.169040
O O8 0.306146 0.818753 0.496448
O O9 0.156051 0.816538 0.391586
O O10 0.371477 0.019485 0.282694
O O11 0.091290 0.179644 0.573080
O O12 0.500000 0.500000 0.500000
O O13 0.500000 0.000000 0.500000
O O14 0.000000 0.500000 0.000000
O O15 0.000000 0.000000 0.000000
O O16 0.500000 0.000000 0.000000
O O17 0.000000 0.500000 0.500000
#
# Coordination Sequence:
#
# PCOD9031757 Si02
#       7
#     2   2   2   2   2   2   2
#     4  11  24  44  73 109 145 192 253 310 386 447
#     4  11  25  46  72 108 150 192 258 314 380 453
#     4  11  27  50  71 109 156 197 267 314 389 474
#     4  12  29  48  78 110 154 208 257 319 392 460
#     4  10  22  43  68 103 146 187 238 304 366 445
#     4  12  24  42  79 110 149 198 253 322 389 458
#     4  11  27  48  75 107 151 206 251 320 393 467
#
# _framework density 23.279036000000001
#
# number of rings (size 3 to 8) (size 9 to 14) (size 15 to 20)
#    0.000    0.857    2.857    2.571    8.000    2.286 
#    2.571    0.000    0.000    0.000    0.000    0.000 
#    0.000    0.000    0.000    0.000    0.000    0.000 
#
# Total GULP energy -77977.561084 kJ/mol
# GULP energy per Si atom -5569.825792 kJ/mol
# Density = 2.322605 g / cm^3
# Si number density = 23.279036 Si / 1000 Ang^3
#
#
#
# Elastic Constant Matrix: (Units=GPa)
#
#
# Indices 1 2 3 4 5 6 
#
# 1 138.3889 36.9943 12.4730 -3.6131 2.1191 4.8602
# 2 36.9943 93.2964 32.6296 15.5860 9.2633 12.6936
# 3 12.4730 32.6296 96.3204 7.1473 8.4359 20.0524
# 4 -3.6131 15.5860 7.1473 41.4936 2.2128 1.8033
# 5 2.1191 9.2633 8.4359 2.2128 29.1431 5.1797
# 6 4.8602 12.6936 20.0524 1.8033 5.1797 48.4838
#
#
#
# Elastic Compliance Matrix: (Units=1/GPa)
#
#
# Indices 1 2 3 4 5 6 
#
# 1 0.008252 -0.003653 -0.000025 0.002072 0.000407 0.000019
# 2 -0.003653 0.014741 -0.003590 -0.005025 -0.002727 -0.001530
# 3 -0.000025 -0.003590 0.012646 -0.000561 -0.001750 -0.004080
# 4 0.002072 -0.005025 -0.000561 0.026271 -0.000459 0.000412
# 5 0.000407 -0.002727 -0.001750 -0.000459 0.036127 -0.002446
# 6 0.000019 -0.001530 -0.004080 0.000412 -0.002446 0.022958
#
#
# Mechanical properties :
#
#
# Convention : Reuss Voigt Hill
#
# Bulk Modulus (GPa) = 47.38593 54.68882 51.03738
# Shear Modulus (GPa) = 35.07204 40.21802 37.64503
#
# Velocity S-wave (km/s) = 3.88570 4.16101 4.02571
# Velocity P-wave (km/s) = 6.36642 6.82855 6.60153
#
# Compressibility (1/GPa) = 0.02110331
#
# Stress axis : x y z
#
# Youngs Moduli (GPa) = 121.18473 67.83802 79.07798
#
# Poissons Ratio (x) = 0.24779 0.00194
# Poissons Ratio (y) = 0.44265 0.28393
# Poissons Ratio (z) = 0.00297 0.24357
#
# Static dielectric constant tensor:
#      x y z
#    x 1.860010 -0.128100 0.034920 
#    y -0.128100 1.969530 -0.010830 
#    z 0.034920 -0.010830 1.802400 
# 
# From -- ./inp_files/81460.got.cif
#   From: 2010.05.17/outbox.cif.g08.bks.cpg/sg2_41_cif.got.tgz:81460.got - 2010.06.03 11:33:40.
