data_PCOD9031447
_publ_section_title
;
Structure prediction by ZEFSAII (Michael W. Deem and Ramdas Pophale) SiO2 
 PCOD9031447
Probable space group: P -1
;
_chemical_formula_sum "Si O2"
_cell_formula_units_Z 16
_cell_length_a 14.148494
_cell_length_b 9.938513
_cell_length_c 9.597152
_cell_angle_alpha 120.718451
_cell_angle_beta 127.023672
_cell_angle_gamma 95.970605
_cell_volume 741.214587
_symmetry_space_group_name_H-M "P -1"
_symmetry_group_IT_number 2
_symmetry_cell_setting 'triclinic'
loop_
_space_group_symop_operation_xyz
x,y,z
-x,-y,-z
loop_
_atom_site_type_symbol
_atom_site_label
_atom_site_fract_x
_atom_site_fract_y
_atom_site_fract_z
Si Si1 0.624038 0.100539 0.844213
Si Si2 0.059544 0.870702 0.455985
Si Si3 0.451305 0.494683 0.614094
Si Si4 0.430057 0.176646 0.591023
Si Si5 0.384474 0.051484 0.953212
Si Si6 0.132742 0.287946 0.339353
Si Si7 0.115317 0.488033 0.680760
Si Si8 0.919645 0.093857 0.820422
O O1 0.506777 0.149876 0.773768
O O2 0.555475 0.920728 0.583934
O O3 0.668703 0.042821 0.990146
O O4 0.767340 0.308139 0.031918
O O5 0.031183 0.815256 0.239317
O O6 0.966522 0.685854 0.375423
O O7 0.000000 0.000000 0.500000
O O8 0.233861 0.971481 0.693012
O O9 0.500000 0.500000 0.500000
O O10 0.493325 0.392926 0.710271
O O11 0.522217 0.715668 0.833855
O O12 0.273578 0.360099 0.405637
O O13 0.256361 0.038858 0.392588
O O14 0.500000 0.000000 0.000000
O O15 0.185133 0.438193 0.591878
O O16 0.056761 0.074514 0.227574
O O17 0.007755 0.251315 0.103976
O O18 0.000000 0.500000 0.500000
#
# Coordination Sequence:
#
# PCOD9031447 Si02
#       8
#     2   2   2   2   2   2   2   2
#     4  11  23  43  68  94 146 184 233 290 370 419
#     4  12  27  44  73 107 141 186 249 297 355 436
#     4  11  24  41  72 104 137 191 245 291 358 439
#     4  10  23  43  67 102 136 191 234 297 351 436
#     4  12  26  46  70 102 150 187 236 301 362 429
#     4  10  23  41  70  98 140 179 236 289 368 417
#     4  12  24  44  69 101 140 191 229 292 373 429
#     4  10  22  43  66  97 137 179 232 299 346 416
#
# _framework density 21.586192
#
# number of rings (size 3 to 8) (size 9 to 14) (size 15 to 20)
#    0.000    1.000    3.750    2.250    3.500    0.000 
#    0.000    4.375    0.000    0.000    0.000    0.000 
#    0.000    0.000    0.000    0.000    0.000    0.000 
#
# Total GULP energy -89270.001574 kJ/mol
# GULP energy per Si atom -5579.375098 kJ/mol
# Density = 2.153706 g / cm^3
# Si number density = 21.586192 Si / 1000 Ang^3
#
#
#
# Elastic Constant Matrix: (Units=GPa)
#
#
# Indices 1 2 3 4 5 6 
#
# 1 75.2198 36.4223 10.7184 -2.0238 3.9275 4.9818
# 2 36.4223 153.6049 44.0924 3.2202 3.2474 3.9156
# 3 10.7184 44.0924 81.0128 -1.1625 9.3227 -5.8769
# 4 -2.0238 3.2202 -1.1625 45.3611 -1.7235 -1.2546
# 5 3.9275 3.2474 9.3227 -1.7235 25.4981 -0.7737
# 6 4.9818 3.9156 -5.8769 -1.2546 -0.7737 38.3901
#
#
#
# Elastic Compliance Matrix: (Units=1/GPa)
#
#
# Indices 1 2 3 4 5 6 
#
# 1 0.015242 -0.003559 0.000033 0.000816 -0.001901 -0.001621
# 2 -0.003559 0.008657 -0.004446 -0.000881 0.000978 -0.001111
# 3 0.000033 -0.004446 0.015542 0.000602 -0.004997 0.002747
# 4 0.000816 -0.000881 0.000602 0.022232 0.001294 0.000829
# 5 -0.001901 0.000978 -0.004997 0.001294 0.041309 0.000257
# 6 -0.001621 -0.001111 0.002747 0.000829 0.000257 0.026825
#
#
# Mechanical properties :
#
#
# Convention : Reuss Voigt Hill
#
# Bulk Modulus (GPa) = 42.56004 54.70042 48.63023
# Shear Modulus (GPa) = 32.55572 36.42350 34.48961
#
# Velocity S-wave (km/s) = 3.88773 4.11219 4.00154
# Velocity P-wave (km/s) = 6.31758 6.92404 6.62775
#
# Compressibility (1/GPa) = 0.02349622
#
# Stress axis : x y z
#
# Youngs Moduli (GPa) = 65.60979 115.51886 64.34048
#
# Poissons Ratio (x) = 0.41116 -0.00215
# Poissons Ratio (y) = 0.23352 0.28608
# Poissons Ratio (z) = -0.00219 0.51364
#
# Static dielectric constant tensor:
#      x y z
#    x 1.884880 -0.063130 -0.009010 
#    y -0.063130 1.787630 -0.030120 
#    z -0.009010 -0.030120 1.796560 
# 
# From -- ./inp_files/298201.got.cif
#   From: 2010.05.17/outbox.cif.g08.bks.cpg/sg2_150_cif.got.tgz:298201.got - 2010.06.03 11:33:40.
