data_PCOD9031405
_publ_section_title
;
Structure prediction by ZEFSAII (Michael W. Deem and Ramdas Pophale) SiO2 
 PCOD9031405
Probable space group: P -1
;
_chemical_formula_sum "Si O2"
_cell_formula_units_Z 14
_cell_length_a 9.742001
_cell_length_b 20.878638
_cell_length_c 12.744669
_cell_angle_alpha 154.297472
_cell_angle_beta 53.263919
_cell_angle_gamma 141.156540
_cell_volume 651.910911
_symmetry_space_group_name_H-M "P -1"
_symmetry_group_IT_number 2
_symmetry_cell_setting 'triclinic'
loop_
_space_group_symop_operation_xyz
x,y,z
-x,-y,-z
loop_
_atom_site_type_symbol
_atom_site_label
_atom_site_fract_x
_atom_site_fract_y
_atom_site_fract_z
Si Si1 0.105222 0.611753 0.858013
Si Si2 0.566165 0.300577 0.659994
Si Si3 0.477626 0.947564 0.051709
Si Si4 0.887375 0.977829 0.866331
Si Si5 0.336849 0.963144 0.428856
Si Si6 0.782061 0.663046 0.601707
Si Si7 0.892095 0.882282 0.490035
O O1 0.214099 0.735364 0.882794
O O2 0.124180 0.447920 0.611889
O O3 0.838366 0.506955 0.842025
O O4 0.288784 0.797956 0.128774
O O5 0.382406 0.301782 0.689061
O O6 0.468687 0.183879 0.643620
O O7 0.546563 0.135088 0.360016
O O8 0.664749 0.927204 0.948741
O O9 0.500000 0.000000 0.000000
O O10 0.871426 0.804951 0.667718
O O11 0.883255 0.977848 0.741289
O O12 0.111055 0.193308 0.132380
O O13 0.069345 0.861276 0.418083
O O14 0.500000 0.000000 0.500000
O O15 0.500000 0.500000 0.500000
O O16 0.000000 0.000000 0.500000
#
# Coordination Sequence:
#
# PCOD9031405 Si02
#       7
#     2   2   2   2   2   2   2
#     4  11  24  42  68  99 134 172 229 283 339 409
#     4  10  22  43  66  95 135 171 226 281 334 404
#     4  11  21  40  64  98 130 169 213 276 346 394
#     4  11  23  41  70  96 142 172 220 285 341 403
#     4  10  25  43  68  94 132 183 227 278 332 397
#     4  11  24  41  65 106 135 172 223 286 351 398
#     4  10  23  46  66  94 136 188 225 270 341 402
#
# _framework density 21.475328000000001
#
# number of rings (size 3 to 8) (size 9 to 14) (size 15 to 20)
#    0.000    1.429    4.286    0.000    4.000    1.714 
#    2.571    0.000    0.000    0.000    0.000    0.000 
#    0.000    0.000    0.000    0.000    0.000    0.000 
#
# Total GULP energy -78052.893971 kJ/mol
# GULP energy per Si atom -5575.206712 kJ/mol
# Density = 2.142645 g / cm^3
# Si number density = 21.475328 Si / 1000 Ang^3
#
#
#
# Elastic Constant Matrix: (Units=GPa)
#
#
# Indices 1 2 3 4 5 6 
#
# 1 130.8889 45.6427 32.2276 11.9408 22.6447 12.6101
# 2 45.6427 96.9674 44.5539 15.2657 19.2443 13.8130
# 3 32.2276 44.5539 70.7416 18.9553 18.3004 -1.2827
# 4 11.9408 15.2657 18.9553 36.7703 8.9196 6.5095
# 5 22.6447 19.2443 18.3004 8.9196 40.2014 0.6613
# 6 12.6101 13.8130 -1.2827 6.5095 0.6613 32.7373
#
#
#
# Elastic Compliance Matrix: (Units=1/GPa)
#
#
# Indices 1 2 3 4 5 6 
#
# 1 0.009912 -0.002700 -0.002067 0.000270 -0.003365 -0.002746
# 2 -0.002700 0.017164 -0.009112 0.000211 -0.002487 -0.006551
# 3 -0.002067 -0.009112 0.024165 -0.008396 -0.003732 0.007333
# 4 0.000270 0.000211 -0.008396 0.033517 -0.003751 -0.007111
# 5 -0.003365 -0.002487 -0.003732 -0.003751 0.030453 0.002330
# 6 -0.002746 -0.006551 0.007333 -0.007111 0.002330 0.036022
#
#
# Mechanical properties :
#
#
# Convention : Reuss Voigt Hill
#
# Bulk Modulus (GPa) = 42.58407 60.38292 51.48349
# Shear Modulus (GPa) = 26.76396 33.68671 30.22534
#
# Velocity S-wave (km/s) = 3.53408 3.96488 3.75566
# Velocity P-wave (km/s) = 6.04362 7.00991 6.54462
#
# Compressibility (1/GPa) = 0.02348296
#
# Stress axis : x y z
#
# Youngs Moduli (GPa) = 100.88275 58.26287 41.38294
#
# Poissons Ratio (x) = 0.15728 0.08555
# Poissons Ratio (y) = 0.27233 0.37709
# Poissons Ratio (z) = 0.20855 0.53090
#
# Static dielectric constant tensor:
#      x y z
#    x 1.854130 0.066800 -0.048260 
#    y 0.066800 1.917230 -0.059360 
#    z -0.048260 -0.059360 1.791150 
# 
# From -- ./inp_files/61025.got.cif
#   From: 2010.05.17/outbox.cif.g08.bks.cpg/sg2_31_cif.got.tgz:61025.got - 2010.06.03 11:33:40.
