data_PCOD9031400
_publ_section_title
;
Structure prediction by ZEFSAII (Michael W. Deem and Ramdas Pophale) SiO2 
 PCOD9031400
Probable space group: P -1
;
_chemical_formula_sum "Si O2"
_cell_formula_units_Z 12
_cell_length_a 7.954575
_cell_length_b 18.344580
_cell_length_c 17.891175
_cell_angle_alpha 22.477534
_cell_angle_beta 30.971814
_cell_angle_gamma 42.192724
_cell_volume 495.826981
_symmetry_space_group_name_H-M "P -1"
_symmetry_group_IT_number 2
_symmetry_cell_setting 'triclinic'
loop_
_space_group_symop_operation_xyz
x,y,z
-x,-y,-z
loop_
_atom_site_type_symbol
_atom_site_label
_atom_site_fract_x
_atom_site_fract_y
_atom_site_fract_z
Si Si1 0.549233 0.093048 0.312901
Si Si2 0.205026 0.021046 0.815494
Si Si3 0.442678 0.844533 0.101283
Si Si4 0.798238 0.513528 0.810860
Si Si5 0.998625 0.545839 0.367483
Si Si6 0.157732 0.874796 0.423941
O O1 0.650482 0.953663 0.347029
O O2 0.187453 0.134080 0.391225
O O3 0.500000 0.000000 0.500000
O O4 0.841971 0.295087 0.010757
O O5 0.521346 0.123488 0.649442
O O6 0.106998 0.885083 0.152749
O O7 0.073758 0.782934 0.104959
O O8 0.352035 0.612272 0.373038
O O9 0.500000 0.000000 0.000000
O O10 0.734666 0.922361 0.855923
O O11 0.760589 0.515160 0.732429
O O12 0.077304 0.699193 0.560226
O O13 0.500000 0.500000 0.000000
O O14 0.000000 0.500000 0.500000
#
# Coordination Sequence:
#
# PCOD9031400 Si02
#       6
#     2   2   2   2   2   2
#     4  10  22  43  66  95 131 180 228 274 335 402
#     4  11  25  43  67 100 137 174 226 283 332 405
#     4  12  24  43  69  96 136 179 221 275 343 405
#     4   9  21  41  67  92 132 178 221 274 328 400
#     4  11  23  42  66 101 138 173 225 277 336 398
#     4  11  21  42  65  95 136 172 219 281 336 392
#
# _framework density 24.201989999999999
#
# number of rings (size 3 to 8) (size 9 to 14) (size 15 to 20)
#    0.000    1.333    3.333    2.000    2.333    0.667 
#    6.000    0.833    0.000    0.000    0.000    0.000 
#    0.000    0.000    0.000    0.000    0.000    0.000 
#
# Total GULP energy -66873.239685 kJ/mol
# GULP energy per Si atom -5572.769974 kJ/mol
# Density = 2.414691 g / cm^3
# Si number density = 24.201990 Si / 1000 Ang^3
#
#
#
# Elastic Constant Matrix: (Units=GPa)
#
#
# Indices 1 2 3 4 5 6 
#
# 1 103.2280 47.8995 39.7453 -10.1168 -13.0350 6.5664
# 2 47.8995 127.2241 30.2875 17.3372 -0.1760 30.2808
# 3 39.7453 30.2875 124.0868 6.2171 -7.4361 13.7497
# 4 -10.1168 17.3372 6.2171 54.8071 12.1572 4.4541
# 5 -13.0350 -0.1760 -7.4361 12.1572 41.3166 8.7879
# 6 6.5664 30.2808 13.7497 4.4541 8.7879 41.5864
#
#
#
# Elastic Compliance Matrix: (Units=1/GPa)
#
#
# Indices 1 2 3 4 5 6 
#
# 1 0.014146 -0.005544 -0.003482 0.004112 0.002165 0.002056
# 2 -0.005544 0.012499 -0.000077 -0.004618 0.001349 -0.007990
# 3 -0.003482 -0.000077 0.009703 -0.001891 0.001795 -0.002779
# 4 0.004112 -0.004618 -0.001891 0.021819 -0.005964 0.002262
# 5 0.002165 0.001349 0.001795 -0.005964 0.028524 -0.007306
# 6 0.002056 -0.007990 -0.002779 0.002262 -0.007306 0.031760
#
#
# Mechanical properties :
#
#
# Convention : Reuss Voigt Hill
#
# Bulk Modulus (GPa) = 55.12215 65.60038 60.36127
# Shear Modulus (GPa) = 35.03716 43.31580 39.17648
#
# Velocity S-wave (km/s) = 3.80899 4.23515 4.02771
# Velocity P-wave (km/s) = 6.49383 7.14699 6.82823
#
# Compressibility (1/GPa) = 0.01814153
#
# Stress axis : x y z
#
# Youngs Moduli (GPa) = 70.69114 80.00764 103.05764
#
# Poissons Ratio (x) = 0.44355 0.35885
# Poissons Ratio (y) = 0.39190 0.00798
# Poissons Ratio (z) = 0.24615 0.00620
#
# Static dielectric constant tensor:
#      x y z
#    x 1.999970 0.010690 0.011500 
#    y 0.010690 2.007140 0.009310 
#    z 0.011500 0.009310 2.009270 
# 
# From -- ./inp_files/162205.got.cif
#   From: 2010.05.17/outbox.cif.g08.bks.cpg/sg2_82_cif.got.tgz:162205.got - 2010.06.03 11:33:40.
