data_PCOD9031647
_publ_section_title
;
Structure prediction by ZEFSAII (Michael W. Deem and Ramdas Pophale) SiO2 
 PCOD9031647
Probable space group: P -1
;
_chemical_formula_sum "Si O2"
_cell_formula_units_Z 15
_cell_length_a 9.661886
_cell_length_b 8.234259
_cell_length_c 8.464322
_cell_angle_alpha 107.747857
_cell_angle_beta 119.318562
_cell_angle_gamma 91.822556
_cell_volume 545.752534
_symmetry_space_group_name_H-M "P -1"
_symmetry_group_IT_number 2
_symmetry_cell_setting 'triclinic'
loop_
_space_group_symop_operation_xyz
x,y,z
-x,-y,-z
loop_
_atom_site_type_symbol
_atom_site_label
_atom_site_fract_x
_atom_site_fract_y
_atom_site_fract_z
Si Si1 0.210984 0.697577 0.241945
Si Si2 0.871671 0.628595 0.666657
Si Si3 0.946014 0.859639 0.292143
Si Si4 0.264507 0.162495 0.118781
Si Si5 0.500000 0.000000 0.500000
Si Si6 0.589196 0.398714 0.272824
Si Si7 0.555186 0.033483 0.225380
Si Si8 0.186135 0.543783 0.836139
O O1 0.155896 0.528431 0.268950
O O2 0.091163 0.823864 0.254253
O O3 0.393836 0.802042 0.394231
O O4 0.186300 0.625380 0.031266
O O5 0.858295 0.797349 0.809248
O O6 0.709425 0.569776 0.454938
O O7 0.047761 0.625236 0.693488
O O8 0.865373 0.665678 0.253055
O O9 0.817091 0.910504 0.112064
O O10 0.000000 0.000000 0.500000
O O11 0.401215 0.339708 0.200202
O O12 0.380555 0.043973 0.221571
O O13 0.611788 0.940714 0.377920
O O14 0.655921 0.231088 0.323806
O O15 0.632589 0.398510 0.113933
O O16 0.500000 0.000000 0.000000
#
# Coordination Sequence:
#
# PCOD9031647 Si02
#       8
#     2   2   2   2   1   2   2   2
#     4  11  22  42  70  97 132 189 233 281 350 420
#     4  11  19  44  68  96 133 175 236 285 341 422
#     4  11  24  42  66 102 146 183 230 295 349 418
#     4  10  22  43  67  97 140 178 233 299 337 413
#     4  12  24  44  72 100 134 190 238 282 366 424
#     4  10  23  38  69  99 130 176 238 288 340 420
#     4  10  24  43  66  98 142 178 231 298 351 412
#     4  11  22  42  70  99 135 189 226 284 360 413
#
# _framework density 27.484985000000002
#
# number of rings (size 3 to 8) (size 9 to 14) (size 15 to 20)
#    0.800    0.533    4.000    2.400    1.867    0.533 
#    4.800    2.000    0.000    0.000    0.000    0.000 
#    0.000    0.000    0.000    0.000    0.000    0.000 
#
# Total GULP energy -83555.477820 kJ/mol
# GULP energy per Si atom -5570.365188 kJ/mol
# Density = 2.742243 g / cm^3
# Si number density = 27.484985 Si / 1000 Ang^3
#
#
#
# Elastic Constant Matrix: (Units=GPa)
#
#
# Indices 1 2 3 4 5 6 
#
# 1 89.4826 30.5400 10.3575 -8.9294 -6.5456 -0.1161
# 2 30.5400 74.2876 10.0245 17.4874 -2.2914 13.3988
# 3 10.3575 10.0245 162.5615 16.8810 -17.3267 5.2957
# 4 -8.9294 17.4874 16.8810 24.5814 1.3877 -3.6684
# 5 -6.5456 -2.2914 -17.3267 1.3877 43.2504 -6.6517
# 6 -0.1161 13.3988 5.2957 -3.6684 -6.6517 46.1350
#
#
#
# Elastic Compliance Matrix: (Units=1/GPa)
#
#
# Indices 1 2 3 4 5 6 
#
# 1 0.017124 -0.011544 -0.002121 0.016580 0.001392 0.005158
# 2 -0.011544 0.025635 0.002073 -0.025296 -0.000248 -0.009759
# 3 -0.002121 0.002073 0.007296 -0.007656 0.002701 -0.001664
# 4 0.016580 -0.025296 -0.007656 0.072121 -0.002105 0.013698
# 5 0.001392 -0.000248 0.002701 -0.002105 0.024960 0.003197
# 6 0.005158 -0.009759 -0.001664 0.013698 0.003197 0.026264
#
#
# Mechanical properties :
#
#
# Convention : Reuss Voigt Hill
#
# Bulk Modulus (GPa) = 37.21439 47.57507 42.39473
# Shear Modulus (GPa) = 24.32620 41.15401 32.74010
#
# Velocity S-wave (km/s) = 2.97824 3.87373 3.45512
# Velocity P-wave (km/s) = 5.03943 6.11185 5.60137
#
# Compressibility (1/GPa) = 0.02687133
#
# Stress axis : x y z
#
# Youngs Moduli (GPa) = 58.39837 39.00985 137.06103
#
# Poissons Ratio (x) = 0.45033 0.29066
# Poissons Ratio (y) = 0.67415 -0.28414
# Poissons Ratio (z) = 0.12384 -0.08087
#
# Static dielectric constant tensor:
#      x y z
#    x 2.304920 -0.003330 -0.146340 
#    y -0.003330 2.019390 0.090600 
#    z -0.146340 0.090600 2.170890 
# 
# From -- ./inp_files/173115.got.cif
#   From: 2010.05.17/outbox.cif.g08.bks.cpg/sg2_87_cif.got.tgz:173115.got - 2010.06.03 11:33:40.
