data_PCOD9031103
_publ_section_title
;
Structure prediction by ZEFSAII (Michael W. Deem and Ramdas Pophale) SiO2 
 PCOD9031103
Probable space group: P -1
;
_chemical_formula_sum "Si O2"
_cell_formula_units_Z 16
_cell_length_a 22.329165
_cell_length_b 13.322928
_cell_length_c 9.767349
_cell_angle_alpha 147.114463
_cell_angle_beta 142.112074
_cell_angle_gamma 29.666046
_cell_volume 761.464438
_symmetry_space_group_name_H-M "P -1"
_symmetry_group_IT_number 2
_symmetry_cell_setting 'triclinic'
loop_
_space_group_symop_operation_xyz
x,y,z
-x,-y,-z
loop_
_atom_site_type_symbol
_atom_site_label
_atom_site_fract_x
_atom_site_fract_y
_atom_site_fract_z
Si Si1 0.193657 0.093054 0.557065
Si Si2 0.803722 0.078868 0.080846
Si Si3 0.732352 0.601261 0.008502
Si Si4 0.602727 0.446281 0.728704
Si Si5 0.553691 0.307333 0.759729
Si Si6 0.695860 0.574474 0.595491
Si Si7 0.994470 0.830596 0.896790
Si Si8 0.861514 0.736671 0.039984
O O1 0.083250 0.221284 0.395417
O O2 0.270874 0.815253 0.367746
O O3 0.282188 0.162359 0.762067
O O4 0.148235 0.170575 0.718546
O O5 0.756271 0.331874 0.343437
O O6 0.693813 0.104834 0.827545
O O7 0.916755 0.966819 0.050025
O O8 0.836802 0.916032 0.084418
O O9 0.635359 0.619359 0.955793
O O10 0.719379 0.531805 0.752635
O O11 0.870480 0.397447 0.078215
O O12 0.500000 0.500000 0.500000
O O13 0.558524 0.433563 0.781395
O O14 0.452967 0.264263 0.508289
O O15 0.500000 0.500000 0.000000
O O16 0.762176 0.685386 0.795046
O O17 0.000000 0.000000 0.000000
O O18 0.000000 0.500000 0.000000
#
# Coordination Sequence:
#
# PCOD9031103 Si02
#       8
#     2   2   2   2   2   2   2   2
#     4  11  25  45  65 102 133 165 228 271 326 403
#     4  11  23  43  68  93 132 174 214 273 326 385
#     4  11  23  42  68  97 131 173 214 280 327 386
#     4  12  23  44  71  93 129 177 221 271 330 392
#     4  10  22  43  64  97 131 168 221 269 323 390
#     4  10  23  43  67  95 130 170 223 267 323 393
#     4  12  24  42  68  98 133 173 218 274 336 386
#     4  11  26  44  68  98 132 176 220 265 327 393
#
# _framework density 21.012143999999999
#
# number of rings (size 3 to 8) (size 9 to 14) (size 15 to 20)
#    0.000    1.000    3.750    2.625    3.500    2.000 
#    4.500    0.000    0.000    0.000    0.000    0.000 
#    0.000    0.000    0.000    0.000    0.000    0.000 
#
# Total GULP energy -89442.795458 kJ/mol
# GULP energy per Si atom -5590.174716 kJ/mol
# Density = 2.096432 g / cm^3
# Si number density = 21.012144 Si / 1000 Ang^3
#
#
#
# Elastic Constant Matrix: (Units=GPa)
#
#
# Indices 1 2 3 4 5 6 
#
# 1 59.2227 -31.8528 22.4666 37.1092 -23.1629 -23.6857
# 2 -31.8528 18.2198 -4.9128 -3.4695 -10.9196 -0.7886
# 3 22.4666 -4.9128 82.2415 -9.6133 -6.4380 -0.5526
# 4 37.1092 -3.4695 -9.6133 22.3031 13.5628 16.5818
# 5 -23.1629 -10.9196 -6.4380 13.5628 26.4942 -19.8100
# 6 -23.6857 -0.7886 -0.5526 16.5818 -19.8100 12.3803
#
#
#
# Elastic Compliance Matrix: (Units=1/GPa)
#
#
# Indices 1 2 3 4 5 6 
#
# 1 0.005237 0.004369 -0.001043 0.007948 -0.008977 -0.014758
# 2 0.004369 0.066735 0.005660 0.027664 -0.002297 -0.027865
# 3 -0.001043 0.005660 0.013586 0.003278 0.005129 0.002789
# 4 0.007948 0.027664 0.003278 0.022877 0.013633 0.008288
# 5 -0.008977 -0.002297 0.005129 0.013633 0.016376 -0.009148
# 6 -0.014758 -0.027865 0.002789 0.008288 -0.009148 0.025149
#
#
# Mechanical properties :
#
#
# Convention : Reuss Voigt Hill
#
# Bulk Modulus (GPa) = 9.65895 14.56510 12.11203
# Shear Modulus (GPa) = 30.03039 23.83440 26.93239
#
# Velocity S-wave (km/s) = 3.78457 3.37161 3.58404
# Velocity P-wave (km/s) = 4.86868 4.70147 4.78581
#
# Compressibility (1/GPa) = 0.10353091
#
# Stress axis : x y z
#
# Youngs Moduli (GPa) = 190.93997 14.98457 73.60679
#
# Poissons Ratio (x) = -0.06547 0.07674
# Poissons Ratio (y) = -0.83426 -0.41659
# Poissons Ratio (z) = 0.19907 -0.08481
#
# Static dielectric constant tensor:
#      x y z
#    x 1.725210 -0.011530 0.034160 
#    y -0.011530 1.723910 -0.029620 
#    z 0.034160 -0.029620 1.785370 
# 
# From -- ./inp_files/273560.got.cif
#   From: 2010.05.17/outbox.cif.g08.bks.cpg/sg2_137_cif.got.tgz:273560.got - 2010.06.03 11:33:40.
