data_PCOD9031285
_publ_section_title
;
Structure prediction by ZEFSAII (Michael W. Deem and Ramdas Pophale) SiO2 
 PCOD9031285
Probable space group: P -1
;
_chemical_formula_sum "Si O2"
_cell_formula_units_Z 16
_cell_length_a 8.040877
_cell_length_b 7.998804
_cell_length_c 14.290596
_cell_angle_alpha 43.538538
_cell_angle_beta 88.981672
_cell_angle_gamma 99.413107
_cell_volume 611.914483
_symmetry_space_group_name_H-M "P -1"
_symmetry_group_IT_number 2
_symmetry_cell_setting 'triclinic'
loop_
_space_group_symop_operation_xyz
x,y,z
-x,-y,-z
loop_
_atom_site_type_symbol
_atom_site_label
_atom_site_fract_x
_atom_site_fract_y
_atom_site_fract_z
Si Si1 0.258146 0.268060 0.457259
Si Si2 0.331611 0.618563 0.461249
Si Si3 0.631911 0.330953 0.994587
Si Si4 0.038115 0.118061 0.849909
Si Si5 0.093103 0.466028 0.229969
Si Si6 0.294206 0.111705 0.159168
Si Si7 0.745357 0.242860 0.236771
Si Si8 0.629981 0.522127 0.290238
O O1 0.196401 0.406190 0.490296
O O2 0.139888 0.243208 0.377732
O O3 0.427917 0.468231 0.332388
O O4 0.297722 0.022356 0.600701
O O5 0.500000 0.500000 0.500000
O O6 0.310997 0.642276 0.561974
O O7 0.333346 0.880464 0.308121
O O8 0.434917 0.175744 0.048223
O O9 0.692438 0.243653 0.129424
O O10 0.754454 0.335990 0.904127
O O11 0.656248 0.631056 0.887304
O O12 0.982408 0.377355 0.756644
O O13 0.244143 0.205104 0.799303
O O14 0.902991 0.952279 0.846827
O O15 0.000000 0.000000 0.000000
O O16 0.949008 0.355466 0.199967
O O17 0.664028 0.423901 0.228413
#
# Coordination Sequence:
#
# PCOD9031285 Si02
#       8
#     2   2   2   2   2   2   2   2
#     4  11  23  42  70 102 137 174 230 274 338 407
#     4  10  22  43  66 100 134 175 224 279 334 402
#     4  11  26  42  72  97 138 179 229 274 344 402
#     4  11  25  45  67  98 141 177 227 280 338 401
#     4  11  25  43  68 102 135 177 228 281 337 401
#     4  11  24  44  66 102 135 175 231 281 332 409
#     4  11  24  46  66 101 139 177 225 281 337 401
#     4  10  24  41  71  97 135 179 224 273 343 393
#
# _framework density 26.147442999999999
#
# number of rings (size 3 to 8) (size 9 to 14) (size 15 to 20)
#    0.000    1.250    1.250    4.125    7.000    5.000 
#    0.000    0.000    0.000    0.000    0.000    0.000 
#    0.000    0.000    0.000    0.000    0.000    0.000 
#
# Total GULP energy -89456.659776 kJ/mol
# GULP energy per Si atom -5591.041236 kJ/mol
# Density = 2.608793 g / cm^3
# Si number density = 26.147443 Si / 1000 Ang^3
#
#
#
# Elastic Constant Matrix: (Units=GPa)
#
#
# Indices 1 2 3 4 5 6 
#
# 1 43.4938 18.9034 27.4915 -0.7684 -1.4717 5.8216
# 2 18.9034 77.5000 26.3151 1.1356 10.5365 2.8593
# 3 27.4915 26.3151 148.9474 -1.0255 28.6485 8.7441
# 4 -0.7684 1.1356 -1.0255 38.5045 10.5777 -6.6884
# 5 -1.4717 10.5365 28.6485 10.5777 50.9210 3.8217
# 6 5.8216 2.8593 8.7441 -6.6884 3.8217 30.6514
#
#
#
# Elastic Compliance Matrix: (Units=1/GPa)
#
#
# Indices 1 2 3 4 5 6 
#
# 1 0.029750 -0.006055 -0.005274 -0.001777 0.005801 -0.004692
# 2 -0.006055 0.015092 -0.001034 0.000253 -0.002802 0.000442
# 3 -0.005274 -0.001034 0.008914 0.001521 -0.005235 -0.000460
# 4 -0.001777 0.000253 0.001521 0.029308 -0.007589 0.007222
# 5 0.005801 -0.002802 -0.005235 -0.007589 0.025219 -0.004147
# 6 -0.004692 0.000442 -0.000460 0.007222 -0.004147 0.035699
#
#
# Mechanical properties :
#
#
# Convention : Reuss Voigt Hill
#
# Bulk Modulus (GPa) = 34.44684 46.15124 40.29904
# Shear Modulus (GPa) = 28.02926 37.16411 32.59668
#
# Velocity S-wave (km/s) = 3.27765 3.77414 3.53462
# Velocity P-wave (km/s) = 5.24658 6.05648 5.66602
#
# Compressibility (1/GPa) = 0.02903024
#
# Stress axis : x y z
#
# Youngs Moduli (GPa) = 33.61359 66.25924 112.17990
#
# Poissons Ratio (x) = 0.40122 0.59161
# Poissons Ratio (y) = 0.20354 0.11600
# Poissons Ratio (z) = 0.17727 0.06852
#
# Static dielectric constant tensor:
#      x y z
#    x 2.243880 0.002060 0.017670 
#    y 0.002060 2.098440 -0.011120 
#    z 0.017670 -0.011120 2.049790 
# 
# From -- ./inp_files/494281.got.cif
#   From: 2010.05.17/outbox.cif.g08.bks.cpg/sg2_248_cif.got.tgz:494281.got - 2010.06.03 11:33:40.
