data_PCOD9031593
_publ_section_title
;
Structure prediction by ZEFSAII (Michael W. Deem and Ramdas Pophale) SiO2 
 PCOD9031593
Probable space group: P -1
;
_chemical_formula_sum "Si O2"
_cell_formula_units_Z 14
_cell_length_a 24.453390
_cell_length_b 14.375973
_cell_length_c 23.251812
_cell_angle_alpha 24.502118
_cell_angle_beta 163.631156
_cell_angle_gamma 163.352643
_cell_volume 655.533379
_symmetry_space_group_name_H-M "P -1"
_symmetry_group_IT_number 2
_symmetry_cell_setting 'triclinic'
loop_
_space_group_symop_operation_xyz
x,y,z
-x,-y,-z
loop_
_atom_site_type_symbol
_atom_site_label
_atom_site_fract_x
_atom_site_fract_y
_atom_site_fract_z
Si Si1 0.256959 0.256199 0.279434
Si Si2 0.661413 0.804064 0.147231
Si Si3 0.144322 0.502775 0.483428
Si Si4 0.986005 0.836123 0.133077
Si Si5 0.698585 0.222070 0.384824
Si Si6 0.123927 0.846736 0.949386
Si Si7 0.486747 0.070976 0.880349
O O1 0.443159 0.612844 0.240649
O O2 0.371056 0.102739 0.494948
O O3 0.056788 0.035185 0.148546
O O4 0.095410 0.218181 0.192858
O O5 0.728469 0.617655 0.346462
O O6 0.324071 0.512038 0.968092
O O7 0.823937 0.963573 0.161711
O O8 0.708933 0.081902 0.070214
O O9 0.241703 0.603928 0.591860
O O10 0.196229 0.805453 0.348814
O O11 0.818201 0.204929 0.302536
O O12 0.000000 0.000000 0.000000
O O13 0.000000 0.500000 0.500000
O O14 0.429443 0.087453 0.153937
O O15 0.000000 0.500000 0.000000
O O16 0.500000 0.000000 0.000000
#
# Coordination Sequence:
#
# PCOD9031593 Si02
#       7
#     2   2   2   2   2   2   2
#     4  11  23  39  68  95 132 173 222 270 332 393
#     4  11  23  43  65  93 136 169 216 273 331 393
#     4  10  23  41  66  94 130 172 219 268 330 391
#     4  10  22  43  67  95 129 174 221 272 324 391
#     4  11  24  42  66  97 133 176 221 267 331 399
#     4  12  25  41  66 102 135 172 216 273 334 391
#     4  11  24  43  65  94 133 175 218 276 333 387
#
# _framework density 21.356655
#
# number of rings (size 3 to 8) (size 9 to 14) (size 15 to 20)
#    0.000    1.143    1.429    6.000    2.000    3.429 
#    0.000    4.286    0.000    0.000    0.000    0.000 
#    0.000    0.000    0.000    0.000    0.000    0.000 
#
# Total GULP energy -77944.837387 kJ/mol
# GULP energy per Si atom -5567.488385 kJ/mol
# Density = 2.130805 g / cm^3
# Si number density = 21.356655 Si / 1000 Ang^3
#
#
#
# Elastic Constant Matrix: (Units=GPa)
#
#
# Indices 1 2 3 4 5 6 
#
# 1 77.3114 5.9090 -9.4932 -1.3589 -14.0347 -16.8889
# 2 5.9090 100.9655 19.4247 -22.0585 1.5401 -5.0105
# 3 -9.4932 19.4247 58.1480 -14.5629 9.0093 -11.8393
# 4 -1.3589 -22.0585 -14.5629 46.6201 -10.2843 -7.3121
# 5 -14.0347 1.5401 9.0093 -10.2843 25.1740 -0.4909
# 6 -16.8889 -5.0105 -11.8393 -7.3121 -0.4909 46.2280
#
#
#
# Elastic Compliance Matrix: (Units=1/GPa)
#
#
# Indices 1 2 3 4 5 6 
#
# 1 0.017315 -0.000450 0.004380 0.005269 0.010429 0.008343
# 2 -0.000450 0.011648 -0.002711 0.005339 0.002213 0.001272
# 3 0.004380 -0.002711 0.022514 0.006570 -0.002608 0.008084
# 4 0.005269 0.005339 0.006570 0.030457 0.012880 0.009141
# 5 0.010429 0.002213 -0.002608 0.012880 0.051714 0.005968
# 6 0.008343 0.001272 0.008084 0.009141 0.005968 0.028397
#
#
# Mechanical properties :
#
#
# Convention : Reuss Voigt Hill
#
# Bulk Modulus (GPa) = 18.54816 29.78954 24.16885
# Shear Modulus (GPa) = 28.15638 38.31006 33.23322
#
# Velocity S-wave (km/s) = 3.63490 4.23995 3.94903
# Velocity P-wave (km/s) = 5.13035 6.16023 5.66873
#
# Compressibility (1/GPa) = 0.05391371
#
# Stress axis : x y z
#
# Youngs Moduli (GPa) = 57.75264 85.85081 44.41758
#
# Poissons Ratio (x) = 0.03862 -0.19453
# Poissons Ratio (y) = 0.02598 0.12043
# Poissons Ratio (z) = -0.25294 0.23277
#
# Static dielectric constant tensor:
#      x y z
#    x 1.610560 -0.049200 0.067980 
#    y -0.049200 1.859020 -0.036310 
#    z 0.067980 -0.036310 1.804150 
# 
# From -- ./inp_files/601418.got.cif
#   From: 2010.05.17/outbox.cif.g08.bks.cpg/sg2_301_cif.got.tgz:601418.got - 2010.06.03 11:33:40.
