data_PCOD9031508
_publ_section_title
;
Structure prediction by ZEFSAII (Michael W. Deem and Ramdas Pophale) SiO2 
 PCOD9031508
Probable space group: P -1
;
_chemical_formula_sum "Si O2"
_cell_formula_units_Z 15
_cell_length_a 5.458841
_cell_length_b 7.844958
_cell_length_c 15.869720
_cell_angle_alpha 90.374254
_cell_angle_beta 77.238160
_cell_angle_gamma 58.318228
_cell_volume 557.864645
_symmetry_space_group_name_H-M "P -1"
_symmetry_group_IT_number 2
_symmetry_cell_setting 'triclinic'
loop_
_space_group_symop_operation_xyz
x,y,z
-x,-y,-z
loop_
_atom_site_type_symbol
_atom_site_label
_atom_site_fract_x
_atom_site_fract_y
_atom_site_fract_z
Si Si1 0.723719 0.331393 0.297926
Si Si2 0.798878 0.318490 0.571152
Si Si3 0.016166 0.319942 0.893153
Si Si4 0.000000 0.000000 0.000000
Si Si5 0.725504 0.660201 0.801832
Si Si6 0.606393 0.036179 0.902218
Si Si7 0.692532 0.954251 0.569166
Si Si8 0.857930 0.907138 0.293369
O O1 0.495087 0.463171 0.391203
O O2 0.952552 0.401251 0.261438
O O3 0.916055 0.088580 0.297829
O O4 0.498439 0.366679 0.238367
O O5 0.012654 0.264374 0.473959
O O6 0.731523 0.141842 0.571560
O O7 0.990782 0.253137 0.642667
O O8 0.791219 0.550430 0.887349
O O9 0.353141 0.258925 0.891350
O O10 0.039909 0.217137 0.800176
O O11 0.925874 0.223383 0.973419
O O12 0.065691 0.036553 0.093672
O O13 0.578899 0.892347 0.839995
O O14 0.500000 0.000000 0.000000
O O15 0.496209 0.968767 0.662209
O O16 0.500000 0.000000 0.500000
#
# Coordination Sequence:
#
# PCOD9031508 Si02
#       8
#     2   2   2   1   2   2   2   2
#     4  12  27  42  71 109 140 181 241 288 348 419
#     4  10  22  43  67 102 140 186 232 291 350 414
#     4  11  23  44  71  99 139 183 230 292 355 413
#     4  10  24  42  68  98 134 178 228 284 346 422
#     4  12  27  45  70 108 138 183 237 291 347 426
#     4  10  24  45  68  99 137 178 227 288 349 419
#     4   9  21  41  67  98 141 185 235 284 352 414
#     4  11  22  41  71  99 138 186 232 292 350 414
#
# _framework density 26.88824
#
# number of rings (size 3 to 8) (size 9 to 14) (size 15 to 20)
#    0.000    1.333    2.667    1.600    7.467    4.800 
#    0.000    9.333    0.000    0.000    0.000    0.000 
#    0.000    0.000    0.000    0.000    0.000    0.000 
#
# Total GULP energy -83604.537598 kJ/mol
# GULP energy per Si atom -5573.635840 kJ/mol
# Density = 2.682704 g / cm^3
# Si number density = 26.888240 Si / 1000 Ang^3
#
#
#
# Elastic Constant Matrix: (Units=GPa)
#
#
# Indices 1 2 3 4 5 6 
#
# 1 101.0832 13.3920 27.7105 1.2471 7.8127 -8.8123
# 2 13.3920 69.6631 2.0264 -12.9294 10.8632 -18.3170
# 3 27.7105 2.0264 85.2570 9.9482 3.4622 -11.0325
# 4 1.2471 -12.9294 9.9482 45.3559 1.6116 4.6767
# 5 7.8127 10.8632 3.4622 1.6116 49.6142 -11.2262
# 6 -8.8123 -18.3170 -11.0325 4.6767 -11.2262 37.1747
#
#
#
# Elastic Compliance Matrix: (Units=1/GPa)
#
#
# Indices 1 2 3 4 5 6 
#
# 1 0.011206 -0.001789 -0.003495 -0.000060 -0.001029 0.000435
# 2 -0.001789 0.017733 0.000698 0.004270 -0.002127 0.007341
# 3 -0.003495 0.000698 0.013733 -0.003160 0.000477 0.004133
# 4 -0.000060 0.004270 -0.003160 0.024294 -0.002066 -0.002528
# 5 -0.001029 -0.002127 0.000477 -0.002066 0.022128 0.005792
# 6 0.000435 0.007341 0.004133 -0.002528 0.005792 0.033914
#
#
# Mechanical properties :
#
#
# Convention : Reuss Voigt Hill
#
# Bulk Modulus (GPa) = 29.85046 38.02901 33.93974
# Shear Modulus (GPa) = 34.88098 40.62057 37.75078
#
# Velocity S-wave (km/s) = 3.60565 3.89101 3.75105
# Velocity P-wave (km/s) = 5.33480 5.86180 5.60450
#
# Compressibility (1/GPa) = 0.03350032
#
# Stress axis : x y z
#
# Youngs Moduli (GPa) = 89.23787 56.39258 72.81925
#
# Poissons Ratio (x) = 0.10089 0.25448
# Poissons Ratio (y) = 0.15965 -0.05084
# Poissons Ratio (z) = 0.31186 -0.03937
#
# Static dielectric constant tensor:
#      x y z
#    x 2.326670 0.017220 -0.068210 
#    y 0.017220 2.092640 -0.005520 
#    z -0.068210 -0.005520 2.117970 
# 
# From -- ./inp_files/546638.got.cif
#   From: 2010.05.17/outbox.cif.g08.bks.cpg/sg2_274_cif.got.tgz:546638.got - 2010.06.03 11:33:40.
