data_PCOD9031917
_publ_section_title
;
Structure prediction by ZEFSAII (Michael W. Deem and Ramdas Pophale) SiO2 
 PCOD9031917
Probable space group: P -1
;
_chemical_formula_sum "Si O2"
_cell_formula_units_Z 15
_cell_length_a 12.794958
_cell_length_b 8.574729
_cell_length_c 18.692653
_cell_angle_alpha 50.901178
_cell_angle_beta 157.733972
_cell_angle_gamma 126.035327
_cell_volume 602.981631
_symmetry_space_group_name_H-M "P -1"
_symmetry_group_IT_number 2
_symmetry_cell_setting 'triclinic'
loop_
_space_group_symop_operation_xyz
x,y,z
-x,-y,-z
loop_
_atom_site_type_symbol
_atom_site_label
_atom_site_fract_x
_atom_site_fract_y
_atom_site_fract_z
Si Si1 0.488221 0.259974 0.578049
Si Si2 0.318003 0.690111 0.694212
Si Si3 0.914996 0.721231 0.294093
Si Si4 0.762560 0.288149 0.883347
Si Si5 0.765837 0.498005 0.963102
Si Si6 0.000000 0.000000 0.500000
Si Si7 0.206503 0.940748 0.293398
Si Si8 0.127508 0.887276 0.773165
O O1 0.500000 0.500000 0.500000
O O2 0.528506 0.221612 0.699141
O O3 0.720143 0.151184 0.710258
O O4 0.199992 0.153744 0.405730
O O5 0.133382 0.691669 0.505025
O O6 0.623172 0.686243 0.855202
O O7 0.208516 0.856595 0.628474
O O8 0.262880 0.479905 0.760383
O O9 0.067235 0.767828 0.303417
O O10 0.771132 0.926902 0.167592
O O11 0.626257 0.398287 0.832727
O O12 0.941512 0.442310 0.902945
O O13 0.986127 0.121740 0.096068
O O14 0.764219 0.323334 0.070144
O O15 0.151369 0.936264 0.691202
O O16 0.500000 0.000000 0.500000
#
# Coordination Sequence:
#
# PCOD9031917 Si02
#       8
#     2   2   2   2   2   1   2   2
#     4  12  26  42  69 104 144 188 230 299 357 411
#     4  10  24  42  72  98 138 186 232 295 351 422
#     4  10  22  43  68  99 131 187 238 275 351 433
#     4  11  25  42  68 109 146 181 240 290 354 430
#     4  11  23  44  72 103 139 190 238 290 355 426
#     4  10  26  46  66 102 138 178 238 296 350 416
#     4  12  23  44  71 101 143 191 230 295 355 425
#     4  11  23  47  66 100 142 183 237 293 349 425
#
# _framework density 24.876379
#
# number of rings (size 3 to 8) (size 9 to 14) (size 15 to 20)
#    0.000    1.067    4.000    1.200    7.467    3.200 
#    2.400    0.000    0.000    0.000    0.000    0.000 
#    0.000    0.000    0.000    0.000    0.000    0.000 
#
# Total GULP energy -83682.030153 kJ/mol
# GULP energy per Si atom -5578.802010 kJ/mol
# Density = 2.481976 g / cm^3
# Si number density = 24.876379 Si / 1000 Ang^3
#
#
#
# Elastic Constant Matrix: (Units=GPa)
#
#
# Indices 1 2 3 4 5 6 
#
# 1 145.7117 36.9599 41.8517 -17.2649 1.0910 -30.9250
# 2 36.9599 97.7972 29.6960 -23.9843 2.6763 8.1233
# 3 41.8517 29.6960 72.8440 -22.6024 5.5846 -12.1217
# 4 -17.2649 -23.9843 -22.6024 31.0799 -2.4194 0.5181
# 5 1.0910 2.6763 5.5846 -2.4194 41.6970 -13.4330
# 6 -30.9250 8.1233 -12.1217 0.5181 -13.4330 45.3407
#
#
#
# Elastic Compliance Matrix: (Units=1/GPa)
#
#
# Indices 1 2 3 4 5 6 
#
# 1 0.010376 -0.003448 -0.003238 0.000847 0.002907 0.007681
# 2 -0.003448 0.014753 -0.002604 0.007517 -0.002137 -0.006410
# 3 -0.003238 -0.002604 0.020746 0.011162 -0.000768 0.003449
# 4 0.000847 0.007517 0.011162 0.046636 0.001380 0.002091
# 5 0.002907 -0.002137 -0.000768 0.001380 0.027547 0.010306
# 6 0.007681 -0.006410 0.003449 0.002091 0.010306 0.032394
#
#
# Mechanical properties :
#
#
# Convention : Reuss Voigt Hill
#
# Bulk Modulus (GPa) = 36.63581 59.26310 47.94945
# Shear Modulus (GPa) = 27.75764 37.47989 32.61876
#
# Velocity S-wave (km/s) = 3.34402 3.88576 3.62503
# Velocity P-wave (km/s) = 5.44693 6.63378 6.06943
#
# Compressibility (1/GPa) = 0.02729570
#
# Stress axis : x y z
#
# Youngs Moduli (GPa) = 96.37469 67.78110 48.20197
#
# Poissons Ratio (x) = 0.23372 0.15607
# Poissons Ratio (y) = 0.33231 0.12552
# Poissons Ratio (z) = 0.31205 0.17650
#
# Static dielectric constant tensor:
#      x y z
#    x 1.928700 0.016000 0.033560 
#    y 0.016000 2.017500 0.082330 
#    z 0.033560 0.082330 2.048370 
# 
# From -- ./inp_files/176866.got.cif
#   From: 2010.05.17/outbox.cif.g08.bks.cpg/sg2_89_cif.got.tgz:176866.got - 2010.06.03 11:33:40.
