data_PCOD9031417
_publ_section_title
;
Structure prediction by ZEFSAII (Michael W. Deem and Ramdas Pophale) SiO2 
 PCOD9031417
Probable space group: P -1
;
_chemical_formula_sum "Si O2"
_cell_formula_units_Z 16
_cell_length_a 8.696439
_cell_length_b 15.216111
_cell_length_c 12.282126
_cell_angle_alpha 29.969049
_cell_angle_beta 89.026538
_cell_angle_gamma 77.804352
_cell_volume 746.260037
_symmetry_space_group_name_H-M "P -1"
_symmetry_group_IT_number 2
_symmetry_cell_setting 'triclinic'
loop_
_space_group_symop_operation_xyz
x,y,z
-x,-y,-z
loop_
_atom_site_type_symbol
_atom_site_label
_atom_site_fract_x
_atom_site_fract_y
_atom_site_fract_z
Si Si1 0.722350 0.416344 0.271376
Si Si2 0.060164 0.442773 0.183828
Si Si3 0.757694 0.989447 0.737734
Si Si4 0.113496 0.758211 0.990101
Si Si5 0.553363 0.497093 0.627939
Si Si6 0.412814 0.181363 0.228931
Si Si7 0.441180 0.099569 0.779958
Si Si8 0.736430 0.971503 0.325329
O O1 0.909546 0.412138 0.284339
O O2 0.740345 0.201363 0.473772
O O3 0.602355 0.474398 0.318242
O O4 0.640667 0.591468 0.997273
O O5 0.114230 0.595155 0.081974
O O6 0.214219 0.236516 0.399428
O O7 0.000000 0.500000 0.000000
O O8 0.601641 0.024656 0.779593
O O9 0.739398 0.860083 0.777511
O O10 0.929678 0.860335 0.933737
O O11 0.274362 0.676407 0.154174
O O12 0.131623 0.940567 0.737792
O O13 0.500000 0.500000 0.500000
O O14 0.602430 0.677884 0.448521
O O15 0.500000 0.000000 0.500000
O O16 0.562130 0.128768 0.197088
O O17 0.290648 0.062730 0.764350
O O18 0.500000 0.000000 0.000000
#
# Coordination Sequence:
#
# PCOD9031417 Si02
#       8
#     2   2   2   2   2   2   2   2
#     4  11  23  46  63  95 140 167 225 278 318 403
#     4  12  26  43  65  98 136 176 223 277 329 388
#     4  10  24  41  66  95 131 173 218 273 328 389
#     4  12  23  44  67  97 132 170 225 271 326 399
#     4  11  24  44  71  99 130 180 218 271 346 398
#     4  11  23  40  66  93 128 178 219 265 334 388
#     4  10  22  43  66  96 133 169 220 275 334 398
#     4  11  23  41  64  94 134 170 216 277 326 389
#
# _framework density 21.440246999999999
#
# number of rings (size 3 to 8) (size 9 to 14) (size 15 to 20)
#    0.000    1.000    5.000    1.500    1.750    2.000 
#    2.250    3.125    0.000    0.000    0.000    0.000 
#    0.000    0.000    0.000    0.000    0.000    0.000 
#
# Total GULP energy -89153.533227 kJ/mol
# GULP energy per Si atom -5572.095827 kJ/mol
# Density = 2.139145 g / cm^3
# Si number density = 21.440247 Si / 1000 Ang^3
#
#
#
# Elastic Constant Matrix: (Units=GPa)
#
#
# Indices 1 2 3 4 5 6 
#
# 1 81.8842 19.0579 28.1869 -10.9375 0.9023 10.7165
# 2 19.0579 40.5356 37.3156 -14.2371 -6.0789 16.9131
# 3 28.1869 37.3156 129.0593 -13.8286 1.0883 6.1610
# 4 -10.9375 -14.2371 -13.8286 38.2730 2.5372 6.3614
# 5 0.9023 -6.0789 1.0883 2.5372 46.7055 -8.5559
# 6 10.7165 16.9131 6.1610 6.3614 -8.5559 22.0768
#
#
#
# Elastic Compliance Matrix: (Units=1/GPa)
#
#
# Indices 1 2 3 4 5 6 
#
# 1 0.014854 0.000797 -0.002423 0.005395 -0.002167 -0.009539
# 2 0.000797 0.079876 -0.016110 0.035821 -0.003808 -0.068882
# 3 -0.002423 -0.016110 0.011933 -0.004271 -0.000005 0.011417
# 4 0.005395 0.035821 -0.004271 0.047318 -0.006135 -0.044882
# 5 -0.002167 -0.003808 -0.000005 -0.006135 0.024049 0.015059
# 6 -0.009539 -0.068882 0.011417 -0.044882 0.015059 0.118279
#
#
# Mechanical properties :
#
#
# Convention : Reuss Voigt Hill
#
# Bulk Modulus (GPa) = 14.04697 46.73335 30.39016
# Shear Modulus (GPa) = 14.06420 32.53897 23.30159
#
# Velocity S-wave (km/s) = 2.56397 3.89994 3.30026
# Velocity P-wave (km/s) = 3.91551 6.49028 5.35980
#
# Compressibility (1/GPa) = 0.07118975
#
# Stress axis : x y z
#
# Youngs Moduli (GPa) = 67.32260 12.51939 83.80141
#
# Poissons Ratio (x) = -0.00997 0.20303
# Poissons Ratio (y) = -0.05362 1.35008
# Poissons Ratio (z) = 0.16310 0.20169
#
# Static dielectric constant tensor:
#      x y z
#    x 2.083090 -0.384010 -0.431120 
#    y -0.384010 2.468910 0.734610 
#    z -0.431120 0.734610 2.672030 
# 
# From -- ./inp_files/188083.got.cif
#   From: 2010.05.17/outbox.cif.g08.bks.cpg/sg2_95_cif.got.tgz:188083.got - 2010.06.03 11:33:40.
