data_PCOD9031936
_publ_section_title
;
Structure prediction by ZEFSAII (Michael W. Deem and Ramdas Pophale) SiO2 
 PCOD9031936
Probable space group: P -1
;
_chemical_formula_sum "Si O2"
_cell_formula_units_Z 16
_cell_length_a 8.342831
_cell_length_b 14.697188
_cell_length_c 7.263541
_cell_angle_alpha 102.222028
_cell_angle_beta 108.139198
_cell_angle_gamma 114.779942
_cell_volume 705.417692
_symmetry_space_group_name_H-M "P -1"
_symmetry_group_IT_number 2
_symmetry_cell_setting 'triclinic'
loop_
_space_group_symop_operation_xyz
x,y,z
-x,-y,-z
loop_
_atom_site_type_symbol
_atom_site_label
_atom_site_fract_x
_atom_site_fract_y
_atom_site_fract_z
Si Si1 0.114362 0.204887 0.272167
Si Si2 0.318605 0.805651 0.267205
Si Si3 0.272613 0.404411 0.903952
Si Si4 0.732090 0.558429 0.647021
Si Si5 0.701523 0.074528 0.004644
Si Si6 0.084115 0.572810 0.243808
Si Si7 0.951142 0.828084 0.205727
Si Si8 0.745283 0.945840 0.624340
O O1 0.175232 0.327990 0.378392
O O2 0.243578 0.160197 0.379628
O O3 0.107519 0.186951 0.038939
O O4 0.890685 0.124841 0.223327
O O5 0.288937 0.821567 0.047952
O O6 0.260817 0.689861 0.281309
O O7 0.541734 0.901384 0.424381
O O8 0.147206 0.820941 0.298518
O O9 0.221302 0.279925 0.801724
O O10 0.104990 0.420626 0.754303
O O11 0.500000 0.500000 0.000000
O O12 0.236386 0.409873 0.111737
O O13 0.500000 0.500000 0.500000
O O14 0.826764 0.483601 0.621897
O O15 0.720710 0.998594 0.826144
O O16 0.500000 0.000000 0.000000
O O17 0.000000 0.500000 0.000000
O O18 0.045781 0.955212 0.335794
#
# Coordination Sequence:
#
# PCOD9031936 Si02
#       8
#     2   2   2   2   2   2   2   2
#     4   9  18  33  50  70  99 136 170 199 245 313
#     4   9  17  31  53  76  97 131 172 205 246 308
#     4   9  18  33  52  75  99 128 171 213 253 305
#     4  10  19  34  52  73  99 134 173 213 254 300
#     4  10  19  33  51  75 103 130 162 205 253 305
#     4   9  17  33  55  74  99 139 175 207 253 311
#     4   8  15  29  49  70  96 127 162 199 244 304
#     4  10  17  32  54  75  97 133 171 205 247 304
#
# _framework density 22.681597
#
# number of rings (size 3 to 8) (size 9 to 14) (size 15 to 20)
#    0.000    3.000    0.000    6.000    0.000    0.000 
#    0.000   16.250    0.000    0.000    0.000    0.000 
#    0.000    0.000    0.000    0.000    0.000    0.000 
#
# Total GULP energy -89134.311858 kJ/mol
# GULP energy per Si atom -5570.894491 kJ/mol
# Density = 2.262997 g / cm^3
# Si number density = 22.681597 Si / 1000 Ang^3
#
#
#
# Elastic Constant Matrix: (Units=GPa)
#
#
# Indices 1 2 3 4 5 6 
#
# 1 66.8176 54.0802 24.5900 0.1182 13.7605 -0.8295
# 2 54.0802 153.4028 18.4109 8.3103 15.1098 -6.7617
# 3 24.5900 18.4109 54.6171 3.3883 20.8222 -10.0024
# 4 0.1182 8.3103 3.3883 32.0683 0.9313 15.2878
# 5 13.7605 15.1098 20.8222 0.9313 42.0488 -0.8974
# 6 -0.8295 -6.7617 -10.0024 15.2878 -0.8974 38.9610
#
#
#
# Elastic Compliance Matrix: (Units=1/GPa)
#
#
# Indices 1 2 3 4 5 6 
#
# 1 0.025285 -0.008238 -0.009721 0.005798 -0.000750 -0.005679
# 2 -0.008238 0.009747 0.002000 -0.004440 -0.001619 0.003735
# 3 -0.009721 0.002000 0.028779 -0.008188 -0.011383 0.010479
# 4 0.005798 -0.004440 -0.008188 0.042306 0.002404 -0.019294
# 5 -0.000750 -0.001619 -0.011383 0.002404 0.030119 -0.003469
# 6 -0.005679 0.003735 0.010479 -0.019294 -0.003469 0.036375
#
#
# Mechanical properties :
#
#
# Convention : Reuss Voigt Hill
#
# Bulk Modulus (GPa) = 31.35436 52.11107 41.73271
# Shear Modulus (GPa) = 23.23864 34.46603 28.85234
#
# Velocity S-wave (km/s) = 3.20435 3.90238 3.57046
# Velocity P-wave (km/s) = 5.24825 6.58253 5.95289
#
# Compressibility (1/GPa) = 0.03189350
#
# Stress axis : x y z
#
# Youngs Moduli (GPa) = 39.54992 102.59056 34.74813
#
# Poissons Ratio (x) = 0.84510 0.33777
# Poissons Ratio (y) = 0.32580 -0.06948
# Poissons Ratio (z) = 0.38445 -0.20515
#
# Static dielectric constant tensor:
#      x y z
#    x 1.793560 -0.018400 -0.043200 
#    y -0.018400 1.927570 -0.017550 
#    z -0.043200 -0.017550 1.856690 
# 
# From -- ./inp_files/207445.got.cif
#   From: 2010.05.17/outbox.cif.g08.bks.cpg/sg2_104_cif.got.tgz:207445.got - 2010.06.03 11:33:40.
