data_PCOD9031973
_publ_section_title
;
Structure prediction by ZEFSAII (Michael W. Deem and Ramdas Pophale) SiO2 
 PCOD9031973
Probable space group: P -1
;
_chemical_formula_sum "Si O2"
_cell_formula_units_Z 14
_cell_length_a 17.144091
_cell_length_b 8.068437
_cell_length_c 10.478503
_cell_angle_alpha 84.118478
_cell_angle_beta 61.251272
_cell_angle_gamma 38.964517
_cell_volume 695.508394
_symmetry_space_group_name_H-M "P -1"
_symmetry_group_IT_number 2
_symmetry_cell_setting 'triclinic'
loop_
_space_group_symop_operation_xyz
x,y,z
-x,-y,-z
loop_
_atom_site_type_symbol
_atom_site_label
_atom_site_fract_x
_atom_site_fract_y
_atom_site_fract_z
Si Si1 0.349285 0.391225 0.721455
Si Si2 0.852217 0.211416 0.701383
Si Si3 0.771733 0.072243 0.332083
Si Si4 0.079455 0.791388 0.079011
Si Si5 0.281030 0.220156 0.587024
Si Si6 0.214809 0.984273 0.384859
Si Si7 0.832515 0.586921 0.615104
O O1 0.316220 0.637366 0.693516
O O2 0.270077 0.391356 0.678326
O O3 0.538479 0.061385 0.590824
O O4 0.262748 0.479394 0.914409
O O5 0.916771 0.106764 0.802779
O O6 0.760618 0.529709 0.731029
O O7 0.756874 0.200769 0.727411
O O8 0.000000 0.000000 0.500000
O O9 0.743137 0.926737 0.323068
O O10 0.719243 0.161823 0.515389
O O11 0.962441 0.818334 0.193625
O O12 0.000000 0.000000 0.000000
O O13 0.165695 0.419296 0.540073
O O14 0.259638 0.100586 0.300412
O O15 0.019552 0.301462 0.533195
#
# Coordination Sequence:
#
# PCOD9031973 Si02
#       7
#     2   2   2   2   2   2   2
#     4  10  22  37  51  78 117 145 179 221 269 329
#     4  10  17  32  54  76 105 143 172 218 273 316
#     4  10  18  36  57  81 104 143 186 227 262 319
#     4  10  21  34  54  85 113 135 180 235 271 303
#     4  10  21  35  57  78 106 155 182 209 272 334
#     4   9  17  28  53  82  99 127 186 224 257 307
#     4   9  17  29  51  80 100 130 186 222 248 318
#
# _framework density 20.129161
#
# number of rings (size 3 to 8) (size 9 to 14) (size 15 to 20)
#    0.000    2.286    2.857    1.286    6.000    0.571 
#    0.000    3.571    0.000    3.429    0.000    0.000 
#    0.000    0.000    0.000    0.000    0.000    0.000 
#
# Total GULP energy -77964.969504 kJ/mol
# GULP energy per Si atom -5568.926393 kJ/mol
# Density = 2.008335 g / cm^3
# Si number density = 20.129161 Si / 1000 Ang^3
#
#
#
# Elastic Constant Matrix: (Units=GPa)
#
#
# Indices 1 2 3 4 5 6 
#
# 1 90.4358 13.8578 22.2949 -10.6342 8.9908 32.8446
# 2 13.8578 43.9259 22.1334 -9.8827 0.0869 18.5662
# 3 22.2949 22.1334 77.7025 -3.8333 7.4322 1.6472
# 4 -10.6342 -9.8827 -3.8333 19.0773 -8.7752 -2.4028
# 5 8.9908 0.0869 7.4322 -8.7752 19.3084 -1.2879
# 6 32.8446 18.5662 1.6472 -2.4028 -1.2879 34.6033
#
#
#
# Elastic Compliance Matrix: (Units=1/GPa)
#
#
# Indices 1 2 3 4 5 6 
#
# 1 0.022615 0.010413 -0.007952 0.011208 -0.004161 -0.026050
# 2 0.010413 0.047221 -0.015473 0.028505 0.011710 -0.032068
# 3 -0.007952 -0.015473 0.019470 -0.010196 -0.007426 0.013938
# 4 0.011208 0.028505 -0.010196 0.085832 0.036376 -0.018133
# 5 -0.004161 0.011710 -0.007426 0.036376 0.073284 0.003273
# 6 -0.026050 -0.032068 0.013938 -0.018133 0.003273 0.069030
#
#
# Mechanical properties :
#
#
# Convention : Reuss Voigt Hill
#
# Bulk Modulus (GPa) = 15.80199 36.51516 26.15858
# Shear Modulus (GPa) = 13.71476 24.84968 19.28222
#
# Velocity S-wave (km/s) = 2.61308 3.51737 3.09839
# Velocity P-wave (km/s) = 4.11966 5.88861 5.08170
#
# Compressibility (1/GPa) = 0.06328315
#
# Stress axis : x y z
#
# Youngs Moduli (GPa) = 44.21874 21.17696 51.36019
#
# Poissons Ratio (x) = -0.22051 0.40840
# Poissons Ratio (y) = -0.46044 0.79467
# Poissons Ratio (z) = 0.35161 0.32766
#
# Static dielectric constant tensor:
#      x y z
#    x 1.815570 0.033000 -0.014840 
#    y 0.033000 1.771480 0.004790 
#    z -0.014840 0.004790 1.717980 
# 
# From -- ./inp_files/167788.got.cif
#   From: 2010.05.17/outbox.cif.g08.bks.cpg/sg2_84_cif.got.tgz:167788.got - 2010.06.03 11:33:40.
