data_PCOD9031925
_publ_section_title
;
Structure prediction by ZEFSAII (Michael W. Deem and Ramdas Pophale) SiO2 
 PCOD9031925
Probable space group: P -1
;
_chemical_formula_sum "Si O2"
_cell_formula_units_Z 15
_cell_length_a 8.626058
_cell_length_b 5.171631
_cell_length_c 26.779718
_cell_angle_alpha 110.182985
_cell_angle_beta 35.624182
_cell_angle_gamma 111.618263
_cell_volume 644.612173
_symmetry_space_group_name_H-M "P -1"
_symmetry_group_IT_number 2
_symmetry_cell_setting 'triclinic'
loop_
_space_group_symop_operation_xyz
x,y,z
-x,-y,-z
loop_
_atom_site_type_symbol
_atom_site_label
_atom_site_fract_x
_atom_site_fract_y
_atom_site_fract_z
Si Si1 0.000000 0.500000 0.000000
Si Si2 0.905900 0.573966 0.319213
Si Si3 0.476201 0.635220 0.688156
Si Si4 0.181057 0.789733 0.869239
Si Si5 0.574823 0.825313 0.015174
Si Si6 0.721055 0.108435 0.591516
Si Si7 0.672908 0.091598 0.411700
Si Si8 0.537772 0.296576 0.857934
O O1 0.138838 0.602954 0.916783
O O2 0.298767 0.470161 0.942214
O O3 0.698822 0.469898 0.321880
O O4 0.798144 0.409446 0.386674
O O5 0.198023 0.526753 0.222359
O O6 0.908259 0.904594 0.341849
O O7 0.274249 0.630160 0.786953
O O8 0.700996 0.435115 0.623399
O O9 0.608086 0.948082 0.660423
O O10 0.407048 0.052908 0.839038
O O11 0.898289 0.907753 0.944288
O O12 0.420332 0.848090 0.109323
O O13 0.500000 0.500000 0.000000
O O14 0.500000 0.000000 0.000000
O O15 0.522414 0.006386 0.590451
O O16 0.000000 0.000000 0.500000
O O17 0.500000 0.000000 0.500000
#
# Coordination Sequence:
#
# PCOD9031925 Si02
#       8
#     1   2   2   2   2   2   2   2
#     4  10  24  44  64  92 146 176 224 298 348 392
#     4  10  23  43  69 100 135 181 228 285 337 422
#     4  10  23  43  69 100 135 181 228 285 337 422
#     4  11  26  44  68  99 141 185 237 294 353 407
#     4  11  26  43  70  96 133 189 236 288 353 418
#     4  10  22  43  68  99 137 173 224 281 350 415
#     4  10  22  43  68  99 137 173 224 281 350 415
#     4  11  26  44  68  99 141 185 237 294 353 407
#
# _framework density 23.269805999999999
#
# number of rings (size 3 to 8) (size 9 to 14) (size 15 to 20)
#    0.000    1.600    0.000    3.200   11.200    4.267 
#    0.000    0.000    0.000    0.000    0.000    0.000 
#    0.000    0.000    0.000    0.000    0.000    0.000 
#
# Total GULP energy -83625.408908 kJ/mol
# GULP energy per Si atom -5575.027261 kJ/mol
# Density = 2.321684 g / cm^3
# Si number density = 23.269806 Si / 1000 Ang^3
#
#
#
# Elastic Constant Matrix: (Units=GPa)
#
#
# Indices 1 2 3 4 5 6 
#
# 1 67.9301 40.1318 25.1883 -15.1214 12.9442 -33.7436
# 2 40.1318 97.8328 22.9210 -15.0944 6.0202 -34.7702
# 3 25.1883 22.9210 119.5782 -19.0553 7.9023 -30.8164
# 4 -15.1214 -15.0944 -19.0553 29.4885 -5.4790 8.3762
# 5 12.9442 6.0202 7.9023 -5.4790 37.7864 -9.7592
# 6 -33.7436 -34.7702 -30.8164 8.3762 -9.7592 34.9800
#
#
#
# Elastic Compliance Matrix: (Units=1/GPa)
#
#
# Indices 1 2 3 4 5 6 
#
# 1 0.030835 -0.002217 0.002327 0.008049 -0.002570 0.026947
# 2 -0.002217 0.016914 0.001913 0.004691 0.002457 0.015922
# 3 0.002327 0.001913 0.011882 0.006202 0.000758 0.013340
# 4 0.008049 0.004691 0.006202 0.042654 0.003627 0.008690
# 5 -0.002570 0.002457 0.000758 0.003627 0.029376 0.007958
# 6 0.026947 0.015922 0.013340 0.008690 0.007958 0.082300
#
#
# Mechanical properties :
#
#
# Convention : Reuss Voigt Hill
#
# Bulk Modulus (GPa) = 15.70425 51.31372 33.50898
# Shear Modulus (GPa) = 21.63186 33.59097 27.61142
#
# Velocity S-wave (km/s) = 3.05226 3.80352 3.44841
# Velocity P-wave (km/s) = 4.38008 6.43339 5.50335
#
# Compressibility (1/GPa) = 0.06367705
#
# Stress axis : x y z
#
# Youngs Moduli (GPa) = 32.43075 59.12325 84.16060
#
# Poissons Ratio (x) = 0.13106 -0.19582
# Poissons Ratio (y) = 0.07189 -0.16102
# Poissons Ratio (z) = -0.07546 -0.11312
#
# Static dielectric constant tensor:
#      x y z
#    x 1.858900 0.001840 -0.006330 
#    y 0.001840 1.935560 0.050120 
#    z -0.006330 0.050120 1.868140 
# 
# From -- ./inp_files/616271.got.cif
#   From: 2010.05.17/outbox.cif.g08.bks.cpg/sg2_309_cif.got.tgz:616271.got - 2010.06.03 11:33:40.
