data_PCOD9031679
_publ_section_title
;
Structure prediction by ZEFSAII (Michael W. Deem and Ramdas Pophale) SiO2 
 PCOD9031679
Probable space group: P -1
;
_chemical_formula_sum "Si O2"
_cell_formula_units_Z 10
_cell_length_a 5.267822
_cell_length_b 13.138051
_cell_length_c 7.002226
_cell_angle_alpha 93.039040
_cell_angle_beta 99.761705
_cell_angle_gamma 95.564277
_cell_volume 474.156253
_symmetry_space_group_name_H-M "P -1"
_symmetry_group_IT_number 2
_symmetry_cell_setting 'triclinic'
loop_
_space_group_symop_operation_xyz
x,y,z
-x,-y,-z
loop_
_atom_site_type_symbol
_atom_site_label
_atom_site_fract_x
_atom_site_fract_y
_atom_site_fract_z
Si Si1 0.243260 0.935446 0.039328
Si Si2 0.844845 0.256898 0.265385
Si Si3 0.703337 0.215127 0.657227
Si Si4 0.783162 0.671323 0.367281
Si Si5 0.231617 0.524691 0.878230
O O1 0.308852 0.893476 0.252679
O O2 0.832325 0.167351 0.103029
O O3 0.500000 0.000000 0.000000
O O4 0.000000 0.000000 0.000000
O O5 0.683110 0.212254 0.424963
O O6 0.751209 0.358797 0.176340
O O7 0.121060 0.295777 0.404126
O O8 0.487154 0.285653 0.705074
O O9 0.992435 0.270894 0.731059
O O10 0.797462 0.552566 0.314195
O O11 0.500000 0.500000 0.000000
O O12 0.000000 0.500000 0.000000
#
# Coordination Sequence:
#
# PCOD9031679 Si02
#       5
#     2   2   2   2   2
#     4  12  27  45  68  96 130 172 225 276 328 378
#     4  10  27  43  71  94 137 171 220 269 322 389
#     4  10  24  44  69  94 135 166 222 264 331 384
#     4  10  22  43  67  99 135 167 215 260 325 396
#     4  12  25  40  70 101 136 174 213 261 329 392
#
# _framework density 21.090095000000002
#
# number of rings (size 3 to 8) (size 9 to 14) (size 15 to 20)
#    1.200    0.000    0.000    5.400    5.600    2.400 
#    0.000    0.000    0.000    0.000    0.000    0.000 
#    0.000    0.000    0.000    0.000    0.000    0.000 
#
# Total GULP energy -55812.974417 kJ/mol
# GULP energy per Si atom -5581.297442 kJ/mol
# Density = 2.104209 g / cm^3
# Si number density = 21.090095 Si / 1000 Ang^3
#
#
#
# Elastic Constant Matrix: (Units=GPa)
#
#
# Indices 1 2 3 4 5 6 
#
# 1 142.3079 39.4780 42.2327 -26.9403 0.6934 -21.9521
# 2 39.4780 129.2497 55.7896 -40.0476 -6.1599 -12.4072
# 3 42.2327 55.7896 99.0012 -33.7433 -3.0911 0.4741
# 4 -26.9403 -40.0476 -33.7433 44.9742 1.3560 10.2878
# 5 0.6934 -6.1599 -3.0911 1.3560 8.3451 -4.3939
# 6 -21.9521 -12.4072 0.4741 10.2878 -4.3939 26.6898
#
#
#
# Elastic Compliance Matrix: (Units=1/GPa)
#
#
# Indices 1 2 3 4 5 6 
#
# 1 0.009516 -0.000247 -0.003563 0.001011 0.001568 0.007644
# 2 -0.000247 0.012654 -0.004629 0.006258 0.009190 0.004863
# 3 -0.003563 -0.004629 0.017203 0.008875 -0.003098 -0.009320
# 4 0.001011 0.006258 0.008875 0.037902 -0.004535 -0.011773
# 5 0.001568 0.009190 -0.003098 -0.004535 0.142284 0.030788
# 6 0.007644 0.004863 -0.009320 -0.011773 0.030788 0.055787
#
#
# Mechanical properties :
#
#
# Convention : Reuss Voigt Hill
#
# Bulk Modulus (GPa) = 44.45598 71.72881 58.09239
# Shear Modulus (GPa) = 16.68211 31.53904 24.11058
#
# Velocity S-wave (km/s) = 2.81551 3.87129 3.38482
# Velocity P-wave (km/s) = 5.62977 7.35303 6.54833
#
# Compressibility (1/GPa) = 0.02249416
#
# Stress axis : x y z
#
# Youngs Moduli (GPa) = 105.08822 79.02548 58.13069
#
# Poissons Ratio (x) = 0.01949 0.20714
# Poissons Ratio (y) = 0.02592 0.26910
# Poissons Ratio (z) = 0.37446 0.36583
#
# Static dielectric constant tensor:
#      x y z
#    x 1.752560 0.053390 -0.083770 
#    y 0.053390 1.750490 -0.060740 
#    z -0.083770 -0.060740 2.285600 
# 
# From -- ./inp_files/130816.got.cif
#   From: 2010.05.17/outbox.cif.g08.bks.cpg/sg2_66_cif.got.tgz:130816.got - 2010.06.03 11:33:40.
