data_PCOD9031380
_publ_section_title
;
Structure prediction by ZEFSAII (Michael W. Deem and Ramdas Pophale) SiO2 
 PCOD9031380
Probable space group: P -1
;
_chemical_formula_sum "Si O2"
_cell_formula_units_Z 16
_cell_length_a 11.667146
_cell_length_b 12.163938
_cell_length_c 9.222725
_cell_angle_alpha 87.385680
_cell_angle_beta 77.837140
_cell_angle_gamma 34.590945
_cell_volume 706.853215
_symmetry_space_group_name_H-M "P -1"
_symmetry_group_IT_number 2
_symmetry_cell_setting 'triclinic'
loop_
_space_group_symop_operation_xyz
x,y,z
-x,-y,-z
loop_
_atom_site_type_symbol
_atom_site_label
_atom_site_fract_x
_atom_site_fract_y
_atom_site_fract_z
Si Si1 0.134097 0.505046 0.944352
Si Si2 0.426583 0.280414 0.132610
Si Si3 0.696808 0.373913 0.858484
Si Si4 0.831280 0.929616 0.515272
Si Si5 0.890093 0.892962 0.149879
Si Si6 0.371426 0.332487 0.596780
Si Si7 0.703301 0.384616 0.540902
Si Si8 0.766398 0.727076 0.578801
O O1 0.204360 0.472520 0.763119
O O2 0.354425 0.316206 0.985142
O O3 0.989554 0.713044 0.043945
O O4 0.000000 0.500000 0.000000
O O5 0.314418 0.485618 0.175577
O O6 0.332318 0.256884 0.257607
O O7 0.672606 0.097251 0.119651
O O8 0.914841 0.174227 0.891238
O O9 0.676492 0.347327 0.704815
O O10 0.500000 0.500000 0.000000
O O11 0.793078 0.835367 0.584383
O O12 0.853141 0.903556 0.333289
O O13 0.040032 0.822615 0.535581
O O14 0.612529 0.161916 0.590709
O O15 0.323757 0.462060 0.481623
O O16 0.358742 0.222447 0.530918
O O17 0.500000 0.500000 0.500000
O O18 0.000000 0.500000 0.500000
#
# Coordination Sequence:
#
# PCOD9031380 Si02
#       8
#     2   2   2   2   2   2   2   2
#     4  11  26  40  60  98 143 172 203 266 329 389
#     4  11  23  42  64  95 129 174 220 263 326 401
#     4  10  22  44  68  93 126 170 227 275 325 386
#     4  11  23  42  72 101 126 176 226 269 327 400
#     4  10  22  43  66  94 130 171 222 267 324 394
#     4  12  24  43  66 102 136 171 222 272 332 387
#     4  11  25  43  68  96 134 173 220 279 335 385
#     4  12  20  40  72  97 130 172 220 267 322 400
#
# _framework density 22.635534
#
# number of rings (size 3 to 8) (size 9 to 14) (size 15 to 20)
#    0.000    1.000    3.750    3.375    5.250    2.500 
#    0.000    0.000    0.000    0.000    0.000    0.000 
#    0.000    0.000    0.000    0.000    0.000    0.000 
#
# Total GULP energy -89249.745838 kJ/mol
# GULP energy per Si atom -5578.109115 kJ/mol
# Density = 2.258401 g / cm^3
# Si number density = 22.635534 Si / 1000 Ang^3
#
#
#
# Elastic Constant Matrix: (Units=GPa)
#
#
# Indices 1 2 3 4 5 6 
#
# 1 65.6701 18.1129 22.4511 -4.9543 2.1505 -22.8245
# 2 18.1129 134.0240 3.5507 2.2294 -3.2777 -37.3276
# 3 22.4511 3.5507 77.7628 1.2386 -12.0319 -4.5232
# 4 -4.9543 2.2294 1.2386 30.9851 -7.9934 3.7212
# 5 2.1505 -3.2777 -12.0319 -7.9934 27.1799 3.3037
# 6 -22.8245 -37.3276 -4.5232 3.7212 3.3037 47.2253
#
#
#
# Elastic Compliance Matrix: (Units=1/GPa)
#
#
# Indices 1 2 3 4 5 6 
#
# 1 0.021093 -0.000103 -0.006364 0.001072 -0.005374 0.009795
# 2 -0.000103 0.009650 0.000026 -0.001707 -0.000259 0.007733
# 3 -0.006364 0.000026 0.015791 0.000659 0.007952 -0.002151
# 4 0.001072 -0.001707 0.000659 0.035931 0.011100 -0.004376
# 5 -0.005374 -0.000259 0.007952 0.011100 0.044705 -0.006042
# 6 0.009795 0.007733 -0.002151 -0.004376 -0.006042 0.032583
#
#
# Mechanical properties :
#
#
# Convention : Reuss Voigt Hill
#
# Bulk Modulus (GPa) = 29.71603 40.63182 35.17393
# Shear Modulus (GPa) = 27.19588 36.63421 31.91505
#
# Velocity S-wave (km/s) = 3.46998 4.02735 3.75901
# Velocity P-wave (km/s) = 5.40471 6.29408 5.86627
#
# Compressibility (1/GPa) = 0.03365187
#
# Stress axis : x y z
#
# Youngs Moduli (GPa) = 47.40930 103.62189 63.32907
#
# Poissons Ratio (x) = 0.01071 0.40302
# Poissons Ratio (y) = 0.00490 -0.00166
# Poissons Ratio (z) = 0.30171 -0.00271
#
# Static dielectric constant tensor:
#      x y z
#    x 1.915350 -0.046220 0.050970 
#    y -0.046220 1.839450 -0.005470 
#    z 0.050970 -0.005470 1.833410 
# 
# From -- ./inp_files/273097.got.cif
#   From: 2010.05.17/outbox.cif.g08.bks.cpg/sg2_137_cif.got.tgz:273097.got - 2010.06.03 11:33:40.
