data_PCOD9031708
_publ_section_title
;
Structure prediction by ZEFSAII (Michael W. Deem and Ramdas Pophale) SiO2 
 PCOD9031708
Probable space group: P -1
;
_chemical_formula_sum "Si O2"
_cell_formula_units_Z 16
_cell_length_a 8.207725
_cell_length_b 9.558957
_cell_length_c 14.803813
_cell_angle_alpha 114.785190
_cell_angle_beta 45.544304
_cell_angle_gamma 101.467697
_cell_volume 744.584407
_symmetry_space_group_name_H-M "P -1"
_symmetry_group_IT_number 2
_symmetry_cell_setting 'triclinic'
loop_
_space_group_symop_operation_xyz
x,y,z
-x,-y,-z
loop_
_atom_site_type_symbol
_atom_site_label
_atom_site_fract_x
_atom_site_fract_y
_atom_site_fract_z
Si Si1 0.482125 0.851838 0.905510
Si Si2 0.597506 0.628998 0.438885
Si Si3 0.661610 0.549490 0.870250
Si Si4 0.001047 0.769057 0.089782
Si Si5 0.973924 0.487472 0.139899
Si Si6 0.585103 0.034424 0.376480
Si Si7 0.246756 0.043451 0.338420
Si Si8 0.063024 0.749703 0.365734
O O1 0.570883 0.695286 0.883850
O O2 0.619433 0.878469 0.769040
O O3 0.215598 0.843094 0.989574
O O4 0.500000 0.000000 0.000000
O O5 0.500000 0.500000 0.500000
O O6 0.702322 0.544343 0.282563
O O7 0.404930 0.781357 0.564772
O O8 0.830685 0.691460 0.402306
O O9 0.740222 0.395781 0.739020
O O10 0.893417 0.578109 0.839983
O O11 0.500000 0.500000 0.000000
O O12 0.058702 0.647987 0.117699
O O13 0.953247 0.645935 0.998103
O O14 0.805263 0.908295 0.232670
O O15 0.500000 0.000000 0.500000
O O16 0.407310 0.017645 0.358670
O O17 0.164138 0.879554 0.301245
O O18 0.019500 0.159697 0.486659
#
# Coordination Sequence:
#
# PCOD9031708 Si02
#       8
#     2   2   2   2   2   2   2   2
#     4  12  28  43  69 102 145 179 229 291 344 405
#     4  10  22  43  68 100 138 177 224 288 344 403
#     4  11  22  43  72  99 138 186 228 277 349 410
#     4  11  25  42  70 104 136 183 236 279 347 413
#     4  10  23  43  69 100 137 180 231 284 339 414
#     4  11  24  44  74 100 134 192 231 279 351 416
#     4  10  24  45  68 102 139 178 231 290 339 410
#     4   9  22  43  71  93 133 181 228 280 343 410
#
# _framework density 21.488495
#
# number of rings (size 3 to 8) (size 9 to 14) (size 15 to 20)
#    0.000    1.500    2.500    0.750    8.750    4.000 
#    0.000    0.000    0.000    0.000    0.000    0.000 
#    0.000    0.000    0.000    0.000    0.000    0.000 
#
# Total GULP energy -89220.292214 kJ/mol
# GULP energy per Si atom -5576.268263 kJ/mol
# Density = 2.143959 g / cm^3
# Si number density = 21.488495 Si / 1000 Ang^3
#
#
#
# Elastic Constant Matrix: (Units=GPa)
#
#
# Indices 1 2 3 4 5 6 
#
# 1 47.6997 35.3285 34.5004 2.8824 2.7129 -12.9317
# 2 35.3285 183.5563 102.2651 6.3308 -6.5340 -8.9171
# 3 34.5004 102.2651 168.7888 15.4231 -7.8981 -13.6433
# 4 2.8824 6.3308 15.4231 58.4116 -2.2858 -4.5351
# 5 2.7129 -6.5340 -7.8981 -2.2858 24.3605 -0.4597
# 6 -12.9317 -8.9171 -13.6433 -4.5351 -0.4597 18.1234
#
#
#
# Elastic Compliance Matrix: (Units=1/GPa)
#
#
# Indices 1 2 3 4 5 6 
#
# 1 0.030952 -0.003625 -0.002974 0.000866 -0.004960 0.018154
# 2 -0.003625 0.008672 -0.004626 0.000379 0.001234 -0.001676
# 3 -0.002974 -0.004626 0.009799 -0.001651 0.002162 0.002620
# 4 0.000866 0.000379 -0.001651 0.017835 0.001220 0.004055
# 5 -0.004960 0.001234 0.002162 0.001220 0.042750 0.000085
# 6 0.018154 -0.001676 0.002620 0.004055 0.000085 0.070295
#
#
# Mechanical properties :
#
#
# Convention : Reuss Voigt Hill
#
# Bulk Modulus (GPa) = 37.07334 82.69254 59.88294
# Shear Modulus (GPa) = 23.61349 35.37581 29.49465
#
# Velocity S-wave (km/s) = 3.31855 4.06182 3.70885
# Velocity P-wave (km/s) = 5.65454 7.78227 6.80211
#
# Compressibility (1/GPa) = 0.02697356
#
# Stress axis : x y z
#
# Youngs Moduli (GPa) = 32.30845 115.31237 102.05226
#
# Poissons Ratio (x) = 0.41796 0.30353
# Poissons Ratio (y) = 0.11711 0.47206
# Poissons Ratio (z) = 0.09609 0.53339
#
# Static dielectric constant tensor:
#      x y z
#    x 1.996220 -0.141890 -0.158170 
#    y -0.141890 1.595120 -0.000100 
#    z -0.158170 -0.000100 1.917580 
# 
# From -- ./inp_files/495368.got.cif
#   From: 2010.05.17/outbox.cif.g08.bks.cpg/sg2_248_cif.got.tgz:495368.got - 2010.06.03 11:33:40.
