data_PCOD9031518
_publ_section_title
;
Structure prediction by ZEFSAII (Michael W. Deem and Ramdas Pophale) SiO2 
 PCOD9031518
Probable space group: P -1
;
_chemical_formula_sum "Si O2"
_cell_formula_units_Z 10
_cell_length_a 8.169199
_cell_length_b 7.401835
_cell_length_c 9.316910
_cell_angle_alpha 51.347357
_cell_angle_beta 76.376833
_cell_angle_gamma 54.156205
_cell_volume 349.011766
_symmetry_space_group_name_H-M "P -1"
_symmetry_group_IT_number 2
_symmetry_cell_setting 'triclinic'
loop_
_space_group_symop_operation_xyz
x,y,z
-x,-y,-z
loop_
_atom_site_type_symbol
_atom_site_label
_atom_site_fract_x
_atom_site_fract_y
_atom_site_fract_z
Si Si1 0.722864 0.263628 0.380025
Si Si2 0.484051 0.073819 0.136353
Si Si3 0.296354 0.702821 0.142902
Si Si4 0.774188 0.711977 0.507048
Si Si5 0.088066 0.113842 0.213710
O O1 0.494225 0.538910 0.290608
O O2 0.823445 0.158991 0.565862
O O3 0.736803 0.994424 0.443012
O O4 0.862022 0.317215 0.223886
O O5 0.614168 0.826217 0.350088
O O6 0.245632 0.199507 0.153413
O O7 0.603129 0.228660 0.040477
O O8 0.500000 0.000000 0.000000
O O9 0.247436 0.470404 0.276723
O O10 0.110876 0.994838 0.108684
O O11 0.000000 0.500000 0.500000
#
# Coordination Sequence:
#
# PCOD9031518 Si02
#       5
#     2   2   2   2   2
#     4  11  23  40  73 100 132 185 225 273 343 403
#     4  10  25  43  71 102 134 180 228 277 340 403
#     4  11  23  44  71  94 142 178 221 283 334 401
#     4  12  25  46  70 100 140 180 227 280 339 401
#     4  10  22  43  67 104 134 178 230 268 343 408
#
# _framework density 28.652331
#
# number of rings (size 3 to 8) (size 9 to 14) (size 15 to 20)
#    0.000    1.200    4.000    1.200    2.800    2.400 
#    0.000    0.000    0.000    0.000    0.000    0.000 
#    0.000    0.000    0.000    0.000    0.000    0.000 
#
# Total GULP energy -55978.887612 kJ/mol
# GULP energy per Si atom -5597.888761 kJ/mol
# Density = 2.858712 g / cm^3
# Si number density = 28.652331 Si / 1000 Ang^3
#
#
#
# Elastic Constant Matrix: (Units=GPa)
#
#
# Indices 1 2 3 4 5 6 
#
# 1 123.4868 43.5613 65.1015 30.9214 -45.3712 -1.7695
# 2 43.5613 102.3771 33.1524 25.7382 -15.7087 4.5084
# 3 65.1015 33.1524 162.6329 -8.4920 -48.4318 23.1429
# 4 30.9214 25.7382 -8.4920 41.9954 0.9897 -13.1832
# 5 -45.3712 -15.7087 -48.4318 0.9897 78.3534 13.8527
# 6 -1.7695 4.5084 23.1429 -13.1832 13.8527 43.9340
#
#
#
# Elastic Compliance Matrix: (Units=1/GPa)
#
#
# Indices 1 2 3 4 5 6 
#
# 1 0.017281 -0.000865 -0.004690 -0.014428 0.007738 -0.003514
# 2 -0.000865 0.013499 -0.001768 -0.009253 0.001913 -0.003868
# 3 -0.004690 -0.001768 0.010803 0.004831 0.004551 -0.005684
# 4 -0.014428 -0.009253 0.004831 0.046015 -0.010444 0.014924
# 5 0.007738 0.001913 0.004551 -0.010444 0.022800 -0.012605
# 6 -0.003514 -0.003868 -0.005684 0.014924 -0.012605 0.034463
#
#
# Mechanical properties :
#
#
# Convention : Reuss Voigt Hill
#
# Bulk Modulus (GPa) = 37.12577 74.68081 55.90329
# Shear Modulus (GPa) = 29.67569 49.30199 39.48884
#
# Velocity S-wave (km/s) = 3.22175 4.15263 3.71645
# Velocity P-wave (km/s) = 5.17928 7.00810 6.16192
#
# Compressibility (1/GPa) = 0.02693547
#
# Stress axis : x y z
#
# Youngs Moduli (GPa) = 57.86562 74.08096 92.56561
#
# Poissons Ratio (x) = 0.06408 0.43418
# Poissons Ratio (y) = 0.05005 0.16369
# Poissons Ratio (z) = 0.27142 0.13101
#
# Static dielectric constant tensor:
#      x y z
#    x 2.274810 0.032280 -0.059320 
#    y 0.032280 2.166530 0.003920 
#    z -0.059320 0.003920 2.195340 
# 
# From -- ./inp_files/143943.got.cif
#   From: 2010.05.17/outbox.cif.g08.bks.cpg/sg2_72_cif.got.tgz:143943.got - 2010.06.03 11:33:40.
