data_PCOD9031425
_publ_section_title
;
Structure prediction by ZEFSAII (Michael W. Deem and Ramdas Pophale) SiO2 
 PCOD9031425
Probable space group: P -1
;
_chemical_formula_sum "Si O2"
_cell_formula_units_Z 12
_cell_length_a 5.082313
_cell_length_b 5.160688
_cell_length_c 18.409726
_cell_angle_alpha 84.883070
_cell_angle_beta 88.455631
_cell_angle_gamma 94.778196
_cell_volume 478.971259
_symmetry_space_group_name_H-M "P -1"
_symmetry_group_IT_number 2
_symmetry_cell_setting 'triclinic'
loop_
_space_group_symop_operation_xyz
x,y,z
-x,-y,-z
loop_
_atom_site_type_symbol
_atom_site_label
_atom_site_fract_x
_atom_site_fract_y
_atom_site_fract_z
Si Si1 0.228721 0.676817 0.953111
Si Si2 0.586679 0.022654 0.581345
Si Si3 0.714269 0.083372 0.776643
Si Si4 0.826469 0.495588 0.648734
Si Si5 0.776594 0.134444 0.292556
Si Si6 0.417776 0.210712 0.912902
O O1 0.307778 0.489154 0.892512
O O2 0.192699 0.969408 0.920346
O O3 0.459950 0.742051 0.008977
O O4 0.000000 0.500000 0.000000
O O5 0.784896 0.275865 0.592180
O O6 0.500000 0.000000 0.500000
O O7 0.710111 0.758448 0.613782
O O8 0.328971 0.039836 0.633441
O O9 0.692426 0.344634 0.722853
O O10 0.645727 0.144754 0.857992
O O11 0.477980 0.878929 0.756059
O O12 0.987910 0.976801 0.752512
O O13 0.110728 0.597674 0.677023
#
# Coordination Sequence:
#
# PCOD9031425 Si02
#       6
#     2   2   2   2   2   2
#     4  10  22  43  66  96 139 172 232 282 338 407
#     4  11  26  47  75 104 140 187 231 286 353 414
#     4  11  27  45  73 102 141 186 234 288 354 408
#     4  11  24  47  67 104 140 177 233 290 341 416
#     4  11  25  47  68 103 141 179 234 291 340 421
#     4  10  24  41  65 100 130 180 230 280 342 409
#
# _framework density 25.053695000000001
#
# number of rings (size 3 to 8) (size 9 to 14) (size 15 to 20)
#    0.000    1.333    3.333    1.000    9.333    2.667 
#    0.000    0.000    0.000    0.000    0.000    0.000 
#    0.000    0.000    0.000    0.000    0.000    0.000 
#
# Total GULP energy -67028.701078 kJ/mol
# GULP energy per Si atom -5585.725090 kJ/mol
# Density = 2.499667 g / cm^3
# Si number density = 25.053695 Si / 1000 Ang^3
#
#
#
# Elastic Constant Matrix: (Units=GPa)
#
#
# Indices 1 2 3 4 5 6 
#
# 1 100.7549 43.0287 3.2376 4.8823 -11.6897 11.3759
# 2 43.0287 203.4039 16.6477 9.9534 9.5239 9.5375
# 3 3.2376 16.6477 64.1000 8.6536 -15.4856 -6.5171
# 4 4.8823 9.9534 8.6536 36.2654 -8.4032 -5.3607
# 5 -11.6897 9.5239 -15.4856 -8.4032 28.6690 -2.0918
# 6 11.3759 9.5375 -6.5171 -5.3607 -2.0918 32.5201
#
#
#
# Elastic Compliance Matrix: (Units=1/GPa)
#
#
# Indices 1 2 3 4 5 6 
#
# 1 0.012161 -0.002858 0.001421 -0.000102 0.006446 -0.002734
# 2 -0.002858 0.006208 -0.002705 -0.002258 -0.005503 -0.002089
# 3 0.001421 -0.002705 0.019802 -0.000574 0.012368 0.004965
# 4 -0.000102 -0.002258 -0.000574 0.031650 0.010146 0.006453
# 5 0.006446 -0.005503 0.012368 0.010146 0.049480 0.006693
# 6 -0.002734 -0.002089 0.004965 0.006453 0.006693 0.034808
#
#
# Mechanical properties :
#
#
# Convention : Reuss Voigt Hill
#
# Bulk Modulus (GPa) = 33.45817 54.89855 44.17836
# Shear Modulus (GPa) = 29.00982 39.84723 34.42853
#
# Velocity S-wave (km/s) = 3.40649 3.99240 3.71103
# Velocity P-wave (km/s) = 5.37176 6.57360 6.00284
#
# Compressibility (1/GPa) = 0.02988806
#
# Stress axis : x y z
#
# Youngs Moduli (GPa) = 82.22830 161.07348 50.50076
#
# Poissons Ratio (x) = 0.46028 -0.07177
# Poissons Ratio (y) = 0.23497 0.13661
# Poissons Ratio (z) = -0.11686 0.43573
#
# Static dielectric constant tensor:
#      x y z
#    x 2.078170 -0.054110 0.020610 
#    y -0.054110 2.056440 -0.023320 
#    z 0.020610 -0.023320 1.973860 
# 
# From -- ./inp_files/545641.got.cif
#   From: 2010.05.17/outbox.cif.g08.bks.cpg/sg2_273_cif.got.tgz:545641.got - 2010.06.03 11:33:40.
