data_PCOD9031736
_publ_section_title
;
Structure prediction by ZEFSAII (Michael W. Deem and Ramdas Pophale) SiO2 
 PCOD9031736
Probable space group: P -1
;
_chemical_formula_sum "Si O2"
_cell_formula_units_Z 16
_cell_length_a 8.593585
_cell_length_b 14.980465
_cell_length_c 26.918723
_cell_angle_alpha 20.353031
_cell_angle_beta 46.196385
_cell_angle_gamma 38.328730
_cell_volume 732.265590
_symmetry_space_group_name_H-M "P -1"
_symmetry_group_IT_number 2
_symmetry_cell_setting 'triclinic'
loop_
_space_group_symop_operation_xyz
x,y,z
-x,-y,-z
loop_
_atom_site_type_symbol
_atom_site_label
_atom_site_fract_x
_atom_site_fract_y
_atom_site_fract_z
Si Si1 0.917479 0.115403 0.306508
Si Si2 0.503745 0.201561 0.672196
Si Si3 0.282540 0.846601 0.855107
Si Si4 0.943200 0.237060 0.960126
Si Si5 0.019852 0.200223 0.635319
Si Si6 0.436923 0.732478 0.052994
Si Si7 0.910724 0.269102 0.339563
Si Si8 0.514176 0.236582 0.757656
O O1 0.647830 0.410752 0.196353
O O2 0.916821 0.123095 0.361738
O O3 0.190974 0.069506 0.253742
O O4 0.924680 0.858123 0.404834
O O5 0.500000 0.500000 0.500000
O O6 0.364009 0.297068 0.706929
O O7 0.368429 0.074467 0.735080
O O8 0.500000 0.500000 0.000000
O O9 0.060801 0.878008 0.923615
O O10 0.211123 0.919791 0.775105
O O11 0.701657 0.283824 0.957515
O O12 0.941880 0.550327 0.794022
O O13 0.198880 0.965645 0.018934
O O14 0.746181 0.260115 0.677825
O O15 0.000000 0.500000 0.500000
O O16 0.593071 0.896255 0.927754
O O17 0.640813 0.540781 0.279475
O O18 0.000000 0.000000 0.500000
#
# Coordination Sequence:
#
# PCOD9031736 Si02
#       8
#     2   2   2   2   2   2   2   2
#     4  11  25  43  72  99 135 182 231 288 337 424
#     4  11  23  43  69  98 140 183 231 286 360 418
#     4  12  24  40  73 104 136 188 242 293 348 421
#     4  10  23  43  68 104 140 182 227 298 343 412
#     4  11  27  46  67 102 143 181 233 291 359 415
#     4  10  22  43  68 102 138 175 234 284 349 407
#     4  11  25  45  69 101 140 182 232 280 354 426
#     4  10  23  41  69  95 136 183 220 284 346 409
#
# _framework density 21.849993999999999
#
# number of rings (size 3 to 8) (size 9 to 14) (size 15 to 20)
#    0.000    1.250    1.250    3.750    5.250    4.000 
#    0.000    1.250    0.000    0.000    0.000    0.000 
#    0.000    0.000    0.000    0.000    0.000    0.000 
#
# Total GULP energy -89236.114405 kJ/mol
# GULP energy per Si atom -5577.257150 kJ/mol
# Density = 2.180026 g / cm^3
# Si number density = 21.849994 Si / 1000 Ang^3
#
#
#
# Elastic Constant Matrix: (Units=GPa)
#
#
# Indices 1 2 3 4 5 6 
#
# 1 103.6754 50.2572 45.9963 -3.9112 -12.6985 24.7409
# 2 50.2572 96.9795 30.4854 -0.8124 -7.4168 36.3145
# 3 45.9963 30.4854 104.7639 -9.8236 -18.7748 7.5515
# 4 -3.9112 -0.8124 -9.8236 21.5982 0.5899 0.6890
# 5 -12.6985 -7.4168 -18.7748 0.5899 33.0139 -2.7188
# 6 24.7409 36.3145 7.5515 0.6890 -2.7188 45.3377
#
#
#
# Elastic Compliance Matrix: (Units=1/GPa)
#
#
# Indices 1 2 3 4 5 6 
#
# 1 0.015153 -0.004995 -0.004579 0.000533 0.001812 -0.003405
# 2 -0.004995 0.017762 -0.002283 -0.000917 -0.000128 -0.011115
# 3 -0.004579 -0.002283 0.013509 0.005004 0.005511 0.002332
# 4 0.000533 -0.000917 0.005004 0.048619 0.001892 -0.001015
# 5 0.001812 -0.000128 0.005511 0.001892 0.034076 0.000211
# 6 -0.003405 -0.011115 0.002332 -0.001015 0.000211 0.032457
#
#
# Mechanical properties :
#
#
# Convention : Reuss Voigt Hill
#
# Bulk Modulus (GPa) = 44.03602 62.09960 53.06781
# Shear Modulus (GPa) = 25.92532 31.90196 28.91364
#
# Velocity S-wave (km/s) = 3.44832 3.82520 3.64164
# Velocity P-wave (km/s) = 6.00434 6.92763 6.48244
#
# Compressibility (1/GPa) = 0.02270868
#
# Stress axis : x y z
#
# Youngs Moduli (GPa) = 65.99291 56.29874 74.02506
#
# Poissons Ratio (x) = 0.28123 0.33898
# Poissons Ratio (y) = 0.32965 0.16903
# Poissons Ratio (z) = 0.30220 0.12855
#
# Static dielectric constant tensor:
#      x y z
#    x 1.846810 0.013580 0.034870 
#    y 0.013580 1.842240 0.020960 
#    z 0.034870 0.020960 1.806730 
# 
# From -- ./inp_files/617287.got.cif
#   From: 2010.05.17/outbox.cif.g08.bks.cpg/sg2_309_cif.got.tgz:617287.got - 2010.06.03 11:33:40.
