data_PCOD9031888
_publ_section_title
;
Structure prediction by ZEFSAII (Michael W. Deem and Ramdas Pophale) SiO2 
 PCOD9031888
Probable space group: P -1
;
_chemical_formula_sum "Si O2"
_cell_formula_units_Z 14
_cell_length_a 6.992974
_cell_length_b 18.102065
_cell_length_c 8.295829
_cell_angle_alpha 50.235893
_cell_angle_beta 101.593844
_cell_angle_gamma 123.774596
_cell_volume 651.054408
_symmetry_space_group_name_H-M "P -1"
_symmetry_group_IT_number 2
_symmetry_cell_setting 'triclinic'
loop_
_space_group_symop_operation_xyz
x,y,z
-x,-y,-z
loop_
_atom_site_type_symbol
_atom_site_label
_atom_site_fract_x
_atom_site_fract_y
_atom_site_fract_z
Si Si1 0.852058 0.624113 0.489915
Si Si2 0.487670 0.253202 0.124321
Si Si3 0.876893 0.111532 0.744554
Si Si4 0.014392 0.044355 0.188513
Si Si5 0.442302 0.050319 0.573050
Si Si6 0.647654 0.575898 0.168288
Si Si7 0.992552 0.467011 0.858166
O O1 0.791400 0.629448 0.286070
O O2 0.605168 0.536927 0.662739
O O3 0.993699 0.563786 0.616445
O O4 0.989149 0.750363 0.415786
O O5 0.518202 0.181031 0.365678
O O6 0.281940 0.152640 0.116607
O O7 0.396502 0.333121 0.047055
O O8 0.741338 0.343209 0.959512
O O9 0.603644 0.054659 0.737054
O O10 0.917473 0.069137 0.978465
O O11 0.980455 0.067875 0.688696
O O12 0.834158 0.023368 0.327845
O O13 0.500000 0.000000 0.500000
O O14 0.794051 0.543846 0.130150
O O15 0.000000 0.500000 0.000000
#
# Coordination Sequence:
#
# PCOD9031888 Si02
#       7
#     2   2   2   2   2   2   2
#     4  10  22  43  68  98 126 179 220 267 332 386
#     4  11  24  42  70  97 134 177 215 273 333 387
#     4  11  24  44  70  97 136 173 225 273 321 403
#     4  11  25  46  66 100 133 179 221 269 333 391
#     4  12  26  42  65  99 136 174 222 269 331 392
#     4  10  23  44  69  95 135 170 220 276 325 396
#     4  11  25  43  66 103 134 171 221 270 338 392
#
# _framework density 21.503578999999998
#
# number of rings (size 3 to 8) (size 9 to 14) (size 15 to 20)
#    0.000    1.143    2.857    2.143    2.000    5.714 
#    5.143    0.000    0.000    0.000    0.000    0.000 
#    0.000    0.000    0.000    0.000    0.000    0.000 
#
# Total GULP energy -78309.743565 kJ/mol
# GULP energy per Si atom -5593.553112 kJ/mol
# Density = 2.145464 g / cm^3
# Si number density = 21.503579 Si / 1000 Ang^3
#
#
#
# Elastic Constant Matrix: (Units=GPa)
#
#
# Indices 1 2 3 4 5 6 
#
# 1 118.5861 20.4470 27.9384 3.1324 11.3947 -29.3299
# 2 20.4470 86.1417 11.2142 -6.6627 -8.7089 -1.7148
# 3 27.9384 11.2142 58.4950 -5.7672 19.0241 -10.7868
# 4 3.1324 -6.6627 -5.7672 29.5874 -1.2254 9.7870
# 5 11.3947 -8.7089 19.0241 -1.2254 34.6766 9.2056
# 6 -29.3299 -1.7148 -10.7868 9.7870 9.2056 33.6517
#
#
#
# Elastic Compliance Matrix: (Units=1/GPa)
#
#
# Indices 1 2 3 4 5 6 
#
# 1 0.015523 -0.005277 0.000114 -0.009724 -0.011984 0.019404
# 2 -0.005277 0.015066 -0.005446 0.006933 0.011609 -0.010769
# 3 0.000114 -0.005446 0.027191 -0.001584 -0.020237 0.014535
# 4 -0.009724 0.006933 -0.001584 0.045153 0.014211 -0.025649
# 5 -0.011984 0.011609 -0.020237 0.014211 0.056860 -0.036027
# 6 0.019404 -0.010769 0.014535 -0.025649 -0.036027 0.068053
#
#
# Mechanical properties :
#
#
# Convention : Reuss Voigt Hill
#
# Bulk Modulus (GPa) = 27.35064 42.49134 34.92099
# Shear Modulus (GPa) = 19.13872 33.15801 26.14837
#
# Velocity S-wave (km/s) = 2.98657 3.93106 3.49090
# Velocity P-wave (km/s) = 4.96382 6.35668 5.70293
#
# Compressibility (1/GPa) = 0.03656222
#
# Stress axis : x y z
#
# Youngs Moduli (GPa) = 64.42030 66.37527 36.77740
#
# Poissons Ratio (x) = 0.35025 -0.00420
# Poissons Ratio (y) = 0.33994 0.20029
# Poissons Ratio (z) = -0.00736 0.36148
#
# Static dielectric constant tensor:
#      x y z
#    x 1.755360 0.012590 0.013530 
#    y 0.012590 1.778340 0.021550 
#    z 0.013530 0.021550 1.775440 
# 
# From -- ./inp_files/27537.got.cif
#   From: 2010.05.17/outbox.cif.g08.bks.cpg/sg2_14_cif.got.tgz:27537.got - 2010.06.03 11:33:40.
