data_PCOD9031460
_publ_section_title
;
Structure prediction by ZEFSAII (Michael W. Deem and Ramdas Pophale) SiO2 
 PCOD9031460
Probable space group: P -1
;
_chemical_formula_sum "Si O2"
_cell_formula_units_Z 12
_cell_length_a 7.747018
_cell_length_b 9.659349
_cell_length_c 11.949432
_cell_angle_alpha 59.783566
_cell_angle_beta 43.777894
_cell_angle_gamma 76.242048
_cell_volume 522.680320
_symmetry_space_group_name_H-M "P -1"
_symmetry_group_IT_number 2
_symmetry_cell_setting 'triclinic'
loop_
_space_group_symop_operation_xyz
x,y,z
-x,-y,-z
loop_
_atom_site_type_symbol
_atom_site_label
_atom_site_fract_x
_atom_site_fract_y
_atom_site_fract_z
Si Si1 0.566630 0.821741 0.532352
Si Si2 0.883850 0.089049 0.868214
Si Si3 0.403789 0.545523 0.902111
Si Si4 0.350919 0.658595 0.468307
Si Si5 0.481527 0.226028 0.869544
Si Si6 0.924308 0.629326 0.188063
O O1 0.526292 0.711308 0.708357
O O2 0.401803 0.733508 0.538005
O O3 0.861651 0.849861 0.346858
O O4 0.500000 0.000000 0.500000
O O5 0.637069 0.155374 0.920522
O O6 0.956044 0.184687 0.911454
O O7 0.787171 0.895620 0.979670
O O8 0.441626 0.396711 0.867456
O O9 0.500000 0.500000 0.000000
O O10 0.110250 0.562958 0.045595
O O11 0.338858 0.777631 0.322587
O O12 0.622010 0.616141 0.319347
O O13 0.113587 0.505490 0.638245
#
# Coordination Sequence:
#
# PCOD9031460 Si02
#       6
#     2   2   2   2   2   2
#     4  11  28  46  68 104 142 182 227 285 346 404
#     4  10  24  44  67 100 141 184 225 280 344 415
#     4  12  26  43  73 104 138 179 234 284 338 404
#     4  10  24  42  69  97 133 185 226 278 342 410
#     4  11  24  43  71 102 135 182 232 280 345 403
#     4  10  22  43  66  98 133 177 229 280 336 405
#
# _framework density 22.958584999999999
#
# number of rings (size 3 to 8) (size 9 to 14) (size 15 to 20)
#    0.000    1.333    1.667    3.000    9.333    4.000 
#    0.000    1.667    0.000    0.000    0.000    0.000 
#    0.000    0.000    0.000    0.000    0.000    0.000 
#
# Total GULP energy -66848.531534 kJ/mol
# GULP energy per Si atom -5570.710961 kJ/mol
# Density = 2.290633 g / cm^3
# Si number density = 22.958585 Si / 1000 Ang^3
#
#
#
# Elastic Constant Matrix: (Units=GPa)
#
#
# Indices 1 2 3 4 5 6 
#
# 1 97.8355 48.4485 22.9995 2.6314 15.2976 14.3845
# 2 48.4485 143.5560 38.1191 -14.7745 6.1502 5.1357
# 3 22.9995 38.1191 93.1096 -9.6652 13.1921 5.4741
# 4 2.6314 -14.7745 -9.6652 38.7414 0.5126 -5.6741
# 5 15.2976 6.1502 13.1921 0.5126 38.2654 6.3858
# 6 14.3845 5.1357 5.4741 -5.6741 6.3858 32.8548
#
#
#
# Elastic Compliance Matrix: (Units=1/GPa)
#
#
# Indices 1 2 3 4 5 6 
#
# 1 0.014167 -0.004495 -0.001226 -0.003702 -0.003595 -0.005236
# 2 -0.004495 0.009442 -0.002606 0.003441 0.000907 0.001344
# 3 -0.001226 -0.002606 0.012859 0.002329 -0.003537 -0.000109
# 4 -0.003702 0.003441 0.002329 0.028840 -0.001250 0.005919
# 5 -0.003595 0.000907 -0.003537 -0.001250 0.029310 -0.003891
# 6 -0.005236 0.001344 -0.000109 0.005919 -0.003891 0.034316
#
#
# Mechanical properties :
#
#
# Convention : Reuss Voigt Hill
#
# Bulk Modulus (GPa) = 50.46936 61.51502 55.99219
# Shear Modulus (GPa) = 32.85294 36.96792 34.91043
#
# Velocity S-wave (km/s) = 3.78691 4.01708 3.90370
# Velocity P-wave (km/s) = 6.41494 6.95471 6.69027
#
# Compressibility (1/GPa) = 0.01981400
#
# Stress axis : x y z
#
# Youngs Moduli (GPa) = 70.58580 105.90883 77.76704
#
# Poissons Ratio (x) = 0.47609 0.09536
# Poissons Ratio (y) = 0.31730 0.20263
# Poissons Ratio (z) = 0.08655 0.27595
#
# Static dielectric constant tensor:
#      x y z
#    x 2.126440 -0.138260 0.256820 
#    y -0.138260 1.920930 -0.163480 
#    z 0.256820 -0.163480 2.088880 
# 
# From -- ./inp_files/160784.got.cif
#   From: 2010.05.17/outbox.cif.g08.bks.cpg/sg2_81_cif.got.tgz:160784.got - 2010.06.03 11:33:40.
