data_PCOD9031975
_publ_section_title
;
Structure prediction by ZEFSAII (Michael W. Deem and Ramdas Pophale) SiO2 
 PCOD9031975
Probable space group: P -1
;
_chemical_formula_sum "Si O2"
_cell_formula_units_Z 8
_cell_length_a 9.761479
_cell_length_b 8.039777
_cell_length_c 9.584377
_cell_angle_alpha 93.691823
_cell_angle_beta 45.340382
_cell_angle_gamma 57.828658
_cell_volume 310.216539
_symmetry_space_group_name_H-M "P -1"
_symmetry_group_IT_number 2
_symmetry_cell_setting 'triclinic'
loop_
_space_group_symop_operation_xyz
x,y,z
-x,-y,-z
loop_
_atom_site_type_symbol
_atom_site_label
_atom_site_fract_x
_atom_site_fract_y
_atom_site_fract_z
Si Si1 0.281321 0.439910 0.268894
Si Si2 0.605588 0.430491 0.260780
Si Si3 0.759544 0.828198 0.181069
Si Si4 0.658154 0.075181 0.704907
O O1 0.471695 0.368948 0.265529
O O2 0.000000 0.500000 0.500000
O O3 0.531500 0.209487 0.956523
O O4 0.044817 0.758835 0.402500
O O5 0.500000 0.500000 0.500000
O O6 0.438966 0.706958 0.317412
O O7 0.999553 0.186271 0.967520
O O8 0.556399 0.935120 0.191742
O O9 0.500000 0.000000 0.500000
O O10 0.000000 0.500000 0.000000
#
# Coordination Sequence:
#
# PCOD9031975 Si02
#       4
#     2   2   2   2
#     4  12  26  47  72 105 143 189 240 296 357 426
#     4  11  25  46  75 111 145 189 241 296 359 430
#     4  10  22  43  69 101 139 183 232 290 350 414
#     4  11  24  48  72 101 144 191 235 294 358 426
#
# _framework density 25.788440000000001
#
# number of rings (size 3 to 8) (size 9 to 14) (size 15 to 20)
#    0.000    1.000    0.000    6.750    0.000    6.000 
#    0.000   16.250    0.000    0.000    0.000    0.000 
#    0.000    0.000    0.000    0.000    0.000    0.000 
#
# Total GULP energy -44894.295554 kJ/mol
# GULP energy per Si atom -5611.786944 kJ/mol
# Density = 2.572974 g / cm^3
# Si number density = 25.788440 Si / 1000 Ang^3
#
#
#
# Elastic Constant Matrix: (Units=GPa)
#
#
# Indices 1 2 3 4 5 6 
#
# 1 297.1274 44.8237 85.1204 -17.6286 -14.5228 -6.2795
# 2 44.8237 90.0492 10.1898 -6.6689 -1.5706 1.0413
# 3 85.1204 10.1898 142.2476 -6.1840 7.4410 5.0423
# 4 -17.6286 -6.6689 -6.1840 56.7478 -2.6698 -6.9273
# 5 -14.5228 -1.5706 7.4410 -2.6698 65.7544 -4.4515
# 6 -6.2795 1.0413 5.0423 -6.9273 -4.4515 48.5962
#
#
#
# Elastic Compliance Matrix: (Units=1/GPa)
#
#
# Indices 1 2 3 4 5 6 
#
# 1 0.004574 -0.001881 -0.002669 0.001120 0.001394 0.001196
# 2 -0.001881 0.012067 0.000320 0.000808 -0.000160 -0.000434
# 3 -0.002669 0.000320 0.008738 -0.000092 -0.001671 -0.001424
# 4 0.001120 0.000808 -0.000092 0.018464 0.001222 0.002881
# 5 0.001394 -0.000160 -0.001671 0.001222 0.015885 0.001986
# 6 0.001196 -0.000434 -0.001424 0.002881 0.001986 0.021482
#
#
# Mechanical properties :
#
#
# Convention : Reuss Voigt Hill
#
# Bulk Modulus (GPa) = 59.10364 89.96579 74.53472
# Shear Modulus (GPa) = 52.46064 60.17236 56.31650
#
# Velocity S-wave (km/s) = 4.51518 4.83567 4.67817
# Velocity P-wave (km/s) = 7.08173 8.13266 7.62532
#
# Compressibility (1/GPa) = 0.01691943
#
# Stress axis : x y z
#
# Youngs Moduli (GPa) = 218.63900 82.86857 114.44370
#
# Poissons Ratio (x) = 0.15589 0.30542
# Poissons Ratio (y) = 0.41131 -0.03664
# Poissons Ratio (z) = 0.58349 -0.02653
#
# Static dielectric constant tensor:
#      x y z
#    x 2.061230 0.090140 -0.053780 
#    y 0.090140 2.166880 0.019570 
#    z -0.053780 0.019570 1.899440 
# 
# From -- ./inp_files/15802.got.cif
#   From: 2010.05.17/outbox.cif.g08.bks.cpg/sg2_8_cif.got.tgz:15802.got - 2010.06.03 11:33:40.
