data_PCOD9031086
_publ_section_title
;
Structure prediction by ZEFSAII (Michael W. Deem and Ramdas Pophale) SiO2 
 PCOD9031086
Probable space group: P -1
;
_chemical_formula_sum "Si O2"
_cell_formula_units_Z 14
_cell_length_a 12.817476
_cell_length_b 19.492057
_cell_length_c 8.204910
_cell_angle_alpha 49.611395
_cell_angle_beta 64.675986
_cell_angle_gamma 26.112613
_cell_volume 610.305743
_symmetry_space_group_name_H-M "P -1"
_symmetry_group_IT_number 2
_symmetry_cell_setting 'triclinic'
loop_
_space_group_symop_operation_xyz
x,y,z
-x,-y,-z
loop_
_atom_site_type_symbol
_atom_site_label
_atom_site_fract_x
_atom_site_fract_y
_atom_site_fract_z
Si Si1 0.480243 0.594057 0.996746
Si Si2 0.863662 0.584970 0.749952
Si Si3 0.618702 0.641267 0.577534
Si Si4 0.785701 0.314439 0.512799
Si Si5 0.077380 0.968384 0.307510
Si Si6 0.604613 0.851966 0.789496
Si Si7 0.939636 0.734887 0.369170
O O1 0.713036 0.419602 0.236976
O O2 0.500000 0.500000 0.000000
O O3 0.522511 0.656487 0.778459
O O4 0.179281 0.800557 0.948154
O O5 0.731653 0.652998 0.560743
O O6 0.655939 0.732852 0.812782
O O7 0.964644 0.617268 0.614090
O O8 0.111701 0.346635 0.000554
O O9 0.360553 0.820865 0.355657
O O10 0.858926 0.415925 0.683621
O O11 0.500000 0.500000 0.500000
O O12 0.892883 0.143267 0.644060
O O13 0.963609 0.253294 0.597078
O O14 0.000000 0.000000 0.500000
O O15 0.500000 0.000000 0.500000
O O16 0.371832 0.021997 0.817576
#
# Coordination Sequence:
#
# PCOD9031086 Si02
#       7
#     2   2   2   2   2   2   2
#     4  11  23  42  68  96 129 176 219 262 333 390
#     4  10  23  43  66  94 129 176 218 259 331 388
#     4  11  23  44  66  94 134 167 219 272 317 392
#     4  12  24  44  66  98 136 166 219 276 321 393
#     4  10  22  43  64  96 129 169 216 264 327 382
#     4   9  22  42  64  94 129 168 218 265 322 382
#     4  11  24  43  64  97 134 167 215 275 322 381
#
# _framework density 22.939322000000001
#
# number of rings (size 3 to 8) (size 9 to 14) (size 15 to 20)
#    0.000    1.429    4.286    0.429   10.000    1.143 
#    7.714    0.000    0.000    0.000    0.000    0.000 
#    0.000    0.000    0.000    0.000    0.000    0.000 
#
# Total GULP energy -78084.224687 kJ/mol
# GULP energy per Si atom -5577.444621 kJ/mol
# Density = 2.288711 g / cm^3
# Si number density = 22.939322 Si / 1000 Ang^3
#
#
#
# Elastic Constant Matrix: (Units=GPa)
#
#
# Indices 1 2 3 4 5 6 
#
# 1 125.3552 35.2970 21.3390 -15.1274 -0.1362 18.8386
# 2 35.2970 113.1060 14.3654 -45.6733 6.5808 10.4037
# 3 21.3390 14.3654 66.9299 -29.6015 -1.1306 -5.4400
# 4 -15.1274 -45.6733 -29.6015 45.6638 -3.8003 -2.5411
# 5 -0.1362 6.5808 -1.1306 -3.8003 18.7880 1.8800
# 6 18.8386 10.4037 -5.4400 -2.5411 1.8800 32.1173
#
#
#
# Elastic Compliance Matrix: (Units=1/GPa)
#
#
# Indices 1 2 3 4 5 6 
#
# 1 0.010188 -0.003380 -0.004346 -0.003071 0.000967 -0.005917
# 2 -0.003380 0.017400 0.006112 0.020060 -0.001600 -0.000938
# 3 -0.004346 0.006112 0.025121 0.021567 0.003066 0.006351
# 4 -0.003071 0.020060 0.021567 0.055527 0.005176 0.003047
# 5 0.000967 -0.001600 0.003066 0.005176 0.055260 -0.002355
# 6 -0.005917 -0.000938 0.006351 0.003047 -0.002355 0.036365
#
#
# Mechanical properties :
#
#
# Convention : Reuss Voigt Hill
#
# Bulk Modulus (GPa) = 20.20934 49.71043 34.95988
# Shear Modulus (GPa) = 22.77050 34.93982 28.85516
#
# Velocity S-wave (km/s) = 3.15404 3.90698 3.55052
# Velocity P-wave (km/s) = 4.70032 6.48615 5.66406
#
# Compressibility (1/GPa) = 0.04948206
#
# Stress axis : x y z
#
# Youngs Moduli (GPa) = 98.15083 57.47258 39.80690
#
# Poissons Ratio (x) = 0.19424 0.17299
# Poissons Ratio (y) = 0.33172 -0.24330
# Poissons Ratio (z) = 0.42655 -0.35127
#
# Static dielectric constant tensor:
#      x y z
#    x 1.953360 -0.066550 0.025730 
#    y -0.066550 1.956470 0.030990 
#    z 0.025730 0.030990 1.911840 
# 
# From -- ./inp_files/278995.got.cif
#   From: 2010.05.17/outbox.cif.g08.bks.cpg/sg2_140_cif.got.tgz:278995.got - 2010.06.03 11:33:40.
