data_PCOD9031110
_publ_section_title
;
Structure prediction by ZEFSAII (Michael W. Deem and Ramdas Pophale) SiO2 
 PCOD9031110
Probable space group: P -1
;
_chemical_formula_sum "Si O2"
_cell_formula_units_Z 14
_cell_length_a 7.660469
_cell_length_b 11.519073
_cell_length_c 11.522056
_cell_angle_alpha 54.251731
_cell_angle_beta 95.630135
_cell_angle_gamma 116.380757
_cell_volume 720.768945
_symmetry_space_group_name_H-M "P -1"
_symmetry_group_IT_number 2
_symmetry_cell_setting 'triclinic'
loop_
_space_group_symop_operation_xyz
x,y,z
-x,-y,-z
loop_
_atom_site_type_symbol
_atom_site_label
_atom_site_fract_x
_atom_site_fract_y
_atom_site_fract_z
Si Si1 0.845355 0.286109 0.706915
Si Si2 0.510823 0.356260 0.247470
Si Si3 0.961466 0.938205 0.198886
Si Si4 0.456689 0.149262 0.895351
Si Si5 0.125986 0.636741 0.608583
Si Si6 0.656024 0.726036 0.971156
Si Si7 0.109560 0.172586 0.473745
O O1 0.917695 0.149230 0.797727
O O2 0.633484 0.258259 0.756371
O O3 0.837865 0.310492 0.554537
O O4 0.001573 0.441980 0.698744
O O5 0.676641 0.315712 0.332991
O O6 0.420724 0.281276 0.160190
O O7 0.328539 0.284613 0.368912
O O8 0.616384 0.550283 0.116194
O O9 0.758958 0.894725 0.143614
O O10 0.898525 0.871550 0.364809
O O11 0.115472 0.130628 0.095729
O O12 0.469699 0.226874 0.975785
O O13 0.500000 0.000000 0.000000
O O14 0.006728 0.722424 0.605646
O O15 0.000000 0.000000 0.500000
#
# Coordination Sequence:
#
# PCOD9031110 Si02
#       7
#     2   2   2   2   2   2   2
#     4  10  22  43  64  98 123 161 215 259 311 369
#     4  11  24  44  64  91 132 168 203 265 308 373
#     4  11  23  43  65  93 128 165 209 266 304 368
#     4  12  24  37  65  93 125 166 207 253 313 372
#     4  10  23  41  69  93 125 163 210 262 313 369
#     4  11  24  43  61  95 132 166 210 250 320 373
#     4  11  23  43  67  92 124 165 214 255 312 373
#
# _framework density 19.423698999999999
#
# number of rings (size 3 to 8) (size 9 to 14) (size 15 to 20)
#    0.000    1.143    2.857    3.000    2.000    1.714 
#    0.000    7.857    0.000    0.000    0.000    0.000 
#    0.000    0.000    0.000    0.000    0.000    0.000 
#
# Total GULP energy -78149.677007 kJ/mol
# GULP energy per Si atom -5582.119786 kJ/mol
# Density = 1.937949 g / cm^3
# Si number density = 19.423699 Si / 1000 Ang^3
#
#
#
# Elastic Constant Matrix: (Units=GPa)
#
#
# Indices 1 2 3 4 5 6 
#
# 1 162.1148 15.1358 83.4003 11.6402 -21.3390 -4.0839
# 2 15.1358 198.4440 -13.6883 -15.3204 44.5119 28.9028
# 3 83.4003 -13.6883 106.6991 12.0904 -31.3231 -10.5493
# 4 11.6402 -15.3204 12.0904 22.0966 -5.6542 -14.5618
# 5 -21.3390 44.5119 -31.3231 -5.6542 54.9553 12.8716
# 6 -4.0839 28.9028 -10.5493 -14.5618 12.8716 42.3430
#
#
#
# Elastic Compliance Matrix: (Units=1/GPa)
#
#
# Indices 1 2 3 4 5 6 
#
# 1 0.010840 -0.001634 -0.008230 -0.002873 0.000809 -0.001124
# 2 -0.001634 0.006923 0.000043 0.002750 -0.005399 -0.002286
# 3 -0.008230 0.000043 0.018225 -0.003602 0.006682 0.000448
# 4 -0.002873 0.002750 -0.003602 0.062634 -0.003533 0.019563
# 5 0.000809 -0.005399 0.006682 -0.003533 0.027285 -0.004081
# 6 -0.001124 -0.002286 0.000448 0.019563 -0.004081 0.033148
#
#
# Mechanical properties :
#
#
# Convention : Reuss Voigt Hill
#
# Bulk Modulus (GPa) = 61.18378 70.77261 65.97820
# Shear Modulus (GPa) = 27.15239 49.37299 38.26269
#
# Velocity S-wave (km/s) = 3.74291 5.04719 4.44317
# Velocity P-wave (km/s) = 7.08852 8.39529 7.76942
#
# Compressibility (1/GPa) = 0.01634420
#
# Stress axis : x y z
#
# Youngs Moduli (GPa) = 92.25379 144.44494 54.87061
#
# Poissons Ratio (x) = 0.23604 0.45160
# Poissons Ratio (y) = 0.15075 -0.00235
# Poissons Ratio (z) = 0.75928 -0.00619
#
# Static dielectric constant tensor:
#      x y z
#    x 1.706450 0.014620 -0.060470 
#    y 0.014620 1.684350 -0.046920 
#    z -0.060470 -0.046920 1.742430 
# 
# From -- ./inp_files/72163.got.cif
#   From: 2010.05.17/outbox.cif.g08.bks.cpg/sg2_37_cif.got.tgz:72163.got - 2010.06.03 11:33:40.
