data_PCOD9031334
_publ_section_title
;
Structure prediction by ZEFSAII (Michael W. Deem and Ramdas Pophale) SiO2 
 PCOD9031334
Probable space group: P -1
;
_chemical_formula_sum "Si O2"
_cell_formula_units_Z 16
_cell_length_a 9.290886
_cell_length_b 16.063467
_cell_length_c 10.401290
_cell_angle_alpha 32.937039
_cell_angle_beta 82.441340
_cell_angle_gamma 67.381903
_cell_volume 720.343413
_symmetry_space_group_name_H-M "P -1"
_symmetry_group_IT_number 2
_symmetry_cell_setting 'triclinic'
loop_
_space_group_symop_operation_xyz
x,y,z
-x,-y,-z
loop_
_atom_site_type_symbol
_atom_site_label
_atom_site_fract_x
_atom_site_fract_y
_atom_site_fract_z
Si Si1 0.472411 0.191807 0.728165
Si Si2 0.266224 0.290800 0.370222
Si Si3 0.835082 0.189811 0.263457
Si Si4 0.828363 0.548797 0.388819
Si Si5 0.961222 0.647974 0.018451
Si Si6 0.353421 0.524879 0.888667
Si Si7 0.359456 0.610553 0.483641
Si Si8 0.678707 0.975991 0.466415
O O1 0.400825 0.258204 0.507427
O O2 0.322569 0.328151 0.660196
O O3 0.630614 0.214667 0.714381
O O4 0.500000 0.000000 0.000000
O O5 0.296374 0.096368 0.587861
O O6 0.074792 0.441037 0.232924
O O7 0.305495 0.380647 0.127846
O O8 0.790806 0.283137 0.287852
O O9 0.697821 0.145209 0.279075
O O10 0.000000 0.000000 0.500000
O O11 0.891178 0.307749 0.020316
O O12 0.831692 0.659319 0.124287
O O13 0.804959 0.387421 0.553317
O O14 0.000000 0.500000 0.500000
O O15 0.839899 0.803313 0.734798
O O16 0.389599 0.521966 0.737620
O O17 0.500000 0.500000 0.000000
O O18 0.500000 0.500000 0.500000
O O19 0.500000 0.000000 0.500000
#
# Coordination Sequence:
#
# PCOD9031334 Si02
#       8
#     2   2   2   2   2   2   2   2
#     4  11  25  45  65  97 141 179 227 291 347 408
#     4  11  22  41  66  98 135 176 229 279 341 411
#     4   9  22  39  59  96 137 172 210 277 342 403
#     4  11  23  45  69  94 129 181 236 281 338 417
#     4  10  22  43  66  89 136 180 221 279 339 413
#     4  11  20  39  72  99 133 176 231 285 335 408
#     4  10  24  44  71 101 135 181 235 284 350 418
#     4  11  23  38  63 105 133 170 220 282 350 399
#
# _framework density 22.211627
#
# number of rings (size 3 to 8) (size 9 to 14) (size 15 to 20)
#    0.000    1.500    2.500    1.875    1.750    3.000 
#    4.500    0.625    0.000    0.000    0.000    0.000 
#    0.000    0.000    0.000    0.000    0.000    0.000 
#
# Total GULP energy -89181.108726 kJ/mol
# GULP energy per Si atom -5573.819295 kJ/mol
# Density = 2.216107 g / cm^3
# Si number density = 22.211627 Si / 1000 Ang^3
#
#
#
# Elastic Constant Matrix: (Units=GPa)
#
#
# Indices 1 2 3 4 5 6 
#
# 1 147.6796 32.2986 31.1387 -10.0986 -24.9266 30.7119
# 2 32.2986 105.0980 39.3404 0.3295 -15.3673 17.0354
# 3 31.1387 39.3404 67.3467 -9.6090 -15.8871 10.4215
# 4 -10.0986 0.3295 -9.6090 34.9569 -4.5169 -8.5942
# 5 -24.9266 -15.3673 -15.8871 -4.5169 40.4341 -11.6093
# 6 30.7119 17.0354 10.4215 -8.5942 -11.6093 33.3197
#
#
#
# Elastic Compliance Matrix: (Units=1/GPa)
#
#
# Indices 1 2 3 4 5 6 
#
# 1 0.009207 -0.000597 -0.002119 0.000921 0.002921 -0.006263
# 2 -0.000597 0.013175 -0.007151 -0.003438 0.000064 -0.004814
# 3 -0.002119 -0.007151 0.022046 0.006969 0.006182 0.002665
# 4 0.000921 -0.003438 0.006969 0.034631 0.008965 0.010785
# 5 0.002921 0.000064 0.006182 0.008965 0.032572 0.009002
# 6 -0.006263 -0.004814 0.002665 0.010785 0.009002 0.043331
#
#
# Mechanical properties :
#
#
# Convention : Reuss Voigt Hill
#
# Bulk Modulus (GPa) = 40.49379 58.40885 49.45132
# Shear Modulus (GPa) = 27.33329 36.23193 31.78261
#
# Velocity S-wave (km/s) = 3.51177 4.04321 3.78683
# Velocity P-wave (km/s) = 5.89185 6.93905 6.43678
#
# Compressibility (1/GPa) = 0.02469514
#
# Stress axis : x y z
#
# Youngs Moduli (GPa) = 108.60923 75.89845 45.36050
#
# Poissons Ratio (x) = 0.04531 0.09610
# Poissons Ratio (y) = 0.06484 0.32437
# Poissons Ratio (z) = 0.23011 0.54275
#
# Static dielectric constant tensor:
#      x y z
#    x 1.956940 0.046000 0.007050 
#    y 0.046000 1.960760 0.052580 
#    z 0.007050 0.052580 1.868970 
# 
# From -- ./inp_files/402666.got.cif
#   From: 2010.05.17/outbox.cif.g08.bks.cpg/sg2_202_cif.got.tgz:402666.got - 2010.06.03 11:33:40.
