data_PCOD9031785
_publ_section_title
;
Structure prediction by ZEFSAII (Michael W. Deem and Ramdas Pophale) SiO2 
 PCOD9031785
Probable space group: P -1
;
_chemical_formula_sum "Si O2"
_cell_formula_units_Z 14
_cell_length_a 9.102840
_cell_length_b 9.241595
_cell_length_c 10.701211
_cell_angle_alpha 85.366302
_cell_angle_beta 42.050782
_cell_angle_gamma 62.739994
_cell_volume 482.490038
_symmetry_space_group_name_H-M "P -1"
_symmetry_group_IT_number 2
_symmetry_cell_setting 'triclinic'
loop_
_space_group_symop_operation_xyz
x,y,z
-x,-y,-z
loop_
_atom_site_type_symbol
_atom_site_label
_atom_site_fract_x
_atom_site_fract_y
_atom_site_fract_z
Si Si1 0.640140 0.795583 0.479073
Si Si2 0.302211 0.403976 0.771597
Si Si3 0.115052 0.862397 0.770829
Si Si4 0.304035 0.286029 0.188204
Si Si5 0.191127 0.746192 0.190128
Si Si6 0.765744 0.360443 0.547964
Si Si7 0.610798 0.900024 0.121940
O O1 0.703093 0.628210 0.366521
O O2 0.353249 0.836833 0.706354
O O3 0.951301 0.723574 0.316314
O O4 0.500000 0.000000 0.500000
O O5 0.438167 0.494274 0.732913
O O6 0.470861 0.196090 0.729003
O O7 0.000000 0.500000 0.000000
O O8 0.185633 0.740998 0.608562
O O9 0.905109 0.843821 0.977565
O O10 0.936922 0.059722 0.805162
O O11 0.358787 0.189169 0.025619
O O12 0.980775 0.406844 0.412569
O O13 0.491354 0.357342 0.056822
O O14 0.412960 0.116246 0.225132
O O15 0.196228 0.741883 0.338636
#
# Coordination Sequence:
#
# PCOD9031785 Si02
#       7
#     2   2   2   2   2   2   2
#     4   9  20  36  55  85 120 150 191 235 295 344
#     4  11  23  39  58  82 117 163 195 228 287 354
#     4   8  17  31  52  86 113 144 187 240 292 333
#     4   9  18  30  55  94 110 138 195 251 290 322
#     4  10  17  32  53  84 119 141 184 246 293 331
#     4  10  19  31  58  80 110 152 195 234 281 340
#     4   9  17  32  55  85 115 141 197 248 275 334
#
# _framework density 29.016143
#
# number of rings (size 3 to 8) (size 9 to 14) (size 15 to 20)
#    0.000    2.571    1.429    1.286    6.000    0.000 
#    2.571    9.286    0.000    0.857    0.000    0.000 
#    0.000    0.000    0.000    0.000    0.000    0.000 
#
# Total GULP energy -78054.294973 kJ/mol
# GULP energy per Si atom -5575.306784 kJ/mol
# Density = 2.895010 g / cm^3
# Si number density = 29.016143 Si / 1000 Ang^3
#
#
#
# Elastic Constant Matrix: (Units=GPa)
#
#
# Indices 1 2 3 4 5 6 
#
# 1 176.9822 46.3794 78.6808 -2.0050 -62.6807 16.9000
# 2 46.3794 128.2015 42.0161 -48.7803 -26.7067 0.2888
# 3 78.6808 42.0161 158.9625 -23.2582 -73.6652 9.3001
# 4 -2.0050 -48.7803 -23.2582 38.0618 13.6840 -16.4806
# 5 -62.6807 -26.7067 -73.6652 13.6840 77.5958 -10.8661
# 6 16.9000 0.2888 9.3001 -16.4806 -10.8661 38.7775
#
#
#
# Elastic Compliance Matrix: (Units=1/GPa)
#
#
# Indices 1 2 3 4 5 6 
#
# 1 0.013488 -0.011907 -0.003704 -0.024877 0.005726 -0.013870
# 2 -0.011907 0.030584 0.003176 0.052364 -0.001672 0.025986
# 3 -0.003704 0.003176 0.012754 0.010867 0.009091 0.005698
# 4 -0.024877 0.052364 0.010867 0.126801 -0.005696 0.060141
# 5 0.005726 -0.001672 0.009091 -0.005696 0.026624 0.000377
# 6 -0.013870 0.025986 0.005698 0.060141 0.000377 0.055938
#
#
# Mechanical properties :
#
#
# Convention : Reuss Voigt Hill
#
# Bulk Modulus (GPa) = 31.29321 88.69986 59.99654
# Shear Modulus (GPa) = 16.57211 50.69168 33.63189
#
# Velocity S-wave (km/s) = 2.39243 4.18427 3.40821
# Velocity P-wave (km/s) = 4.29416 7.34708 6.01745
#
# Compressibility (1/GPa) = 0.03195582
#
# Stress axis : x y z
#
# Youngs Moduli (GPa) = 74.14212 32.69645 78.40729
#
# Poissons Ratio (x) = 0.38932 0.29039
# Poissons Ratio (y) = 0.88283 -0.24901
# Poissons Ratio (z) = 0.27460 -0.10384
#
# Static dielectric constant tensor:
#      x y z
#    x 2.342800 -0.088680 0.003500 
#    y -0.088680 2.310470 0.136030 
#    z 0.003500 0.136030 2.559930 
# 
# From -- ./inp_files/212471.got.cif
#   From: 2010.05.17/outbox.cif.g08.bks.cpg/sg2_107_cif.got.tgz:212471.got - 2010.06.03 11:33:40.
