data_PCOD9031959
_publ_section_title
;
Structure prediction by ZEFSAII (Michael W. Deem and Ramdas Pophale) SiO2 
 PCOD9031959
Probable space group: P -1
;
_chemical_formula_sum "Si O2"
_cell_formula_units_Z 16
_cell_length_a 9.056779
_cell_length_b 11.908518
_cell_length_c 8.267329
_cell_angle_alpha 89.575720
_cell_angle_beta 94.703747
_cell_angle_gamma 132.225618
_cell_volume 656.674002
_symmetry_space_group_name_H-M "P -1"
_symmetry_group_IT_number 2
_symmetry_cell_setting 'triclinic'
loop_
_space_group_symop_operation_xyz
x,y,z
-x,-y,-z
loop_
_atom_site_type_symbol
_atom_site_label
_atom_site_fract_x
_atom_site_fract_y
_atom_site_fract_z
Si Si1 0.493172 0.267476 0.490312
Si Si2 0.164915 0.235417 0.571468
Si Si3 0.981240 0.523312 0.178420
Si Si4 0.494458 0.119317 0.172468
Si Si5 0.076825 0.419491 0.434137
Si Si6 0.973255 0.086143 0.873163
Si Si7 0.307488 0.423045 0.874090
Si Si8 0.574840 0.168906 0.807446
O O1 0.289727 0.234051 0.448712
O O2 0.537589 0.211931 0.339164
O O3 0.685017 0.443696 0.538611
O O4 0.467175 0.187558 0.658899
O O5 0.035103 0.275506 0.499676
O O6 0.037830 0.099224 0.691351
O O7 0.333626 0.374736 0.705560
O O8 0.981886 0.398010 0.255053
O O9 0.190156 0.698598 0.230034
O O10 0.788567 0.505305 0.179675
O O11 0.000000 0.500000 0.000000
O O12 0.532924 0.007057 0.203567
O O13 0.565132 0.196423 0.998325
O O14 0.254549 0.996799 0.140601
O O15 0.000000 0.500000 0.500000
O O16 0.121343 0.261681 0.937973
O O17 0.000000 0.000000 0.000000
O O18 0.500000 0.500000 0.000000
#
# Coordination Sequence:
#
# PCOD9031959 Si02
#       8
#     2   2   2   2   2   2   2   2
#     4  11  25  42  71 105 140 192 237 293 371 423
#     4  10  23  45  66 104 146 185 240 297 358 429
#     4  11  24  43  71 104 137 188 239 296 364 421
#     4  11  23  44  71 101 141 191 242 291 361 430
#     4  11  23  45  69  99 147 184 237 304 350 432
#     4  10  22  43  69 100 146 185 236 297 353 433
#     4  10  23  42  71 101 144 186 238 297 359 421
#     4  10  23  45  68 103 146 182 242 300 346 442
#
# _framework density 24.365209
#
# number of rings (size 3 to 8) (size 9 to 14) (size 15 to 20)
#    0.750    0.750    2.500    1.500    7.000    1.500 
#    2.250    0.000    0.000    0.000    0.000    0.000 
#    0.000    0.000    0.000    0.000    0.000    0.000 
#
# Total GULP energy -89175.631642 kJ/mol
# GULP energy per Si atom -5573.476978 kJ/mol
# Density = 2.430975 g / cm^3
# Si number density = 24.365209 Si / 1000 Ang^3
#
#
#
# Elastic Constant Matrix: (Units=GPa)
#
#
# Indices 1 2 3 4 5 6 
#
# 1 105.9457 34.2161 31.5580 -10.8234 2.1460 4.8522
# 2 34.2161 88.8482 24.1794 -21.7960 15.7647 -3.5145
# 3 31.5580 24.1794 106.2968 -26.6915 8.3055 -22.1242
# 4 -10.8234 -21.7960 -26.6915 50.6359 -3.2104 7.4556
# 5 2.1460 15.7647 8.3055 -3.2104 48.1791 -0.9479
# 6 4.8522 -3.5145 -22.1242 7.4556 -0.9479 36.2237
#
#
#
# Elastic Compliance Matrix: (Units=1/GPa)
#
#
# Indices 1 2 3 4 5 6 
#
# 1 0.011989 -0.004126 -0.003705 -0.000472 0.001342 -0.004137
# 2 -0.004126 0.014975 -0.000482 0.004952 -0.004292 0.000580
# 3 -0.003705 -0.000482 0.013574 0.004927 -0.001538 0.007686
# 4 -0.000472 0.004952 0.004927 0.024547 -0.000843 -0.001521
# 5 0.001342 -0.004292 -0.001538 -0.000843 0.022294 -0.000779
# 6 -0.004137 0.000580 0.007686 -0.001521 -0.000779 0.033204
#
#
# Mechanical properties :
#
#
# Convention : Reuss Voigt Hill
#
# Bulk Modulus (GPa) = 41.82122 53.44418 47.63270
# Shear Modulus (GPa) = 34.43990 41.08355 37.76173
#
# Velocity S-wave (km/s) = 3.76372 4.11074 3.94105
# Velocity P-wave (km/s) = 6.00741 6.67182 6.34831
#
# Compressibility (1/GPa) = 0.02391131
#
# Stress axis : x y z
#
# Youngs Moduli (GPa) = 83.40844 66.77946 73.66854
#
# Poissons Ratio (x) = 0.27556 0.27297
# Poissons Ratio (y) = 0.34418 0.03548
# Poissons Ratio (z) = 0.30906 0.03216
#
# Static dielectric constant tensor:
#      x y z
#    x 2.147950 -0.170200 -0.027690 
#    y -0.170200 2.157470 -0.064710 
#    z -0.027690 -0.064710 2.127630 
# 
# From -- ./inp_files/187830.got.cif
#   From: 2010.05.17/outbox.cif.g08.bks.cpg/sg2_94_cif.got.tgz:187830.got - 2010.06.03 11:33:40.
