data_PCOD9031880
_publ_section_title
;
Structure prediction by ZEFSAII (Michael W. Deem and Ramdas Pophale) SiO2 
 PCOD9031880
Probable space group: P -1
;
_chemical_formula_sum "Si O2"
_cell_formula_units_Z 14
_cell_length_a 13.781313
_cell_length_b 18.365665
_cell_length_c 6.918861
_cell_angle_alpha 134.862103
_cell_angle_beta 59.627030
_cell_angle_gamma 150.342412
_cell_volume 584.703714
_symmetry_space_group_name_H-M "P -1"
_symmetry_group_IT_number 2
_symmetry_cell_setting 'triclinic'
loop_
_space_group_symop_operation_xyz
x,y,z
-x,-y,-z
loop_
_atom_site_type_symbol
_atom_site_label
_atom_site_fract_x
_atom_site_fract_y
_atom_site_fract_z
Si Si1 0.428778 0.254753 0.148454
Si Si2 0.655312 0.031523 0.334654
Si Si3 0.875046 0.183581 0.792508
Si Si4 0.655615 0.388117 0.798509
Si Si5 0.211789 0.722474 0.659883
Si Si6 0.059330 0.946775 0.217387
Si Si7 0.629564 0.528315 0.774351
O O1 0.549635 0.438342 0.476501
O O2 0.207270 0.092308 0.166831
O O3 0.485577 0.302232 0.955094
O O4 0.470627 0.164615 0.978981
O O5 0.797186 0.104826 0.508126
O O6 0.797310 0.195407 0.338357
O O7 0.500000 0.000000 0.500000
O O8 0.855973 0.072125 0.747914
O O9 0.746396 0.181108 0.007703
O O10 0.116879 0.403567 0.964037
O O11 0.645513 0.258596 0.531749
O O12 0.630173 0.419256 0.675751
O O13 0.000000 0.500000 0.500000
O O14 0.000000 0.000000 0.500000
O O15 0.856676 0.745055 0.949934
O O16 0.500000 0.500000 0.000000
#
# Coordination Sequence:
#
# PCOD9031880 Si02
#       7
#     2   2   2   2   2   2   2
#     4  12  26  43  74 103 143 180 239 292 346 422
#     4  12  26  43  67 110 141 185 240 284 357 425
#     4  10  25  45  70  99 148 184 235 294 351 426
#     4  10  25  43  69 107 134 188 237 284 364 413
#     4  10  22  43  68  97 139 184 228 287 355 415
#     4  11  24  50  75 103 137 192 238 291 361 415
#     4  11  26  49  71  99 146 184 235 297 353 417
#
# _framework density 23.943750999999999
#
# number of rings (size 3 to 8) (size 9 to 14) (size 15 to 20)
#    0.000    1.143    4.286    0.000    6.000    3.429 
#    0.000    1.429    0.000    0.000    0.000    0.000 
#    0.000    0.000    0.000    0.000    0.000    0.000 
#
# Total GULP energy -78262.102788 kJ/mol
# GULP energy per Si atom -5590.150199 kJ/mol
# Density = 2.388925 g / cm^3
# Si number density = 23.943751 Si / 1000 Ang^3
#
#
#
# Elastic Constant Matrix: (Units=GPa)
#
#
# Indices 1 2 3 4 5 6 
#
# 1 53.3146 8.6603 30.1570 5.5197 -4.7499 -4.3231
# 2 8.6603 109.0301 35.8090 -15.2186 11.8927 -13.0380
# 3 30.1570 35.8090 152.2248 -5.1177 -16.7712 -2.4983
# 4 5.5197 -15.2186 -5.1177 42.3711 4.1927 -14.3658
# 5 -4.7499 11.8927 -16.7712 4.1927 34.2017 -6.5474
# 6 -4.3231 -13.0380 -2.4983 -14.3658 -6.5474 25.8761
#
#
#
# Elastic Compliance Matrix: (Units=1/GPa)
#
#
# Indices 1 2 3 4 5 6 
#
# 1 0.021803 -0.000969 -0.003949 -0.003391 0.002117 0.001426
# 2 -0.000969 0.013090 -0.003057 0.008144 -0.005404 0.009293
# 3 -0.003949 -0.003057 0.008580 -0.000091 0.004688 -0.000236
# 4 -0.003391 0.008144 -0.000091 0.034736 -0.003403 0.021952
# 5 0.002117 -0.005404 0.004688 -0.003403 0.035099 0.005075
# 6 0.001426 0.009293 -0.000236 0.021952 0.005075 0.057014
#
#
# Mechanical properties :
#
#
# Convention : Reuss Voigt Hill
#
# Bulk Modulus (GPa) = 36.33035 51.53577 43.93306
# Shear Modulus (GPa) = 25.58257 36.48601 31.03429
#
# Velocity S-wave (km/s) = 3.27225 3.90785 3.60409
# Velocity P-wave (km/s) = 5.42983 6.47550 5.97558
#
# Compressibility (1/GPa) = 0.02752520
#
# Stress axis : x y z
#
# Youngs Moduli (GPa) = 45.86543 76.39399 116.54902
#
# Poissons Ratio (x) = 0.07399 0.46023
# Poissons Ratio (y) = 0.04442 0.35623
# Poissons Ratio (z) = 0.18111 0.23350
#
# Static dielectric constant tensor:
#      x y z
#    x 1.904900 0.035800 -0.028470 
#    y 0.035800 1.934680 0.004270 
#    z -0.028470 0.004270 1.883860 
# 
# From -- ./inp_files/99969.got.cif
#   From: 2010.05.17/outbox.cif.g08.bks.cpg/sg2_50_cif.got.tgz:99969.got - 2010.06.03 11:33:40.
