data_PCOD9031266
_publ_section_title
;
Structure prediction by ZEFSAII (Michael W. Deem and Ramdas Pophale) SiO2 
 PCOD9031266
Probable space group: P -1
;
_chemical_formula_sum "Si O2"
_cell_formula_units_Z 16
_cell_length_a 8.834579
_cell_length_b 12.100461
_cell_length_c 17.204116
_cell_angle_alpha 132.991586
_cell_angle_beta 58.532001
_cell_angle_gamma 146.988194
_cell_volume 727.173491
_symmetry_space_group_name_H-M "P -1"
_symmetry_group_IT_number 2
_symmetry_cell_setting 'triclinic'
loop_
_space_group_symop_operation_xyz
x,y,z
-x,-y,-z
loop_
_atom_site_type_symbol
_atom_site_label
_atom_site_fract_x
_atom_site_fract_y
_atom_site_fract_z
Si Si1 0.862273 0.294861 0.700228
Si Si2 0.155901 0.515389 0.570123
Si Si3 0.795109 0.144917 0.350392
Si Si4 0.802837 0.926161 0.587017
Si Si5 0.839083 0.607009 0.914154
Si Si6 0.914179 0.964520 0.749682
Si Si7 0.606517 0.900323 0.931926
Si Si8 0.401055 0.517197 0.915966
O O1 0.941211 0.507341 0.817392
O O2 0.062470 0.398451 0.623067
O O3 0.536313 0.097217 0.666623
O O4 0.857117 0.142738 0.681885
O O5 0.153435 0.696847 0.654091
O O6 0.473528 0.682955 0.541843
O O7 0.932630 0.307985 0.468532
O O8 0.951741 0.091065 0.270287
O O9 0.863292 0.895172 0.639954
O O10 0.000000 0.000000 0.500000
O O11 0.663622 0.575517 0.879215
O O12 0.646166 0.459750 0.971759
O O13 0.089511 0.880056 0.004394
O O14 0.646181 0.845896 0.812010
O O15 0.137772 0.245874 0.829947
O O16 0.434108 0.679599 0.928597
O O17 0.500000 0.000000 0.000000
#
# Coordination Sequence:
#
# PCOD9031266 Si02
#       8
#     2   2   2   2   2   2   2   2
#     4  11  23  41  71  95 129 176 219 274 333 390
#     4  10  24  42  68  97 130 171 220 280 327 395
#     4  10  22  43  65  98 130 165 227 276 333 384
#     4  11  27  45  65  97 138 178 219 271 330 400
#     4  10  23  42  68  98 128 174 218 269 327 389
#     4  11  25  42  67  97 130 177 220 266 333 394
#     4  11  27  41  66 100 135 172 216 271 329 399
#     4  10  23  45  66  94 136 169 217 274 324 386
#
# _framework density 22.003001999999999
#
# number of rings (size 3 to 8) (size 9 to 14) (size 15 to 20)
#    0.000    1.500    1.250    1.500    7.000    7.000 
#    0.000    0.000    0.000    0.000    0.000    0.000 
#    0.000    0.000    0.000    0.000    0.000    0.000 
#
# Total GULP energy -89464.348417 kJ/mol
# GULP energy per Si atom -5591.521776 kJ/mol
# Density = 2.195292 g / cm^3
# Si number density = 22.003002 Si / 1000 Ang^3
#
#
#
# Elastic Constant Matrix: (Units=GPa)
#
#
# Indices 1 2 3 4 5 6 
#
# 1 93.6096 25.7294 6.6064 -8.1781 -14.6466 -12.2205
# 2 25.7294 67.9316 13.5585 -1.0780 -7.9134 -14.1615
# 3 6.6064 13.5585 59.6653 -4.0131 -8.9290 -1.6700
# 4 -8.1781 -1.0780 -4.0131 30.1917 1.8664 -9.7039
# 5 -14.6466 -7.9134 -8.9290 1.8664 38.4382 4.4963
# 6 -12.2205 -14.1615 -1.6700 -9.7039 4.4963 31.9077
#
#
#
# Elastic Compliance Matrix: (Units=1/GPa)
#
#
# Indices 1 2 3 4 5 6 
#
# 1 0.013210 -0.003668 0.000349 0.004671 0.003623 0.004360
# 2 -0.003668 0.018319 -0.003364 0.001375 0.000722 0.006866
# 3 0.000349 -0.003364 0.018155 0.002074 0.003590 -0.000284
# 4 0.004671 0.001375 0.002074 0.039495 -0.001089 0.014673
# 5 0.003623 0.000722 0.003590 -0.001089 0.028722 -0.002483
# 6 0.004360 0.006866 -0.000284 0.014673 -0.002483 0.040855
#
#
# Mechanical properties :
#
#
# Convention : Reuss Voigt Hill
#
# Bulk Modulus (GPa) = 27.53438 34.77724 31.15581
# Shear Modulus (GPa) = 27.14033 31.79501 29.46767
#
# Velocity S-wave (km/s) = 3.51591 3.80548 3.66356
# Velocity P-wave (km/s) = 5.38732 5.92865 5.66446
#
# Compressibility (1/GPa) = 0.03631823
#
# Stress axis : x y z
#
# Youngs Moduli (GPa) = 75.69837 54.58904 55.08191
#
# Poissons Ratio (x) = 0.20024 -0.01924
# Poissons Ratio (y) = 0.27767 0.18529
# Poissons Ratio (z) = -0.02643 0.18363
#
# Static dielectric constant tensor:
#      x y z
#    x 1.808400 0.024830 -0.011900 
#    y 0.024830 1.774000 -0.007010 
#    z -0.011900 -0.007010 1.815160 
# 
# From -- ./inp_files/48948.got.cif
#   From: 2010.05.17/outbox.cif.g08.bks.cpg/sg2_25_cif.got.tgz:48948.got - 2010.06.03 11:33:40.
