data_PCOD9031344
_publ_section_title
;
Structure prediction by ZEFSAII (Michael W. Deem and Ramdas Pophale) SiO2 
 PCOD9031344
Probable space group: P -1
;
_chemical_formula_sum "Si O2"
_cell_formula_units_Z 12
_cell_length_a 13.256686
_cell_length_b 10.036940
_cell_length_c 8.695769
_cell_angle_alpha 77.241097
_cell_angle_beta 69.601574
_cell_angle_gamma 133.369791
_cell_volume 581.352419
_symmetry_space_group_name_H-M "P -1"
_symmetry_group_IT_number 2
_symmetry_cell_setting 'triclinic'
loop_
_space_group_symop_operation_xyz
x,y,z
-x,-y,-z
loop_
_atom_site_type_symbol
_atom_site_label
_atom_site_fract_x
_atom_site_fract_y
_atom_site_fract_z
Si Si1 0.470903 0.306951 0.067250
Si Si2 0.168338 0.414116 0.017419
Si Si3 0.447702 0.623207 0.339257
Si Si4 0.687299 0.264901 0.414198
Si Si5 0.841694 0.149593 0.461706
Si Si6 0.214407 0.116200 0.702099
O O1 0.618094 0.407404 0.093808
O O2 0.533734 0.322962 0.862577
O O3 0.500000 0.500000 0.000000
O O4 0.253227 0.025912 0.297745
O O5 0.065698 0.360544 0.241634
O O6 0.179044 0.536583 0.846082
O O7 0.021392 0.141208 0.100724
O O8 0.381282 0.682981 0.457050
O O9 0.293608 0.338628 0.528792
O O10 0.656683 0.783284 0.244161
O O11 0.791431 0.254912 0.455780
O O12 0.500000 0.000000 0.500000
O O13 0.743010 0.964511 0.416911
#
# Coordination Sequence:
#
# PCOD9031344 Si02
#       6
#     2   2   2   2   2   2
#     4  12  23  42  67  95 137 170 206 274 332 375
#     4  10  23  44  69  93 128 175 220 261 324 386
#     4  11  23  39  67 101 129 168 221 265 321 382
#     4  12  21  42  70  93 130 177 214 268 320 383
#     4  10  22  43  66  91 129 175 210 260 328 378
#     4   9  21  42  64  94 126 169 225 260 305 386
#
# _framework density 20.641525000000001
#
# number of rings (size 3 to 8) (size 9 to 14) (size 15 to 20)
#    1.000    0.333    5.000    0.500    2.333    4.000 
#    3.000    0.833    0.000    0.000    0.000    0.000 
#    0.000    0.000    0.000    0.000    0.000    0.000 
#
# Total GULP energy -66922.875573 kJ/mol
# GULP energy per Si atom -5576.906298 kJ/mol
# Density = 2.059454 g / cm^3
# Si number density = 20.641525 Si / 1000 Ang^3
#
#
#
# Elastic Constant Matrix: (Units=GPa)
#
#
# Indices 1 2 3 4 5 6 
#
# 1 43.1022 -6.4985 21.1009 5.9927 4.6788 -19.9260
# 2 -6.4985 45.8784 23.7749 0.5959 2.2226 -8.5528
# 3 21.1009 23.7749 115.7668 -6.6780 8.3405 -10.1054
# 4 5.9927 0.5959 -6.6780 14.5112 -0.2203 -0.2651
# 5 4.6788 2.2226 8.3405 -0.2203 31.8129 -2.1537
# 6 -19.9260 -8.5528 -10.1054 -0.2651 -2.1537 28.8451
#
#
#
# Elastic Compliance Matrix: (Units=1/GPa)
#
#
# Indices 1 2 3 4 5 6 
#
# 1 0.056004 0.022629 -0.012733 -0.029239 -0.003949 0.040372
# 2 0.022629 0.034607 -0.010044 -0.015010 -0.001720 0.022108
# 3 -0.012733 -0.010044 0.013157 0.011576 -0.001279 -0.007154
# 4 -0.029239 -0.015010 0.011576 0.086595 0.001582 -0.019680
# 5 -0.003949 -0.001720 -0.001279 0.001582 0.032396 -0.001253
# 6 0.040372 0.022108 -0.007154 -0.019680 -0.001253 0.066331
#
#
# Mechanical properties :
#
#
# Convention : Reuss Voigt Hill
#
# Bulk Modulus (GPa) = 9.66456 31.27801 20.47129
# Shear Modulus (GPa) = 15.43797 26.12519 20.78158
#
# Velocity S-wave (km/s) = 2.73776 3.56147 3.17643
# Velocity P-wave (km/s) = 3.83223 5.66551 4.83653
#
# Compressibility (1/GPa) = 0.10347078
#
# Stress axis : x y z
#
# Youngs Moduli (GPa) = 17.85595 28.89621 76.00480
#
# Poissons Ratio (x) = -0.65388 0.96778
# Poissons Ratio (y) = -0.40406 0.76338
# Poissons Ratio (z) = 0.22736 0.29023
#
# Static dielectric constant tensor:
#      x y z
#    x 1.728930 0.001800 -0.019490 
#    y 0.001800 1.738530 -0.003020 
#    z -0.019490 -0.003020 1.770210 
# 
# From -- ./inp_files/266120.got.cif
#   From: 2010.05.17/outbox.cif.g08.bks.cpg/sg2_134_cif.got.tgz:266120.got - 2010.06.03 11:33:40.
