data_PCOD9031528
_publ_section_title
;
Structure prediction by ZEFSAII (Michael W. Deem and Ramdas Pophale) SiO2 
 PCOD9031528
Probable space group: P -1
;
_chemical_formula_sum "Si O2"
_cell_formula_units_Z 16
_cell_length_a 12.003598
_cell_length_b 23.227005
_cell_length_c 8.460039
_cell_angle_alpha 41.607917
_cell_angle_beta 73.271506
_cell_angle_gamma 40.209356
_cell_volume 759.131132
_symmetry_space_group_name_H-M "P -1"
_symmetry_group_IT_number 2
_symmetry_cell_setting 'triclinic'
loop_
_space_group_symop_operation_xyz
x,y,z
-x,-y,-z
loop_
_atom_site_type_symbol
_atom_site_label
_atom_site_fract_x
_atom_site_fract_y
_atom_site_fract_z
Si Si1 0.058280 0.808615 0.066905
Si Si2 0.845165 0.774365 0.805406
Si Si3 0.126348 0.435378 0.747695
Si Si4 0.289668 0.504902 0.404385
Si Si5 0.781186 0.951799 0.204571
Si Si6 0.652185 0.980840 0.756066
Si Si7 0.207730 0.869662 0.054633
Si Si8 0.685867 0.785688 0.332967
O O1 0.229701 0.629100 0.280101
O O2 0.142863 0.852645 0.964575
O O3 0.970885 0.840599 0.215652
O O4 0.824899 0.949230 0.773180
O O5 0.840069 0.829805 0.532000
O O6 0.677860 0.927452 0.683816
O O7 0.769477 0.723624 0.930815
O O8 0.094803 0.622297 0.105709
O O9 0.265825 0.434090 0.669619
O O10 0.000000 0.500000 0.500000
O O11 0.916280 0.584999 0.643448
O O12 0.546837 0.331474 0.584942
O O13 0.765984 0.043553 0.141088
O O14 0.529079 0.108324 0.904150
O O15 0.410190 0.154056 0.576368
O O16 0.740260 0.845462 0.114799
O O17 0.000000 0.000000 0.000000
#
# Coordination Sequence:
#
# PCOD9031528 Si02
#       8
#     2   2   2   2   2   2   2   2
#     4   9  18  37  58  76 106 145 188 217 262 321
#     4  10  20  35  53  85 116 141 173 222 278 311
#     4  10  17  32  53  80 106 148 177 208 258 335
#     4  10  19  37  57  77 106 146 184 214 265 333
#     4  10  21  34  55  87 113 136 178 232 266 307
#     4   9  18  32  54  79 106 147 180 211 262 321
#     4  10  21  37  59  82 100 141 190 227 261 320
#     4  10  17  33  57  77 110 146 183 212 256 325
#
# _framework density 21.076727000000002
#
# number of rings (size 3 to 8) (size 9 to 14) (size 15 to 20)
#    0.000    2.250    3.750    1.875    0.000    0.500 
#    0.000    6.875    0.000    0.000    0.000    0.000 
#    0.000    0.000    0.000    0.000    0.000    0.000 
#
# Total GULP energy -89156.060602 kJ/mol
# GULP energy per Si atom -5572.253788 kJ/mol
# Density = 2.102876 g / cm^3
# Si number density = 21.076727 Si / 1000 Ang^3
#
#
#
# Elastic Constant Matrix: (Units=GPa)
#
#
# Indices 1 2 3 4 5 6 
#
# 1 131.2894 8.5195 31.7333 -8.0484 -9.8530 21.2024
# 2 8.5195 97.2395 36.3507 -28.7903 6.7084 7.6769
# 3 31.7333 36.3507 68.6676 -15.2795 4.7955 1.0484
# 4 -8.0484 -28.7903 -15.2795 39.1605 -1.9104 0.2540
# 5 -9.8530 6.7084 4.7955 -1.9104 24.7090 -8.4886
# 6 21.2024 7.6769 1.0484 0.2540 -8.4886 25.9160
#
#
#
# Elastic Compliance Matrix: (Units=1/GPa)
#
#
# Indices 1 2 3 4 5 6 
#
# 1 0.010430 0.002229 -0.005619 0.001737 0.001907 -0.008358
# 2 0.002229 0.016566 -0.007238 0.009661 -0.004171 -0.007899
# 3 -0.005619 -0.007238 0.021485 0.001748 -0.002590 0.005007
# 4 0.001737 0.009661 0.001748 0.033641 -0.001439 -0.005155
# 5 0.001907 -0.004171 -0.002590 -0.001439 0.048097 0.015548
# 6 -0.008358 -0.007899 0.005007 -0.005155 0.015548 0.052705
#
#
# Mechanical properties :
#
#
# Convention : Reuss Voigt Hill
#
# Bulk Modulus (GPa) = 36.73146 50.04482 43.38814
# Shear Modulus (GPa) = 23.44628 32.66330 28.05479
#
# Velocity S-wave (km/s) = 3.33892 3.94094 3.65235
# Velocity P-wave (km/s) = 5.68594 6.67110 6.19812
#
# Compressibility (1/GPa) = 0.02722462
#
# Stress axis : x y z
#
# Youngs Moduli (GPa) = 95.88030 60.36383 46.54462
#
# Poissons Ratio (x) = -0.13458 0.26154
# Poissons Ratio (y) = -0.21376 0.33691
# Poissons Ratio (z) = 0.53876 0.43694
#
# Static dielectric constant tensor:
#      x y z
#    x 1.926200 0.087730 0.003680 
#    y 0.087730 1.924550 -0.062980 
#    z 0.003680 -0.062980 1.768970 
# 
# From -- ./inp_files/285140.got.cif
#   From: 2010.05.17/outbox.cif.g08.bks.cpg/sg2_143_cif.got.tgz:285140.got - 2010.06.03 11:33:40.
