data_PCOD9031493
_publ_section_title
;
Structure prediction by ZEFSAII (Michael W. Deem and Ramdas Pophale) SiO2 
 PCOD9031493
Probable space group: P -1
;
_chemical_formula_sum "Si O2"
_cell_formula_units_Z 16
_cell_length_a 18.397535
_cell_length_b 21.173544
_cell_length_c 12.355604
_cell_angle_alpha 36.191635
_cell_angle_beta 151.970067
_cell_angle_gamma 162.356001
_cell_volume 665.580107
_symmetry_space_group_name_H-M "P -1"
_symmetry_group_IT_number 2
_symmetry_cell_setting 'triclinic'
loop_
_space_group_symop_operation_xyz
x,y,z
-x,-y,-z
loop_
_atom_site_type_symbol
_atom_site_label
_atom_site_fract_x
_atom_site_fract_y
_atom_site_fract_z
Si Si1 0.807001 0.989014 0.788859
Si Si2 0.547920 0.681816 0.559284
Si Si3 0.192856 0.427998 0.662789
Si Si4 0.166748 0.489735 0.119609
Si Si5 0.104128 0.310495 0.090643
Si Si6 0.605582 0.153055 0.154137
Si Si7 0.459146 0.105309 0.658305
Si Si8 0.297415 0.606239 0.767833
O O1 0.583963 0.887583 0.534422
O O2 0.611972 0.863834 0.817016
O O3 0.057561 0.232466 0.783502
O O4 0.000000 0.000000 0.000000
O O5 0.412052 0.563201 0.659850
O O6 0.262828 0.523981 0.320163
O O7 0.760878 0.718987 0.735745
O O8 0.693042 0.887430 0.486166
O O9 0.345506 0.563934 0.782500
O O10 0.885186 0.311480 0.387807
O O11 0.203168 0.406224 0.208986
O O12 0.378938 0.718295 0.048803
O O13 0.813895 0.314421 0.874824
O O14 0.226527 0.483711 0.940781
O O15 0.731488 0.076625 0.923944
O O16 0.658458 0.087451 0.227960
O O17 0.000000 0.500000 0.500000
#
# Coordination Sequence:
#
# PCOD9031493 Si02
#       8
#     2   2   2   2   2   2   2   2
#     4  11  24  42  67 100 134 169 218 280 338 396
#     4  12  24  45  71 100 139 177 220 296 338 385
#     4  11  24  43  68  99 129 176 231 266 337 404
#     4  11  23  48  71  92 138 186 230 270 338 409
#     4  11  27  43  65 104 140 172 226 286 341 397
#     4  10  22  45  67  97 132 179 231 273 328 415
#     4  10  22  43  67 101 133 168 234 274 329 405
#     4  12  24  45  69  93 139 183 221 275 331 412
#
# _framework density 24.039180999999999
#
# number of rings (size 3 to 8) (size 9 to 14) (size 15 to 20)
#    0.000    1.000    2.500    4.500    1.750    5.000 
#   11.250    0.000    0.000    0.000    0.000    0.000 
#    0.000    0.000    0.000    0.000    0.000    0.000 
#
# Total GULP energy -89541.131944 kJ/mol
# GULP energy per Si atom -5596.320747 kJ/mol
# Density = 2.398447 g / cm^3
# Si number density = 24.039181 Si / 1000 Ang^3
#
#
#
# Elastic Constant Matrix: (Units=GPa)
#
#
# Indices 1 2 3 4 5 6 
#
# 1 102.7812 32.2209 17.6463 -2.0752 11.4718 -13.9891
# 2 32.2209 67.6246 15.1555 -4.1980 14.2731 -0.2046
# 3 17.6463 15.1555 82.8247 4.3678 10.5906 3.6172
# 4 -2.0752 -4.1980 4.3678 19.8972 -10.9973 4.2262
# 5 11.4718 14.2731 10.5906 -10.9973 50.1058 0.1565
# 6 -13.9891 -0.2046 3.6172 4.2262 0.1565 34.0057
#
#
#
# Elastic Compliance Matrix: (Units=1/GPa)
#
#
# Indices 1 2 3 4 5 6 
#
# 1 0.012581 -0.005408 -0.001695 -0.001338 -0.001293 0.005496
# 2 -0.005408 0.018592 -0.001891 0.002533 -0.003095 -0.002212
# 3 -0.001695 -0.001891 0.013486 -0.004863 -0.002986 -0.001525
# 4 -0.001338 0.002533 -0.004863 0.061118 0.014051 -0.007678
# 5 -0.001293 -0.003095 -0.002986 0.014051 0.024857 -0.002093
# 6 0.005496 -0.002212 -0.001525 -0.007678 -0.002093 0.032780
#
#
# Mechanical properties :
#
#
# Convention : Reuss Voigt Hill
#
# Bulk Modulus (GPa) = 37.49463 42.58621 40.04042
# Shear Modulus (GPa) = 26.27537 33.34892 29.81214
#
# Velocity S-wave (km/s) = 3.30968 3.72865 3.52539
# Velocity P-wave (km/s) = 5.49877 6.02419 5.76747
#
# Compressibility (1/GPa) = 0.02667048
#
# Stress axis : x y z
#
# Youngs Moduli (GPa) = 79.48450 53.78658 74.15260
#
# Poissons Ratio (x) = 0.29089 0.12569
# Poissons Ratio (y) = 0.42987 0.14021
# Poissons Ratio (z) = 0.13473 0.10170
#
# Static dielectric constant tensor:
#      x y z
#    x 1.956340 -0.033660 0.021150 
#    y -0.033660 2.003330 -0.026280 
#    z 0.021150 -0.026280 1.917320 
# 
# From -- ./inp_files/467106.got.cif
#   From: 2010.05.17/outbox.cif.g08.bks.cpg/sg2_234_cif.got.tgz:467106.got - 2010.06.03 11:33:40.
