data_PCOD9031563
_publ_section_title
;
Structure prediction by ZEFSAII (Michael W. Deem and Ramdas Pophale) SiO2 
 PCOD9031563
Probable space group: P -1
;
_chemical_formula_sum "Si O2"
_cell_formula_units_Z 12
_cell_length_a 6.466385
_cell_length_b 14.131456
_cell_length_c 8.786014
_cell_angle_alpha 42.361042
_cell_angle_beta 98.371986
_cell_angle_gamma 94.316068
_cell_volume 534.573413
_symmetry_space_group_name_H-M "P -1"
_symmetry_group_IT_number 2
_symmetry_cell_setting 'triclinic'
loop_
_space_group_symop_operation_xyz
x,y,z
-x,-y,-z
loop_
_atom_site_type_symbol
_atom_site_label
_atom_site_fract_x
_atom_site_fract_y
_atom_site_fract_z
Si Si1 0.829770 0.750742 0.677221
Si Si2 0.518813 0.964196 0.223284
Si Si3 0.804831 0.256614 0.474299
Si Si4 0.140527 0.374126 0.592158
Si Si5 0.412732 0.472056 0.230407
Si Si6 0.401586 0.235372 0.056548
O O1 0.706642 0.854029 0.420806
O O2 0.752297 0.593539 0.824568
O O3 0.744866 0.796120 0.778436
O O4 0.072745 0.749994 0.664409
O O5 0.310808 0.885480 0.340280
O O6 0.532675 0.101630 0.165104
O O7 0.500000 0.000000 0.000000
O O8 0.628004 0.381502 0.328524
O O9 0.982837 0.284801 0.583441
O O10 0.315787 0.434712 0.428081
O O11 0.000000 0.500000 0.500000
O O12 0.254810 0.287403 0.840124
O O13 0.459445 0.634570 0.037762
#
# Coordination Sequence:
#
# PCOD9031563 Si02
#       6
#     2   2   2   2   2   2
#     4  10  24  44  64  95 131 168 210 261 323 379
#     4  11  25  44  67  91 128 172 213 264 315 381
#     4  10  22  45  63  91 133 165 216 259 314 383
#     4  11  23  40  66  97 124 168 217 259 310 376
#     4  10  22  43  67  93 131 167 213 266 312 374
#     4  12  23  41  67  98 130 166 212 267 319 371
#
# _framework density 22.447804000000001
#
# number of rings (size 3 to 8) (size 9 to 14) (size 15 to 20)
#    0.000    1.333    1.667    4.500    2.333    4.000 
#    6.000    0.000    0.000    0.000    0.000    0.000 
#    0.000    0.000    0.000    0.000    0.000    0.000 
#
# Total GULP energy -67164.475816 kJ/mol
# GULP energy per Si atom -5597.039651 kJ/mol
# Density = 2.239671 g / cm^3
# Si number density = 22.447804 Si / 1000 Ang^3
#
#
#
# Elastic Constant Matrix: (Units=GPa)
#
#
# Indices 1 2 3 4 5 6 
#
# 1 125.3124 31.7308 55.3763 0.9866 -20.5688 -22.7671
# 2 31.7308 111.2847 42.8226 -14.3635 -18.8330 -28.3390
# 3 55.3763 42.8226 95.7595 1.3076 -17.7452 -14.7220
# 4 0.9866 -14.3635 1.3076 49.1469 -3.6807 -9.6185
# 5 -20.5688 -18.8330 -17.7452 -3.6807 29.9709 7.0166
# 6 -22.7671 -28.3390 -14.7220 -9.6185 7.0166 38.1706
#
#
#
# Elastic Compliance Matrix: (Units=1/GPa)
#
#
# Indices 1 2 3 4 5 6 
#
# 1 0.011933 0.001142 -0.005794 0.001622 0.004429 0.005325
# 2 0.001142 0.015153 -0.004797 0.007081 0.005807 0.010798
# 3 -0.005794 -0.004797 0.016213 -0.001849 0.002789 -0.001743
# 4 0.001622 0.007081 -0.001849 0.024936 0.004984 0.010879
# 5 0.004429 0.005807 0.002789 0.004984 0.041950 0.001573
# 6 0.005325 0.010798 -0.001743 0.010879 0.001573 0.039171
#
#
# Mechanical properties :
#
#
# Convention : Reuss Voigt Hill
#
# Bulk Modulus (GPa) = 40.98300 65.80177 53.39239
# Shear Modulus (GPa) = 28.34681 36.95281 32.64981
#
# Velocity S-wave (km/s) = 3.55743 4.06170 3.81790
# Velocity P-wave (km/s) = 5.93046 7.16752 6.57814
#
# Compressibility (1/GPa) = 0.02440036
#
# Stress axis : x y z
#
# Youngs Moduli (GPa) = 83.80062 65.99514 61.67917
#
# Poissons Ratio (x) = -0.07538 0.35738
# Poissons Ratio (y) = -0.09572 0.29589
# Poissons Ratio (z) = 0.48555 0.31659
#
# Static dielectric constant tensor:
#      x y z
#    x 1.825090 -0.018100 0.014730 
#    y -0.018100 1.856260 0.001850 
#    z 0.014730 0.001850 1.847710 
# 
# From -- ./inp_files/26129.got.cif
#   From: 2010.05.17/outbox.cif.g08.bks.cpg/sg2_14_cif.got.tgz:26129.got - 2010.06.03 11:33:40.
