data_PCOD9031082
_publ_section_title
;
Structure prediction by ZEFSAII (Michael W. Deem and Ramdas Pophale) SiO2 
 PCOD9031082
Probable space group: P -1
;
_chemical_formula_sum "Si O2"
_cell_formula_units_Z 14
_cell_length_a 5.271191
_cell_length_b 15.831250
_cell_length_c 10.006734
_cell_angle_alpha 51.080510
_cell_angle_beta 72.616128
_cell_angle_gamma 64.229487
_cell_volume 584.690029
_symmetry_space_group_name_H-M "P -1"
_symmetry_group_IT_number 2
_symmetry_cell_setting 'triclinic'
loop_
_space_group_symop_operation_xyz
x,y,z
-x,-y,-z
loop_
_atom_site_type_symbol
_atom_site_label
_atom_site_fract_x
_atom_site_fract_y
_atom_site_fract_z
Si Si1 0.590685 0.310109 0.409800
Si Si2 0.809792 0.437515 0.788612
Si Si3 0.004789 0.017015 0.143473
Si Si4 0.575641 0.252422 0.994476
Si Si5 0.968788 0.633622 0.890027
Si Si6 0.594301 0.886171 0.322504
Si Si7 0.662159 0.716930 0.268144
O O1 0.339677 0.428412 0.300239
O O2 0.868498 0.322796 0.291536
O O3 0.517584 0.198443 0.485325
O O4 0.579064 0.302080 0.581112
O O5 0.092667 0.398763 0.696503
O O6 0.608212 0.373449 0.822861
O O7 0.877495 0.373774 0.984111
O O8 0.859678 0.149291 0.077426
O O9 0.790445 0.950342 0.291430
O O10 0.314318 0.965634 0.209949
O O11 0.000000 0.000000 0.000000
O O12 0.349258 0.286073 0.114324
O O13 0.449348 0.216275 0.916360
O O14 0.000000 0.500000 0.000000
O O15 0.771592 0.796718 0.269772
#
# Coordination Sequence:
#
# PCOD9031082 Si02
#       7
#     2   2   2   2   2   2   2
#     4  10  22  43  64  95 135 173 220 281 339 408
#     4  11  22  41  65  99 127 171 228 277 342 402
#     4  12  22  43  68  98 140 176 230 277 333 406
#     4  11  24  39  69  97 129 173 225 278 333 406
#     4  11  24  44  63  95 131 180 226 271 340 410
#     4  10  25  40  67 100 133 182 217 280 346 386
#     4   9  22  39  62 101 127 170 218 279 347 383
#
# _framework density 23.944309000000001
#
# number of rings (size 3 to 8) (size 9 to 14) (size 15 to 20)
#    0.857    0.571    2.857    2.143    4.000    1.714 
#    2.571    1.429    0.000    0.000    0.000    0.000 
#    0.000    0.000    0.000    0.000    0.000    0.000 
#
# Total GULP energy -78195.733715 kJ/mol
# GULP energy per Si atom -5585.409551 kJ/mol
# Density = 2.388981 g / cm^3
# Si number density = 23.944309 Si / 1000 Ang^3
#
#
#
# Elastic Constant Matrix: (Units=GPa)
#
#
# Indices 1 2 3 4 5 6 
#
# 1 71.0722 19.7394 28.1520 1.2728 -6.8927 -12.8779
# 2 19.7394 95.9984 51.8276 4.5466 -2.1034 -31.9986
# 3 28.1520 51.8276 114.7001 7.2903 -31.9183 -14.9828
# 4 1.2728 4.5466 7.2903 45.0112 -6.8789 -5.4778
# 5 -6.8927 -2.1034 -31.9183 -6.8789 34.3100 -6.2880
# 6 -12.8779 -31.9986 -14.9828 -5.4778 -6.2880 42.2505
#
#
#
# Elastic Compliance Matrix: (Units=1/GPa)
#
#
# Indices 1 2 3 4 5 6 
#
# 1 0.016172 -0.000475 -0.002927 0.000736 0.001346 0.003828
# 2 -0.000475 0.018091 -0.008037 0.000000 -0.004627 0.010018
# 3 -0.002927 -0.008037 0.017639 0.000656 0.015774 0.001709
# 4 0.000736 0.000000 0.000656 0.023595 0.006305 0.004455
# 5 0.001346 -0.004627 0.015774 0.006305 0.046960 0.010306
# 6 0.003828 0.010018 0.001709 0.004455 0.010306 0.035140
#
#
# Mechanical properties :
#
#
# Convention : Reuss Voigt Hill
#
# Bulk Modulus (GPa) = 34.45279 53.46765 43.96022
# Shear Modulus (GPa) = 26.29489 36.45112 31.37300
#
# Velocity S-wave (km/s) = 3.31746 3.90594 3.62366
# Velocity P-wave (km/s) = 5.39388 6.53607 5.99226
#
# Compressibility (1/GPa) = 0.02902523
#
# Stress axis : x y z
#
# Youngs Moduli (GPa) = 61.83386 55.27466 56.69128
#
# Poissons Ratio (x) = 0.02623 0.16595
# Poissons Ratio (y) = 0.02935 0.45564
# Poissons Ratio (z) = 0.18100 0.44425
#
# Static dielectric constant tensor:
#      x y z
#    x 2.041110 0.082980 -0.021320 
#    y 0.082980 1.929180 -0.021410 
#    z -0.021320 -0.021410 1.968630 
# 
# From -- ./inp_files/100909.got.cif
#   From: 2010.05.17/outbox.cif.g08.bks.cpg/sg2_51_cif.got.tgz:100909.got - 2010.06.03 11:33:40.
