data_PCOD9031966
_publ_section_title
;
Structure prediction by ZEFSAII (Michael W. Deem and Ramdas Pophale) SiO2 
 PCOD9031966
Probable space group: P -1
;
_chemical_formula_sum "Si O2"
_cell_formula_units_Z 14
_cell_length_a 10.175829
_cell_length_b 11.029726
_cell_length_c 7.786814
_cell_angle_alpha 83.678352
_cell_angle_beta 68.536508
_cell_angle_gamma 48.236773
_cell_volume 595.343096
_symmetry_space_group_name_H-M "P -1"
_symmetry_group_IT_number 2
_symmetry_cell_setting 'triclinic'
loop_
_space_group_symop_operation_xyz
x,y,z
-x,-y,-z
loop_
_atom_site_type_symbol
_atom_site_label
_atom_site_fract_x
_atom_site_fract_y
_atom_site_fract_z
Si Si1 0.451517 0.502178 0.219295
Si Si2 0.729181 0.168510 0.665909
Si Si3 0.536364 0.041899 0.222919
Si Si4 0.806922 0.444980 0.179628
Si Si5 0.083159 0.056303 0.080581
Si Si6 0.356857 0.256766 0.964352
Si Si7 0.450929 0.276525 0.478311
O O1 0.265897 0.688766 0.334296
O O2 0.624854 0.461180 0.247612
O O3 0.446662 0.366861 0.299709
O O4 0.500000 0.500000 0.000000
O O5 0.545368 0.230442 0.856896
O O6 0.645218 0.185759 0.514524
O O7 0.896611 0.008856 0.723058
O O8 0.456520 0.138482 0.423075
O O9 0.608781 0.862976 0.182897
O O10 0.370417 0.168813 0.141928
O O11 0.718042 0.019033 0.089567
O O12 0.809744 0.546629 0.012019
O O13 0.737431 0.568560 0.352677
O O14 0.975088 0.249527 0.121970
O O15 0.000000 0.000000 0.000000
#
# Coordination Sequence:
#
# PCOD9031966 Si02
#       7
#     2   2   2   2   2   2   2
#     4  10  17  32  54  76 103 140 183 217 257 322
#     4   9  19  33  52  76 109 141 177 222 267 318
#     4  10  19  35  59  80 104 140 188 223 264 323
#     4  10  20  33  52  78 110 138 176 226 273 314
#     4  11  22  36  53  80 114 147 177 222 274 320
#     4   8  18  36  58  79 101 143 188 223 258 320
#     4  10  19  34  56  81 105 142 183 222 267 319
#
# _framework density 23.51585
#
# number of rings (size 3 to 8) (size 9 to 14) (size 15 to 20)
#    0.000    2.571    0.000    6.000    0.000    2.857 
#    0.000    9.286    0.000    8.571    0.000    0.000 
#    0.000    0.000    0.000    0.000    0.000    0.000 
#
# Total GULP energy -77956.667185 kJ/mol
# GULP energy per Si atom -5568.333370 kJ/mol
# Density = 2.346233 g / cm^3
# Si number density = 23.515850 Si / 1000 Ang^3
#
#
#
# Elastic Constant Matrix: (Units=GPa)
#
#
# Indices 1 2 3 4 5 6 
#
# 1 41.0908 27.4975 7.2459 12.7732 14.3548 15.1125
# 2 27.4975 210.5270 54.2298 1.9685 29.2992 22.4441
# 3 7.2459 54.2298 95.9975 4.8814 36.8031 5.1142
# 4 12.7732 1.9685 4.8814 40.6008 7.7523 4.9753
# 5 14.3548 29.2992 36.8031 7.7523 34.5267 8.4351
# 6 15.1125 22.4441 5.1142 4.9753 8.4351 35.4710
#
#
#
# Elastic Compliance Matrix: (Units=1/GPa)
#
#
# Indices 1 2 3 4 5 6 
#
# 1 0.036480 -0.003043 0.005250 -0.008082 -0.013941 -0.009925
# 2 -0.003043 0.006235 -0.003030 0.001404 -0.000555 -0.002277
# 3 0.005250 -0.003030 0.019710 -0.000082 -0.021057 0.001857
# 4 -0.008082 0.001404 -0.000082 0.027912 -0.003909 -0.000419
# 5 -0.013941 -0.000555 -0.021057 -0.003909 0.059603 -0.004298
# 6 -0.009925 -0.002277 0.001857 -0.000419 -0.004298 0.034674
#
#
# Mechanical properties :
#
#
# Convention : Reuss Voigt Hill
#
# Bulk Modulus (GPa) = 16.45304 58.39575 37.42439
# Shear Modulus (GPa) = 24.21078 39.36250 31.78664
#
# Velocity S-wave (km/s) = 3.21214 4.09574 3.68055
# Velocity P-wave (km/s) = 4.55729 6.87409 5.83190
#
# Compressibility (1/GPa) = 0.06077905
#
# Stress axis : x y z
#
# Youngs Moduli (GPa) = 27.41232 160.39224 50.73591
#
# Poissons Ratio (x) = 0.48812 -0.26637
# Poissons Ratio (y) = 0.08342 0.15371
# Poissons Ratio (z) = -0.14392 0.48592
#
# Static dielectric constant tensor:
#      x y z
#    x 1.920490 -0.053990 0.022710 
#    y -0.053990 2.071630 -0.017810 
#    z 0.022710 -0.017810 1.983820 
# 
# From -- ./inp_files/253486.got.cif
#   From: 2010.05.17/outbox.cif.g08.bks.cpg/sg2_127_cif.got.tgz:253486.got - 2010.06.03 11:33:40.
