data_PCOD9031011
_publ_section_title
;
Structure prediction by ZEFSAII (Michael W. Deem and Ramdas Pophale) SiO2 
 PCOD9031011
Probable space group: P -1
;
_chemical_formula_sum "Si O2"
_cell_formula_units_Z 16
_cell_length_a 11.987253
_cell_length_b 17.311451
_cell_length_c 20.556170
_cell_angle_alpha 160.292749
_cell_angle_beta 30.114368
_cell_angle_gamma 150.127998
_cell_volume 685.703195
_symmetry_space_group_name_H-M "P -1"
_symmetry_group_IT_number 2
_symmetry_cell_setting 'triclinic'
loop_
_space_group_symop_operation_xyz
x,y,z
-x,-y,-z
loop_
_atom_site_type_symbol
_atom_site_label
_atom_site_fract_x
_atom_site_fract_y
_atom_site_fract_z
Si Si1 0.914056 0.867698 0.537402
Si Si2 0.482840 0.356281 0.102627
Si Si3 0.740099 0.978071 0.331311
Si Si4 0.261637 0.166351 0.202360
Si Si5 0.612936 0.969087 0.650346
Si Si6 0.934946 0.680992 0.092280
Si Si7 0.749285 0.302897 0.479297
Si Si8 0.709891 0.366947 0.215749
O O1 0.746259 0.900105 0.589581
O O2 0.799978 0.590167 0.395561
O O3 0.180448 0.923591 0.421540
O O4 0.927357 0.070881 0.745168
O O5 0.349284 0.249374 0.151202
O O6 0.754921 0.506805 0.094005
O O7 0.366994 0.558637 0.301288
O O8 0.490591 0.158167 0.889326
O O9 0.723391 0.036423 0.309303
O O10 0.004606 0.171025 0.357162
O O11 0.500000 0.000000 0.500000
O O12 0.788950 0.749965 0.160586
O O13 0.453817 0.308554 0.269540
O O14 0.261078 0.887532 0.980463
O O15 0.412466 0.751455 0.546136
O O16 0.110280 0.555841 0.874389
O O17 0.000000 0.500000 0.500000
#
# Coordination Sequence:
#
# PCOD9031011 Si02
#       8
#     2   2   2   2   2   2   2   2
#     4  11  22  40  68 104 137 170 227 271 332 413
#     4  12  22  43  68  99 135 174 224 277 337 394
#     4  11  22  43  68  94 128 179 230 267 335 401
#     4  10  23  40  65  96 138 175 220 278 341 390
#     4  11  25  39  67 107 131 175 228 272 334 402
#     4  11  23  41  71 101 133 180 220 275 342 397
#     4  12  25  47  69  93 138 182 224 282 331 397
#     4  10  22  43  63  97 139 178 216 277 337 401
#
# _framework density 23.33371
#
# number of rings (size 3 to 8) (size 9 to 14) (size 15 to 20)
#    0.000    1.000    5.000    1.500    1.750    1.500 
#    2.250    8.125    0.000    0.000    0.000    0.000 
#    0.000    0.000    0.000    0.000    0.000    0.000 
#
# Total GULP energy -89236.411774 kJ/mol
# GULP energy per Si atom -5577.275736 kJ/mol
# Density = 2.328060 g / cm^3
# Si number density = 23.333710 Si / 1000 Ang^3
#
#
#
# Elastic Constant Matrix: (Units=GPa)
#
#
# Indices 1 2 3 4 5 6 
#
# 1 70.9057 25.0935 21.3823 -3.7682 -5.6399 6.8527
# 2 25.0935 133.1286 18.4310 -20.5451 -0.5847 18.9967
# 3 21.3823 18.4310 107.3250 -1.6842 12.3997 21.1379
# 4 -3.7682 -20.5451 -1.6842 46.7721 7.0455 -6.1545
# 5 -5.6399 -0.5847 12.3997 7.0455 24.1678 3.5005
# 6 6.8527 18.9967 21.1379 -6.1545 3.5005 40.6511
#
#
#
# Elastic Compliance Matrix: (Units=1/GPa)
#
#
# Indices 1 2 3 4 5 6 
#
# 1 0.016559 -0.002704 -0.003456 -0.000916 0.005893 -0.000377
# 2 -0.002704 0.009020 -0.000262 0.003465 -0.000850 -0.003025
# 3 -0.003456 -0.000262 0.011722 0.000335 -0.006229 -0.004803
# 4 -0.000916 0.003465 0.000335 0.024374 -0.007802 0.002723
# 5 0.005893 -0.000850 -0.006229 -0.007802 0.048597 -0.002723
# 6 -0.000377 -0.003025 -0.004803 0.002723 -0.002723 0.029221
#
#
# Mechanical properties :
#
#
# Convention : Reuss Voigt Hill
#
# Bulk Modulus (GPa) = 40.88750 49.01921 44.95335
# Shear Modulus (GPa) = 31.15477 38.74836 34.95156
#
# Velocity S-wave (km/s) = 3.65798 4.07949 3.87447
# Velocity P-wave (km/s) = 5.94996 6.57595 6.27077
#
# Compressibility (1/GPa) = 0.02445735
#
# Stress axis : x y z
#
# Youngs Moduli (GPa) = 60.39040 110.86181 85.31111
#
# Poissons Ratio (x) = 0.29982 0.29480
# Poissons Ratio (y) = 0.16332 0.02233
# Poissons Ratio (z) = 0.20869 0.02902
#
# Static dielectric constant tensor:
#      x y z
#    x 1.944960 -0.041160 -0.086380 
#    y -0.041160 1.954260 0.021870 
#    z -0.086380 0.021870 1.881820 
# 
# From -- ./inp_files/596030.got.cif
#   From: 2010.05.17/outbox.cif.g08.bks.cpg/sg2_299_cif.got.tgz:596030.got - 2010.06.03 11:33:40.
