data_PCOD9031624
_publ_section_title
;
Structure prediction by ZEFSAII (Michael W. Deem and Ramdas Pophale) SiO2 
 PCOD9031624
Probable space group: P -1
;
_chemical_formula_sum "Si O2"
_cell_formula_units_Z 15
_cell_length_a 14.663599
_cell_length_b 19.982429
_cell_length_c 6.006004
_cell_angle_alpha 82.750830
_cell_angle_beta 98.312473
_cell_angle_gamma 159.554790
_cell_volume 608.056732
_symmetry_space_group_name_H-M "P -1"
_symmetry_group_IT_number 2
_symmetry_cell_setting 'triclinic'
loop_
_space_group_symop_operation_xyz
x,y,z
-x,-y,-z
loop_
_atom_site_type_symbol
_atom_site_label
_atom_site_fract_x
_atom_site_fract_y
_atom_site_fract_z
Si Si1 0.715594 0.147398 0.708957
Si Si2 0.272611 0.056190 0.561773
Si Si3 0.213139 0.290791 0.768242
Si Si4 0.168681 0.510522 0.419788
Si Si5 0.452444 0.575757 0.483957
Si Si6 0.451239 0.077531 0.949022
Si Si7 0.000000 0.500000 0.000000
Si Si8 0.917819 0.890660 0.830235
O O1 0.629027 0.142451 0.864379
O O2 0.984764 0.359946 0.617675
O O3 0.500000 0.000000 0.500000
O O4 0.708235 0.069103 0.853450
O O5 0.569165 0.271739 0.503960
O O6 0.271385 0.986275 0.733254
O O7 0.072058 0.917966 0.348299
O O8 0.162445 0.034810 0.709712
O O9 0.287400 0.415748 0.660799
O O10 0.416926 0.380868 0.676606
O O11 0.197487 0.255743 0.030408
O O12 0.276820 0.515134 0.350983
O O13 0.012601 0.452531 0.226128
O O14 0.692650 0.765083 0.644138
O O15 0.674022 0.283547 0.008030
O O16 0.000000 0.000000 0.000000
#
# Coordination Sequence:
#
# PCOD9031624 Si02
#       8
#     2   2   2   2   2   2   1   2
#     4  11  24  44  68  94 131 178 224 280 338 393
#     4  10  24  41  66  98 133 175 221 272 334 397
#     4  10  22  43  67  96 139 172 218 280 327 402
#     4  11  23  44  65  98 135 176 223 277 333 400
#     4  10  23  41  65 100 133 175 223 273 334 397
#     4  10  24  45  65  97 133 173 224 281 330 403
#     4  10  22  44  66  96 132 168 228 272 330 394
#     4  11  22  41  66  99 136 175 221 270 332 406
#
# _framework density 24.668748999999998
#
# number of rings (size 3 to 8) (size 9 to 14) (size 15 to 20)
#    0.000    1.600    1.333    2.000    3.733    4.267 
#   12.000    0.000    0.000    0.000    0.000    0.000 
#    0.000    0.000    0.000    0.000    0.000    0.000 
#
# Total GULP energy -83754.606665 kJ/mol
# GULP energy per Si atom -5583.640444 kJ/mol
# Density = 2.461260 g / cm^3
# Si number density = 24.668749 Si / 1000 Ang^3
#
#
#
# Elastic Constant Matrix: (Units=GPa)
#
#
# Indices 1 2 3 4 5 6 
#
# 1 48.9286 5.4278 16.1575 -8.3116 15.6875 6.1780
# 2 5.4278 104.2169 47.1843 -31.5947 1.5495 -1.3039
# 3 16.1575 47.1843 96.9277 -29.4031 29.2145 1.5127
# 4 -8.3116 -31.5947 -29.4031 44.5944 -14.1781 12.1629
# 5 15.6875 1.5495 29.2145 -14.1781 49.9093 -0.8676
# 6 6.1780 -1.3039 1.5127 12.1629 -0.8676 30.6508
#
#
#
# Elastic Compliance Matrix: (Units=1/GPa)
#
#
# Indices 1 2 3 4 5 6 
#
# 1 0.024168 0.000486 -0.001176 0.003979 -0.005906 -0.006539
# 2 0.000486 0.015068 -0.006306 0.009101 0.005611 -0.002598
# 3 -0.001176 -0.006306 0.017748 0.005223 -0.008395 -0.003218
# 4 0.003979 0.009101 0.005223 0.039483 0.006344 -0.016161
# 5 -0.005906 0.005611 -0.008395 0.006344 0.028438 0.000131
# 6 -0.006539 -0.002598 -0.003218 -0.016161 0.000131 0.040408
#
#
# Mechanical properties :
#
#
# Convention : Reuss Voigt Hill
#
# Bulk Modulus (GPa) = 23.26019 43.06804 33.16411
# Shear Modulus (GPa) = 25.82173 37.11782 31.46977
#
# Velocity S-wave (km/s) = 3.23884 3.88319 3.57556
# Velocity P-wave (km/s) = 4.84110 6.13205 5.52441
#
# Compressibility (1/GPa) = 0.04299191
#
# Stress axis : x y z
#
# Youngs Moduli (GPa) = 41.37767 66.36444 56.34453
#
# Poissons Ratio (x) = -0.03225 0.06626
# Poissons Ratio (y) = -0.02011 0.35531
# Poissons Ratio (z) = 0.04866 0.41850
#
# Static dielectric constant tensor:
#      x y z
#    x 1.995730 -0.089800 -0.037130 
#    y -0.089800 2.039190 0.011650 
#    z -0.037130 0.011650 1.906430 
# 
# From -- ./inp_files/37192.got.cif
#   From: 2010.05.17/outbox.cif.g08.bks.cpg/sg2_19_cif.got.tgz:37192.got - 2010.06.03 11:33:40.
