data_PCOD9031354
_publ_section_title
;
Structure prediction by ZEFSAII (Michael W. Deem and Ramdas Pophale) SiO2 
 PCOD9031354
Probable space group: P -1
;
_chemical_formula_sum "Si O2"
_cell_formula_units_Z 14
_cell_length_a 14.191132
_cell_length_b 7.405970
_cell_length_c 11.787693
_cell_angle_alpha 80.699415
_cell_angle_beta 49.137319
_cell_angle_gamma 117.789612
_cell_volume 593.988562
_symmetry_space_group_name_H-M "P -1"
_symmetry_group_IT_number 2
_symmetry_cell_setting 'triclinic'
loop_
_space_group_symop_operation_xyz
x,y,z
-x,-y,-z
loop_
_atom_site_type_symbol
_atom_site_label
_atom_site_fract_x
_atom_site_fract_y
_atom_site_fract_z
Si Si1 0.533577 0.196333 0.609260
Si Si2 0.742010 0.878998 0.582189
Si Si3 0.143489 0.588765 0.508985
Si Si4 0.426289 0.659954 0.684166
Si Si5 0.276094 0.983721 0.045030
Si Si6 0.166753 0.278956 0.115144
Si Si7 0.337434 0.579658 0.174860
O O1 0.731413 0.393682 0.503813
O O2 0.561737 0.347063 0.459125
O O3 0.479287 0.929914 0.641253
O O4 0.367508 0.074529 0.838502
O O5 0.767389 0.107928 0.593860
O O6 0.947398 0.065714 0.344403
O O7 0.579116 0.711043 0.630084
O O8 0.692020 0.661690 0.731243
O O9 0.176146 0.519773 0.372434
O O10 0.923846 0.348266 0.748942
O O11 0.220971 0.395088 0.933175
O O12 0.217034 0.123811 0.104455
O O13 0.452165 0.125522 0.974638
O O14 0.303864 0.539314 0.071237
#
# Coordination Sequence:
#
# PCOD9031354 Si02
#       7
#     2   2   2   2   2   2   2
#     4   9  22  44  65  91 129 162 218 266 314 375
#     4  11  23  42  66  95 129 171 212 254 324 377
#     4  10  23  43  66  97 128 166 212 266 313 376
#     4  10  22  43  66  92 125 171 211 266 316 377
#     4  11  22  41  67  91 130 167 210 264 316 372
#     4  12  24  39  66  94 129 169 213 258 320 379
#     4  11  24  44  63  94 134 168 212 261 312 384
#
# _framework density 23.569476000000002
#
# number of rings (size 3 to 8) (size 9 to 14) (size 15 to 20)
#    0.000    1.429    2.857    1.714    0.000    2.286 
#    2.571   10.000    0.000    0.000    0.000    0.000 
#    0.000    0.000    0.000    0.000    0.000    0.000 
#
# Total GULP energy -78485.555404 kJ/mol
# GULP energy per Si atom -5606.111100 kJ/mol
# Density = 2.351583 g / cm^3
# Si number density = 23.569476 Si / 1000 Ang^3
#
#
#
# Elastic Constant Matrix: (Units=GPa)
#
#
# Indices 1 2 3 4 5 6 
#
# 1 95.3530 31.1276 56.4499 21.8215 16.1328 -5.8640
# 2 31.1276 76.9807 34.2323 15.2289 7.8011 2.9790
# 3 56.4499 34.2323 158.3952 9.6385 5.9326 14.1820
# 4 21.8215 15.2289 9.6385 44.0216 1.3224 0.2244
# 5 16.1328 7.8011 5.9326 1.3224 35.9894 2.5293
# 6 -5.8640 2.9790 14.1820 0.2244 2.5293 21.6176
#
#
#
# Elastic Compliance Matrix: (Units=1/GPa)
#
#
# Indices 1 2 3 4 5 6 
#
# 1 0.018518 -0.003115 -0.006192 -0.006586 -0.007095 0.010413
# 2 -0.003115 0.016024 -0.001942 -0.003520 -0.001517 -0.001565
# 3 -0.006192 -0.001942 0.009466 0.001645 0.002130 -0.007889
# 4 -0.006586 -0.003520 0.001645 0.026773 0.002669 -0.002971
# 5 -0.007095 -0.001517 0.002130 0.002669 0.031324 -0.006806
# 6 0.010413 -0.001565 -0.007889 -0.002971 -0.006806 0.055302
#
#
# Mechanical properties :
#
#
# Convention : Reuss Voigt Hill
#
# Bulk Modulus (GPa) = 46.48994 63.81650 55.15322
# Shear Modulus (GPa) = 26.72704 34.25365 30.49034
#
# Velocity S-wave (km/s) = 3.37110 3.81636 3.60062
# Velocity P-wave (km/s) = 5.90930 6.82306 6.38256
#
# Compressibility (1/GPa) = 0.02151003
#
# Stress axis : x y z
#
# Youngs Moduli (GPa) = 54.00104 62.40552 105.63901
#
# Poissons Ratio (x) = 0.19442 0.65414
# Poissons Ratio (y) = 0.16824 0.20511
# Poissons Ratio (z) = 0.33438 0.12117
#
# Static dielectric constant tensor:
#      x y z
#    x 1.883070 -0.018540 0.008950 
#    y -0.018540 1.916500 -0.013670 
#    z 0.008950 -0.013670 1.870000 
# 
# From -- ./inp_files/396784.got.cif
#   From: 2010.05.17/outbox.cif.g08.bks.cpg/sg2_199_cif.got.tgz:396784.got - 2010.06.03 11:33:40.
