data_PCOD9031247
_publ_section_title
;
Structure prediction by ZEFSAII (Michael W. Deem and Ramdas Pophale) SiO2 
 PCOD9031247
Probable space group: P -1
;
_chemical_formula_sum "Si O2"
_cell_formula_units_Z 10
_cell_length_a 12.048435
_cell_length_b 5.094417
_cell_length_c 13.978279
_cell_angle_alpha 61.686980
_cell_angle_beta 149.986945
_cell_angle_gamma 108.389632
_cell_volume 368.882780
_symmetry_space_group_name_H-M "P -1"
_symmetry_group_IT_number 2
_symmetry_cell_setting 'triclinic'
loop_
_space_group_symop_operation_xyz
x,y,z
-x,-y,-z
loop_
_atom_site_type_symbol
_atom_site_label
_atom_site_fract_x
_atom_site_fract_y
_atom_site_fract_z
Si Si1 0.492004 0.334320 0.398178
Si Si2 0.905517 0.352735 0.840661
Si Si3 0.684703 0.044620 0.243127
Si Si4 0.211513 0.402544 0.890511
Si Si5 0.803253 0.348082 0.457302
O O1 0.687936 0.437166 0.590021
O O2 0.232534 0.505754 0.192338
O O3 0.588735 0.319307 0.366701
O O4 0.500000 0.000000 0.500000
O O5 0.101023 0.443695 0.905994
O O6 0.000000 0.000000 0.000000
O O7 0.712245 0.293574 0.141963
O O8 0.830809 0.108925 0.433256
O O9 0.745047 0.696117 0.315963
O O10 0.431135 0.133705 0.082564
O O11 0.015342 0.324722 0.689470
#
# Coordination Sequence:
#
# PCOD9031247 Si02
#       5
#     2   2   2   2   2
#     4  10  24  41  66  97 131 175 226 279 334 411
#     4  10  22  43  65  96 133 174 225 277 340 398
#     4  11  25  46  68 103 135 180 223 284 336 408
#     4  10  24  43  70 101 134 178 230 275 338 411
#     4  11  25  44  72  96 140 176 227 278 345 395
#
# _framework density 27.108885000000001
#
# number of rings (size 3 to 8) (size 9 to 14) (size 15 to 20)
#    0.000    1.600    0.000    2.400   11.200    5.600 
#    7.200    0.000    0.000    0.000    0.000    0.000 
#    0.000    0.000    0.000    0.000    0.000    0.000 
#
# Total GULP energy -56065.436882 kJ/mol
# GULP energy per Si atom -5606.543688 kJ/mol
# Density = 2.704718 g / cm^3
# Si number density = 27.108885 Si / 1000 Ang^3
#
#
#
# Elastic Constant Matrix: (Units=GPa)
#
#
# Indices 1 2 3 4 5 6 
#
# 1 236.7392 49.0933 33.7512 6.1704 11.8845 21.9275
# 2 49.0933 71.1493 13.7295 -4.9742 6.9401 1.1723
# 3 33.7512 13.7295 124.8491 17.8064 33.6006 -7.7358
# 4 6.1704 -4.9742 17.8064 48.9160 -7.4114 9.8394
# 5 11.8845 6.9401 33.6006 -7.4114 59.6324 7.8391
# 6 21.9275 1.1723 -7.7358 9.8394 7.8391 55.9937
#
#
#
# Elastic Compliance Matrix: (Units=1/GPa)
#
#
# Indices 1 2 3 4 5 6 
#
# 1 0.005305 -0.003413 -0.001284 -0.000049 0.000350 -0.002224
# 2 -0.003413 0.016828 -0.001133 0.002400 -0.000402 0.000462
# 3 -0.001284 -0.001133 0.011650 -0.006192 -0.007508 0.004275
# 4 -0.000049 0.002400 -0.006192 0.025314 0.007199 -0.006343
# 5 0.000350 -0.000402 -0.007508 0.007199 0.022607 -0.005596
# 6 -0.002224 0.000462 0.004275 -0.006343 -0.005596 0.021209
#
#
# Mechanical properties :
#
#
# Convention : Reuss Voigt Hill
#
# Bulk Modulus (GPa) = 45.20330 69.54283 57.37307
# Shear Modulus (GPa) = 41.00127 55.31931 48.16029
#
# Velocity S-wave (km/s) = 3.89326 4.52224 4.21949
# Velocity P-wave (km/s) = 6.07626 7.27849 6.70437
#
# Compressibility (1/GPa) = 0.02212228
#
# Stress axis : x y z
#
# Youngs Moduli (GPa) = 188.51706 59.42370 85.83772
#
# Poissons Ratio (x) = 0.20283 0.11018
# Poissons Ratio (y) = 0.64348 0.09728
# Poissons Ratio (z) = 0.24197 0.06735
#
# Static dielectric constant tensor:
#      x y z
#    x 1.804260 -0.121080 -0.321180 
#    y -0.121080 2.032210 -0.027780 
#    z -0.321180 -0.027780 1.753060 
# 
# From -- ./inp_files/18228.got.cif
#   From: 2010.05.17/outbox.cif.g08.bks.cpg/sg2_10_cif.got.tgz:18228.got - 2010.06.03 11:33:40.
