data_PCOD9031560
_publ_section_title
;
Structure prediction by ZEFSAII (Michael W. Deem and Ramdas Pophale) SiO2 
 PCOD9031560
Probable space group: P -1
;
_chemical_formula_sum "Si O2"
_cell_formula_units_Z 16
_cell_length_a 14.148905
_cell_length_b 8.847364
_cell_length_c 11.613099
_cell_angle_alpha 115.540853
_cell_angle_beta 127.475072
_cell_angle_gamma 106.517454
_cell_volume 672.412612
_symmetry_space_group_name_H-M "P -1"
_symmetry_group_IT_number 2
_symmetry_cell_setting 'triclinic'
loop_
_space_group_symop_operation_xyz
x,y,z
-x,-y,-z
loop_
_atom_site_type_symbol
_atom_site_label
_atom_site_fract_x
_atom_site_fract_y
_atom_site_fract_z
Si Si1 0.858934 0.546455 0.308367
Si Si2 0.712128 0.920709 0.587384
Si Si3 0.346800 0.689268 0.332626
Si Si4 0.736099 0.112662 0.204111
Si Si5 0.295525 0.345084 0.332091
Si Si6 0.962307 0.568622 0.150700
Si Si7 0.251427 0.644190 0.485775
Si Si8 0.565759 0.485371 0.163159
O O1 0.749911 0.254295 0.153905
O O2 0.894318 0.606687 0.219555
O O3 0.743324 0.567680 0.287016
O O4 0.059049 0.741510 0.579060
O O5 0.541213 0.852539 0.476801
O O6 0.790559 0.910066 0.756194
O O7 0.614370 0.678849 0.354031
O O8 0.872779 0.170754 0.712291
O O9 0.247014 0.404510 0.203397
O O10 0.625783 0.195108 0.484390
O O11 0.205390 0.629479 0.125318
O O12 0.699764 0.195641 0.314479
O O13 0.588485 0.807369 0.997898
O O14 0.500000 0.500000 0.500000
O O15 0.270788 0.465355 0.450008
O O16 0.050440 0.496178 0.248614
O O17 0.500000 0.500000 0.000000
#
# Coordination Sequence:
#
# PCOD9031560 Si02
#       8
#     2   2   2   2   2   2   2   2
#     4  10  23  41  62  92 131 164 222 258 307 383
#     4  11  23  40  63  95 132 166 211 262 319 384
#     4   9  21  41  64  88 130 162 218 259 316 381
#     4  10  22  43  67  93 127 172 213 262 317 372
#     4   8  18  38  61  86 125 162 202 258 309 379
#     4  11  22  38  64  96 129 170 208 261 321 375
#     4   9  19  39  66  88 127 163 211 263 310 381
#     4  12  24  39  65  96 131 169 211 263 323 376
#
# _framework density 23.794913999999999
#
# number of rings (size 3 to 8) (size 9 to 14) (size 15 to 20)
#    0.750    1.250    0.000    3.750    0.000    4.000 
#    0.000    2.500   13.750    0.000    0.000    0.000 
#    0.000    0.000    0.000    0.000    0.000    0.000 
#
# Total GULP energy -89368.709733 kJ/mol
# GULP energy per Si atom -5585.544358 kJ/mol
# Density = 2.374076 g / cm^3
# Si number density = 23.794914 Si / 1000 Ang^3
#
#
#
# Elastic Constant Matrix: (Units=GPa)
#
#
# Indices 1 2 3 4 5 6 
#
# 1 144.3669 32.8516 51.9291 23.6647 23.0252 10.1403
# 2 32.8516 91.0829 39.3652 5.7892 9.4477 19.5751
# 3 51.9291 39.3652 91.7996 14.8979 12.3435 -1.6684
# 4 23.6647 5.7892 14.8979 29.9189 6.9838 0.9253
# 5 23.0252 9.4477 12.3435 6.9838 22.4594 1.2819
# 6 10.1403 19.5751 -1.6684 0.9253 1.2819 38.0745
#
#
#
# Elastic Compliance Matrix: (Units=1/GPa)
#
#
# Indices 1 2 3 4 5 6 
#
# 1 0.010512 -0.000506 -0.004133 -0.004509 -0.006755 -0.002384
# 2 -0.000506 0.015978 -0.006610 0.001451 -0.002546 -0.008319
# 3 -0.004133 -0.006610 0.016964 -0.003726 -0.001454 0.005382
# 4 -0.004509 0.001451 -0.003726 0.040066 -0.006373 -0.000468
# 5 -0.006755 -0.002546 -0.001454 -0.006373 0.055225 0.001340
# 6 -0.002384 -0.008319 0.005382 -0.000468 0.001340 0.031378
#
#
# Mechanical properties :
#
#
# Convention : Reuss Voigt Hill
#
# Bulk Modulus (GPa) = 47.71766 63.94900 55.83333
# Shear Modulus (GPa) = 25.04924 31.63080 28.34002
#
# Velocity S-wave (km/s) = 3.24808 3.64992 3.45485
# Velocity P-wave (km/s) = 5.84499 6.68551 6.27933
#
# Compressibility (1/GPa) = 0.02095660
#
# Stress axis : x y z
#
# Youngs Moduli (GPa) = 95.12566 62.58630 58.94934
#
# Poissons Ratio (x) = 0.03165 0.24365
# Poissons Ratio (y) = 0.04811 0.38965
# Poissons Ratio (z) = 0.39317 0.41369
#
# Static dielectric constant tensor:
#      x y z
#    x 1.886700 -0.032350 -0.016460 
#    y -0.032350 2.005160 -0.012470 
#    z -0.016460 -0.012470 1.886640 
# 
# From -- ./inp_files/399079.got.cif
#   From: 2010.05.17/outbox.cif.g08.bks.cpg/sg2_200_cif.got.tgz:399079.got - 2010.06.03 11:33:40.
