data_PCOD9031358
_publ_section_title
;
Structure prediction by ZEFSAII (Michael W. Deem and Ramdas Pophale) SiO2 
 PCOD9031358
Probable space group: P -1
;
_chemical_formula_sum "Si O2"
_cell_formula_units_Z 14
_cell_length_a 11.443136
_cell_length_b 22.993877
_cell_length_c 5.244980
_cell_angle_alpha 103.873219
_cell_angle_beta 85.257024
_cell_angle_gamma 156.051904
_cell_volume 510.200155
_symmetry_space_group_name_H-M "P -1"
_symmetry_group_IT_number 2
_symmetry_cell_setting 'triclinic'
loop_
_space_group_symop_operation_xyz
x,y,z
-x,-y,-z
loop_
_atom_site_type_symbol
_atom_site_label
_atom_site_fract_x
_atom_site_fract_y
_atom_site_fract_z
Si Si1 0.637826 0.862499 0.703797
Si Si2 0.431449 0.040222 0.156624
Si Si3 0.955724 0.158924 0.494126
Si Si4 0.209525 0.592193 0.812903
Si Si5 0.094335 0.340332 0.163096
Si Si6 0.711298 0.790236 0.221285
Si Si7 0.688796 0.546320 0.262391
O O1 0.471335 0.765832 0.892888
O O2 0.612160 0.795689 0.440957
O O3 0.483287 0.852369 0.651541
O O4 0.995706 0.048398 0.822736
O O5 0.288600 0.946402 0.342808
O O6 0.203628 0.935844 0.842612
O O7 0.253540 0.837251 0.884470
O O8 0.171979 0.209360 0.625677
O O9 0.138171 0.306824 0.579208
O O10 0.000000 0.500000 0.500000
O O11 0.440898 0.648156 0.921743
O O12 0.000000 0.500000 0.000000
O O13 0.332649 0.396699 0.140502
O O14 0.238426 0.447407 0.474733
O O15 0.139319 0.397185 0.953635
#
# Coordination Sequence:
#
# PCOD9031358 Si02
#       7
#     2   2   2   2   2   2   2
#     4  10  24  43  69  91 134 180 219 264 326 391
#     4  11  25  40  65 100 128 167 219 271 321 379
#     4  11  25  40  65 101 127 166 221 269 323 377
#     4  12  25  42  63  94 128 168 222 275 320 372
#     4  10  22  43  66  92 128 172 210 258 334 391
#     4  10  24  44  69  93 133 182 219 266 326 393
#     4  10  22  43  67  92 128 172 209 261 329 397
#
# _framework density 27.440208999999999
#
# number of rings (size 3 to 8) (size 9 to 14) (size 15 to 20)
#    0.000    1.429    1.429    2.143   10.000    4.571 
#    0.000    2.857    0.000    0.000    0.000    0.000 
#    0.000    0.000    0.000    0.000    0.000    0.000 
#
# Total GULP energy -78276.502332 kJ/mol
# GULP energy per Si atom -5591.178738 kJ/mol
# Density = 2.737775 g / cm^3
# Si number density = 27.440209 Si / 1000 Ang^3
#
#
#
# Elastic Constant Matrix: (Units=GPa)
#
#
# Indices 1 2 3 4 5 6 
#
# 1 96.4810 24.9145 58.9236 4.3596 -2.2442 6.5755
# 2 24.9145 206.3184 52.8010 -32.7592 2.5455 20.3242
# 3 58.9236 52.8010 201.7770 -14.9236 15.9277 18.7058
# 4 4.3596 -32.7592 -14.9236 57.4594 15.5984 2.3948
# 5 -2.2442 2.5455 15.9277 15.5984 54.9150 5.6194
# 6 6.5755 20.3242 18.7058 2.3948 5.6194 39.8677
#
#
#
# Elastic Compliance Matrix: (Units=1/GPa)
#
#
# Indices 1 2 3 4 5 6 
#
# 1 0.013379 -0.001172 -0.004090 -0.003503 0.002769 0.000130
# 2 -0.001172 0.006015 -0.000637 0.003715 -0.000924 -0.002667
# 3 -0.004090 -0.000637 0.006902 0.002545 -0.002656 -0.002018
# 4 -0.003503 0.003715 0.002545 0.022510 -0.007155 -0.002854
# 5 0.002769 -0.000924 -0.002656 -0.007155 0.021303 -0.001312
# 6 0.000130 -0.002667 -0.002018 -0.002854 -0.001312 0.027724
#
#
# Mechanical properties :
#
#
# Convention : Reuss Voigt Hill
#
# Bulk Modulus (GPa) = 68.97160 86.42828 77.69994
# Shear Modulus (GPa) = 43.68174 54.97757 49.32966
#
# Velocity S-wave (km/s) = 3.99418 4.48095 4.24455
# Velocity P-wave (km/s) = 6.81623 7.63788 7.23872
#
# Compressibility (1/GPa) = 0.01449872
#
# Stress axis : x y z
#
# Youngs Moduli (GPa) = 74.74352 166.23842 144.88758
#
# Poissons Ratio (x) = 0.19484 0.59259
# Poissons Ratio (y) = 0.08760 0.09227
# Poissons Ratio (z) = 0.30570 0.10587
#
# Static dielectric constant tensor:
#      x y z
#    x 2.312470 -0.104300 0.032870 
#    y -0.104300 2.319140 0.007570 
#    z 0.032870 0.007570 2.271870 
# 
# From -- ./inp_files/101714.got.cif
#   From: 2010.05.17/outbox.cif.g08.bks.cpg/sg2_51_cif.got.tgz:101714.got - 2010.06.03 11:33:40.
