data_PCOD9031033
_publ_section_title
;
Structure prediction by ZEFSAII (Michael W. Deem and Ramdas Pophale) SiO2 
 PCOD9031033
Probable space group: P -1
;
_chemical_formula_sum "Si O2"
_cell_formula_units_Z 12
_cell_length_a 4.974712
_cell_length_b 16.140195
_cell_length_c 10.388421
_cell_angle_alpha 35.266588
_cell_angle_beta 81.006485
_cell_angle_gamma 92.021574
_cell_volume 455.860489
_symmetry_space_group_name_H-M "P -1"
_symmetry_group_IT_number 2
_symmetry_cell_setting 'triclinic'
loop_
_space_group_symop_operation_xyz
x,y,z
-x,-y,-z
loop_
_atom_site_type_symbol
_atom_site_label
_atom_site_fract_x
_atom_site_fract_y
_atom_site_fract_z
Si Si1 0.288070 0.194466 0.782399
Si Si2 0.657393 0.036904 0.108522
Si Si3 0.261938 0.789546 0.878052
Si Si4 0.784360 0.508414 0.619470
Si Si5 0.177165 0.416875 0.178262
Si Si6 0.841239 0.834076 0.673279
O O1 0.405794 0.100922 0.997433
O O2 0.382214 0.373060 0.561815
O O3 0.946813 0.139889 0.889619
O O4 0.381732 0.130243 0.725610
O O5 0.704381 0.067877 0.215032
O O6 0.509146 0.815746 0.723419
O O7 0.957015 0.742781 0.893085
O O8 0.333583 0.665772 0.119793
O O9 0.871240 0.567784 0.685011
O O10 0.000000 0.500000 0.500000
O O11 0.091310 0.242663 0.363160
O O12 0.500000 0.500000 0.000000
O O13 0.000000 0.500000 0.000000
O O14 0.000000 0.000000 0.500000
#
# Coordination Sequence:
#
# PCOD9031033 Si02
#       6
#     2   2   2   2   2   2
#     4  10  23  41  66  99 149 193 240 295 375 447
#     4  10  22  43  64 102 146 192 240 303 367 445
#     4  12  25  46  75 108 151 190 256 318 378 453
#     4  12  26  47  77 115 154 202 255 311 391 458
#     4  12  26  52  75 108 153 202 253 319 377 455
#     4  12  27  50  76 108 145 204 260 317 382 455
#
# _framework density 26.323844999999999
#
# number of rings (size 3 to 8) (size 9 to 14) (size 15 to 20)
#    0.000    0.667    5.000    1.500    2.333    3.333 
#    0.000    0.000    0.000    0.000    0.000    0.000 
#    0.000    0.000    0.000    0.000    0.000    0.000 
#
# Total GULP energy -67097.928089 kJ/mol
# GULP energy per Si atom -5591.494007 kJ/mol
# Density = 2.626393 g / cm^3
# Si number density = 26.323845 Si / 1000 Ang^3
#
#
#
# Elastic Constant Matrix: (Units=GPa)
#
#
# Indices 1 2 3 4 5 6 
#
# 1 118.8084 20.5055 19.8616 10.9626 9.0070 -5.0950
# 2 20.5055 235.2562 33.1612 0.8971 2.4860 -29.0918
# 3 19.8616 33.1612 104.5452 -6.2183 9.4746 -19.6460
# 4 10.9626 0.8971 -6.2183 56.1218 -0.2797 7.1919
# 5 9.0070 2.4860 9.4746 -0.2797 30.7050 -0.5545
# 6 -5.0950 -29.0918 -19.6460 7.1919 -0.5545 33.7222
#
#
#
# Elastic Compliance Matrix: (Units=1/GPa)
#
#
# Indices 1 2 3 4 5 6 
#
# 1 0.009111 -0.000502 -0.001392 -0.002004 -0.002211 0.000523
# 2 -0.000502 0.004875 -0.000775 -0.000552 0.000055 0.003796
# 3 -0.001392 -0.000775 0.011437 0.000824 -0.002950 0.005559
# 4 -0.002004 -0.000552 0.000824 0.018865 0.000472 -0.004314
# 5 -0.002211 0.000055 -0.002950 0.000472 0.034099 -0.001545
# 6 0.000523 0.003796 0.005559 -0.004314 -0.001545 0.037142
#
#
# Mechanical properties :
#
#
# Convention : Reuss Voigt Hill
#
# Bulk Modulus (GPa) = 49.79188 67.29629 58.54408
# Shear Modulus (GPa) = 39.19652 49.78191 44.48921
#
# Velocity S-wave (km/s) = 3.86296 4.35343 4.11551
# Velocity P-wave (km/s) = 6.23320 7.13373 6.69862
#
# Compressibility (1/GPa) = 0.02008360
#
# Stress axis : x y z
#
# Youngs Moduli (GPa) = 109.75362 205.13964 87.43770
#
# Poissons Ratio (x) = 0.10302 0.12172
# Poissons Ratio (y) = 0.05512 0.06779
# Poissons Ratio (z) = 0.15279 0.15903
#
# Static dielectric constant tensor:
#      x y z
#    x 2.040910 -0.012220 0.007760 
#    y -0.012220 2.144340 0.027110 
#    z 0.007760 0.027110 2.207600 
# 
# From -- ./inp_files/134729.got.cif
#   From: 2010.05.17/outbox.cif.g08.bks.cpg/sg2_68_cif.got.tgz:134729.got - 2010.06.03 11:33:40.
