data_PCOD9031250
_publ_section_title
;
Structure prediction by ZEFSAII (Michael W. Deem and Ramdas Pophale) SiO2 
 PCOD9031250
Probable space group: P -1
;
_chemical_formula_sum "Si O2"
_cell_formula_units_Z 16
_cell_length_a 7.913776
_cell_length_b 14.988271
_cell_length_c 9.378835
_cell_angle_alpha 39.944706
_cell_angle_beta 90.175271
_cell_angle_gamma 81.700858
_cell_volume 695.358203
_symmetry_space_group_name_H-M "P -1"
_symmetry_group_IT_number 2
_symmetry_cell_setting 'triclinic'
loop_
_space_group_symop_operation_xyz
x,y,z
-x,-y,-z
loop_
_atom_site_type_symbol
_atom_site_label
_atom_site_fract_x
_atom_site_fract_y
_atom_site_fract_z
Si Si1 0.599592 0.086391 0.082207
Si Si2 0.943352 0.243125 0.192676
Si Si3 0.766789 0.932906 0.988154
Si Si4 0.488236 0.406799 0.752488
Si Si5 0.316756 0.489242 0.163952
Si Si6 0.033865 0.018519 0.690031
Si Si7 0.204170 0.446858 0.896628
Si Si8 0.059192 0.385615 0.508678
O O1 0.757995 0.998025 0.286238
O O2 0.673099 0.029645 0.998406
O O3 0.401273 0.067811 0.113500
O O4 0.602180 0.251610 0.901579
O O5 0.995087 0.114184 0.241866
O O6 0.755264 0.339481 0.043793
O O7 0.954272 0.168222 0.434955
O O8 0.062159 0.355744 0.044313
O O9 0.861615 0.772335 0.236951
O O10 0.919620 0.001478 0.846066
O O11 0.500000 0.500000 0.500000
O O12 0.504381 0.517042 0.747756
O O13 0.318854 0.366044 0.866865
O O14 0.209446 0.423078 0.362429
O O15 0.293996 0.449200 0.049757
O O16 0.099383 0.588272 0.638155
O O17 0.000000 0.500000 0.500000
#
# Coordination Sequence:
#
# PCOD9031250 Si02
#       8
#     2   2   2   2   2   2   2   2
#     4  11  25  44  66 102 140 177 232 298 348 420
#     4  10  22  43  65  96 135 179 234 273 353 428
#     4  11  25  44  69 104 141 178 238 291 359 411
#     4  12  25  45  69 103 139 183 239 297 360 423
#     4  11  23  43  66 102 140 175 239 290 352 431
#     4  11  23  43  70  97 138 187 228 288 347 434
#     4  11  25  42  71  99 138 187 231 295 359 420
#     4  11  22  42  74 102 135 187 231 291 352 418
#
# _framework density 23.009723000000001
#
# number of rings (size 3 to 8) (size 9 to 14) (size 15 to 20)
#    0.000    1.000    1.250    6.750    5.250    1.000 
#    2.250    1.875    0.000    0.000    0.000    0.000 
#    0.000    0.000    0.000    0.000    0.000    0.000 
#
# Total GULP energy -89067.448862 kJ/mol
# GULP energy per Si atom -5566.715554 kJ/mol
# Density = 2.295735 g / cm^3
# Si number density = 23.009723 Si / 1000 Ang^3
#
#
#
# Elastic Constant Matrix: (Units=GPa)
#
#
# Indices 1 2 3 4 5 6 
#
# 1 44.8181 24.1240 21.0380 11.9240 -0.4586 -2.6132
# 2 24.1240 104.6179 -3.4694 19.0999 -4.5993 1.7835
# 3 21.0380 -3.4694 62.7181 24.0727 -23.7703 -14.1476
# 4 11.9240 19.0999 24.0727 26.6479 -4.2985 5.4291
# 5 -0.4586 -4.5993 -23.7703 -4.2985 11.6448 12.0553
# 6 -2.6132 1.7835 -14.1476 5.4291 12.0553 40.5494
#
#
#
# Elastic Compliance Matrix: (Units=1/GPa)
#
#
# Indices 1 2 3 4 5 6 
#
# 1 0.004988 0.010858 0.045394 -0.034917 0.091277 -0.006780
# 2 0.010858 0.001358 -0.030161 0.008991 -0.066172 0.008586
# 3 0.045394 -0.030161 -0.086395 0.041291 -0.200386 0.028155
# 4 -0.034917 0.008991 0.041291 0.038052 0.135228 -0.033537
# 5 0.091277 -0.066172 -0.200386 0.135228 -0.308818 0.012584
# 6 -0.006780 0.008586 0.028155 -0.033537 0.012584 0.034419
#
#
# Mechanical properties :
#
#
# Convention : Reuss Voigt Hill
#
# Bulk Modulus (GPa) = -35.88662 32.83769 -1.52447
# Shear Modulus (GPa) = -13.23206 27.13253 6.95024
#
# Velocity S-wave (km/s) = -2.40065 3.43764 1.73986
# Velocity P-wave (km/s) = 4.82849 5.48258 1.83635
#
# Compressibility (1/GPa) = -0.02786554
#
# Stress axis : x y z
#
# Youngs Moduli (GPa) = 200.48853 736.57610 -11.57471
#
# Poissons Ratio (x) = -7.99803 0.52543
# Poissons Ratio (y) = -2.17698 -0.34910
# Poissons Ratio (z) = -9.10106 22.21562
#
# Static dielectric constant tensor:
#      x y z
#    x 2.131270 0.104680 0.100060 
#    y 0.104680 1.964830 0.067360 
#    z 0.100060 0.067360 1.843530 
# 
# From -- ./inp_files/205227.got.cif
#   From: 2010.05.17/outbox.cif.g08.bks.cpg/sg2_103_cif.got.tgz:205227.got - 2010.06.03 11:33:40.
