data_PCOD9031463
_publ_section_title
;
Structure prediction by ZEFSAII (Michael W. Deem and Ramdas Pophale) SiO2 
 PCOD9031463
Probable space group: P -1
;
_chemical_formula_sum "Si O2"
_cell_formula_units_Z 12
_cell_length_a 16.849679
_cell_length_b 7.307090
_cell_length_c 10.535275
_cell_angle_alpha 41.692464
_cell_angle_beta 39.259041
_cell_angle_gamma 37.571249
_cell_volume 469.832143
_symmetry_space_group_name_H-M "P -1"
_symmetry_group_IT_number 2
_symmetry_cell_setting 'triclinic'
loop_
_space_group_symop_operation_xyz
x,y,z
-x,-y,-z
loop_
_atom_site_type_symbol
_atom_site_label
_atom_site_fract_x
_atom_site_fract_y
_atom_site_fract_z
Si Si1 0.413094 0.558070 0.443026
Si Si2 0.877008 0.871881 0.468298
Si Si3 0.436390 0.413673 0.002120
Si Si4 0.688665 0.764878 0.086025
Si Si5 0.858645 0.035658 0.866424
Si Si6 0.835999 0.087381 0.139471
O O1 0.500000 0.500000 0.500000
O O2 0.523156 0.453273 0.242342
O O3 0.338322 0.353182 0.683026
O O4 0.278207 0.907343 0.385382
O O5 0.000000 0.500000 0.500000
O O6 0.981133 0.012969 0.310017
O O7 0.809069 0.949097 0.370269
O O8 0.500000 0.500000 0.000000
O O9 0.265747 0.588600 0.156599
O O10 0.533518 0.033086 0.083715
O O11 0.752991 0.469441 0.063044
O O12 0.803370 0.882919 0.909597
O O13 0.838091 0.927413 0.088024
O O14 0.000000 0.000000 0.000000
#
# Coordination Sequence:
#
# PCOD9031463 Si02
#       6
#     2   2   2   2   2   2
#     4  11  25  43  71 106 134 188 233 283 357 411
#     4  10  23  41  64 102 138 171 234 290 340 415
#     4  10  23  42  66 103 138 182 231 279 353 415
#     4  10  23  43  67  98 143 176 234 289 338 425
#     4  10  22  43  66  98 134 185 226 280 357 404
#     4   9  20  37  63  91 125 179 219 274 349 397
#
# _framework density 25.541035000000001
#
# number of rings (size 3 to 8) (size 9 to 14) (size 15 to 20)
#    0.000    2.000    0.000    2.000    7.000   10.000 
#    6.000    3.333    0.000    0.000    0.000    0.000 
#    0.000    0.000    0.000    0.000    0.000    0.000 
#
# Total GULP energy -66835.897862 kJ/mol
# GULP energy per Si atom -5569.658155 kJ/mol
# Density = 2.548290 g / cm^3
# Si number density = 25.541035 Si / 1000 Ang^3
#
#
#
# Elastic Constant Matrix: (Units=GPa)
#
#
# Indices 1 2 3 4 5 6 
#
# 1 156.8668 22.5960 35.2608 10.4479 -2.7170 -2.7729
# 2 22.5960 106.5770 17.4629 8.6839 -18.2154 -33.6933
# 3 35.2608 17.4629 61.5665 9.5966 -7.7979 3.5717
# 4 10.4479 8.6839 9.5966 44.4419 -10.8270 -3.8737
# 5 -2.7170 -18.2154 -7.7979 -10.8270 37.7397 8.4539
# 6 -2.7729 -33.6933 3.5717 -3.8737 8.4539 37.9252
#
#
#
# Elastic Compliance Matrix: (Units=1/GPa)
#
#
# Indices 1 2 3 4 5 6 
#
# 1 0.007461 -0.000968 -0.003999 -0.000945 -0.001073 0.000205
# 2 -0.000968 0.014847 -0.003979 0.000139 0.003461 0.012737
# 3 -0.003999 -0.003979 0.020825 -0.002674 0.002826 -0.006692
# 4 -0.000945 0.000139 -0.002674 0.024929 0.006272 0.001454
# 5 -0.001073 0.003461 0.002826 0.006272 0.031281 -0.003602
# 6 0.000205 0.012737 -0.006692 0.001454 -0.003602 0.039280
#
#
# Mechanical properties :
#
#
# Convention : Reuss Voigt Hill
#
# Bulk Modulus (GPa) = 39.61959 52.84995 46.23477
# Shear Modulus (GPa) = 30.31628 40.66741 35.49185
#
# Velocity S-wave (km/s) = 3.44897 3.99462 3.73178
# Velocity P-wave (km/s) = 5.60414 6.48175 6.05885
#
# Compressibility (1/GPa) = 0.02524004
#
# Stress axis : x y z
#
# Youngs Moduli (GPa) = 134.02632 67.35382 48.02033
#
# Poissons Ratio (x) = 0.06523 0.19204
# Poissons Ratio (y) = 0.12980 0.19106
# Poissons Ratio (z) = 0.53598 0.26799
#
# Static dielectric constant tensor:
#      x y z
#    x 4.294850 0.327520 3.555720 
#    y 0.327520 2.523500 0.546570 
#    z 3.555720 0.546570 7.617450 
# 
# From -- ./inp_files/468816.got.cif
#   From: 2010.05.17/outbox.cif.g08.bks.cpg/sg2_235_cif.got.tgz:468816.got - 2010.06.03 11:33:40.
