data_PCOD9031616
_publ_section_title
;
Structure prediction by ZEFSAII (Michael W. Deem and Ramdas Pophale) SiO2 
 PCOD9031616
Probable space group: P -1
;
_chemical_formula_sum "Si O2"
_cell_formula_units_Z 14
_cell_length_a 8.208377
_cell_length_b 24.846657
_cell_length_c 9.458131
_cell_angle_alpha 151.556696
_cell_angle_beta 50.755170
_cell_angle_gamma 137.624085
_cell_volume 618.373647
_symmetry_space_group_name_H-M "P -1"
_symmetry_group_IT_number 2
_symmetry_cell_setting 'triclinic'
loop_
_space_group_symop_operation_xyz
x,y,z
-x,-y,-z
loop_
_atom_site_type_symbol
_atom_site_label
_atom_site_fract_x
_atom_site_fract_y
_atom_site_fract_z
Si Si1 0.262901 0.497649 0.199567
Si Si2 0.266171 0.901338 0.806607
Si Si3 0.498209 0.937444 0.207069
Si Si4 0.287994 0.668615 0.833393
Si Si5 0.778667 0.378615 0.764118
Si Si6 0.552278 0.630545 0.850883
Si Si7 0.034632 0.884343 0.157695
O O1 0.299145 0.558199 0.476297
O O2 0.210436 0.589277 0.332861
O O3 0.992758 0.369027 0.068191
O O4 0.500000 0.500000 0.000000
O O5 0.237483 0.758215 0.505778
O O6 0.289287 0.959696 0.773542
O O7 0.055299 0.897772 0.007984
O O8 0.500000 0.000000 0.000000
O O9 0.265991 0.904400 0.162918
O O10 0.500000 0.000000 0.500000
O O11 0.456183 0.797698 0.950189
O O12 0.411183 0.682509 0.949225
O O13 0.550425 0.380853 0.963182
O O14 0.000000 0.500000 0.000000
O O15 0.500000 0.500000 0.500000
O O16 0.827466 0.738588 0.957899
O O17 0.000000 0.000000 0.500000
#
# Coordination Sequence:
#
# PCOD9031616 Si02
#       7
#     2   2   2   2   2   2   2
#     4  11  25  43  69 103 139 183 229 282 355 415
#     4  10  22  43  67  96 133 183 230 277 345 411
#     4  11  24  45  70  96 140 183 226 290 354 408
#     4  11  25  46  67  99 148 178 224 296 349 404
#     4  12  23  42  70  96 136 181 229 282 342 415
#     4  12  25  43  70 103 138 179 236 285 345 420
#     4  11  24  43  70 100 132 183 240 280 340 424
#
# _framework density 22.640034
#
# number of rings (size 3 to 8) (size 9 to 14) (size 15 to 20)
#    0.000    0.857    1.429    6.857    6.000    0.000 
#    0.000    1.429    0.000    0.000    0.000    0.000 
#    0.000    0.000    0.000    0.000    0.000    0.000 
#
# Total GULP energy -78124.672298 kJ/mol
# GULP energy per Si atom -5580.333736 kJ/mol
# Density = 2.258850 g / cm^3
# Si number density = 22.640034 Si / 1000 Ang^3
#
#
#
# Elastic Constant Matrix: (Units=GPa)
#
#
# Indices 1 2 3 4 5 6 
#
# 1 57.5666 21.0675 4.9027 -1.4520 13.4057 -13.3794
# 2 21.0675 162.3375 50.3370 -10.4241 5.7663 -17.4712
# 3 4.9027 50.3370 123.9704 6.7118 2.2740 -0.6793
# 4 -1.4520 -10.4241 6.7118 48.7189 -6.3238 0.5169
# 5 13.4057 5.7663 2.2740 -6.3238 36.1333 -2.8159
# 6 -13.3794 -17.4712 -0.6793 0.5169 -2.8159 46.6289
#
#
#
# Elastic Compliance Matrix: (Units=1/GPa)
#
#
# Indices 1 2 3 4 5 6 
#
# 1 0.020877 -0.002057 0.000213 -0.000833 -0.007203 0.004797
# 2 -0.002057 0.007780 -0.003181 0.002051 0.000258 0.002272
# 3 0.000213 -0.003181 0.009466 -0.002046 -0.000604 -0.001007
# 4 -0.000833 0.002051 -0.002046 0.021730 0.003952 0.000497
# 5 -0.007203 0.000258 -0.000604 0.003952 0.031024 -0.000149
# 6 0.004797 0.002272 -0.001007 0.000497 -0.000149 0.023644
#
#
# Mechanical properties :
#
#
# Convention : Reuss Voigt Hill
#
# Bulk Modulus (GPa) = 35.62070 55.16542 45.39306
# Shear Modulus (GPa) = 37.33318 44.13403 40.73360
#
# Velocity S-wave (km/s) = 4.06518 4.41997 4.24628
# Velocity P-wave (km/s) = 6.14833 7.10404 6.64339
#
# Compressibility (1/GPa) = 0.02807356
#
# Stress axis : x y z
#
# Youngs Moduli (GPa) = 47.89972 128.52941 105.64122
#
# Poissons Ratio (x) = 0.26435 -0.02250
# Poissons Ratio (y) = 0.09852 0.33606
# Poissons Ratio (z) = -0.01020 0.40887
#
# Static dielectric constant tensor:
#      x y z
#    x 1.845610 -0.001160 -0.043130 
#    y -0.001160 1.799640 -0.044250 
#    z -0.043130 -0.044250 1.856020 
# 
# From -- ./inp_files/188984.got.cif
#   From: 2010.05.17/outbox.cif.g08.bks.cpg/sg2_95_cif.got.tgz:188984.got - 2010.06.03 11:33:40.
