data_PCOD9031898
_publ_section_title
;
Structure prediction by ZEFSAII (Michael W. Deem and Ramdas Pophale) SiO2 
 PCOD9031898
Probable space group: P -1
;
_chemical_formula_sum "Si O2"
_cell_formula_units_Z 16
_cell_length_a 8.948151
_cell_length_b 8.625916
_cell_length_c 14.363654
_cell_angle_alpha 137.166267
_cell_angle_beta 80.814345
_cell_angle_gamma 104.495216
_cell_volume 729.281906
_symmetry_space_group_name_H-M "P -1"
_symmetry_group_IT_number 2
_symmetry_cell_setting 'triclinic'
loop_
_space_group_symop_operation_xyz
x,y,z
-x,-y,-z
loop_
_atom_site_type_symbol
_atom_site_label
_atom_site_fract_x
_atom_site_fract_y
_atom_site_fract_z
Si Si1 0.888676 0.749886 0.244106
Si Si2 0.401259 0.414518 0.879350
Si Si3 0.148641 0.587551 0.256363
Si Si4 0.648997 0.784150 0.925301
Si Si5 0.495109 0.879210 0.803378
Si Si6 0.989571 0.701941 0.514735
Si Si7 0.315819 0.356429 0.595541
Si Si8 0.559305 0.026468 0.658858
O O1 0.781409 0.607493 0.111650
O O2 0.778988 0.710280 0.329805
O O3 0.028093 0.627835 0.207214
O O4 0.944393 0.027565 0.344822
O O5 0.492536 0.589831 0.871631
O O6 0.417655 0.155972 0.734832
O O7 0.500000 0.500000 0.000000
O O8 0.207825 0.344352 0.141105
O O9 0.078811 0.638338 0.385440
O O10 0.298768 0.784466 0.308835
O O11 0.623255 0.897815 0.879488
O O12 0.631284 0.968988 0.087630
O O13 0.401906 0.618894 0.691902
O O14 0.576658 0.961515 0.735652
O O15 0.000000 0.500000 0.500000
O O16 0.813758 0.694095 0.494867
O O17 0.444318 0.199473 0.501310
#
# Coordination Sequence:
#
# PCOD9031898 Si02
#       8
#     2   2   2   2   2   2   2   2
#     4  11  22  45  67  94 137 178 217 276 339 393
#     4  11  23  42  68  94 132 177 224 272 330 399
#     4  10  22  43  68  98 134 180 223 271 336 408
#     4  10  23  42  66  96 135 178 229 270 333 393
#     4  11  23  40  67  98 140 176 219 291 324 381
#     4  11  24  40  67  98 141 172 220 280 338 398
#     4  11  22  42  65  99 134 179 218 275 338 395
#     4  11  22  39  67  98 137 167 229 273 328 403
#
# _framework density 21.939388999999998
#
# number of rings (size 3 to 8) (size 9 to 14) (size 15 to 20)
#    0.000    1.250    5.000    1.125    3.500    1.500 
#    0.000    5.000    2.750    0.000    0.000    0.000 
#    0.000    0.000    0.000    0.000    0.000    0.000 
#
# Total GULP energy -89352.521206 kJ/mol
# GULP energy per Si atom -5584.532575 kJ/mol
# Density = 2.188945 g / cm^3
# Si number density = 21.939389 Si / 1000 Ang^3
#
#
#
# Elastic Constant Matrix: (Units=GPa)
#
#
# Indices 1 2 3 4 5 6 
#
# 1 100.9665 13.4446 36.8393 7.9919 -0.0694 -17.1736
# 2 13.4446 96.2552 7.0321 -4.4183 -4.8271 -13.3230
# 3 36.8393 7.0321 76.9006 19.5995 -17.8001 -5.0304
# 4 7.9919 -4.4183 19.5995 30.3179 -8.7999 -7.4763
# 5 -0.0694 -4.8271 -17.8001 -8.7999 42.8946 -0.0745
# 6 -17.1736 -13.3230 -5.0304 -7.4763 -0.0745 21.3778
#
#
#
# Elastic Compliance Matrix: (Units=1/GPa)
#
#
# Indices 1 2 3 4 5 6 
#
# 1 0.014193 0.000065 -0.007431 0.003020 -0.002415 0.010741
# 2 0.000065 0.012111 -0.001512 0.005539 0.001888 0.009188
# 3 -0.007431 -0.001512 0.020585 -0.011298 0.006032 -0.005998
# 4 0.003020 0.005539 -0.011298 0.046743 0.005563 0.019586
# 5 -0.002415 0.001888 0.006032 0.005563 0.027171 0.002696
# 6 0.010741 0.009188 -0.005998 0.019586 0.002696 0.066580
#
#
# Mechanical properties :
#
#
# Convention : Reuss Voigt Hill
#
# Bulk Modulus (GPa) = 34.32660 43.19491 38.76075
# Shear Modulus (GPa) = 23.27175 33.37182 28.32178
#
# Velocity S-wave (km/s) = 3.26042 3.90435 3.59682
# Velocity P-wave (km/s) = 5.46387 6.32900 5.91228
#
# Compressibility (1/GPa) = 0.02913193
#
# Stress axis : x y z
#
# Youngs Moduli (GPa) = 70.45487 82.56869 48.57822
#
# Poissons Ratio (x) = -0.00534 0.36101
# Poissons Ratio (y) = -0.00456 0.07346
# Poissons Ratio (z) = 0.52358 0.12486
#
# Static dielectric constant tensor:
#      x y z
#    x 1.853770 -0.069120 0.003120 
#    y -0.069120 1.808740 -0.025780 
#    z 0.003120 -0.025780 1.853670 
# 
# From -- ./inp_files/378580.got.cif
#   From: 2010.05.17/outbox.cif.g08.bks.cpg/sg2_190_cif.got.tgz:378580.got - 2010.06.03 11:33:40.
