data_PCOD9031183
_publ_section_title
;
Structure prediction by ZEFSAII (Michael W. Deem and Ramdas Pophale) SiO2 
 PCOD9031183
Probable space group: P -1
;
_chemical_formula_sum "Si O2"
_cell_formula_units_Z 10
_cell_length_a 5.226895
_cell_length_b 16.329980
_cell_length_c 5.907400
_cell_angle_alpha 78.087950
_cell_angle_beta 68.923029
_cell_angle_gamma 54.474644
_cell_volume 382.912515
_symmetry_space_group_name_H-M "P -1"
_symmetry_group_IT_number 2
_symmetry_cell_setting 'triclinic'
loop_
_space_group_symop_operation_xyz
x,y,z
-x,-y,-z
loop_
_atom_site_type_symbol
_atom_site_label
_atom_site_fract_x
_atom_site_fract_y
_atom_site_fract_z
Si Si1 0.416274 0.662882 0.276573
Si Si2 0.537923 0.865632 0.430937
Si Si3 0.494794 0.307246 0.279713
Si Si4 0.003901 0.062916 0.759530
Si Si5 0.820571 0.464177 0.761414
O O1 0.304951 0.713239 0.535686
O O2 0.263456 0.595005 0.357186
O O3 0.819678 0.606018 0.196783
O O4 0.355491 0.704372 0.011198
O O5 0.596882 0.774876 0.617991
O O6 0.843631 0.872697 0.282403
O O7 0.365317 0.866233 0.254487
O O8 0.262061 0.973553 0.561709
O O9 0.229750 0.427702 0.325686
O O10 0.000000 0.000000 0.000000
O O11 0.500000 0.500000 0.000000
#
# Coordination Sequence:
#
# PCOD9031183 Si02
#       5
#     2   2   2   2   2
#     4  11  25  41  66  92 137 177 215 268 325 380
#     4  10  24  40  66 100 124 170 218 274 327 399
#     4  11  24  43  65 101 130 170 228 268 318 395
#     4  10  22  45  68  90 133 167 212 270 348 396
#     4  10  22  43  65  92 134 181 215 265 327 380
#
# _framework density 26.115624
#
# number of rings (size 3 to 8) (size 9 to 14) (size 15 to 20)
#    0.000    1.600    0.000    4.200    2.800    9.600 
#    3.600    0.000    0.000    0.000    0.000    0.000 
#    0.000    0.000    0.000    0.000    0.000    0.000 
#
# Total GULP energy -55748.205761 kJ/mol
# GULP energy per Si atom -5574.820576 kJ/mol
# Density = 2.605618 g / cm^3
# Si number density = 26.115624 Si / 1000 Ang^3
#
#
#
# Elastic Constant Matrix: (Units=GPa)
#
#
# Indices 1 2 3 4 5 6 
#
# 1 222.3980 62.4710 77.6002 -16.7667 -10.9002 37.3467
# 2 62.4710 123.7801 45.5988 -10.8107 -3.5874 16.6765
# 3 77.6002 45.5988 182.8028 -24.9746 11.8761 21.7883
# 4 -16.7667 -10.8107 -24.9746 64.2577 17.0131 -13.7326
# 5 -10.9002 -3.5874 11.8761 17.0131 29.6966 -11.9687
# 6 37.3467 16.6765 21.7883 -13.7326 -11.9687 51.8881
#
#
#
# Elastic Compliance Matrix: (Units=1/GPa)
#
#
# Indices 1 2 3 4 5 6 
#
# 1 0.006305 -0.002050 -0.002080 -0.000662 0.002200 -0.002674
# 2 -0.002050 0.009811 -0.001481 0.000207 0.000555 -0.000873
# 3 -0.002080 -0.001481 0.007929 0.003731 -0.007055 -0.001996
# 4 -0.000662 0.000207 0.003731 0.020589 -0.012983 0.001298
# 5 0.002200 0.000555 -0.007055 -0.012983 0.048407 0.008931
# 6 -0.002674 -0.000873 -0.001996 0.001298 0.008931 0.024719
#
#
# Mechanical properties :
#
#
# Convention : Reuss Voigt Hill
#
# Bulk Modulus (GPa) = 77.98172 100.03566 89.00869
# Shear Modulus (GPa) = 37.52231 52.05585 44.78908
#
# Velocity S-wave (km/s) = 3.79460 4.46946 4.14578
# Velocity P-wave (km/s) = 7.00882 8.06368 7.55468
#
# Compressibility (1/GPa) = 0.01282352
#
# Stress axis : x y z
#
# Youngs Moduli (GPa) = 158.61004 101.93071 126.12441
#
# Poissons Ratio (x) = 0.20892 0.26232
# Poissons Ratio (y) = 0.32510 0.18676
# Poissons Ratio (z) = 0.32988 0.15094
#
# Static dielectric constant tensor:
#      x y z
#    x 2.101880 -0.012420 -0.039350 
#    y -0.012420 2.262870 0.079250 
#    z -0.039350 0.079250 2.176700 
# 
# From -- ./inp_files/2775.got.cif
#   From: 2010.05.17/outbox.cif.g08.bks.cpg/sg2_2_cif.got.tgz:2775.got - 2010.06.03 11:33:40.
