data_PCOD9031853
_publ_section_title
;
Structure prediction by ZEFSAII (Michael W. Deem and Ramdas Pophale) SiO2 
 PCOD9031853
Probable space group: P -1
;
_chemical_formula_sum "Si O2"
_cell_formula_units_Z 16
_cell_length_a 9.314505
_cell_length_b 15.236687
_cell_length_c 15.969314
_cell_angle_alpha 28.683017
_cell_angle_beta 64.167619
_cell_angle_gamma 83.491715
_cell_volume 766.252204
_symmetry_space_group_name_H-M "P -1"
_symmetry_group_IT_number 2
_symmetry_cell_setting 'triclinic'
loop_
_space_group_symop_operation_xyz
x,y,z
-x,-y,-z
loop_
_atom_site_type_symbol
_atom_site_label
_atom_site_fract_x
_atom_site_fract_y
_atom_site_fract_z
Si Si1 0.262971 0.884980 0.646591
Si Si2 0.179905 0.098629 0.630996
Si Si3 0.261122 0.183101 0.970847
Si Si4 0.915408 0.555937 0.670491
Si Si5 0.540201 0.121735 0.039937
Si Si6 0.921555 0.392016 0.233454
Si Si7 0.182125 0.739045 0.297817
Si Si8 0.548957 0.311328 0.485279
O O1 0.184078 0.827935 0.618662
O O2 0.500000 0.000000 0.500000
O O3 0.232934 0.046105 0.573011
O O4 0.108984 0.628881 0.942732
O O5 0.159666 0.300073 0.459468
O O6 0.348432 0.174866 0.593077
O O7 0.954982 0.879454 0.900042
O O8 0.363391 0.149080 0.053331
O O9 0.204986 0.977224 0.093555
O O10 0.406215 0.456156 0.682244
O O11 0.982996 0.611666 0.701849
O O12 0.111940 0.646585 0.487991
O O13 0.721936 0.294856 0.913753
O O14 0.477387 0.872856 0.288963
O O15 0.629513 0.192929 0.862957
O O16 0.735822 0.390832 0.309676
O O17 0.000000 0.500000 0.500000
#
# Coordination Sequence:
#
# PCOD9031853 Si02
#       8
#     2   2   2   2   2   2   2   2
#     4  11  23  42  68  95 134 173 221 280 337 398
#     4  11  22  43  66  96 138 173 225 283 330 399
#     4  11  23  42  67  97 134 179 224 277 334 394
#     4  10  22  43  68  96 135 179 226 277 336 400
#     4  11  23  42  70  97 138 183 225 276 335 394
#     4  11  24  42  67  99 131 175 223 273 342 405
#     4   9  21  43  68  97 137 178 222 281 329 390
#     4  12  23  40  70 100 132 183 224 272 339 400
#
# _framework density 20.880852999999998
#
# number of rings (size 3 to 8) (size 9 to 14) (size 15 to 20)
#    0.000    1.250    3.750    2.625    0.000    1.000 
#    0.000    3.125    0.000    0.000    0.000    0.000 
#    0.000    0.000    0.000    0.000    0.000    0.000 
#
# Total GULP energy -89140.795842 kJ/mol
# GULP energy per Si atom -5571.299740 kJ/mol
# Density = 2.083333 g / cm^3
# Si number density = 20.880853 Si / 1000 Ang^3
#
#
#
# Elastic Constant Matrix: (Units=GPa)
#
#
# Indices 1 2 3 4 5 6 
#
# 1 123.0084 9.6077 47.3560 -10.0481 -28.5195 17.5121
# 2 9.6077 51.3243 31.0647 -24.9148 -25.3032 1.5176
# 3 47.3560 31.0647 113.4990 -24.9685 -8.0921 12.3352
# 4 -10.0481 -24.9148 -24.9685 41.3704 -6.6423 -7.0141
# 5 -28.5195 -25.3032 -8.0921 -6.6423 30.7556 -0.6666
# 6 17.5121 1.5176 12.3352 -7.0141 -0.6666 26.1058
#
#
#
# Elastic Compliance Matrix: (Units=1/GPa)
#
#
# Indices 1 2 3 4 5 6 
#
# 1 -0.039290 -0.157543 0.020036 -0.124577 -0.187945 -0.012223
# 2 -0.157543 -0.472177 0.070879 -0.378831 -0.598102 -0.017418
# 3 0.020036 0.070879 0.001296 0.063115 0.090889 0.001106
# 4 -0.124577 -0.378831 0.063115 -0.273202 -0.469797 -0.009632
# 5 -0.187945 -0.598102 0.090889 -0.469797 -0.711959 -0.026506
# 6 -0.012223 -0.017418 0.001106 -0.009632 -0.026506 0.043730
#
#
# Mechanical properties :
#
#
# Convention : Reuss Voigt Hill
#
# Bulk Modulus (GPa) = -1.55418 51.54317 24.99450
# Shear Modulus (GPa) = -3.26196 32.96657 14.85231
#
# Velocity S-wave (km/s) = -1.25123 3.97772 2.66989
# Velocity P-wave (km/s) = 1.68325 6.77010 4.63686
#
# Compressibility (1/GPa) = -0.64342701
#
# Stress axis : x y z
#
# Youngs Moduli (GPa) = -25.45169 -2.11785 771.79594
#
# Poissons Ratio (x) = -0.33365 -15.46360
# Poissons Ratio (y) = -4.00974 -54.70450
# Poissons Ratio (z) = 0.50995 0.15011
#
# Static dielectric constant tensor:
#      x y z
#    x 1.756030 0.021530 -0.041450 
#    y 0.021530 1.875780 0.008470 
#    z -0.041450 0.008470 1.815740 
# 
# From -- ./inp_files/504965.got.cif
#   From: 2010.05.17/outbox.cif.g08.bks.cpg/sg2_253_cif.got.tgz:504965.got - 2010.06.03 11:33:40.
