data_PCOD9031599
_publ_section_title
;
Structure prediction by ZEFSAII (Michael W. Deem and Ramdas Pophale) SiO2 
 PCOD9031599
Probable space group: P -1
;
_chemical_formula_sum "Si O2"
_cell_formula_units_Z 16
_cell_length_a 13.668831
_cell_length_b 8.216572
_cell_length_c 9.108425
_cell_angle_alpha 114.362408
_cell_angle_beta 88.202196
_cell_angle_gamma 128.065857
_cell_volume 697.319594
_symmetry_space_group_name_H-M "P -1"
_symmetry_group_IT_number 2
_symmetry_cell_setting 'triclinic'
loop_
_space_group_symop_operation_xyz
x,y,z
-x,-y,-z
loop_
_atom_site_type_symbol
_atom_site_label
_atom_site_fract_x
_atom_site_fract_y
_atom_site_fract_z
Si Si1 0.726250 0.005021 0.830787
Si Si2 0.884863 0.767041 0.007142
Si Si3 0.616525 0.533141 0.925565
Si Si4 0.089723 0.481153 0.827408
Si Si5 0.186327 0.682761 0.307638
Si Si6 0.723410 0.293579 0.371489
Si Si7 0.470792 0.142513 0.971553
Si Si8 0.386431 0.474128 0.412586
O O1 0.703420 0.090400 0.714573
O O2 0.736917 0.813328 0.704558
O O3 0.837214 0.259816 0.000622
O O4 0.608540 0.843962 0.895816
O O5 0.918474 0.698688 0.129046
O O6 0.767168 0.768932 0.024439
O O7 0.830382 0.541878 0.823824
O O8 0.000000 0.000000 0.000000
O O9 0.608186 0.358736 0.974666
O O10 0.579474 0.440534 0.726959
O O11 0.500000 0.500000 0.000000
O O12 0.175069 0.543896 0.703214
O O13 0.946813 0.373467 0.745821
O O14 0.212358 0.708401 0.487028
O O15 0.649961 0.388767 0.451477
O O16 0.626422 0.024937 0.216135
O O17 0.500000 0.000000 0.000000
O O18 0.500000 0.500000 0.500000
#
# Coordination Sequence:
#
# PCOD9031599 Si02
#       8
#     2   2   2   2   2   2   2   2
#     4  10  22  43  67  95 134 185 226 283 345 416
#     4  11  25  45  74 105 139 188 242 289 346 424
#     4  12  26  44  71 106 140 185 241 285 347 429
#     4  10  24  44  73  96 139 190 239 283 348 430
#     4  11  23  42  71 102 136 184 241 288 354 413
#     4  11  25  43  68 105 141 178 234 295 354 415
#     4  11  23  43  70  95 136 183 230 281 349 420
#     4  12  27  43  66  99 148 177 226 293 364 406
#
# _framework density 22.945004000000001
#
# number of rings (size 3 to 8) (size 9 to 14) (size 15 to 20)
#    0.000    1.000    2.500    4.875    7.000    0.500 
#    0.000    3.750    0.000    0.000    0.000    0.000 
#    0.000    0.000    0.000    0.000    0.000    0.000 
#
# Total GULP energy -89321.935073 kJ/mol
# GULP energy per Si atom -5582.620942 kJ/mol
# Density = 2.289278 g / cm^3
# Si number density = 22.945004 Si / 1000 Ang^3
#
#
#
# Elastic Constant Matrix: (Units=GPa)
#
#
# Indices 1 2 3 4 5 6 
#
# 1 127.9142 21.7698 38.8031 -14.8936 4.6519 18.8839
# 2 21.7698 137.4781 44.1762 -27.0546 -2.4937 17.9759
# 3 38.8031 44.1762 113.2426 -33.8786 6.7812 4.9336
# 4 -14.8936 -27.0546 -33.8786 37.2598 -8.5976 -5.2522
# 5 4.6519 -2.4937 6.7812 -8.5976 47.2144 -4.7599
# 6 18.8839 17.9759 4.9336 -5.2522 -4.7599 33.0216
#
#
#
# Elastic Compliance Matrix: (Units=1/GPa)
#
#
# Indices 1 2 3 4 5 6 
#
# 1 0.009521 0.000157 -0.002957 0.000274 -0.000978 -0.005186
# 2 0.000157 0.009417 -0.002261 0.004570 0.001238 -0.003973
# 3 -0.002957 -0.002261 0.013572 0.009937 0.000286 0.002516
# 4 0.000274 0.004570 0.009937 0.041317 0.006654 0.003401
# 5 -0.000978 0.001238 0.000286 0.006654 0.022936 0.004207
# 6 -0.005186 -0.003973 0.002516 0.003401 0.004207 0.036183
#
#
# Mechanical properties :
#
#
# Convention : Reuss Voigt Hill
#
# Bulk Modulus (GPa) = 44.66798 65.34814 55.00806
# Shear Modulus (GPa) = 33.21558 41.75820 37.48689
#
# Velocity S-wave (km/s) = 3.80888 4.27069 4.04638
# Velocity P-wave (km/s) = 6.23323 7.27052 6.77177
#
# Compressibility (1/GPa) = 0.02238740
#
# Stress axis : x y z
#
# Youngs Moduli (GPa) = 105.02914 106.19193 73.68036
#
# Poissons Ratio (x) = -0.01665 0.21788
# Poissons Ratio (y) = -0.01647 0.16660
# Poissons Ratio (z) = 0.31058 0.24011
#
# Static dielectric constant tensor:
#      x y z
#    x 2.139190 -0.157530 -0.023090 
#    y -0.157530 1.954430 0.026490 
#    z -0.023090 0.026490 1.665640 
# 
# From -- ./inp_files/296132.got.cif
#   From: 2010.05.17/outbox.cif.g08.bks.cpg/sg2_149_cif.got.tgz:296132.got - 2010.06.03 11:33:40.
