data_PCOD9031282
_publ_section_title
;
Structure prediction by ZEFSAII (Michael W. Deem and Ramdas Pophale) SiO2 
 PCOD9031282
Probable space group: P -1
;
_chemical_formula_sum "Si O2"
_cell_formula_units_Z 16
_cell_length_a 8.893865
_cell_length_b 10.445101
_cell_length_c 13.107604
_cell_angle_alpha 57.630407
_cell_angle_beta 78.741955
_cell_angle_gamma 44.662365
_cell_volume 686.707413
_symmetry_space_group_name_H-M "P -1"
_symmetry_group_IT_number 2
_symmetry_cell_setting 'triclinic'
loop_
_space_group_symop_operation_xyz
x,y,z
-x,-y,-z
loop_
_atom_site_type_symbol
_atom_site_label
_atom_site_fract_x
_atom_site_fract_y
_atom_site_fract_z
Si Si1 0.345990 0.384109 0.840631
Si Si2 0.175757 0.245125 0.044487
Si Si3 0.844945 0.239153 0.132234
Si Si4 0.947562 0.452515 0.382733
Si Si5 0.391206 0.052558 0.756760
Si Si6 0.884573 0.003666 0.414888
Si Si7 0.764723 0.104237 0.020009
Si Si8 0.430663 0.203473 0.365294
O O1 0.258840 0.563331 0.861148
O O2 0.212453 0.497864 0.706570
O O3 0.289437 0.253168 0.934884
O O4 0.607505 0.218928 0.892740
O O5 0.026641 0.208022 0.061571
O O6 0.379393 0.055343 0.174251
O O7 0.000000 0.500000 0.000000
O O8 0.698376 0.262730 0.055999
O O9 0.939118 0.048910 0.282385
O O10 0.778789 0.689114 0.363668
O O11 0.042456 0.225596 0.511404
O O12 0.160705 0.397574 0.335477
O O13 0.259809 0.039948 0.859125
O O14 0.494476 0.878118 0.726152
O O15 0.609496 0.200481 0.381113
O O16 0.000000 0.000000 0.500000
O O17 0.000000 0.000000 0.000000
O O18 0.500000 0.000000 0.500000
#
# Coordination Sequence:
#
# PCOD9031282 Si02
#       8
#     2   2   2   2   2   2   2   2
#     4  10  22  43  66 100 132 181 233 283 345 420
#     4   9  21  38  69  97 130 182 229 273 348 412
#     4  11  21  43  70  94 141 178 231 286 352 410
#     4  11  25  44  74 102 138 188 237 284 352 418
#     4  11  24  45  68 102 142 180 237 288 343 423
#     4  11  23  44  70 102 139 180 234 295 345 420
#     4  11  26  42  64 103 143 180 225 292 356 410
#     4  10  23  44  71  95 135 187 235 277 348 418
#
# _framework density 23.299588
#
# number of rings (size 3 to 8) (size 9 to 14) (size 15 to 20)
#    0.000    1.500    2.500    1.875    5.250    4.000 
#    0.000    0.625    0.000    0.000    0.000    0.000 
#    0.000    0.000    0.000    0.000    0.000    0.000 
#
# Total GULP energy -89217.038518 kJ/mol
# GULP energy per Si atom -5576.064907 kJ/mol
# Density = 2.324656 g / cm^3
# Si number density = 23.299588 Si / 1000 Ang^3
#
#
#
# Elastic Constant Matrix: (Units=GPa)
#
#
# Indices 1 2 3 4 5 6 
#
# 1 151.3773 25.7805 34.6349 -3.2110 3.6920 -0.2457
# 2 25.7805 102.7194 7.8112 -24.0044 -3.6877 7.2814
# 3 34.6349 7.8112 58.5144 -13.3159 -1.4987 -10.4008
# 4 -3.2110 -24.0044 -13.3159 27.8191 7.5100 7.8044
# 5 3.6920 -3.6877 -1.4987 7.5100 35.1539 4.4562
# 6 -0.2457 7.2814 -10.4008 7.8044 4.4562 35.7002
#
#
#
# Elastic Compliance Matrix: (Units=1/GPa)
#
#
# Indices 1 2 3 4 5 6 
#
# 1 0.008199 -0.002498 -0.005377 -0.003588 -0.000567 -0.000145
# 2 -0.002498 0.013915 0.001906 0.014286 -0.000570 -0.005352
# 3 -0.005377 0.001906 0.023288 0.011361 -0.001180 0.004023
# 4 -0.003588 0.014286 0.011361 0.058864 -0.008770 -0.011402
# 5 -0.000567 -0.000570 -0.001180 -0.008770 0.030539 -0.002126
# 6 -0.000145 -0.005352 0.004023 -0.011402 -0.002126 0.033031
#
#
# Mechanical properties :
#
#
# Convention : Reuss Voigt Hill
#
# Bulk Modulus (GPa) = 29.88182 49.89603 39.88893
# Shear Modulus (GPa) = 26.18807 36.02695 31.10751
#
# Velocity S-wave (km/s) = 3.35621 3.93650 3.65788
# Velocity P-wave (km/s) = 5.27937 6.49021 5.91585
#
# Compressibility (1/GPa) = 0.03346516
#
# Stress axis : x y z
#
# Youngs Moduli (GPa) = 121.96630 71.86744 42.94069
#
# Poissons Ratio (x) = 0.17949 0.23087
# Poissons Ratio (y) = 0.30462 -0.08184
# Poissons Ratio (z) = 0.65576 -0.13698
#
# Static dielectric constant tensor:
#      x y z
#    x 1.894100 0.025830 0.034110 
#    y 0.025830 2.017130 0.001450 
#    z 0.034110 0.001450 1.880090 
# 
# From -- ./inp_files/500017.got.cif
#   From: 2010.05.17/outbox.cif.g08.bks.cpg/sg2_251_cif.got.tgz:500017.got - 2010.06.03 11:33:40.
