data_PCOD9031974
_publ_section_title
;
Structure prediction by ZEFSAII (Michael W. Deem and Ramdas Pophale) SiO2 
 PCOD9031974
Probable space group: P -1
;
_chemical_formula_sum "Si O2"
_cell_formula_units_Z 16
_cell_length_a 20.919363
_cell_length_b 10.950835
_cell_length_c 5.566631
_cell_angle_alpha 118.259066
_cell_angle_beta 119.727112
_cell_angle_gamma 37.377600
_cell_volume 664.595167
_symmetry_space_group_name_H-M "P -1"
_symmetry_group_IT_number 2
_symmetry_cell_setting 'triclinic'
loop_
_space_group_symop_operation_xyz
x,y,z
-x,-y,-z
loop_
_atom_site_type_symbol
_atom_site_label
_atom_site_fract_x
_atom_site_fract_y
_atom_site_fract_z
Si Si1 0.957011 0.364563 0.958790
Si Si2 0.680536 0.042013 0.646131
Si Si3 0.746992 0.429664 0.156474
Si Si4 0.406210 0.676307 0.667445
Si Si5 0.826648 0.037094 0.172184
Si Si6 0.861242 0.565312 0.473293
Si Si7 0.539486 0.666479 0.262361
Si Si8 0.889947 0.154381 0.774553
O O1 0.926881 0.485770 0.770603
O O2 0.908504 0.273499 0.777289
O O3 0.083845 0.162100 0.004827
O O4 0.919330 0.489704 0.251300
O O5 0.681692 0.144061 0.514362
O O6 0.557297 0.157258 0.570789
O O7 0.761216 0.807228 0.524944
O O8 0.726402 0.069707 0.984920
O O9 0.815154 0.473973 0.318791
O O10 0.634666 0.617176 0.257559
O O11 0.796803 0.228194 0.192403
O O12 0.770969 0.342729 0.848289
O O13 0.500000 0.500000 0.500000
O O14 0.400447 0.548864 0.707305
O O15 0.464961 0.717619 0.955436
O O16 0.882314 0.015205 0.500434
O O17 0.000000 0.000000 0.000000
#
# Coordination Sequence:
#
# PCOD9031974 Si02
#       8
#     2   2   2   2   2   2   2   2
#     4  11  24  47  72 101 148 186 246 297 356 432
#     4  11  27  44  68 104 149 187 235 297 363 435
#     4  11  23  41  74 106 134 190 242 293 365 413
#     4   9  19  42  65  95 143 177 230 305 352 411
#     4  12  23  41  75 106 135 193 236 298 362 416
#     4  11  27  49  69 106 151 195 235 299 362 438
#     4  10  22  43  69 101 139 182 242 300 346 432
#     4  11  22  43  69 109 141 177 243 307 352 415
#
# _framework density 24.074805999999999
#
# number of rings (size 3 to 8) (size 9 to 14) (size 15 to 20)
#    0.000    1.250    2.500    4.125    1.750    6.500 
#    0.000    0.625    0.000    0.000    0.000    0.000 
#    0.000    0.000    0.000    0.000    0.000    0.000 
#
# Total GULP energy -89171.661780 kJ/mol
# GULP energy per Si atom -5573.228861 kJ/mol
# Density = 2.402001 g / cm^3
# Si number density = 24.074806 Si / 1000 Ang^3
#
#
#
# Elastic Constant Matrix: (Units=GPa)
#
#
# Indices 1 2 3 4 5 6 
#
# 1 69.4719 26.6160 24.6222 4.4012 -17.1808 -31.5082
# 2 26.6160 147.2005 39.1673 17.9527 -12.4205 -7.5617
# 3 24.6222 39.1673 106.1125 -3.7064 -13.5884 -6.4186
# 4 4.4012 17.9527 -3.7064 38.0373 -0.0909 -4.8110
# 5 -17.1808 -12.4205 -13.5884 -0.0909 23.0155 5.7331
# 6 -31.5082 -7.5617 -6.4186 -4.8110 5.7331 31.7824
#
#
#
# Elastic Compliance Matrix: (Units=1/GPa)
#
#
# Indices 1 2 3 4 5 6 
#
# 1 0.033240 -0.002563 -0.003140 0.000791 0.014293 0.029251
# 2 -0.002563 0.008498 -0.002602 -0.004213 0.001611 -0.001973
# 3 -0.003140 -0.002602 0.011548 0.002517 0.003491 -0.001648
# 4 0.000791 -0.004213 0.002517 0.029052 -0.001309 0.004924
# 5 0.014293 0.001611 0.003491 -0.001309 0.055800 0.004995
# 6 0.029251 -0.001973 -0.001648 0.004924 0.004995 0.059505
#
#
# Mechanical properties :
#
#
# Convention : Reuss Voigt Hill
#
# Bulk Modulus (GPa) = 27.26515 55.95512 41.61013
# Shear Modulus (GPa) = 22.07726 34.05898 28.06812
#
# Velocity S-wave (km/s) = 3.03153 3.76535 3.41819
# Velocity P-wave (km/s) = 4.85833 6.49588 5.73584
#
# Compressibility (1/GPa) = 0.03667686
#
# Stress axis : x y z
#
# Youngs Moduli (GPa) = 30.08417 117.67902 86.59401
#
# Poissons Ratio (x) = 0.30158 0.27188
# Poissons Ratio (y) = 0.07710 0.22533
# Poissons Ratio (z) = 0.09446 0.30621
#
# Static dielectric constant tensor:
#      x y z
#    x 1.868740 -0.035340 -0.055660 
#    y -0.035340 1.920000 -0.039120 
#    z -0.055660 -0.039120 2.090070 
# 
# From -- ./inp_files/123808.got.cif
#   From: 2010.05.17/outbox.cif.g08.bks.cpg/sg2_62_cif.got.tgz:123808.got - 2010.06.03 11:33:40.
