data_PCOD9031457
_publ_section_title
;
Structure prediction by ZEFSAII (Michael W. Deem and Ramdas Pophale) SiO2 
 PCOD9031457
Probable space group: P -1
;
_chemical_formula_sum "Si O2"
_cell_formula_units_Z 12
_cell_length_a 7.705010
_cell_length_b 5.089007
_cell_length_c 13.797432
_cell_angle_alpha 85.471978
_cell_angle_beta 59.809594
_cell_angle_gamma 77.695028
_cell_volume 456.628080
_symmetry_space_group_name_H-M "P -1"
_symmetry_group_IT_number 2
_symmetry_cell_setting 'triclinic'
loop_
_space_group_symop_operation_xyz
x,y,z
-x,-y,-z
loop_
_atom_site_type_symbol
_atom_site_label
_atom_site_fract_x
_atom_site_fract_y
_atom_site_fract_z
Si Si1 0.793741 0.647218 0.107713
Si Si2 0.030879 0.101508 0.594569
Si Si3 0.426854 0.767560 0.915352
Si Si4 0.807819 0.271279 0.267433
Si Si5 0.574077 0.718375 0.538541
Si Si6 0.218081 0.931790 0.163130
O O1 0.712762 0.956535 0.097293
O O2 0.818122 0.566543 0.217262
O O3 0.626342 0.481966 0.119769
O O4 0.000000 0.500000 0.000000
O O5 0.183789 0.305175 0.528533
O O6 0.838858 0.205244 0.717063
O O7 0.131333 0.838107 0.638294
O O8 0.000000 0.000000 0.500000
O O9 0.652495 0.838908 0.853489
O O10 0.345296 0.755804 0.048957
O O11 0.568402 0.255501 0.327026
O O12 0.001208 0.073162 0.170323
O O13 0.500000 0.500000 0.500000
O O14 0.500000 0.000000 0.500000
#
# Coordination Sequence:
#
# PCOD9031457 Si02
#       6
#     2   2   2   2   2   2
#     4  12  24  43  68 102 133 181 228 279 344 408
#     4   9  20  43  71  99 141 180 234 280 351 402
#     4  11  25  45  68 102 140 177 226 281 348 411
#     4   9  22  41  68 100 137 178 229 286 337 410
#     4  10  22  43  66  98 131 179 228 284 335 401
#     4   9  22  44  68 103 137 183 223 288 341 411
#
# _framework density 26.279589000000001
#
# number of rings (size 3 to 8) (size 9 to 14) (size 15 to 20)
#    1.000    1.000    1.667    0.500    2.333    6.667 
#    6.000    3.333    0.000    0.000    0.000    0.000 
#    0.000    0.000    0.000    0.000    0.000    0.000 
#
# Total GULP energy -66957.243298 kJ/mol
# GULP energy per Si atom -5579.770275 kJ/mol
# Density = 2.621978 g / cm^3
# Si number density = 26.279589 Si / 1000 Ang^3
#
#
#
# Elastic Constant Matrix: (Units=GPa)
#
#
# Indices 1 2 3 4 5 6 
#
# 1 106.9503 44.7423 71.5625 -7.9321 -19.8363 28.8508
# 2 44.7423 93.7047 6.6537 3.0149 2.5218 5.5999
# 3 71.5625 6.6537 176.3148 -13.3833 -20.0946 -2.6221
# 4 -7.9321 3.0149 -13.3833 29.8817 -8.6619 6.1611
# 5 -19.8363 2.5218 -20.0946 -8.6619 62.0561 -4.2536
# 6 28.8508 5.5999 -2.6221 6.1611 -4.2536 47.1032
#
#
#
# Elastic Compliance Matrix: (Units=1/GPa)
#
#
# Indices 1 2 3 4 5 6 
#
# 1 0.026324 -0.011430 -0.009101 0.009118 0.006114 -0.015912
# 2 -0.011430 0.015824 0.003312 -0.005357 -0.003583 0.005681
# 3 -0.009101 0.003312 0.009409 0.000422 0.000452 0.005690
# 4 0.009118 -0.005357 0.000422 0.040998 0.008338 -0.009534
# 5 0.006114 -0.003583 0.000452 0.008338 0.019344 -0.002638
# 6 -0.015912 0.005681 0.005690 -0.009534 -0.002638 0.031626
#
#
# Mechanical properties :
#
#
# Convention : Reuss Voigt Hill
#
# Bulk Modulus (GPa) = 58.41850 69.20964 63.81407
# Shear Modulus (GPa) = 27.22315 44.74229 35.98272
#
# Velocity S-wave (km/s) = 3.22204 4.13067 3.70432
# Velocity P-wave (km/s) = 6.00998 7.01021 6.52928
#
# Compressibility (1/GPa) = 0.01711787
#
# Stress axis : x y z
#
# Youngs Moduli (GPa) = 37.98858 63.19711 106.28565
#
# Poissons Ratio (x) = 0.72234 0.96727
# Poissons Ratio (y) = 0.43421 -0.35197
# Poissons Ratio (z) = 0.34572 -0.20928
#
# Static dielectric constant tensor:
#      x y z
#    x 2.242460 -0.044860 -0.055670 
#    y -0.044860 2.041520 0.078300 
#    z -0.055670 0.078300 2.227940 
# 
# From -- ./inp_files/486965.got.cif
#   From: 2010.05.17/outbox.cif.g08.bks.cpg/sg2_244_cif.got.tgz:486965.got - 2010.06.03 11:33:40.
