data_PCOD9031197
_publ_section_title
;
Structure prediction by ZEFSAII (Michael W. Deem and Ramdas Pophale) SiO2 
 PCOD9031197
Probable space group: P -1
;
_chemical_formula_sum "Si O2"
_cell_formula_units_Z 15
_cell_length_a 8.601025
_cell_length_b 11.981179
_cell_length_c 6.820189
_cell_angle_alpha 108.471562
_cell_angle_beta 97.597321
_cell_angle_gamma 77.554170
_cell_volume 649.396898
_symmetry_space_group_name_H-M "P -1"
_symmetry_group_IT_number 2
_symmetry_cell_setting 'triclinic'
loop_
_space_group_symop_operation_xyz
x,y,z
-x,-y,-z
loop_
_atom_site_type_symbol
_atom_site_label
_atom_site_fract_x
_atom_site_fract_y
_atom_site_fract_z
Si Si1 0.256371 0.718554 0.214715
Si Si2 0.698053 0.871373 0.502503
Si Si3 0.347814 0.485344 0.336291
Si Si4 0.993768 0.757697 0.860063
Si Si5 0.000000 0.500000 0.500000
Si Si6 0.960342 0.126505 0.447863
Si Si7 0.629183 0.779174 0.813244
Si Si8 0.561846 0.097928 0.835539
O O1 0.319714 0.584335 0.217027
O O2 0.194425 0.795203 0.439881
O O3 0.380887 0.784121 0.164587
O O4 0.104920 0.732927 0.053093
O O5 0.622731 0.781566 0.577023
O O6 0.597943 0.910678 0.316624
O O7 0.879540 0.819250 0.455019
O O8 0.686966 0.985741 0.710939
O O9 0.500000 0.500000 0.500000
O O10 0.382659 0.350902 0.185388
O O11 0.182436 0.497882 0.437490
O O12 0.049886 0.856551 0.779849
O O13 0.003644 0.632007 0.677317
O O14 0.807331 0.799512 0.904899
O O15 0.000000 0.000000 0.500000
O O16 0.489839 0.877169 0.935941
#
# Coordination Sequence:
#
# PCOD9031197 Si02
#       8
#     2   2   2   2   1   2   2   2
#     4  12  25  43  69 104 134 178 229 284 341 408
#     4  10  22  43  65  93 133 178 223 275 342 402
#     4  11  25  46  71 104 140 182 233 286 348 411
#     4  10  24  44  69  97 135 177 232 279 341 411
#     4  10  22  46  72  98 138 190 220 290 346 404
#     4  11  22  45  69  98 135 179 226 282 342 407
#     4  10  23  43  63  97 131 180 224 278 339 408
#     4  11  23  40  64  97 132 176 222 280 339 403
#
# _framework density 23.098357
#
# number of rings (size 3 to 8) (size 9 to 14) (size 15 to 20)
#    0.000    1.333    2.667    2.000    1.867    4.267 
#   12.000    0.000    0.000    0.000    0.000    0.000 
#    0.000    0.000    0.000    0.000    0.000    0.000 
#
# Total GULP energy -83525.240335 kJ/mol
# GULP energy per Si atom -5568.349356 kJ/mol
# Density = 2.304578 g / cm^3
# Si number density = 23.098357 Si / 1000 Ang^3
#
#
#
# Elastic Constant Matrix: (Units=GPa)
#
#
# Indices 1 2 3 4 5 6 
#
# 1 77.9910 3.6898 25.7869 4.3825 -10.7434 3.3331
# 2 3.6898 123.0246 14.1488 -13.7620 -0.5793 8.4945
# 3 25.7869 14.1488 48.6406 -11.5527 -2.5753 1.2006
# 4 4.3825 -13.7620 -11.5527 32.2104 -18.4984 2.1914
# 5 -10.7434 -0.5793 -2.5753 -18.4984 39.2654 -6.4286
# 6 3.3331 8.4945 1.2006 2.1914 -6.4286 25.7136
#
#
#
# Elastic Compliance Matrix: (Units=1/GPa)
#
#
# Indices 1 2 3 4 5 6 
#
# 1 0.016600 0.000174 -0.009897 -0.004828 0.001462 -0.000970
# 2 0.000174 0.009001 -0.001487 0.004472 0.001718 -0.002878
# 3 -0.009897 -0.001487 0.030191 0.015255 0.006552 0.000702
# 4 -0.004828 0.004472 0.015255 0.053385 0.024915 0.000116
# 5 0.001462 0.001718 0.006552 0.024915 0.039141 0.006599
# 6 -0.000970 -0.002878 0.000702 0.000116 0.006599 0.041574
#
#
# Mechanical properties :
#
#
# Convention : Reuss Voigt Hill
#
# Bulk Modulus (GPa) = 29.96335 37.43411 33.69873
# Shear Modulus (GPa) = 22.37791 33.17329 27.77560
#
# Velocity S-wave (km/s) = 3.11595 3.79380 3.47146
# Velocity P-wave (km/s) = 5.09370 5.95249 5.53976
#
# Compressibility (1/GPa) = 0.03337411
#
# Stress axis : x y z
#
# Youngs Moduli (GPa) = 60.24064 111.09592 33.12269
#
# Poissons Ratio (x) = -0.01934 0.32780
# Poissons Ratio (y) = -0.01049 0.04924
# Poissons Ratio (z) = 0.59618 0.16515
#
# Static dielectric constant tensor:
#      x y z
#    x 1.832260 0.023960 0.000980 
#    y 0.023960 1.907610 -0.028490 
#    z 0.000980 -0.028490 1.892790 
# 
# From -- ./inp_files/28286.got.cif
#   From: 2010.05.17/outbox.cif.g08.bks.cpg/sg2_15_cif.got.tgz:28286.got - 2010.06.03 11:33:40.
