data_PCOD9031633
_publ_section_title
;
Structure prediction by ZEFSAII (Michael W. Deem and Ramdas Pophale) SiO2 
 PCOD9031633
Probable space group: P -1
;
_chemical_formula_sum "Si O2"
_cell_formula_units_Z 16
_cell_length_a 12.346915
_cell_length_b 12.262974
_cell_length_c 5.403390
_cell_angle_alpha 82.205791
_cell_angle_beta 59.753262
_cell_angle_gamma 92.133329
_cell_volume 694.877267
_symmetry_space_group_name_H-M "P -1"
_symmetry_group_IT_number 2
_symmetry_cell_setting 'triclinic'
loop_
_space_group_symop_operation_xyz
x,y,z
-x,-y,-z
loop_
_atom_site_type_symbol
_atom_site_label
_atom_site_fract_x
_atom_site_fract_y
_atom_site_fract_z
Si Si1 0.154458 0.253678 0.695473
Si Si2 0.433113 0.595241 0.804657
Si Si3 0.380821 0.993383 0.959799
Si Si4 0.333726 0.376637 0.133477
Si Si5 0.121586 0.020620 0.531690
Si Si6 0.744072 0.250355 0.870044
Si Si7 0.107931 0.779719 0.797025
Si Si8 0.593032 0.774727 0.286774
O O1 0.195465 0.347727 0.414387
O O2 0.119686 0.136418 0.635005
O O3 0.281459 0.245685 0.704438
O O4 0.038490 0.269029 0.000870
O O5 0.567405 0.582862 0.777931
O O6 0.471063 0.690535 0.529660
O O7 0.360993 0.473801 0.868222
O O8 0.341465 0.650963 0.077061
O O9 0.343974 0.867051 0.962640
O O10 0.251507 0.022420 0.228879
O O11 0.500000 0.000000 0.000000
O O12 0.418335 0.096294 0.701567
O O13 0.376914 0.262972 0.013683
O O14 0.117864 0.914442 0.748766
O O15 0.000000 0.000000 0.500000
O O16 0.826592 0.245774 0.528408
O O17 0.826526 0.261610 0.021457
#
# Coordination Sequence:
#
# PCOD9031633 Si02
#       8
#     2   2   2   2   2   2   2   2
#     4  11  22  40  68  97 126 174 232 282 327 405
#     4  10  24  42  66  94 131 179 225 282 342 410
#     4  11  23  37  65 101 140 174 219 282 344 418
#     4  10  22  43  67  97 127 169 236 287 336 390
#     4  11  22  41  67  99 138 187 225 276 342 417
#     4  11  26  44  65  98 140 184 215 275 349 419
#     4  11  25  43  67  96 137 181 224 271 341 415
#     4  11  22  38  69  96 132 173 221 286 341 400
#
# _framework density 23.025648
#
# number of rings (size 3 to 8) (size 9 to 14) (size 15 to 20)
#    0.000    1.250    1.250    4.500    8.750    0.500 
#    0.000    1.250    0.000    0.000    0.000    0.000 
#    0.000    0.000    0.000    0.000    0.000    0.000 
#
# Total GULP energy -89416.671298 kJ/mol
# GULP energy per Si atom -5588.541956 kJ/mol
# Density = 2.297324 g / cm^3
# Si number density = 23.025648 Si / 1000 Ang^3
#
#
#
# Elastic Constant Matrix: (Units=GPa)
#
#
# Indices 1 2 3 4 5 6 
#
# 1 98.3098 13.5564 38.3193 -3.7292 -10.2663 -3.7397
# 2 13.5564 93.2552 34.1335 -3.4745 -17.8982 2.5312
# 3 38.3193 34.1335 130.9314 -4.2808 -23.5655 7.9728
# 4 -3.7292 -3.4745 -4.2808 27.1299 4.2013 -3.0245
# 5 -10.2663 -17.8982 -23.5655 4.2013 33.3539 1.0890
# 6 -3.7397 2.5312 7.9728 -3.0245 1.0890 18.5933
#
#
#
# Elastic Compliance Matrix: (Units=1/GPa)
#
#
# Indices 1 2 3 4 5 6 
#
# 1 0.011850 -0.000387 -0.003446 0.001384 0.000697 0.004098
# 2 -0.000387 0.012596 -0.002175 0.000303 0.005102 -0.001110
# 3 -0.003446 -0.002175 0.010495 -0.000528 0.005427 -0.005301
# 4 0.001384 0.000303 -0.000528 0.038542 -0.004868 0.007018
# 5 0.000697 0.005102 0.005427 -0.004868 0.037573 -0.005874
# 6 0.004098 -0.001110 -0.005301 0.007018 -0.005874 0.058517
#
#
# Mechanical properties :
#
#
# Convention : Reuss Voigt Hill
#
# Bulk Modulus (GPa) = 43.61991 54.94609 49.28300
# Shear Modulus (GPa) = 26.42281 31.58123 29.00202
#
# Velocity S-wave (km/s) = 3.39121 3.70749 3.55287
# Velocity P-wave (km/s) = 5.85823 6.49939 6.18712
#
# Compressibility (1/GPa) = 0.02292531
#
# Stress axis : x y z
#
# Youngs Moduli (GPa) = 84.39072 79.38957 95.27975
#
# Poissons Ratio (x) = 0.03074 0.32833
# Poissons Ratio (y) = 0.03268 0.20721
# Poissons Ratio (z) = 0.29081 0.17265
#
# Static dielectric constant tensor:
#      x y z
#    x 1.927320 0.007420 0.077920 
#    y 0.007420 1.873770 -0.068840 
#    z 0.077920 -0.068840 1.910740 
# 
# From -- ./inp_files/68662.got.cif
#   From: 2010.05.17/outbox.cif.g08.bks.cpg/sg2_35_cif.got.tgz:68662.got - 2010.06.03 11:33:40.
