data_PCOD9031602
_publ_section_title
;
Structure prediction by ZEFSAII (Michael W. Deem and Ramdas Pophale) SiO2 
 PCOD9031602
Probable space group: P -1
;
_chemical_formula_sum "Si O2"
_cell_formula_units_Z 16
_cell_length_a 19.864133
_cell_length_b 17.657989
_cell_length_c 12.328488
_cell_angle_alpha 34.535750
_cell_angle_beta 30.631975
_cell_angle_gamma 18.878954
_cell_volume 711.726833
_symmetry_space_group_name_H-M "P -1"
_symmetry_group_IT_number 2
_symmetry_cell_setting 'triclinic'
loop_
_space_group_symop_operation_xyz
x,y,z
-x,-y,-z
loop_
_atom_site_type_symbol
_atom_site_label
_atom_site_fract_x
_atom_site_fract_y
_atom_site_fract_z
Si Si1 0.458070 0.474960 0.470549
Si Si2 0.982657 0.375686 0.734555
Si Si3 0.407038 0.035177 0.253491
Si Si4 0.451780 0.728298 0.032057
Si Si5 0.753315 0.118842 0.096696
Si Si6 0.774267 0.811331 0.153332
Si Si7 0.763293 0.614529 0.084163
Si Si8 0.178965 0.959526 0.668281
O O1 0.500000 0.500000 0.500000
O O2 0.392513 0.641973 0.278201
O O3 0.276030 0.509020 0.699976
O O4 0.689729 0.214123 0.409958
O O5 0.000000 0.500000 0.500000
O O6 0.111786 0.302781 0.753708
O O7 0.714559 0.552937 0.901735
O O8 0.108973 0.137026 0.796633
O O9 0.528938 0.947481 0.304460
O O10 0.604577 0.813093 0.161675
O O11 0.196850 0.104585 0.460965
O O12 0.336517 0.235235 0.064623
O O13 0.418614 0.741812 0.931814
O O14 0.282056 0.984424 0.010058
O O15 0.677829 0.192951 0.239402
O O16 0.931682 0.094086 0.861884
O O17 0.961712 0.602190 0.053975
#
# Coordination Sequence:
#
# PCOD9031602 Si02
#       8
#     2   2   2   2   2   2   2   2
#     4  11  22  43  70  93 137 175 223 280 330 394
#     4  11  25  42  68  99 130 173 220 279 333 397
#     4  10  22  43  67  95 138 177 218 275 330 396
#     4  11  25  44  69  97 134 175 222 278 336 396
#     4  10  24  46  68  99 135 173 227 272 337 404
#     4  11  23  40  67  97 132 171 226 269 337 396
#     4  10  23  42  62  99 133 174 225 274 328 396
#     4  10  23  45  68  99 136 174 223 277 329 402
#
# _framework density 22.480533999999999
#
# number of rings (size 3 to 8) (size 9 to 14) (size 15 to 20)
#    0.000    1.500    1.250    2.625    7.000    2.000 
#   11.250    0.000    0.000    0.000    0.000    0.000 
#    0.000    0.000    0.000    0.000    0.000    0.000 
#
# Total GULP energy -89346.367850 kJ/mol
# GULP energy per Si atom -5584.147991 kJ/mol
# Density = 2.242937 g / cm^3
# Si number density = 22.480534 Si / 1000 Ang^3
#
#
#
# Elastic Constant Matrix: (Units=GPa)
#
#
# Indices 1 2 3 4 5 6 
#
# 1 117.9695 21.8348 40.3634 -5.8410 4.4365 -7.6690
# 2 21.8348 50.3365 34.6280 -11.1711 -1.1415 -1.1562
# 3 40.3634 34.6280 141.0468 -22.7604 -11.2607 -15.4136
# 4 -5.8410 -11.1711 -22.7604 30.0694 1.4401 6.2971
# 5 4.4365 -1.1415 -11.2607 1.4401 26.1794 5.2743
# 6 -7.6690 -1.1562 -15.4136 6.2971 5.2743 29.8381
#
#
#
# Elastic Compliance Matrix: (Units=1/GPa)
#
#
# Indices 1 2 3 4 5 6 
#
# 1 0.010038 -0.003033 -0.002357 -0.001242 -0.003196 0.002072
# 2 -0.003033 0.025802 -0.004887 0.006049 -0.000077 -0.003567
# 3 -0.002357 -0.004887 0.010352 0.004779 0.003798 0.002873
# 4 -0.001242 0.006049 0.004779 0.040137 0.001605 -0.006370
# 5 -0.003196 -0.000077 0.003798 0.001605 0.041602 -0.006555
# 6 0.002072 -0.003567 0.002873 -0.006370 -0.006555 0.037896
#
#
# Mechanical properties :
#
#
# Convention : Reuss Voigt Hill
#
# Bulk Modulus (GPa) = 39.00309 55.88947 47.44628
# Shear Modulus (GPa) = 25.65054 31.38583 28.51819
#
# Velocity S-wave (km/s) = 3.38155 3.74054 3.56557
# Velocity P-wave (km/s) = 5.71261 6.60082 6.17271
#
# Compressibility (1/GPa) = 0.02563899
#
# Stress axis : x y z
#
# Youngs Moduli (GPa) = 99.62062 38.75621 96.59605
#
# Poissons Ratio (x) = 0.11756 0.22768
# Poissons Ratio (y) = 0.30218 0.47202
# Poissons Ratio (z) = 0.23481 0.18938
#
# Static dielectric constant tensor:
#      x y z
#    x 1.868820 0.031370 -0.005120 
#    y 0.031370 1.824270 -0.002080 
#    z -0.005120 -0.002080 1.831190 
# 
# From -- ./inp_files/454341.got.cif
#   From: 2010.05.17/outbox.cif.g08.bks.cpg/sg2_228_cif.got.tgz:454341.got - 2010.06.03 11:33:40.
