data_PCOD9031182
_publ_section_title
;
Structure prediction by ZEFSAII (Michael W. Deem and Ramdas Pophale) SiO2 
 PCOD9031182
Probable space group: P -1
;
_chemical_formula_sum "Si O2"
_cell_formula_units_Z 16
_cell_length_a 5.715839
_cell_length_b 24.219060
_cell_length_c 6.645052
_cell_angle_alpha 107.290259
_cell_angle_beta 76.061688
_cell_angle_gamma 59.495408
_cell_volume 665.441147
_symmetry_space_group_name_H-M "P -1"
_symmetry_group_IT_number 2
_symmetry_cell_setting 'triclinic'
loop_
_space_group_symop_operation_xyz
x,y,z
-x,-y,-z
loop_
_atom_site_type_symbol
_atom_site_label
_atom_site_fract_x
_atom_site_fract_y
_atom_site_fract_z
Si Si1 0.255485 0.102493 0.448068
Si Si2 0.866951 0.136307 0.188227
Si Si3 0.840601 0.269090 0.268264
Si Si4 0.800164 0.634434 0.245413
Si Si5 0.800554 0.764025 0.463755
Si Si6 0.859051 0.384214 0.186755
Si Si7 0.807009 0.481891 0.646662
Si Si8 0.087072 0.027111 0.697916
O O1 0.106124 0.188523 0.596432
O O2 0.166636 0.074445 0.618060
O O3 0.000000 0.000000 0.500000
O O4 0.147477 0.094821 0.244372
O O5 0.857141 0.198950 0.139142
O O6 0.563791 0.184323 0.440648
O O7 0.624134 0.045526 0.329973
O O8 0.862725 0.083353 0.979990
O O9 0.531324 0.322633 0.530944
O O10 0.858183 0.315504 0.146545
O O11 0.131657 0.237613 0.316919
O O12 0.922042 0.682267 0.304072
O O13 0.025032 0.555253 0.218879
O O14 0.844127 0.628858 0.990323
O O15 0.823108 0.419505 0.450309
O O16 0.549561 0.446930 0.196863
O O17 0.000000 0.500000 0.500000
#
# Coordination Sequence:
#
# PCOD9031182 Si02
#       8
#     2   2   2   2   2   2   2   2
#     4  10  23  42  65  96 130 175 222 276 332 406
#     4  10  23  43  66  93 134 178 216 283 337 391
#     4  10  22  44  62  99 133 171 232 276 333 409
#     4  11  23  42  66  96 131 175 221 277 339 401
#     4  10  22  43  65  92 133 167 223 275 334 398
#     4  11  24  41  68  95 129 179 217 280 340 394
#     4  11  23  43  65  96 137 168 227 275 331 412
#     4  11  24  41  66 100 134 170 227 273 338 409
#
# _framework density 24.044198000000002
#
# number of rings (size 3 to 8) (size 9 to 14) (size 15 to 20)
#    0.000    1.500    2.500    1.500    1.750    7.500 
#    6.750    0.000    0.000    0.000    0.000    0.000 
#    0.000    0.000    0.000    0.000    0.000    0.000 
#
# Total GULP energy -89305.842607 kJ/mol
# GULP energy per Si atom -5581.615163 kJ/mol
# Density = 2.398947 g / cm^3
# Si number density = 24.044198 Si / 1000 Ang^3
#
#
#
# Elastic Constant Matrix: (Units=GPa)
#
#
# Indices 1 2 3 4 5 6 
#
# 1 66.1813 14.5546 14.8198 -0.7864 3.6149 -10.9751
# 2 14.5546 155.0798 26.9166 -17.8084 -6.8721 7.0192
# 3 14.8198 26.9166 66.0794 -9.3965 2.0699 -3.6201
# 4 -0.7864 -17.8084 -9.3965 27.5160 15.7761 -6.1728
# 5 3.6149 -6.8721 2.0699 15.7761 24.2772 1.6959
# 6 -10.9751 7.0192 -3.6201 -6.1728 1.6959 38.8951
#
#
#
# Elastic Compliance Matrix: (Units=1/GPa)
#
#
# Indices 1 2 3 4 5 6 
#
# 1 0.017174 -0.001327 -0.002437 0.002911 -0.005004 0.005539
# 2 -0.001327 0.007456 -0.002332 0.003481 0.000343 -0.001400
# 3 -0.002437 -0.002332 0.018663 0.010884 -0.009213 0.003599
# 4 0.002911 0.003481 0.010884 0.074305 -0.049721 0.015167
# 5 -0.005004 0.000343 -0.009213 -0.049721 0.076075 -0.013539
# 6 0.005539 -0.001400 0.003599 0.015167 -0.013539 0.030858
#
#
# Mechanical properties :
#
#
# Convention : Reuss Voigt Hill
#
# Bulk Modulus (GPa) = 32.15296 44.43583 38.29440
# Shear Modulus (GPa) = 20.23556 33.54095 26.88826
#
# Velocity S-wave (km/s) = 2.90418 3.73898 3.34770
# Velocity P-wave (km/s) = 4.96459 6.09598 5.55914
#
# Compressibility (1/GPa) = 0.03110133
#
# Stress axis : x y z
#
# Youngs Moduli (GPa) = 58.22756 134.12372 53.58150
#
# Poissons Ratio (x) = 0.17798 0.13058
# Poissons Ratio (y) = 0.07727 0.12495
# Poissons Ratio (z) = 0.14190 0.31276
#
# Static dielectric constant tensor:
#      x y z
#    x 1.970560 0.032570 -0.004360 
#    y 0.032570 1.895730 0.008110 
#    z -0.004360 0.008110 2.024820 
# 
# From -- ./inp_files/141447.got.cif
#   From: 2010.05.17/outbox.cif.g08.bks.cpg/sg2_71_cif.got.tgz:141447.got - 2010.06.03 11:33:40.
