data_PCOD9031761
_publ_section_title
;
Structure prediction by ZEFSAII (Michael W. Deem and Ramdas Pophale) SiO2 
 PCOD9031761
Probable space group: P -1
;
_chemical_formula_sum "Si O2"
_cell_formula_units_Z 14
_cell_length_a 16.526737
_cell_length_b 5.168522
_cell_length_c 16.681496
_cell_angle_alpha 95.432418
_cell_angle_beta 155.514345
_cell_angle_gamma 92.223779
_cell_volume 560.313550
_symmetry_space_group_name_H-M "P -1"
_symmetry_group_IT_number 2
_symmetry_cell_setting 'triclinic'
loop_
_space_group_symop_operation_xyz
x,y,z
-x,-y,-z
loop_
_atom_site_type_symbol
_atom_site_label
_atom_site_fract_x
_atom_site_fract_y
_atom_site_fract_z
Si Si1 0.111586 0.914349 0.463611
Si Si2 0.266352 0.449335 0.515316
Si Si3 0.181914 0.766504 0.144965
Si Si4 0.331769 0.746187 0.804255
Si Si5 0.287505 0.483971 0.087894
Si Si6 0.082685 0.002298 0.204648
Si Si7 0.697832 0.548804 0.074324
O O1 0.167405 0.681870 0.455173
O O2 0.193688 0.858515 0.623119
O O3 0.867287 0.844632 0.233633
O O4 0.216170 0.210865 0.530300
O O5 0.508043 0.605668 0.730732
O O6 0.179662 0.267798 0.353187
O O7 0.318360 0.671453 0.200418
O O8 0.245636 0.919957 0.291584
O O9 0.000000 0.500000 0.000000
O O10 0.077869 0.936593 0.999606
O O11 0.231021 0.579719 0.786868
O O12 0.473129 0.579737 0.885734
O O13 0.500000 0.000000 0.000000
O O14 0.069817 0.253220 0.893833
O O15 0.291937 0.602527 0.005009
#
# Coordination Sequence:
#
# PCOD9031761 Si02
#       7
#     2   2   2   2   2   2   2
#     4  12  27  48  71 109 147 193 247 299 365 432
#     4  12  27  44  75 108 146 190 250 296 356 445
#     4   9  21  41  69  99 142 184 240 296 363 430
#     4  11  26  44  71 103 145 188 250 299 363 438
#     4  11  22  43  70 101 142 189 237 301 358 426
#     4  10  22  43  68 104 138 191 238 297 365 429
#     4  11  24  45  69 104 141 195 235 305 361 425
#
# _framework density 24.986011999999999
#
# number of rings (size 3 to 8) (size 9 to 14) (size 15 to 20)
#    0.000    1.143    2.857    2.143    8.000    2.286 
#    0.000    6.429    0.000    0.000    0.000    0.000 
#    0.000    0.000    0.000    0.000    0.000    0.000 
#
# Total GULP energy -78204.380930 kJ/mol
# GULP energy per Si atom -5586.027209 kJ/mol
# Density = 2.492914 g / cm^3
# Si number density = 24.986012 Si / 1000 Ang^3
#
#
#
# Elastic Constant Matrix: (Units=GPa)
#
#
# Indices 1 2 3 4 5 6 
#
# 1 142.8661 29.3525 29.9495 1.6121 -11.8645 1.5127
# 2 29.3525 84.0927 6.9999 -1.5172 -1.5421 0.6718
# 3 29.9495 6.9999 86.0709 16.1731 -10.2462 -3.3405
# 4 1.6121 -1.5172 16.1731 31.6546 -9.5167 -15.2706
# 5 -11.8645 -1.5421 -10.2462 -9.5167 32.4696 -2.7345
# 6 1.5127 0.6718 -3.3405 -15.2706 -2.7345 33.8916
#
#
#
# Elastic Compliance Matrix: (Units=1/GPa)
#
#
# Indices 1 2 3 4 5 6 
#
# 1 0.008289 -0.002592 -0.002688 0.001840 0.002636 0.000458
# 2 -0.002592 0.012838 -0.000337 0.001016 -0.000123 0.000276
# 3 -0.002688 -0.000337 0.014070 -0.007644 0.001046 -0.001847
# 4 0.001840 0.001016 -0.007644 0.051438 0.015369 0.023561
# 5 0.002636 -0.000123 0.001046 0.015369 0.037426 0.009932
# 6 0.000458 0.000276 -0.001847 0.023561 0.009932 0.040715
#
#
# Mechanical properties :
#
#
# Convention : Reuss Voigt Hill
#
# Bulk Modulus (GPa) = 41.72846 49.51483 45.62165
# Shear Modulus (GPa) = 27.17428 36.05169 31.61299
#
# Velocity S-wave (km/s) = 3.30142 3.80264 3.56086
# Velocity P-wave (km/s) = 5.59192 6.25621 5.93337
#
# Compressibility (1/GPa) = 0.02396446
#
# Stress axis : x y z
#
# Youngs Moduli (GPa) = 120.64642 77.89280 71.07215
#
# Poissons Ratio (x) = 0.20186 0.19102
# Poissons Ratio (y) = 0.31266 0.02396
# Poissons Ratio (z) = 0.32426 0.02625
#
# Static dielectric constant tensor:
#      x y z
#    x 2.275610 0.068690 0.002210 
#    y 0.068690 2.105350 -0.001810 
#    z 0.002210 -0.001810 1.965600 
# 
# From -- ./inp_files/98315.got.cif
#   From: 2010.05.17/outbox.cif.g08.bks.cpg/sg2_50_cif.got.tgz:98315.got - 2010.06.03 11:33:40.
