data_PCOD9031810
_publ_section_title
;
Structure prediction by ZEFSAII (Michael W. Deem and Ramdas Pophale) SiO2 
 PCOD9031810
Probable space group: P -1
;
_chemical_formula_sum "Si O2"
_cell_formula_units_Z 12
_cell_length_a 17.618140
_cell_length_b 14.881631
_cell_length_c 11.946401
_cell_angle_alpha 152.109467
_cell_angle_beta 31.262606
_cell_angle_gamma 158.281384
_cell_volume 531.818175
_symmetry_space_group_name_H-M "P -1"
_symmetry_group_IT_number 2
_symmetry_cell_setting 'triclinic'
loop_
_space_group_symop_operation_xyz
x,y,z
-x,-y,-z
loop_
_atom_site_type_symbol
_atom_site_label
_atom_site_fract_x
_atom_site_fract_y
_atom_site_fract_z
Si Si1 0.677529 0.729177 0.681868
Si Si2 0.380056 0.697377 0.862314
Si Si3 0.943036 0.333633 0.001754
Si Si4 0.429087 0.421509 0.873336
Si Si5 0.435663 0.857068 0.595112
Si Si6 0.792834 0.431390 0.669169
O O1 0.512691 0.697225 0.781559
O O2 0.674159 0.510001 0.395234
O O3 0.605961 0.657878 0.822922
O O4 0.883563 0.052520 0.763191
O O5 0.160467 0.553402 0.035997
O O6 0.500000 0.000000 0.000000
O O7 0.736830 0.237862 0.204890
O O8 0.000000 0.500000 0.000000
O O9 0.423742 0.192051 0.601221
O O10 0.500000 0.500000 0.000000
O O11 0.219546 0.352398 0.050531
O O12 0.294646 0.676973 0.465623
O O13 0.604832 0.171964 0.694950
O O14 0.000000 0.500000 0.500000
#
# Coordination Sequence:
#
# PCOD9031810 Si02
#       6
#     2   2   2   2   2   2
#     4  11  24  45  69 101 143 185 233 292 346 424
#     4  11  25  44  68 105 142 182 237 285 351 419
#     4  12  23  42  73  98 140 187 225 286 355 416
#     4  10  22  43  69  99 138 181 233 288 346 414
#     4  10  23  41  65  97 135 176 231 283 341 419
#     4  10  22  43  68  94 130 179 232 288 344 400
#
# _framework density 22.564102999999999
#
# number of rings (size 3 to 8) (size 9 to 14) (size 15 to 20)
#    0.000    1.333    3.333    1.500    2.333    0.667 
#    0.000    1.667    0.000    0.000    0.000    0.000 
#    0.000    0.000    0.000    0.000    0.000    0.000 
#
# Total GULP energy -66948.283733 kJ/mol
# GULP energy per Si atom -5579.023644 kJ/mol
# Density = 2.251275 g / cm^3
# Si number density = 22.564103 Si / 1000 Ang^3
#
#
#
# Elastic Constant Matrix: (Units=GPa)
#
#
# Indices 1 2 3 4 5 6 
#
# 1 82.2418 37.5305 43.1291 -5.3262 -11.2000 -16.5234
# 2 37.5305 93.6095 64.2633 -4.6288 12.9650 -15.0457
# 3 43.1291 64.2633 164.8610 -10.0881 -29.1134 -13.7655
# 4 -5.3262 -4.6288 -10.0881 41.4460 -3.0949 -8.2460
# 5 -11.2000 12.9650 -29.1134 -3.0949 41.5363 -13.8376
# 6 -16.5234 -15.0457 -13.7655 -8.2460 -13.8376 46.8817
#
#
#
# Elastic Compliance Matrix: (Units=1/GPa)
#
#
# Indices 1 2 3 4 5 6 
#
# 1 0.019075 -0.008849 0.001650 0.004538 0.012334 0.008806
# 2 -0.008849 0.023317 -0.010818 -0.003621 -0.019223 -0.005123
# 3 0.001650 -0.010818 0.013487 0.004778 0.015823 0.006581
# 4 0.004538 -0.003621 0.004778 0.028318 0.011185 0.010122
# 5 0.012334 -0.019223 0.015823 0.011185 0.052039 0.020151
# 6 0.008806 -0.005123 0.006581 0.010122 0.020151 0.032450
#
#
# Mechanical properties :
#
#
# Convention : Reuss Voigt Hill
#
# Bulk Modulus (GPa) = 50.38962 70.06199 60.22580
# Shear Modulus (GPa) = 23.65903 39.02543 31.34223
#
# Velocity S-wave (km/s) = 3.24161 4.16328 3.73101
# Velocity P-wave (km/s) = 6.03249 7.36398 6.73124
#
# Compressibility (1/GPa) = 0.01984536
#
# Stress axis : x y z
#
# Youngs Moduli (GPa) = 52.42483 42.88680 74.14536
#
# Poissons Ratio (x) = 0.37951 -0.12237
# Poissons Ratio (y) = 0.46391 0.80212
# Poissons Ratio (z) = -0.08652 0.46396
#
# Static dielectric constant tensor:
#      x y z
#    x 1.906920 0.007470 0.011480 
#    y 0.007470 1.824250 0.024440 
#    z 0.011480 0.024440 1.942360 
# 
# From -- ./inp_files/466136.got.cif
#   From: 2010.05.17/outbox.cif.g08.bks.cpg/sg2_234_cif.got.tgz:466136.got - 2010.06.03 11:33:40.
