data_PCOD9031098
_publ_section_title
;
Structure prediction by ZEFSAII (Michael W. Deem and Ramdas Pophale) SiO2 
 PCOD9031098
Probable space group: P -1
;
_chemical_formula_sum "Si O2"
_cell_formula_units_Z 16
_cell_length_a 7.718601
_cell_length_b 17.697596
_cell_length_c 13.848245
_cell_angle_alpha 31.874313
_cell_angle_beta 123.833330
_cell_angle_gamma 103.487537
_cell_volume 695.047549
_symmetry_space_group_name_H-M "P -1"
_symmetry_group_IT_number 2
_symmetry_cell_setting 'triclinic'
loop_
_space_group_symop_operation_xyz
x,y,z
-x,-y,-z
loop_
_atom_site_type_symbol
_atom_site_label
_atom_site_fract_x
_atom_site_fract_y
_atom_site_fract_z
Si Si1 0.888179 0.765538 0.149192
Si Si2 0.810871 0.999544 0.022093
Si Si3 0.607799 0.699012 0.990362
Si Si4 0.364636 0.402101 0.092964
Si Si5 0.152574 0.052655 0.425261
Si Si6 0.450732 0.609108 0.465457
Si Si7 0.219165 0.588831 0.037582
Si Si8 0.160542 0.961077 0.316404
O O1 0.749769 0.874856 0.083868
O O2 0.185749 0.648377 0.381175
O O3 0.776284 0.669861 0.166053
O O4 0.842782 0.905612 0.902230
O O5 0.974461 0.916640 0.258309
O O6 0.609261 0.196990 0.771262
O O7 0.000000 0.000000 0.000000
O O8 0.748330 0.607126 0.034337
O O9 0.437670 0.902375 0.691863
O O10 0.411061 0.647698 0.008862
O O11 0.219209 0.493485 0.045407
O O12 0.577979 0.211034 0.397652
O O13 0.500000 0.500000 0.000000
O O14 0.071425 0.051879 0.292181
O O15 0.000000 0.000000 0.500000
O O16 0.055251 0.244353 0.213750
O O17 0.500000 0.500000 0.500000
O O18 0.664555 0.514877 0.714790
#
# Coordination Sequence:
#
# PCOD9031098 Si02
#       8
#     2   2   2   2   2   2   2   2
#     4  10  19  33  51  74 100 126 163 198 240 296
#     4   8  16  30  50  72  93 126 167 196 230 289
#     4   9  20  33  49  74 100 128 160 198 243 294
#     4   9  17  29  48  73  96 124 163 200 239 286
#     4   9  18  31  49  70  94 128 165 194 232 288
#     4  10  19  32  53  76  97 126 165 204 240 282
#     4  10  17  32  53  72  98 126 161 206 243 278
#     4   9  16  31  51  69  94 128 163 199 233 282
#
# _framework density 23.020009000000002
#
# number of rings (size 3 to 8) (size 9 to 14) (size 15 to 20)
#    0.000    3.000    0.000    4.500    0.000    2.500 
#    0.000    1.250    0.000    9.750    0.000    0.000 
#    0.000    0.000    0.000    0.000    0.000    0.000 
#
# Total GULP energy -89228.841304 kJ/mol
# GULP energy per Si atom -5576.802582 kJ/mol
# Density = 2.296761 g / cm^3
# Si number density = 23.020009 Si / 1000 Ang^3
#
#
#
# Elastic Constant Matrix: (Units=GPa)
#
#
# Indices 1 2 3 4 5 6 
#
# 1 45.7482 35.7135 22.6814 -7.5813 -0.9491 -3.1725
# 2 35.7135 191.1038 31.8900 -21.6107 21.7768 -30.1404
# 3 22.6814 31.8900 66.0128 -11.0700 11.8479 -10.7692
# 4 -7.5813 -21.6107 -11.0700 35.1859 -7.5356 10.1479
# 5 -0.9491 21.7768 11.8479 -7.5356 20.6430 -3.9242
# 6 -3.1725 -30.1404 -10.7692 10.1479 -3.9242 36.1328
#
#
#
# Elastic Compliance Matrix: (Units=1/GPa)
#
#
# Indices 1 2 3 4 5 6 
#
# 1 0.033066 -0.006399 -0.011131 0.004512 0.015288 -0.005359
# 2 -0.006399 0.008148 0.000683 0.000557 -0.008050 0.005408
# 3 -0.011131 0.000683 0.021775 0.000895 -0.012554 0.004468
# 4 0.004512 0.000557 0.000895 0.034344 0.010236 -0.007407
# 5 0.015288 -0.008050 -0.012554 0.010236 0.067698 -0.004637
# 6 -0.005359 0.005408 0.004468 -0.007407 -0.004637 0.034624
#
#
# Mechanical properties :
#
#
# Convention : Reuss Voigt Hill
#
# Bulk Modulus (GPa) = 34.13615 53.71493 43.92554
# Shear Modulus (GPa) = 20.56631 32.56434 26.56533
#
# Velocity S-wave (km/s) = 2.99224 3.76521 3.40076
# Velocity P-wave (km/s) = 5.17678 6.50285 5.87734
#
# Compressibility (1/GPa) = 0.02929446
#
# Stress axis : x y z
#
# Youngs Moduli (GPa) = 30.24231 122.73218 45.92339
#
# Poissons Ratio (x) = 0.78536 0.51119
# Poissons Ratio (y) = 0.19352 -0.03136
# Poissons Ratio (z) = 0.33664 -0.08381
#
# Static dielectric constant tensor:
#      x y z
#    x 1.806440 0.081410 -0.016630 
#    y 0.081410 1.920360 -0.044980 
#    z -0.016630 -0.044980 1.854990 
# 
# From -- ./inp_files/280912.got.cif
#   From: 2010.05.17/outbox.cif.g08.bks.cpg/sg2_141_cif.got.tgz:280912.got - 2010.06.03 11:33:40.
