data_PCOD9031317
_publ_section_title
;
Structure prediction by ZEFSAII (Michael W. Deem and Ramdas Pophale) SiO2 
 PCOD9031317
Probable space group: P -1
;
_chemical_formula_sum "Si O2"
_cell_formula_units_Z 16
_cell_length_a 25.469540
_cell_length_b 15.249082
_cell_length_c 5.641741
_cell_angle_alpha 79.489000
_cell_angle_beta 84.430220
_cell_angle_gamma 19.731116
_cell_volume 708.708996
_symmetry_space_group_name_H-M "P -1"
_symmetry_group_IT_number 2
_symmetry_cell_setting 'triclinic'
loop_
_space_group_symop_operation_xyz
x,y,z
-x,-y,-z
loop_
_atom_site_type_symbol
_atom_site_label
_atom_site_fract_x
_atom_site_fract_y
_atom_site_fract_z
Si Si1 0.917250 0.406456 0.498314
Si Si2 0.581085 0.641972 0.964713
Si Si3 0.960815 0.636135 0.252441
Si Si4 0.367850 0.637125 0.956270
Si Si5 0.187502 0.704071 0.585720
Si Si6 0.235346 0.198081 0.959719
Si Si7 0.655508 0.691243 0.584071
Si Si8 0.790024 0.138740 0.605911
O O1 0.043289 0.263619 0.663628
O O2 0.811773 0.648847 0.284188
O O3 0.804439 0.521263 0.645138
O O4 0.026706 0.175222 0.385876
O O5 0.601338 0.695734 0.768631
O O6 0.423446 0.907519 0.067240
O O7 0.556331 0.581440 0.916894
O O8 0.753738 0.363741 0.148464
O O9 0.000000 0.500000 0.500000
O O10 0.811489 0.827421 0.095984
O O11 0.112491 0.404306 0.127291
O O12 0.307784 0.729763 0.659605
O O13 0.500000 0.500000 0.000000
O O14 0.251542 0.838476 0.135255
O O15 0.279734 0.466968 0.593975
O O16 0.235330 0.715272 0.413383
O O17 0.000000 0.000000 0.500000
O O18 0.500000 0.000000 0.500000
#
# Coordination Sequence:
#
# PCOD9031317 Si02
#       8
#     2   2   2   2   2   2   2   2
#     4  11  24  40  70 103 140 189 244 307 366 457
#     4  11  26  43  73 101 145 193 238 312 375 445
#     4   9  22  41  64  98 138 187 237 296 370 442
#     4  11  26  47  72 108 145 198 250 311 374 453
#     4  11  25  47  67 100 143 192 246 303 377 448
#     4  10  22  43  66 103 142 186 239 305 378 446
#     4  12  25  45  70 105 142 185 250 305 372 445
#     4  11  25  46  73 105 145 194 253 305 381 445
#
# _framework density 22.576260000000001
#
# number of rings (size 3 to 8) (size 9 to 14) (size 15 to 20)
#    0.000    1.250    3.750    0.375    5.250    5.000 
#    0.000    0.000    0.000    0.000    0.000    0.000 
#    0.000    0.000    0.000    0.000    0.000    0.000 
#
# Total GULP energy -89106.494991 kJ/mol
# GULP energy per Si atom -5569.155937 kJ/mol
# Density = 2.252488 g / cm^3
# Si number density = 22.576260 Si / 1000 Ang^3
#
#
#
# Elastic Constant Matrix: (Units=GPa)
#
#
# Indices 1 2 3 4 5 6 
#
# 1 155.4965 39.9047 32.4884 -2.3192 -16.5863 1.9944
# 2 39.9047 109.0403 26.3180 7.6595 -8.7303 -3.6981
# 3 32.4884 26.3180 74.2324 6.8570 -16.9972 -14.0521
# 4 -2.3192 7.6595 6.8570 26.0635 -1.7674 -5.0059
# 5 -16.5863 -8.7303 -16.9972 -1.7674 28.0187 6.0075
# 6 1.9944 -3.6981 -14.0521 -5.0059 6.0075 34.4222
#
#
#
# Elastic Compliance Matrix: (Units=1/GPa)
#
#
# Indices 1 2 3 4 5 6 
#
# 1 0.007906 -0.002241 -0.002527 0.001849 0.002991 -0.001984
# 2 -0.002241 0.010823 -0.002561 -0.002722 0.000366 -0.000213
# 3 -0.002527 -0.002561 0.018554 -0.002741 0.007560 0.005727
# 4 0.001849 -0.002722 -0.002741 0.040912 0.000223 0.004392
# 5 0.002991 0.000366 0.007560 0.000223 0.043150 -0.004546
# 6 -0.001984 -0.000213 0.005727 0.004392 -0.004546 0.032913
#
#
# Mechanical properties :
#
#
# Convention : Reuss Voigt Hill
#
# Bulk Modulus (GPa) = 44.20161 59.57683 51.88922
# Shear Modulus (GPa) = 28.33534 33.70476 31.02005
#
# Velocity S-wave (km/s) = 3.54657 3.86804 3.71079
# Velocity P-wave (km/s) = 6.03260 6.81141 6.43380
#
# Compressibility (1/GPa) = 0.02262361
#
# Stress axis : x y z
#
# Youngs Moduli (GPa) = 126.48338 92.39970 53.89750
#
# Poissons Ratio (x) = 0.20708 0.13620
# Poissons Ratio (y) = 0.28346 0.13804
# Poissons Ratio (z) = 0.31964 0.23666
#
# Static dielectric constant tensor:
#      x y z
#    x 1.908150 0.008790 0.002350 
#    y 0.008790 1.954010 0.006970 
#    z 0.002350 0.006970 1.924010 
# 
# From -- ./inp_files/85379.got.cif
#   From: 2010.05.17/outbox.cif.g08.bks.cpg/sg2_43_cif.got.tgz:85379.got - 2010.06.03 11:33:40.
