data_PCOD9031288
_publ_section_title
;
Structure prediction by ZEFSAII (Michael W. Deem and Ramdas Pophale) SiO2 
 PCOD9031288
Probable space group: P -1
;
_chemical_formula_sum "Si O2"
_cell_formula_units_Z 16
_cell_length_a 13.068810
_cell_length_b 9.396606
_cell_length_c 8.010392
_cell_angle_alpha 95.476051
_cell_angle_beta 88.836031
_cell_angle_gamma 137.753463
_cell_volume 656.477885
_symmetry_space_group_name_H-M "P -1"
_symmetry_group_IT_number 2
_symmetry_cell_setting 'triclinic'
loop_
_space_group_symop_operation_xyz
x,y,z
-x,-y,-z
loop_
_atom_site_type_symbol
_atom_site_label
_atom_site_fract_x
_atom_site_fract_y
_atom_site_fract_z
Si Si1 0.378457 0.446940 0.769391
Si Si2 0.215740 0.573316 0.829002
Si Si3 0.255586 0.542369 0.180362
Si Si4 0.856541 0.956192 0.464809
Si Si5 0.945391 0.603493 0.524895
Si Si6 0.820958 0.851264 0.965340
Si Si7 0.684805 0.916642 0.761391
Si Si8 0.505250 0.997123 0.296567
O O1 0.320147 0.541503 0.833068
O O2 0.553970 0.658113 0.755509
O O3 0.282666 0.292110 0.599871
O O4 0.301834 0.270431 0.893893
O O5 0.096887 0.408406 0.668859
O O6 0.327623 0.806649 0.768133
O O7 0.174867 0.539476 0.023401
O O8 0.194895 0.534027 0.359285
O O9 0.231499 0.347368 0.152799
O O10 0.431390 0.775053 0.205171
O O11 0.937469 0.160654 0.371871
O O12 0.778936 0.982264 0.600863
O O13 0.000000 0.000000 0.500000
O O14 0.000000 0.500000 0.500000
O O15 0.805782 0.992423 0.903783
O O16 0.000000 0.000000 0.000000
O O17 0.604066 0.986013 0.763192
O O18 0.500000 0.000000 0.500000
#
# Coordination Sequence:
#
# PCOD9031288 Si02
#       8
#     2   2   2   2   2   2   2   2
#     4  10  22  43  66 100 136 182 236 294 350 426
#     4  10  23  43  70  96 141 183 233 298 354 423
#     4  11  24  45  71  98 134 190 232 290 366 417
#     4  12  23  41  68  97 136 186 240 288 362 421
#     4  12  25  43  64 100 140 184 243 296 354 426
#     4  11  24  45  70 103 143 185 233 299 359 428
#     4  11  25  42  70 102 139 185 238 296 357 431
#     4  11  23  46  71 101 144 186 237 295 357 432
#
# _framework density 24.372489999999999
#
# number of rings (size 3 to 8) (size 9 to 14) (size 15 to 20)
#    0.000    1.000    2.500    4.125    1.750    1.500 
#    4.500    0.000    0.000    0.000    0.000    0.000 
#    0.000    0.000    0.000    0.000    0.000    0.000 
#
# Total GULP energy -89137.701772 kJ/mol
# GULP energy per Si atom -5571.106361 kJ/mol
# Density = 2.431702 g / cm^3
# Si number density = 24.372490 Si / 1000 Ang^3
#
#
#
# Elastic Constant Matrix: (Units=GPa)
#
#
# Indices 1 2 3 4 5 6 
#
# 1 83.4866 10.5302 -2.9932 4.6811 5.8726 -5.0192
# 2 10.5302 118.7913 -1.6488 17.7901 1.4410 6.6640
# 3 -2.9932 -1.6488 51.8439 2.5596 15.5268 4.6264
# 4 4.6811 17.7901 2.5596 34.7409 -1.7424 -1.3825
# 5 5.8726 1.4410 15.5268 -1.7424 30.6003 -3.6005
# 6 -5.0192 6.6640 4.6264 -1.3825 -3.6005 31.6775
#
#
#
# Elastic Compliance Matrix: (Units=1/GPa)
#
#
# Indices 1 2 3 4 5 6 
#
# 1 0.012537 -0.000928 0.001537 -0.001418 -0.003040 0.001550
# 2 -0.000928 0.009429 0.001168 -0.004969 -0.001457 -0.002684
# 3 0.001537 0.001168 0.024048 -0.003453 -0.013359 -0.005183
# 4 -0.001418 -0.004969 -0.003453 0.032127 0.004468 0.003235
# 5 -0.003040 -0.001457 -0.013359 0.004468 0.041146 0.006648
# 6 0.001550 -0.002684 -0.005183 0.003235 0.006648 0.034032
#
#
# Mechanical properties :
#
#
# Convention : Reuss Voigt Hill
#
# Bulk Modulus (GPa) = 20.17478 29.54427 24.85952
# Shear Modulus (GPa) = 30.06812 35.95266 33.01039
#
# Velocity S-wave (km/s) = 3.51620 3.84491 3.68423
# Velocity P-wave (km/s) = 4.97801 5.64442 5.32165
#
# Compressibility (1/GPa) = 0.04956685
#
# Stress axis : x y z
#
# Youngs Moduli (GPa) = 79.76637 106.05616 41.58293
#
# Poissons Ratio (x) = 0.09838 -0.06390
# Poissons Ratio (y) = 0.07399 -0.04855
# Poissons Ratio (z) = -0.12257 -0.12382
#
# Static dielectric constant tensor:
#      x y z
#    x 1.923130 0.039820 0.108860 
#    y 0.039820 1.871470 -0.028810 
#    z 0.108860 -0.028810 2.502720 
# 
# From -- ./inp_files/244522.got.cif
#   From: 2010.05.17/outbox.cif.g08.bks.cpg/sg2_123_cif.got.tgz:244522.got - 2010.06.03 11:33:40.
