data_PCOD9031767
_publ_section_title
;
Structure prediction by ZEFSAII (Michael W. Deem and Ramdas Pophale) SiO2 
 PCOD9031767
Probable space group: P -1
;
_chemical_formula_sum "Si O2"
_cell_formula_units_Z 14
_cell_length_a 13.843429
_cell_length_b 7.249672
_cell_length_c 6.670403
_cell_angle_alpha 91.948932
_cell_angle_beta 115.347496
_cell_angle_gamma 101.795240
_cell_volume 586.606189
_symmetry_space_group_name_H-M "P -1"
_symmetry_group_IT_number 2
_symmetry_cell_setting 'triclinic'
loop_
_space_group_symop_operation_xyz
x,y,z
-x,-y,-z
loop_
_atom_site_type_symbol
_atom_site_label
_atom_site_fract_x
_atom_site_fract_y
_atom_site_fract_z
Si Si1 0.387967 0.920817 0.018715
Si Si2 0.046455 0.264844 0.461235
Si Si3 0.106792 0.936695 0.016399
Si Si4 0.665060 0.806916 0.712813
Si Si5 0.609139 0.507671 0.965984
Si Si6 0.935945 0.383382 0.751463
Si Si7 0.742314 0.854440 0.339821
O O1 0.392130 0.040428 0.230731
O O2 0.369204 0.699185 0.031823
O O3 0.500000 0.000000 0.000000
O O4 0.325317 0.183577 0.515145
O O5 0.107297 0.461671 0.409736
O O6 0.128164 0.126141 0.518157
O O7 0.937446 0.179410 0.228539
O O8 0.013619 0.311230 0.657130
O O9 0.207567 0.118394 0.098203
O O10 0.139510 0.797255 0.208401
O O11 0.000000 0.000000 0.000000
O O12 0.609083 0.604088 0.751839
O O13 0.706345 0.023230 0.198466
O O14 0.702116 0.662072 0.169354
O O15 0.500000 0.500000 0.000000
O O16 0.000000 0.500000 0.000000
#
# Coordination Sequence:
#
# PCOD9031767 Si02
#       7
#     2   2   2   2   2   2   2
#     4  11  25  50  72 103 143 183 241 308 370 420
#     4  10  22  43  68 104 144 192 240 287 350 427
#     4  11  23  41  66 100 151 185 231 289 348 424
#     4  11  26  45  75 109 138 194 239 292 367 433
#     4  11  25  50  71  99 146 183 235 311 364 422
#     4   9  22  39  67  96 145 191 238 287 348 410
#     4  11  25  43  78 109 137 191 246 286 369 434
#
# _framework density 23.866095000000001
#
# number of rings (size 3 to 8) (size 9 to 14) (size 15 to 20)
#    0.000    1.429    4.286    0.000    4.000   10.857 
#    0.000    0.000    0.000    0.857    0.000    0.000 
#    0.000    0.000    0.000    0.000    0.000    0.000 
#
# Total GULP energy -78339.019190 kJ/mol
# GULP energy per Si atom -5595.644228 kJ/mol
# Density = 2.381177 g / cm^3
# Si number density = 23.866095 Si / 1000 Ang^3
#
#
#
# Elastic Constant Matrix: (Units=GPa)
#
#
# Indices 1 2 3 4 5 6 
#
# 1 82.9492 33.7217 24.5870 -13.8580 -14.9480 -2.3593
# 2 33.7217 193.3408 54.8663 -34.2652 -19.0165 -4.9588
# 3 24.5870 54.8663 117.6949 -12.0226 -37.1728 -6.9777
# 4 -13.8580 -34.2652 -12.0226 44.2022 -0.6324 -6.8326
# 5 -14.9480 -19.0165 -37.1728 -0.6324 48.5534 1.6214
# 6 -2.3593 -4.9588 -6.9777 -6.8326 1.6214 43.7662
#
#
#
# Elastic Compliance Matrix: (Units=1/GPa)
#
#
# Indices 1 2 3 4 5 6 
#
# 1 0.013989 -0.001247 -0.000975 0.003331 0.003087 0.000863
# 2 -0.001247 0.006918 -0.002239 0.004533 0.000636 0.001044
# 3 -0.000975 -0.002239 0.012722 0.001802 0.008530 0.001687
# 4 0.003331 0.004533 0.001802 0.028550 0.004377 0.005276
# 5 0.003087 0.000636 0.008530 0.004377 0.028342 0.001232
# 6 0.000863 0.001044 0.001687 0.005276 0.001232 0.024060
#
#
# Mechanical properties :
#
#
# Convention : Reuss Voigt Hill
#
# Bulk Modulus (GPa) = 40.47264 68.92609 54.69937
# Shear Modulus (GPa) = 37.95420 46.02505 41.98962
#
# Velocity S-wave (km/s) = 3.99218 4.39620 4.19905
# Velocity P-wave (km/s) = 6.18426 7.39674 6.81751
#
# Compressibility (1/GPa) = 0.02470805
#
# Stress axis : x y z
#
# Youngs Moduli (GPa) = 71.48574 144.55701 78.60325
#
# Poissons Ratio (x) = 0.18029 0.07660
# Poissons Ratio (y) = 0.08915 0.17596
# Poissons Ratio (z) = 0.06967 0.32360
#
# Static dielectric constant tensor:
#      x y z
#    x 1.902330 0.033630 0.003140 
#    y 0.033630 1.957160 0.001100 
#    z 0.003140 0.001100 1.976250 
# 
# From -- ./inp_files/90564.got.cif
#   From: 2010.05.17/outbox.cif.g08.bks.cpg/sg2_46_cif.got.tgz:90564.got - 2010.06.03 11:33:40.
