data_PCOD9031093
_publ_section_title
;
Structure prediction by ZEFSAII (Michael W. Deem and Ramdas Pophale) SiO2 
 PCOD9031093
Probable space group: P -1
;
_chemical_formula_sum "Si O2"
_cell_formula_units_Z 16
_cell_length_a 5.089908
_cell_length_b 10.211687
_cell_length_c 16.141059
_cell_angle_alpha 87.694109
_cell_angle_beta 56.148075
_cell_angle_gamma 89.309941
_cell_volume 696.118064
_symmetry_space_group_name_H-M "P -1"
_symmetry_group_IT_number 2
_symmetry_cell_setting 'triclinic'
loop_
_space_group_symop_operation_xyz
x,y,z
-x,-y,-z
loop_
_atom_site_type_symbol
_atom_site_label
_atom_site_fract_x
_atom_site_fract_y
_atom_site_fract_z
Si Si1 0.945303 0.434258 0.101889
Si Si2 0.013908 0.367757 0.552611
Si Si3 0.103690 0.990468 0.658840
Si Si4 0.148084 0.832927 0.937541
Si Si5 0.404559 0.787554 0.497918
Si Si6 0.499211 0.723483 0.025609
Si Si7 0.384627 0.050028 0.776867
Si Si8 0.516358 0.347765 0.782905
O O1 0.756862 0.296149 0.129791
O O2 0.746961 0.540099 0.183142
O O3 0.000000 0.500000 0.000000
O O4 0.299551 0.383429 0.060423
O O5 0.835278 0.258593 0.530102
O O6 0.818299 0.377456 0.672150
O O7 0.000000 0.500000 0.500000
O O8 0.372757 0.328782 0.508563
O O9 0.217252 0.854798 0.603734
O O10 0.143981 0.999427 0.750086
O O11 0.748339 0.017487 0.692407
O O12 0.344856 0.103601 0.582008
O O13 0.304299 0.963287 0.873298
O O14 0.227245 0.169657 0.007077
O O15 0.237303 0.789893 0.015067
O O16 0.401798 0.666227 0.133210
O O17 0.381334 0.205818 0.783370
#
# Coordination Sequence:
#
# PCOD9031093 Si02
#       8
#     2   2   2   2   2   2   2   2
#     4   8  20  43  61  93 125 180 222 268 325 404
#     4  12  26  46  66 106 138 174 227 284 338 405
#     4  11  23  43  72  94 132 182 223 278 338 413
#     4  10  22  43  64  96 136 170 231 276 314 411
#     4  11  23  47  70  93 134 181 226 276 343 405
#     4   9  22  43  66  93 133 181 226 263 335 402
#     4  12  24  41  67 107 134 169 234 278 340 398
#     4  11  23  43  68  97 136 180 215 286 340 396
#
# _framework density 22.984604999999998
#
# number of rings (size 3 to 8) (size 9 to 14) (size 15 to 20)
#    0.750    0.750    2.500    1.875    0.000    9.000 
#    4.500    0.000    0.000    0.000    0.000    0.000 
#    0.000    0.000    0.000    0.000    0.000    0.000 
#
# Total GULP energy -89433.984146 kJ/mol
# GULP energy per Si atom -5589.624009 kJ/mol
# Density = 2.293229 g / cm^3
# Si number density = 22.984605 Si / 1000 Ang^3
#
#
#
# Elastic Constant Matrix: (Units=GPa)
#
#
# Indices 1 2 3 4 5 6 
#
# 1 78.8575 3.9091 7.3101 8.4570 -0.0907 -2.4095
# 2 3.9091 111.4399 60.3421 14.9047 -4.5946 -5.6447
# 3 7.3101 60.3421 70.2861 12.5100 3.9616 -8.0951
# 4 8.4570 14.9047 12.5100 39.7589 -2.9195 -4.7611
# 5 -0.0907 -4.5946 3.9616 -2.9195 27.6316 -3.7190
# 6 -2.4095 -5.6447 -8.0951 -4.7611 -3.7190 26.8742
#
#
#
# Elastic Compliance Matrix: (Units=1/GPa)
#
#
# Indices 1 2 3 4 5 6 
#
# 1 0.013066 0.000707 -0.001475 -0.002513 0.000167 0.000453
# 2 0.000707 0.017575 -0.015193 -0.001654 0.004869 -0.000441
# 3 -0.001475 -0.015193 0.028782 -0.003052 -0.006454 0.003913
# 4 -0.002513 -0.001654 -0.003052 0.028010 0.003649 0.003975
# 5 0.000167 0.004869 -0.006454 0.003649 0.039003 0.005138
# 6 0.000453 -0.000441 0.003913 0.003975 0.005138 0.039752
#
#
# Mechanical properties :
#
#
# Convention : Reuss Voigt Hill
#
# Bulk Modulus (GPa) = 36.36362 44.85622 40.60992
# Shear Modulus (GPa) = 24.12220 31.45443 27.78832
#
# Velocity S-wave (km/s) = 3.24310 3.70334 3.48084
# Velocity P-wave (km/s) = 5.46615 6.15178 5.81907
#
# Compressibility (1/GPa) = 0.02750001
#
# Stress axis : x y z
#
# Youngs Moduli (GPa) = 76.53198 56.90019 34.74422
#
# Poissons Ratio (x) = -0.04021 0.05126
# Poissons Ratio (y) = -0.05408 0.52785
# Poissons Ratio (z) = 0.11292 0.86446
#
# Static dielectric constant tensor:
#      x y z
#    x 1.851030 0.016180 0.018860 
#    y 0.016180 1.884480 0.032410 
#    z 0.018860 0.032410 1.884840 
# 
# From -- ./inp_files/548074.got.cif
#   From: 2010.05.17/outbox.cif.g08.bks.cpg/sg2_275_cif.got.tgz:548074.got - 2010.06.03 11:33:40.
