data_PCOD9031580
_publ_section_title
;
Structure prediction by ZEFSAII (Michael W. Deem and Ramdas Pophale) SiO2 
 PCOD9031580
Probable space group: P -1
;
_chemical_formula_sum "Si O2"
_cell_formula_units_Z 14
_cell_length_a 6.384458
_cell_length_b 12.539017
_cell_length_c 23.303663
_cell_angle_alpha 30.284820
_cell_angle_beta 80.386713
_cell_angle_gamma 60.383832
_cell_volume 658.889489
_symmetry_space_group_name_H-M "P -1"
_symmetry_group_IT_number 2
_symmetry_cell_setting 'triclinic'
loop_
_space_group_symop_operation_xyz
x,y,z
-x,-y,-z
loop_
_atom_site_type_symbol
_atom_site_label
_atom_site_fract_x
_atom_site_fract_y
_atom_site_fract_z
Si Si1 0.656382 0.663776 0.650297
Si Si2 0.260525 0.235113 0.758255
Si Si3 0.703391 0.150081 0.143577
Si Si4 0.827513 0.675617 0.866195
Si Si5 0.502449 0.696125 0.172301
Si Si6 0.045054 0.345461 0.892925
Si Si7 0.668831 0.205791 0.665125
O O1 0.477223 0.568130 0.696701
O O2 0.908167 0.489660 0.669639
O O3 0.799651 0.548521 0.760820
O O4 0.500000 0.000000 0.500000
O O5 0.393949 0.239948 0.807379
O O6 0.417933 0.265948 0.687669
O O7 0.332537 0.942609 0.872895
O O8 0.526335 0.122362 0.207919
O O9 0.500000 0.500000 0.000000
O O10 0.052084 0.922025 0.248035
O O11 0.949234 0.453088 0.912227
O O12 0.833926 0.922963 0.746651
O O13 0.000000 0.500000 0.000000
O O14 0.705257 0.650185 0.134014
O O15 0.171575 0.021052 0.028799
O O16 0.500000 0.500000 0.500000
#
# Coordination Sequence:
#
# PCOD9031580 Si02
#       7
#     2   2   2   2   2   2   2
#     4  11  25  43  68  99 134 183 232 283 352 417
#     4  10  24  42  70  94 135 179 230 282 351 410
#     4  11  23  40  69  99 132 181 230 279 344 417
#     4  11  23  41  65 101 136 175 235 282 349 418
#     4  10  22  43  67  94 132 175 227 286 345 403
#     4  10  23  40  64  99 131 173 227 288 342 408
#     4  11  25  42  64  99 142 181 223 289 353 411
#
# _framework density 21.247873999999999
#
# number of rings (size 3 to 8) (size 9 to 14) (size 15 to 20)
#    0.000    1.429    1.429    3.000    2.000   10.286 
#    0.000    0.000    0.000    0.000    0.000    0.000 
#    0.000    0.000    0.000    0.000    0.000    0.000 
#
# Total GULP energy -78012.576764 kJ/mol
# GULP energy per Si atom -5572.326912 kJ/mol
# Density = 2.119951 g / cm^3
# Si number density = 21.247874 Si / 1000 Ang^3
#
#
#
# Elastic Constant Matrix: (Units=GPa)
#
#
# Indices 1 2 3 4 5 6 
#
# 1 97.5808 36.7609 25.5816 -10.1641 -15.4246 10.2340
# 2 36.7609 106.9812 8.9849 -18.6638 -3.4831 4.6996
# 3 25.5816 8.9849 98.3473 -18.6949 -21.1821 23.8611
# 4 -10.1641 -18.6638 -18.6949 30.2279 3.2848 -4.3812
# 5 -15.4246 -3.4831 -21.1821 3.2848 21.6609 -5.2175
# 6 10.2340 4.6996 23.8611 -4.3812 -5.2175 39.7262
#
#
#
# Elastic Compliance Matrix: (Units=1/GPa)
#
#
# Indices 1 2 3 4 5 6 
#
# 1 0.013465 -0.004191 -0.001168 0.000226 0.007432 -0.001271
# 2 -0.004191 0.011837 0.001145 0.006664 -0.001072 -0.000414
# 3 -0.001168 0.001145 0.016270 0.008007 0.012338 -0.007104
# 4 0.000226 0.006664 0.008007 0.041845 0.002546 -0.000706
# 5 0.007432 -0.001072 0.012338 0.002546 0.062804 -0.000669
# 6 -0.001271 -0.000414 -0.007104 -0.000706 -0.000669 0.029650
#
#
# Mechanical properties :
#
#
# Convention : Reuss Voigt Hill
#
# Bulk Modulus (GPa) = 30.17088 49.50712 39.83900
# Shear Modulus (GPa) = 25.59557 33.76180 29.67868
#
# Velocity S-wave (km/s) = 3.47453 3.99049 3.74141
# Velocity P-wave (km/s) = 5.50697 6.67700 6.12001
#
# Compressibility (1/GPa) = 0.03314454
#
# Stress axis : x y z
#
# Youngs Moduli (GPa) = 74.26906 84.47746 61.46321
#
# Poissons Ratio (x) = 0.35409 0.07176
# Poissons Ratio (y) = 0.31130 -0.07040
# Poissons Ratio (z) = 0.08671 -0.09675
#
# Static dielectric constant tensor:
#      x y z
#    x 1.919940 0.016660 0.026520 
#    y 0.016660 1.811570 -0.013950 
#    z 0.026520 -0.013950 1.803960 
# 
# From -- ./inp_files/604395.got.cif
#   From: 2010.05.17/outbox.cif.g08.bks.cpg/sg2_303_cif.got.tgz:604395.got - 2010.06.03 11:33:40.
