data_PCOD9031217
_publ_section_title
;
Structure prediction by ZEFSAII (Michael W. Deem and Ramdas Pophale) SiO2 
 PCOD9031217
Probable space group: P -1
;
_chemical_formula_sum "Si O2"
_cell_formula_units_Z 16
_cell_length_a 14.982311
_cell_length_b 22.745512
_cell_length_c 5.586549
_cell_angle_alpha 130.002580
_cell_angle_beta 124.523969
_cell_angle_gamma 29.411587
_cell_volume 716.040097
_symmetry_space_group_name_H-M "P -1"
_symmetry_group_IT_number 2
_symmetry_cell_setting 'triclinic'
loop_
_space_group_symop_operation_xyz
x,y,z
-x,-y,-z
loop_
_atom_site_type_symbol
_atom_site_label
_atom_site_fract_x
_atom_site_fract_y
_atom_site_fract_z
Si Si1 0.044133 0.519976 0.371975
Si Si2 0.776523 0.210869 0.713236
Si Si3 0.551548 0.150744 0.781505
Si Si4 0.905754 0.997378 0.660437
Si Si5 0.612727 0.444341 0.280187
Si Si6 0.477551 0.946105 0.132213
Si Si7 0.266861 0.193957 0.234272
Si Si8 0.605399 0.615096 0.647088
O O1 0.254988 0.422939 0.417586
O O2 0.000000 0.500000 0.500000
O O3 0.923303 0.666211 0.597347
O O4 0.000000 0.500000 0.000000
O O5 0.824712 0.102982 0.623562
O O6 0.586708 0.301080 0.533000
O O7 0.750479 0.294935 0.079095
O O8 0.935913 0.140771 0.586840
O O9 0.741833 0.046663 0.665010
O O10 0.580847 0.100531 0.961994
O O11 0.413626 0.168985 0.506295
O O12 0.452246 0.289304 0.994513
O O13 0.000000 0.000000 0.000000
O O14 0.500000 0.500000 0.500000
O O15 0.692390 0.484990 0.518719
O O16 0.500000 0.500000 0.000000
O O17 0.500000 0.000000 0.500000
O O18 0.327275 0.072280 0.064541
O O19 0.678747 0.824483 0.007048
#
# Coordination Sequence:
#
# PCOD9031217 Si02
#       8
#     2   2   2   2   2   2   2   2
#     4  12  27  44  69 104 139 181 234 287 334 413
#     4  10  24  43  66  97 141 174 226 283 345 411
#     4  11  21  38  71  93 130 172 225 274 347 400
#     4  11  23  40  67 102 128 172 225 285 338 407
#     4  10  23  44  70  97 136 184 228 280 344 414
#     4   9  21  41  66  93 129 177 215 284 341 394
#     4  10  22  43  65  94 138 171 226 279 339 404
#     4  11  23  45  69  98 136 190 226 281 350 407
#
# _framework density 22.345116999999998
#
# number of rings (size 3 to 8) (size 9 to 14) (size 15 to 20)
#    0.000    1.500    2.500    1.500    7.000    2.000 
#    9.000    0.000    0.000    0.000    0.000    0.000 
#    0.000    0.000    0.000    0.000    0.000    0.000 
#
# Total GULP energy -89252.322065 kJ/mol
# GULP energy per Si atom -5578.270129 kJ/mol
# Density = 2.229426 g / cm^3
# Si number density = 22.345117 Si / 1000 Ang^3
#
#
#
# Elastic Constant Matrix: (Units=GPa)
#
#
# Indices 1 2 3 4 5 6 
#
# 1 115.2069 21.1903 32.8861 13.9900 -19.2143 -16.2003
# 2 21.1903 58.4389 22.4205 26.2052 -9.1111 -23.3564
# 3 32.8861 22.4205 127.3739 37.4727 -9.3009 -6.8023
# 4 13.9900 26.2052 37.4727 35.5304 -4.9119 -13.2896
# 5 -19.2143 -9.1111 -9.3009 -4.9119 44.0439 10.8374
# 6 -16.2003 -23.3564 -6.8023 -13.2896 10.8374 31.2194
#
#
#
# Elastic Compliance Matrix: (Units=1/GPa)
#
#
# Indices 1 2 3 4 5 6 
#
# 1 0.010474 -0.001728 -0.002372 0.001230 0.003091 0.003076
# 2 -0.001728 0.031474 0.000991 -0.017868 0.000239 0.015177
# 3 -0.002372 0.000991 0.012342 -0.014250 0.001245 -0.004298
# 4 0.001230 -0.017868 -0.014250 0.059383 -0.002045 0.010154
# 5 0.003091 0.000239 0.001245 -0.002045 0.026073 -0.007867
# 6 0.003076 0.015177 -0.004298 0.010154 -0.007867 0.051099
#
#
# Mechanical properties :
#
#
# Convention : Reuss Voigt Hill
#
# Bulk Modulus (GPa) = 20.80226 50.44592 35.62409
# Shear Modulus (GPa) = 23.46463 37.12691 30.29577
#
# Velocity S-wave (km/s) = 3.24404 4.08060 3.68613
# Velocity P-wave (km/s) = 4.83337 6.69526 5.83901
#
# Compressibility (1/GPa) = 0.04807171
#
# Stress axis : x y z
#
# Youngs Moduli (GPa) = 95.47776 31.77241 81.02162
#
# Poissons Ratio (x) = 0.05490 0.19217
# Poissons Ratio (y) = 0.16499 -0.08027
# Poissons Ratio (z) = 0.22645 -0.03148
#
# Static dielectric constant tensor:
#      x y z
#    x 1.881120 0.087220 -0.059370 
#    y 0.087220 1.908660 0.011650 
#    z -0.059370 0.011650 1.916170 
# 
# From -- ./inp_files/100971.got.cif
#   From: 2010.05.17/outbox.cif.g08.bks.cpg/sg2_51_cif.got.tgz:100971.got - 2010.06.03 11:33:40.
