data_PCOD9031587
_publ_section_title
;
Structure prediction by ZEFSAII (Michael W. Deem and Ramdas Pophale) SiO2 
 PCOD9031587
Probable space group: P -1
;
_chemical_formula_sum "Si O2"
_cell_formula_units_Z 12
_cell_length_a 19.115799
_cell_length_b 8.399703
_cell_length_c 7.067643
_cell_angle_alpha 65.857541
_cell_angle_beta 41.497998
_cell_angle_gamma 46.651043
_cell_volume 533.622350
_symmetry_space_group_name_H-M "P -1"
_symmetry_group_IT_number 2
_symmetry_cell_setting 'triclinic'
loop_
_space_group_symop_operation_xyz
x,y,z
-x,-y,-z
loop_
_atom_site_type_symbol
_atom_site_label
_atom_site_fract_x
_atom_site_fract_y
_atom_site_fract_z
Si Si1 0.111846 0.778425 0.268548
Si Si2 0.401953 0.245688 0.488559
Si Si3 0.064747 0.266715 0.583800
Si Si4 0.781058 0.672633 0.506619
Si Si5 0.356343 0.623274 0.634929
Si Si6 0.356815 0.918779 0.177325
O O1 0.167406 0.559358 0.389416
O O2 0.038099 0.780614 0.227460
O O3 0.237120 0.765442 0.957819
O O4 0.000000 0.000000 0.500000
O O5 0.276939 0.297374 0.598025
O O6 0.350072 0.434909 0.656026
O O7 0.500000 0.000000 0.500000
O O8 0.505350 0.237202 0.141244
O O9 0.105774 0.294567 0.696183
O O10 0.000000 0.500000 0.500000
O O11 0.212051 0.070134 0.288266
O O12 0.656260 0.883985 0.779226
O O13 0.500000 0.500000 0.500000
O O14 0.344963 0.774126 0.418321
#
# Coordination Sequence:
#
# PCOD9031587 Si02
#       6
#     2   2   2   2   2   2
#     4  11  24  45  70  96 133 175 221 270 330 393
#     4  12  24  41  69  99 132 176 222 268 331 390
#     4   8  20  41  67  91 130 172 216 270 325 385
#     4   9  21  43  67  95 128 174 216 272 321 392
#     4  12  27  42  66 100 134 174 222 273 330 387
#     4  10  22  43  67  94 138 168 218 271 330 385
#
# _framework density 22.487815000000001
#
# number of rings (size 3 to 8) (size 9 to 14) (size 15 to 20)
#    1.000    0.667    0.000    4.000    4.667    0.667 
#    0.000    1.667    0.000    0.000    0.000    0.000 
#    0.000    0.000    0.000    0.000    0.000    0.000 
#
# Total GULP energy -66986.725636 kJ/mol
# GULP energy per Si atom -5582.227136 kJ/mol
# Density = 2.243663 g / cm^3
# Si number density = 22.487815 Si / 1000 Ang^3
#
#
#
# Elastic Constant Matrix: (Units=GPa)
#
#
# Indices 1 2 3 4 5 6 
#
# 1 160.3652 24.3072 27.4658 5.9171 -12.6516 -27.9776
# 2 24.3072 110.7126 32.6552 3.3972 4.7024 -11.5625
# 3 27.4658 32.6552 80.5705 15.1501 -10.8550 6.3804
# 4 5.9171 3.3972 15.1501 31.6369 -1.5827 0.9131
# 5 -12.6516 4.7024 -10.8550 -1.5827 27.4552 4.9150
# 6 -27.9776 -11.5625 6.3804 0.9131 4.9150 24.6257
#
#
#
# Elastic Compliance Matrix: (Units=1/GPa)
#
#
# Indices 1 2 3 4 5 6 
#
# 1 0.008848 0.000384 -0.003983 -0.000090 0.000430 0.011182
# 2 0.000384 0.012140 -0.006853 0.001335 -0.006162 0.009093
# 3 -0.003983 -0.006853 0.020389 -0.007380 0.009600 -0.014667
# 4 -0.000090 0.001335 -0.007380 0.034903 -0.001432 0.001428
# 5 0.000430 -0.006162 0.009600 -0.001432 0.043821 -0.013586
# 6 0.011182 0.009093 -0.014667 0.001428 -0.013586 0.064040
#
#
# Mechanical properties :
#
#
# Convention : Reuss Voigt Hill
#
# Bulk Modulus (GPa) = 48.84052 57.83386 53.33719
# Shear Modulus (GPa) = 23.59969 34.55823 29.07896
#
# Velocity S-wave (km/s) = 3.24303 3.92440 3.59987
# Velocity P-wave (km/s) = 5.98237 6.80501 6.40691
#
# Compressibility (1/GPa) = 0.02047480
#
# Stress axis : x y z
#
# Youngs Moduli (GPa) = 113.02455 82.37549 49.04611
#
# Poissons Ratio (x) = -0.03167 0.19533
# Poissons Ratio (y) = -0.04346 0.33609
# Poissons Ratio (z) = 0.45013 0.56448
#
# Static dielectric constant tensor:
#      x y z
#    x 1.883480 0.005190 -0.002170 
#    y 0.005190 1.794640 -0.005990 
#    z -0.002170 -0.005990 1.865270 
# 
# From -- ./inp_files/103785.got.cif
#   From: 2010.05.17/outbox.cif.g08.bks.cpg/sg2_52_cif.got.tgz:103785.got - 2010.06.03 11:33:40.
