data_PCOD9031640
_publ_section_title
;
Structure prediction by ZEFSAII (Michael W. Deem and Ramdas Pophale) SiO2 
 PCOD9031640
Probable space group: P -1
;
_chemical_formula_sum "Si O2"
_cell_formula_units_Z 12
_cell_length_a 14.910063
_cell_length_b 17.758022
_cell_length_c 8.770697
_cell_angle_alpha 57.536413
_cell_angle_beta 135.890192
_cell_angle_gamma 157.025809
_cell_volume 560.996093
_symmetry_space_group_name_H-M "P -1"
_symmetry_group_IT_number 2
_symmetry_cell_setting 'triclinic'
loop_
_space_group_symop_operation_xyz
x,y,z
-x,-y,-z
loop_
_atom_site_type_symbol
_atom_site_label
_atom_site_fract_x
_atom_site_fract_y
_atom_site_fract_z
Si Si1 0.067773 0.069099 0.760932
Si Si2 0.571143 0.800245 0.701018
Si Si3 0.976025 0.461726 0.838354
Si Si4 0.156791 0.239435 0.381799
Si Si5 0.315439 0.736748 0.706654
Si Si6 0.362117 0.930954 0.075991
O O1 0.141110 0.180211 0.590483
O O2 0.358694 0.231073 0.053265
O O3 0.819384 0.953048 0.703202
O O4 0.924689 0.887934 0.706826
O O5 0.240979 0.597459 0.433156
O O6 0.567942 0.882065 0.724340
O O7 0.800979 0.257707 0.844685
O O8 0.301697 0.667481 0.919767
O O9 0.000000 0.500000 0.000000
O O10 0.500000 0.500000 0.500000
O O11 0.894643 0.151828 0.153000
O O12 0.000000 0.500000 0.500000
O O13 0.364528 0.863897 0.699838
O O14 0.500000 0.000000 0.000000
#
# Coordination Sequence:
#
# PCOD9031640 Si02
#       6
#     2   2   2   2   2   2
#     4  10  23  46  68  89 144 177 228 283 339 416
#     4  10  22  43  67  97 134 185 219 282 356 399
#     4  11  24  40  71  99 138 180 229 287 349 409
#     4  11  26  42  71 101 131 185 233 283 342 415
#     4  10  23  42  64 101 134 178 225 283 354 398
#     4  12  24  42  69 103 137 176 236 284 343 417
#
# _framework density 21.390523999999999
#
# number of rings (size 3 to 8) (size 9 to 14) (size 15 to 20)
#    0.000    1.333    3.333    1.000    4.667    2.667 
#    0.000    5.000    0.000    0.000    0.000    0.000 
#    0.000    0.000    0.000    0.000    0.000    0.000 
#
# Total GULP energy -66813.817587 kJ/mol
# GULP energy per Si atom -5567.818132 kJ/mol
# Density = 2.134184 g / cm^3
# Si number density = 21.390524 Si / 1000 Ang^3
#
#
#
# Elastic Constant Matrix: (Units=GPa)
#
#
# Indices 1 2 3 4 5 6 
#
# 1 160.8740 58.9094 37.9249 0.8564 -22.3948 22.2034
# 2 58.9094 138.2006 41.7925 -2.6286 -2.7372 -6.5551
# 3 37.9249 41.7925 124.4061 -1.2941 -10.6259 7.5969
# 4 0.8564 -2.6286 -1.2941 25.2659 5.1870 -11.2698
# 5 -22.3948 -2.7372 -10.6259 5.1870 36.0103 -3.6108
# 6 22.2034 -6.5551 7.5969 -11.2698 -3.6108 37.1719
#
#
#
# Elastic Compliance Matrix: (Units=1/GPa)
#
#
# Indices 1 2 3 4 5 6 
#
# 1 0.009806 -0.004333 -0.000650 -0.005338 0.005588 -0.007564
# 2 -0.004333 0.010197 -0.002657 0.004292 -0.002724 0.005966
# 3 -0.000650 -0.002657 0.009430 -0.001170 0.002129 -0.002155
# 4 -0.005338 0.004292 -0.001170 0.050214 -0.008710 0.018562
# 5 0.005588 -0.002724 0.002129 -0.008710 0.032546 -0.003732
# 6 -0.007564 0.005966 -0.002155 0.018562 -0.003732 0.038178
#
#
# Mechanical properties :
#
#
# Convention : Reuss Voigt Hill
#
# Bulk Modulus (GPa) = 70.65523 77.85936 74.25730
# Shear Modulus (GPa) = 29.34792 38.67989 34.01390
#
# Velocity S-wave (km/s) = 3.70808 4.25699 3.99198
# Velocity P-wave (km/s) = 7.17188 7.78721 7.48587
#
# Compressibility (1/GPa) = 0.01415323
#
# Stress axis : x y z
#
# Youngs Moduli (GPa) = 101.97594 98.06812 106.04215
#
# Poissons Ratio (x) = 0.42493 0.06894
# Poissons Ratio (y) = 0.44187 0.28175
# Poissons Ratio (z) = 0.06630 0.26056
#
# Static dielectric constant tensor:
#      x y z
#    x 1.910670 0.069580 0.051550 
#    y 0.069580 1.837890 0.057500 
#    z 0.051550 0.057500 1.886660 
# 
# From -- ./inp_files/103176.got.cif
#   From: 2010.05.17/outbox.cif.g08.bks.cpg/sg2_52_cif.got.tgz:103176.got - 2010.06.03 11:33:40.
