data_PCOD9031896
_publ_section_title
;
Structure prediction by ZEFSAII (Michael W. Deem and Ramdas Pophale) SiO2 
 PCOD9031896
Probable space group: P -1
;
_chemical_formula_sum "Si O2"
_cell_formula_units_Z 15
_cell_length_a 10.876249
_cell_length_b 11.626657
_cell_length_c 9.659160
_cell_angle_alpha 50.576676
_cell_angle_beta 73.534293
_cell_angle_gamma 112.938020
_cell_volume 578.327560
_symmetry_space_group_name_H-M "P -1"
_symmetry_group_IT_number 2
_symmetry_cell_setting 'triclinic'
loop_
_space_group_symop_operation_xyz
x,y,z
-x,-y,-z
loop_
_atom_site_type_symbol
_atom_site_label
_atom_site_fract_x
_atom_site_fract_y
_atom_site_fract_z
Si Si1 0.820640 0.591142 0.687603
Si Si2 0.862749 0.649183 0.154085
Si Si3 0.876299 0.337115 0.294136
Si Si4 0.787693 0.751906 0.815947
Si Si5 0.765282 0.979093 0.858267
Si Si6 0.500000 0.500000 0.500000
Si Si7 0.309740 0.110488 0.747388
Si Si8 0.497314 0.949481 0.825117
O O1 0.704450 0.600145 0.819991
O O2 0.986597 0.663241 0.680304
O O3 0.993122 0.804548 0.363603
O O4 0.676940 0.327864 0.892711
O O5 0.857391 0.466330 0.296125
O O6 0.701487 0.568582 0.372572
O O7 0.823919 0.669202 0.993728
O O8 0.086182 0.899898 0.929092
O O9 0.649459 0.076143 0.547453
O O10 0.000000 0.500000 0.000000
O O11 0.707646 0.825790 0.864543
O O12 0.000000 0.000000 0.500000
O O13 0.656185 0.040457 0.825205
O O14 0.671629 0.819416 0.147873
O O15 0.425672 0.357982 0.471861
O O16 0.403723 0.030388 0.780116
#
# Coordination Sequence:
#
# PCOD9031896 Si02
#       8
#     2   2   2   2   2   1   2   2
#     4  10  22  43  68  98 132 183 228 282 345 399
#     4  12  24  46  72  99 137 182 224 288 347 403
#     4  11  22  42  66  99 139 172 230 290 335 408
#     4  10  22  45  68  96 137 177 228 283 340 406
#     4  10  24  43  65  99 142 178 228 284 335 410
#     4  12  26  44  66 106 140 172 232 282 340 418
#     4  12  25  45  71 101 136 183 229 283 342 408
#     4  11  24  43  67 103 135 182 231 277 347 404
#
# _framework density 25.936857
#
# number of rings (size 3 to 8) (size 9 to 14) (size 15 to 20)
#    0.000    1.067    5.333    0.800    0.000    2.667 
#    4.800    0.000    0.000    0.000    0.000    0.000 
#    0.000    0.000    0.000    0.000    0.000    0.000 
#
# Total GULP energy -83579.108572 kJ/mol
# GULP energy per Si atom -5571.940571 kJ/mol
# Density = 2.587782 g / cm^3
# Si number density = 25.936857 Si / 1000 Ang^3
#
#
#
# Elastic Constant Matrix: (Units=GPa)
#
#
# Indices 1 2 3 4 5 6 
#
# 1 67.6519 35.8230 29.4230 9.1908 -14.2423 -25.3858
# 2 35.8230 86.1754 41.7472 -14.3797 -12.9189 -20.0006
# 3 29.4230 41.7472 166.5640 -10.3071 -20.2501 3.6177
# 4 9.1908 -14.3797 -10.3071 49.9587 1.5133 -1.0488
# 5 -14.2423 -12.9189 -20.2501 1.5133 51.0765 -5.9444
# 6 -25.3858 -20.0006 3.6177 -1.0488 -5.9444 45.8377
#
#
#
# Elastic Compliance Matrix: (Units=1/GPa)
#
#
# Indices 1 2 3 4 5 6 
#
# 1 0.026946 -0.007157 -0.002951 -0.007549 0.006232 0.012668
# 2 -0.007157 0.018312 -0.002824 0.006045 0.001876 0.004631
# 3 -0.002951 -0.002824 0.007501 0.001177 0.001018 -0.003299
# 4 -0.007549 0.006045 0.001177 0.023391 -0.000944 -0.001223
# 5 0.006232 0.001876 0.001018 -0.000944 0.023055 0.007158
# 6 0.012668 0.004631 -0.003299 -0.001223 0.007158 0.032013
#
#
# Mechanical properties :
#
#
# Convention : Reuss Voigt Hill
#
# Bulk Modulus (GPa) = 37.18050 59.37530 48.27790
# Shear Modulus (GPa) = 30.11184 43.60113 36.85648
#
# Velocity S-wave (km/s) = 3.41099 4.10451 3.77372
# Velocity P-wave (km/s) = 5.46620 6.73829 6.13530
#
# Compressibility (1/GPa) = 0.02689582
#
# Stress axis : x y z
#
# Youngs Moduli (GPa) = 37.11151 54.60803 133.31583
#
# Poissons Ratio (x) = 0.39083 0.39338
# Poissons Ratio (y) = 0.26561 0.37647
# Poissons Ratio (z) = 0.10951 0.15421
#
# Static dielectric constant tensor:
#      x y z
#    x 2.056370 -0.029050 0.044150 
#    y -0.029050 2.151390 -0.033490 
#    z 0.044150 -0.033490 2.538200 
# 
# From -- ./inp_files/67121.got.cif
#   From: 2010.05.17/outbox.cif.g08.bks.cpg/sg2_34_cif.got.tgz:67121.got - 2010.06.03 11:33:40.
