data_PCOD9031611
_publ_section_title
;
Structure prediction by ZEFSAII (Michael W. Deem and Ramdas Pophale) SiO2 
 PCOD9031611
Probable space group: P -1
;
_chemical_formula_sum "Si O2"
_cell_formula_units_Z 14
_cell_length_a 5.051200
_cell_length_b 24.295003
_cell_length_c 16.138078
_cell_angle_alpha 161.177233
_cell_angle_beta 101.230049
_cell_angle_gamma 80.449544
_cell_volume 625.678533
_symmetry_space_group_name_H-M "P -1"
_symmetry_group_IT_number 2
_symmetry_cell_setting 'triclinic'
loop_
_space_group_symop_operation_xyz
x,y,z
-x,-y,-z
loop_
_atom_site_type_symbol
_atom_site_label
_atom_site_fract_x
_atom_site_fract_y
_atom_site_fract_z
Si Si1 0.756084 0.991722 0.370788
Si Si2 0.829358 0.056240 0.805507
Si Si3 0.765484 0.396737 0.386934
Si Si4 0.065277 0.727495 0.431029
Si Si5 0.434392 0.471458 0.830394
Si Si6 0.193226 0.256592 0.832674
Si Si7 0.979514 0.413036 0.608246
O O1 0.460268 0.005909 0.337148
O O2 0.715718 0.890741 0.310874
O O3 0.955033 0.889236 0.176282
O O4 0.931967 0.168774 0.646947
O O5 0.969742 0.901374 0.637627
O O6 0.760001 0.208384 0.079052
O O7 0.500000 0.500000 0.500000
O O8 0.000000 0.500000 0.500000
O O9 0.857800 0.390363 0.478758
O O10 0.109312 0.737389 0.547357
O O11 0.340779 0.658551 0.316606
O O12 0.822699 0.577802 0.197401
O O13 0.302779 0.431736 0.673516
O O14 0.587910 0.655538 0.091213
O O15 0.115980 0.411877 0.107914
#
# Coordination Sequence:
#
# PCOD9031611 Si02
#       7
#     2   2   2   2   2   2   2
#     4  11  27  39  68  94 135 171 210 265 330 375
#     4  12  25  46  61  99 136 165 211 269 318 388
#     4  12  27  42  68  98 129 169 208 264 327 379
#     4   9  21  40  66  89 130 170 215 258 318 373
#     4   9  20  38  67  91 123 166 219 262 301 384
#     4  10  22  43  67  96 127 172 218 264 318 386
#     4   9  22  41  68  93 124 170 217 259 313 378
#
# _framework density 22.375705
#
# number of rings (size 3 to 8) (size 9 to 14) (size 15 to 20)
#    0.857    0.857    0.000    3.429   10.000    1.714 
#    0.000   10.714    0.000    0.000    0.000    0.000 
#    0.000    0.000    0.000    0.000    0.000    0.000 
#
# Total GULP energy -78149.142972 kJ/mol
# GULP energy per Si atom -5582.081641 kJ/mol
# Density = 2.232478 g / cm^3
# Si number density = 22.375705 Si / 1000 Ang^3
#
#
#
# Elastic Constant Matrix: (Units=GPa)
#
#
# Indices 1 2 3 4 5 6 
#
# 1 121.1531 36.9801 20.8356 4.7986 -11.5787 -36.2671
# 2 36.9801 121.8149 50.7034 -8.0022 0.3933 -21.5350
# 3 20.8356 50.7034 106.3451 -3.1608 -10.1366 -19.5276
# 4 4.7986 -8.0022 -3.1608 24.2752 7.1669 6.6128
# 5 -11.5787 0.3933 -10.1366 7.1669 28.1733 2.2348
# 6 -36.2671 -21.5350 -19.5276 6.6128 2.2348 37.6291
#
#
#
# Elastic Compliance Matrix: (Units=1/GPa)
#
#
# Indices 1 2 3 4 5 6 
#
# 1 0.014331 -0.003284 0.001822 -0.009888 0.007985 0.014142
# 2 -0.003284 0.011779 -0.005227 0.005185 -0.004732 0.000233
# 3 0.001822 -0.005227 0.013075 -0.003751 0.006016 0.005852
# 4 -0.009888 0.005185 -0.003751 0.054296 -0.017951 -0.016985
# 5 0.007985 -0.004732 0.006016 -0.017951 0.044891 0.008598
# 6 0.014142 0.000233 0.005852 -0.016985 0.008598 0.045850
#
#
# Mechanical properties :
#
#
# Convention : Reuss Voigt Hill
#
# Bulk Modulus (GPa) = 38.74866 62.92792 50.83829
# Shear Modulus (GPa) = 24.24800 34.06846 29.15823
#
# Velocity S-wave (km/s) = 3.29549 3.90624 3.61379
# Velocity P-wave (km/s) = 5.64227 6.96630 6.33895
#
# Compressibility (1/GPa) = 0.02580734
#
# Stress axis : x y z
#
# Youngs Moduli (GPa) = 69.77697 84.89829 76.48283
#
# Poissons Ratio (x) = 0.27883 -0.13936
# Poissons Ratio (y) = 0.22917 0.39975
# Poissons Ratio (z) = -0.12714 0.44373
#
# Static dielectric constant tensor:
#      x y z
#    x 1.871270 0.024470 -0.054390 
#    y 0.024470 1.865750 -0.034700 
#    z -0.054390 -0.034700 1.886350 
# 
# From -- ./inp_files/65809.got.cif
#   From: 2010.05.17/outbox.cif.g08.bks.cpg/sg2_33_cif.got.tgz:65809.got - 2010.06.03 11:33:40.
