data_PCOD9031069
_publ_section_title
;
Structure prediction by ZEFSAII (Michael W. Deem and Ramdas Pophale) SiO2 
 PCOD9031069
Probable space group: P -1
;
_chemical_formula_sum "Si O2"
_cell_formula_units_Z 14
_cell_length_a 8.312848
_cell_length_b 14.528912
_cell_length_c 8.805881
_cell_angle_alpha 67.949750
_cell_angle_beta 49.424471
_cell_angle_gamma 102.247337
_cell_volume 570.136479
_symmetry_space_group_name_H-M "P -1"
_symmetry_group_IT_number 2
_symmetry_cell_setting 'triclinic'
loop_
_space_group_symop_operation_xyz
x,y,z
-x,-y,-z
loop_
_atom_site_type_symbol
_atom_site_label
_atom_site_fract_x
_atom_site_fract_y
_atom_site_fract_z
Si Si1 0.772085 0.365738 0.519936
Si Si2 0.546735 0.355827 0.354643
Si Si3 0.529880 0.078061 0.784964
Si Si4 0.172169 0.990215 0.517760
Si Si5 0.018026 0.878343 0.999507
Si Si6 0.231619 0.734592 0.960467
Si Si7 0.759570 0.539336 0.615031
O O1 0.733793 0.413798 0.356005
O O2 0.608361 0.212997 0.698921
O O3 0.646206 0.401365 0.703084
O O4 0.086372 0.431959 0.337143
O O5 0.693285 0.328945 0.161719
O O6 0.447744 0.431645 0.300164
O O7 0.263228 0.216912 0.674108
O O8 0.779189 0.104957 0.518491
O O9 0.262710 0.985836 0.896890
O O10 0.500000 0.000000 0.000000
O O11 0.473979 0.132889 0.248871
O O12 0.038919 0.948875 0.791281
O O13 0.000000 0.000000 0.500000
O O14 0.079973 0.785906 0.957617
O O15 0.027216 0.641412 0.278870
#
# Coordination Sequence:
#
# PCOD9031069 Si02
#       7
#     2   2   2   2   2   2   2
#     4  11  23  43  69  92 132 176 216 272 325 380
#     4  11  23  42  73  94 127 176 219 262 336 386
#     4  11  23  41  67  96 130 171 213 267 334 389
#     4  11  24  37  61  98 131 166 212 266 330 396
#     4  10  23  42  61  98 136 163 211 274 327 396
#     4  10  22  43  64  93 132 166 214 273 319 389
#     4  10  25  46  63  95 134 169 225 275 311 385
#
# _framework density 24.555523000000001
#
# number of rings (size 3 to 8) (size 9 to 14) (size 15 to 20)
#    0.000    1.429    0.000    6.429    8.000    1.714 
#    0.000    4.286    0.000    0.000    0.000    0.000 
#    0.000    0.000    0.000    0.000    0.000    0.000 
#
# Total GULP energy -78394.389875 kJ/mol
# GULP energy per Si atom -5599.599277 kJ/mol
# Density = 2.449963 g / cm^3
# Si number density = 24.555523 Si / 1000 Ang^3
#
#
#
# Elastic Constant Matrix: (Units=GPa)
#
#
# Indices 1 2 3 4 5 6 
#
# 1 172.5658 60.2328 42.5168 7.2262 16.8030 -6.5675
# 2 60.2328 162.2918 41.2219 4.0264 -13.3010 -21.9388
# 3 42.5168 41.2219 116.8347 12.7560 -4.6921 -8.8595
# 4 7.2262 4.0264 12.7560 35.2967 -2.6849 -3.1689
# 5 16.8030 -13.3010 -4.6921 -2.6849 28.3074 3.6780
# 6 -6.5675 -21.9388 -8.8595 -3.1689 3.6780 37.2041
#
#
#
# Elastic Compliance Matrix: (Units=1/GPa)
#
#
# Indices 1 2 3 4 5 6 
#
# 1 0.008020 -0.003014 -0.002022 -0.001094 -0.006579 -0.000286
# 2 -0.003014 0.008576 -0.001540 0.000923 0.005167 0.003726
# 3 -0.002022 -0.001540 0.010287 -0.002923 0.001806 0.000757
# 4 -0.001094 0.000923 -0.002923 0.029918 0.003191 0.001888
# 5 -0.006579 0.005167 0.001806 0.003191 0.042471 -0.001611
# 6 -0.000286 0.003726 0.000757 0.001888 -0.001611 0.029526
#
#
# Mechanical properties :
#
#
# Convention : Reuss Voigt Hill
#
# Bulk Modulus (GPa) = 72.81891 82.18170 77.50030
# Shear Modulus (GPa) = 34.12358 40.67637 37.39997
#
# Velocity S-wave (km/s) = 3.73185 4.07443 3.90690
# Velocity P-wave (km/s) = 6.94896 7.46157 7.20982
#
# Compressibility (1/GPa) = 0.01373270
#
# Stress axis : x y z
#
# Youngs Moduli (GPa) = 124.68070 116.60993 97.20877
#
# Poissons Ratio (x) = 0.35144 0.19654
# Poissons Ratio (y) = 0.37577 0.14966
# Poissons Ratio (z) = 0.25208 0.17953
#
# Static dielectric constant tensor:
#      x y z
#    x 1.986030 -0.020940 0.019150 
#    y -0.020940 1.995480 0.022760 
#    z 0.019150 0.022760 2.005940 
# 
# From -- ./inp_files/204557.got.cif
#   From: 2010.05.17/outbox.cif.g08.bks.cpg/sg2_103_cif.got.tgz:204557.got - 2010.06.03 11:33:40.
