data_PCOD9031556
_publ_section_title
;
Structure prediction by ZEFSAII (Michael W. Deem and Ramdas Pophale) SiO2 
 PCOD9031556
Probable space group: P -1
;
_chemical_formula_sum "Si O2"
_cell_formula_units_Z 14
_cell_length_a 9.235986
_cell_length_b 22.023243
_cell_length_c 21.988428
_cell_angle_alpha 18.373151
_cell_angle_beta 151.081082
_cell_angle_gamma 149.824324
_cell_volume 664.752904
_symmetry_space_group_name_H-M "P -1"
_symmetry_group_IT_number 2
_symmetry_cell_setting 'triclinic'
loop_
_space_group_symop_operation_xyz
x,y,z
-x,-y,-z
loop_
_atom_site_type_symbol
_atom_site_label
_atom_site_fract_x
_atom_site_fract_y
_atom_site_fract_z
Si Si1 0.666361 0.131109 0.529260
Si Si2 0.683547 0.885785 0.461079
Si Si3 0.325809 0.506498 0.241998
Si Si4 0.670166 0.599045 0.907541
Si Si5 0.759938 0.528274 0.618668
Si Si6 0.789335 0.736915 0.995695
Si Si7 0.743518 0.866101 0.990816
O O1 0.561747 0.176321 0.515672
O O2 0.409147 0.190209 0.335253
O O3 0.980871 0.275657 0.486801
O O4 0.704889 0.908359 0.760379
O O5 0.734848 0.696531 0.624220
O O6 0.532258 0.024005 0.230310
O O7 0.000000 0.000000 0.500000
O O8 0.371669 0.465737 0.368262
O O9 0.605809 0.662914 0.167748
O O10 0.022762 0.596013 0.041951
O O11 0.500000 0.500000 0.000000
O O12 0.503724 0.447738 0.937766
O O13 0.500000 0.500000 0.500000
O O14 0.933026 0.347944 0.848112
O O15 0.860090 0.817400 0.013278
O O16 0.000000 0.000000 0.000000
#
# Coordination Sequence:
#
# PCOD9031556 Si02
#       7
#     2   2   2   2   2   2   2
#     4  10  22  43  67  92 135 170 219 277 331 394
#     4  11  25  46  72 103 129 181 229 278 344 397
#     4  12  24  43  71  99 138 171 225 286 326 408
#     4  11  21  42  63 104 130 171 220 268 347 393
#     4  11  26  42  64 100 134 183 219 266 345 396
#     4  10  23  45  67  94 137 176 218 281 333 397
#     4  11  27  45  69 101 133 179 234 276 337 401
#
# _framework density 21.060457
#
# number of rings (size 3 to 8) (size 9 to 14) (size 15 to 20)
#    0.000    1.143    2.857    4.286    6.000    4.571 
#    2.571    0.000    0.000    0.000    0.000    0.000 
#    0.000    0.000    0.000    0.000    0.000    0.000 
#
# Total GULP energy -78296.982722 kJ/mol
# GULP energy per Si atom -5592.641623 kJ/mol
# Density = 2.101252 g / cm^3
# Si number density = 21.060457 Si / 1000 Ang^3
#
#
#
# Elastic Constant Matrix: (Units=GPa)
#
#
# Indices 1 2 3 4 5 6 
#
# 1 94.0363 30.7662 39.2060 -14.5579 -16.6116 -16.7139
# 2 30.7662 110.1926 42.3946 0.2374 -4.0972 -33.4336
# 3 39.2060 42.3946 132.3535 -11.5019 -7.6292 -4.7443
# 4 -14.5579 0.2374 -11.5019 33.7634 -0.1324 -5.0682
# 5 -16.6116 -4.0972 -7.6292 -0.1324 32.3740 2.5385
# 6 -16.7139 -33.4336 -4.7443 -5.0682 2.5385 23.5639
#
#
#
# Elastic Compliance Matrix: (Units=1/GPa)
#
#
# Indices 1 2 3 4 5 6 
#
# 1 0.016691 0.001194 -0.003746 0.008006 0.006786 0.013770
# 2 0.001194 0.019092 -0.005269 0.002712 -0.000358 0.027497
# 3 -0.003746 -0.005269 0.010151 0.000682 0.000432 -0.007989
# 4 0.008006 0.002712 0.000682 0.035849 0.003425 0.017005
# 5 0.006786 -0.000358 0.000432 0.003425 0.034329 0.001431
# 6 0.013770 0.027497 -0.007989 0.017005 0.001431 0.093113
#
#
# Mechanical properties :
#
#
# Convention : Reuss Voigt Hill
#
# Bulk Modulus (GPa) = 33.01157 62.36844 47.69000
# Shear Modulus (GPa) = 21.27980 32.88798 27.08389
#
# Velocity S-wave (km/s) = 3.18215 3.95599 3.58998
# Velocity P-wave (km/s) = 5.40464 7.10949 6.31486
#
# Compressibility (1/GPa) = 0.03029241
#
# Stress axis : x y z
#
# Youngs Moduli (GPa) = 59.91302 52.37695 98.51560
#
# Poissons Ratio (x) = -0.06254 0.36906
# Poissons Ratio (y) = -0.07154 0.51903
# Poissons Ratio (z) = 0.22445 0.27595
#
# Static dielectric constant tensor:
#      x y z
#    x 1.760950 -0.016920 -0.015430 
#    y -0.016920 1.736960 0.009170 
#    z -0.015430 0.009170 1.776500 
# 
# From -- ./inp_files/101033.got.cif
#   From: 2010.05.17/outbox.cif.g08.bks.cpg/sg2_51_cif.got.tgz:101033.got - 2010.06.03 11:33:40.
