data_PCOD9031570
_publ_section_title
;
Structure prediction by ZEFSAII (Michael W. Deem and Ramdas Pophale) SiO2 
 PCOD9031570
Probable space group: P -1
;
_chemical_formula_sum "Si O2"
_cell_formula_units_Z 16
_cell_length_a 12.438565
_cell_length_b 16.049353
_cell_length_c 12.177567
_cell_angle_alpha 154.659221
_cell_angle_beta 77.915071
_cell_angle_gamma 120.421372
_cell_volume 663.887848
_symmetry_space_group_name_H-M "P -1"
_symmetry_group_IT_number 2
_symmetry_cell_setting 'triclinic'
loop_
_space_group_symop_operation_xyz
x,y,z
-x,-y,-z
loop_
_atom_site_type_symbol
_atom_site_label
_atom_site_fract_x
_atom_site_fract_y
_atom_site_fract_z
Si Si1 0.640223 0.053454 0.980537
Si Si2 0.789997 0.896829 0.852954
Si Si3 0.254589 0.363948 0.877036
Si Si4 0.013077 0.681737 0.120289
Si Si5 0.178109 0.591396 0.836634
Si Si6 0.906724 0.893637 0.053086
Si Si7 0.591304 0.509360 0.798136
Si Si8 0.603881 0.415956 0.130908
O O1 0.723265 0.025285 0.018836
O O2 0.550934 0.794349 0.600894
O O3 0.500000 0.000000 0.000000
O O4 0.777860 0.348023 0.229039
O O5 0.666892 0.603689 0.453156
O O6 0.970607 0.117947 0.018361
O O7 0.809276 0.833899 0.893879
O O8 0.292847 0.395794 0.777842
O O9 0.165497 0.452658 0.020697
O O10 0.131419 0.022622 0.531293
O O11 0.413533 0.547408 0.140689
O O12 0.102318 0.692522 0.012951
O O13 0.000000 0.500000 0.000000
O O14 0.346040 0.740173 0.041438
O O15 0.034020 0.237613 0.468478
O O16 0.769179 0.670523 0.907695
O O17 0.571319 0.712065 0.013552
#
# Coordination Sequence:
#
# PCOD9031570 Si02
#       8
#     2   2   2   2   2   2   2   2
#     4  11  27  43  65  96 141 176 214 282 353 402
#     4   9  22  42  65  91 132 172 221 268 343 396
#     4  11  24  42  70  98 138 181 229 275 339 407
#     4  11  22  41  68 102 134 180 228 284 336 398
#     4  11  24  44  66 101 136 175 228 279 344 403
#     4  10  23  42  71  97 123 177 232 278 323 410
#     4  11  25  43  68  98 134 176 228 272 338 407
#     4  10  22  43  67  93 138 182 215 276 348 398
#
# _framework density 24.100456000000001
#
# number of rings (size 3 to 8) (size 9 to 14) (size 15 to 20)
#    0.000    1.500    1.250    2.625   14.000    2.500 
#    2.250    1.250    0.000    0.000    0.000    0.000 
#    0.000    0.000    0.000    0.000    0.000    0.000 
#
# Total GULP energy -89448.740899 kJ/mol
# GULP energy per Si atom -5590.546306 kJ/mol
# Density = 2.404560 g / cm^3
# Si number density = 24.100456 Si / 1000 Ang^3
#
#
#
# Elastic Constant Matrix: (Units=GPa)
#
#
# Indices 1 2 3 4 5 6 
#
# 1 157.1911 23.3852 6.6414 -23.5960 -20.6133 7.1813
# 2 23.3852 74.1401 -7.8466 -9.5545 -7.3385 5.9164
# 3 6.6414 -7.8466 40.7694 -4.5831 -6.4124 -6.0428
# 4 -23.5960 -9.5545 -4.5831 30.7147 -5.4317 5.7433
# 5 -20.6133 -7.3385 -6.4124 -5.4317 23.6984 -5.0847
# 6 7.1813 5.9164 -6.0428 5.7433 -5.0847 38.1722
#
#
#
# Elastic Compliance Matrix: (Units=1/GPa)
#
#
# Indices 1 2 3 4 5 6 
#
# 1 0.009086 -0.000569 0.000691 0.008901 0.009617 -0.001570
# 2 -0.000569 0.015851 0.004729 0.006733 0.006872 -0.001699
# 3 0.000691 0.004729 0.028787 0.007727 0.012527 0.004200
# 4 0.008901 0.006733 0.007727 0.047538 0.021575 -0.005773
# 5 0.009617 0.006872 0.012527 0.021575 0.061907 0.004109
# 6 -0.001570 -0.001699 0.004200 -0.005773 0.004109 0.028837
#
#
# Mechanical properties :
#
#
# Convention : Reuss Voigt Hill
#
# Bulk Modulus (GPa) = 15.76576 35.16227 25.46402
# Shear Modulus (GPa) = 24.57666 35.17842 29.87754
#
# Velocity S-wave (km/s) = 3.19683 3.82469 3.52477
# Velocity P-wave (km/s) = 4.49246 5.84174 5.21095
#
# Compressibility (1/GPa) = 0.06342858
#
# Stress axis : x y z
#
# Youngs Moduli (GPa) = 110.05863 63.08630 34.73735
#
# Poissons Ratio (x) = 0.03587 -0.02400
# Poissons Ratio (y) = 0.06257 -0.16429
# Poissons Ratio (z) = -0.07605 -0.29836
#
# Static dielectric constant tensor:
#      x y z
#    x 1.954910 0.007670 0.001420 
#    y 0.007670 1.897510 -0.013710 
#    z 0.001420 -0.013710 1.962930 
# 
# From -- ./inp_files/269691.got.cif
#   From: 2010.05.17/outbox.cif.g08.bks.cpg/sg2_135_cif.got.tgz:269691.got - 2010.06.03 11:33:40.
