data_PCOD9031455
_publ_section_title
;
Structure prediction by ZEFSAII (Michael W. Deem and Ramdas Pophale) SiO2 
 PCOD9031455
Probable space group: P -1
;
_chemical_formula_sum "Si O2"
_cell_formula_units_Z 14
_cell_length_a 23.746575
_cell_length_b 8.402611
_cell_length_c 9.989391
_cell_angle_alpha 132.325895
_cell_angle_beta 27.506942
_cell_angle_gamma 137.965884
_cell_volume 615.710644
_symmetry_space_group_name_H-M "P -1"
_symmetry_group_IT_number 2
_symmetry_cell_setting 'triclinic'
loop_
_space_group_symop_operation_xyz
x,y,z
-x,-y,-z
loop_
_atom_site_type_symbol
_atom_site_label
_atom_site_fract_x
_atom_site_fract_y
_atom_site_fract_z
Si Si1 0.912843 0.587082 0.135851
Si Si2 0.336816 0.387231 0.269309
Si Si3 0.980064 0.053707 0.422300
Si Si4 0.669996 0.939198 0.661889
Si Si5 0.112197 0.578090 0.191511
Si Si6 0.730362 0.644177 0.140316
Si Si7 0.363789 0.604409 0.058756
O O1 0.748308 0.465593 0.416855
O O2 0.949657 0.575640 0.898293
O O3 0.942350 0.842484 0.277836
O O4 0.000000 0.500000 0.000000
O O5 0.293703 0.160037 0.333483
O O6 0.309182 0.404960 0.177687
O O7 0.500000 0.500000 0.000000
O O8 0.869979 0.158204 0.722410
O O9 0.127918 0.234947 0.166563
O O10 0.000000 0.000000 0.500000
O O11 0.717995 0.835991 0.374073
O O12 0.709722 0.221262 0.721286
O O13 0.508550 0.792384 0.910889
O O14 0.000000 0.500000 0.500000
O O15 0.246515 0.552054 0.931250
O O16 0.626601 0.520503 0.170199
#
# Coordination Sequence:
#
# PCOD9031455 Si02
#       7
#     2   2   2   2   2   2   2
#     4  12  24  42  71  96 135 182 221 283 344 402
#     4  10  23  45  69  99 137 176 227 281 336 408
#     4  11  24  40  63  97 130 171 225 276 345 406
#     4  10  22  43  66  98 128 179 230 273 336 406
#     4  10  24  40  58  93 130 170 220 272 332 401
#     4  11  23  40  64  91 133 170 223 281 332 406
#     4  10  23  41  68  95 134 177 224 280 337 398
#
# _framework density 22.737953999999998
#
# number of rings (size 3 to 8) (size 9 to 14) (size 15 to 20)
#    0.000    1.429    2.857    1.286    6.000    2.286 
#    0.000    0.000    0.000    7.714    0.000    0.000 
#    0.000    0.000    0.000    0.000    0.000    0.000 
#
# Total GULP energy -77961.683896 kJ/mol
# GULP energy per Si atom -5568.691707 kJ/mol
# Density = 2.268620 g / cm^3
# Si number density = 22.737954 Si / 1000 Ang^3
#
#
#
# Elastic Constant Matrix: (Units=GPa)
#
#
# Indices 1 2 3 4 5 6 
#
# 1 182.0720 45.4538 51.5175 18.4345 22.8039 -16.6015
# 2 45.4538 64.8499 20.7134 22.5880 9.6012 -5.4285
# 3 51.5175 20.7134 102.8896 19.8990 8.0774 -14.1807
# 4 18.4345 22.5880 19.8990 35.5141 8.4104 3.1558
# 5 22.8039 9.6012 8.0774 8.4104 49.2022 6.5938
# 6 -16.6015 -5.4285 -14.1807 3.1558 6.5938 36.7508
#
#
#
# Elastic Compliance Matrix: (Units=1/GPa)
#
#
# Indices 1 2 3 4 5 6 
#
# 1 0.007788 -0.004208 -0.002620 0.000549 -0.002765 0.002334
# 2 -0.004208 0.023053 0.000399 -0.012765 -0.000820 0.002902
# 3 -0.002620 0.000399 0.012835 -0.006368 -0.000480 0.004461
# 4 0.000549 -0.012765 -0.006368 0.040842 -0.002747 -0.007109
# 5 -0.002765 -0.000820 -0.000480 -0.002747 0.023045 -0.005454
# 6 0.002334 0.002902 0.004461 -0.007109 -0.005454 0.032004
#
#
# Mechanical properties :
#
#
# Convention : Reuss Voigt Hill
#
# Bulk Modulus (GPa) = 32.44851 65.02010 48.73430
# Shear Modulus (GPa) = 30.73214 39.76853 35.25033
#
# Velocity S-wave (km/s) = 3.68037 4.18663 3.94164
# Velocity P-wave (km/s) = 5.68874 7.21305 6.49576
#
# Compressibility (1/GPa) = 0.03081806
#
# Stress axis : x y z
#
# Youngs Moduli (GPa) = 128.40821 43.37837 77.91451
#
# Poissons Ratio (x) = 0.18255 0.20410
# Poissons Ratio (y) = 0.54038 -0.03111
# Poissons Ratio (z) = 0.33638 -0.01732
#
# Static dielectric constant tensor:
#      x y z
#    x 1.872630 -0.046910 -0.045940 
#    y -0.046910 1.955510 -0.043420 
#    z -0.045940 -0.043420 1.918670 
# 
# From -- ./inp_files/241371.got.cif
#   From: 2010.05.17/outbox.cif.g08.bks.cpg/sg2_121_cif.got.tgz:241371.got - 2010.06.03 11:33:40.
