data_PCOD9031311
_publ_section_title
;
Structure prediction by ZEFSAII (Michael W. Deem and Ramdas Pophale) SiO2 
 PCOD9031311
Probable space group: P -1
;
_chemical_formula_sum "Si O2"
_cell_formula_units_Z 16
_cell_length_a 12.204410
_cell_length_b 9.421819
_cell_length_c 14.049740
_cell_angle_alpha 91.918795
_cell_angle_beta 149.074850
_cell_angle_gamma 77.914800
_cell_volume 776.780541
_symmetry_space_group_name_H-M "P -1"
_symmetry_group_IT_number 2
_symmetry_cell_setting 'triclinic'
loop_
_space_group_symop_operation_xyz
x,y,z
-x,-y,-z
loop_
_atom_site_type_symbol
_atom_site_label
_atom_site_fract_x
_atom_site_fract_y
_atom_site_fract_z
Si Si1 0.879707 0.676327 0.927568
Si Si2 0.794472 0.156258 0.855521
Si Si3 0.061045 0.246113 0.807116
Si Si4 0.636290 0.081710 0.041206
Si Si5 0.369510 0.241177 0.670462
Si Si6 0.945097 0.162619 0.413125
Si Si7 0.568175 0.328019 0.504774
Si Si8 0.919906 0.428618 0.531762
O O1 0.633822 0.710165 0.697670
O O2 0.871595 0.719190 0.035125
O O3 0.000000 0.500000 0.000000
O O4 0.058776 0.737834 0.009310
O O5 0.591035 0.155859 0.771526
O O6 0.669432 0.214511 0.664554
O O7 0.000000 0.000000 0.000000
O O8 0.787083 0.297555 0.600770
O O9 0.094119 0.349697 0.746264
O O10 0.177964 0.066070 0.873253
O O11 0.753129 0.170949 0.195233
O O12 0.467908 0.202284 0.848510
O O13 0.500000 0.000000 0.000000
O O14 0.279014 0.418555 0.577871
O O15 0.159020 0.180482 0.515805
O O16 0.868276 0.290203 0.440413
O O17 0.000000 0.000000 0.500000
O O18 0.500000 0.500000 0.500000
O O19 0.000000 0.500000 0.500000
#
# Coordination Sequence:
#
# PCOD9031311 Si02
#       8
#     2   2   2   2   2   2   2   2
#     4  11  24  44  73 100 134 182 238 280 343 421
#     4  11  25  45  65 104 145 175 229 294 342 411
#     4  11  23  41  71  98 135 185 231 275 349 409
#     4  12  24  43  67 101 138 178 234 284 329 425
#     4  11  24  42  68 100 139 176 223 291 354 392
#     4  11  22  45  70  97 133 182 229 277 342 415
#     4  11  22  44  70  98 136 179 233 290 330 415
#     4  10  22  43  66 102 139 170 226 293 340 404
#
# _framework density 20.597836999999998
#
# number of rings (size 3 to 8) (size 9 to 14) (size 15 to 20)
#    0.000    1.000    5.000    3.000    0.000    5.000 
#    2.250    0.000    0.000    0.000    0.000    0.000 
#    0.000    0.000    0.000    0.000    0.000    0.000 
#
# Total GULP energy -89200.042991 kJ/mol
# GULP energy per Si atom -5575.002687 kJ/mol
# Density = 2.055096 g / cm^3
# Si number density = 20.597837 Si / 1000 Ang^3
#
#
#
# Elastic Constant Matrix: (Units=GPa)
#
#
# Indices 1 2 3 4 5 6 
#
# 1 85.9812 15.7935 29.7331 11.9902 11.1128 4.5368
# 2 15.7935 110.0404 35.8373 -0.3153 6.3976 0.1441
# 3 29.7331 35.8373 145.5211 19.6511 -4.2028 9.0084
# 4 11.9902 -0.3153 19.6511 46.8283 0.7247 0.4291
# 5 11.1128 6.3976 -4.2028 0.7247 41.8988 -6.3800
# 6 4.5368 0.1441 9.0084 0.4291 -6.3800 34.3956
#
#
#
# Elastic Compliance Matrix: (Units=1/GPa)
#
#
# Indices 1 2 3 4 5 6 
#
# 1 0.013517 -0.001010 -0.002173 -0.002478 -0.003895 -0.001901
# 2 -0.001010 0.010156 -0.002558 0.001419 -0.001493 0.000466
# 3 -0.002173 -0.002558 0.008502 -0.003039 0.001630 -0.001589
# 4 -0.002478 0.001419 -0.003039 0.023269 -0.000145 0.000800
# 5 -0.003895 -0.001493 0.001630 -0.000145 0.026044 0.004926
# 6 -0.001901 0.000466 -0.001589 0.000800 0.004926 0.030642
#
#
# Mechanical properties :
#
#
# Convention : Reuss Voigt Hill
#
# Bulk Modulus (GPa) = 48.33030 56.03006 52.18018
# Shear Modulus (GPa) = 38.31101 41.96980 40.14041
#
# Velocity S-wave (km/s) = 4.31740 4.51886 4.41927
# Velocity P-wave (km/s) = 6.95471 7.38158 7.17132
#
# Compressibility (1/GPa) = 0.02069095
#
# Stress axis : x y z
#
# Youngs Moduli (GPa) = 73.98155 98.46367 117.62257
#
# Poissons Ratio (x) = 0.09949 0.25561
# Poissons Ratio (y) = 0.07475 0.30092
# Poissons Ratio (z) = 0.16077 0.25190
#
# Static dielectric constant tensor:
#      x y z
#    x 1.865180 0.074090 0.045330 
#    y 0.074090 2.477060 0.642630 
#    z 0.045330 0.642630 2.270650 
# 
# From -- ./inp_files/515567.got.cif
#   From: 2010.05.17/outbox.cif.g08.bks.cpg/sg2_258_cif.got.tgz:515567.got - 2010.06.03 11:33:40.
