data_PCOD9031050
_publ_section_title
;
Structure prediction by ZEFSAII (Michael W. Deem and Ramdas Pophale) SiO2 
 PCOD9031050
Probable space group: P -1
;
_chemical_formula_sum "Si O2"
_cell_formula_units_Z 16
_cell_length_a 11.902246
_cell_length_b 18.371663
_cell_length_c 8.876684
_cell_angle_alpha 126.486893
_cell_angle_beta 98.230411
_cell_angle_gamma 38.514299
_cell_volume 743.921285
_symmetry_space_group_name_H-M "P -1"
_symmetry_group_IT_number 2
_symmetry_cell_setting 'triclinic'
loop_
_space_group_symop_operation_xyz
x,y,z
-x,-y,-z
loop_
_atom_site_type_symbol
_atom_site_label
_atom_site_fract_x
_atom_site_fract_y
_atom_site_fract_z
Si Si1 0.860973 0.921571 0.520735
Si Si2 0.633966 0.747668 0.296064
Si Si3 0.070476 0.948548 0.705597
Si Si4 0.482400 0.796689 0.635909
Si Si5 0.160156 0.125240 0.196607
Si Si6 0.990407 0.403630 0.329512
Si Si7 0.923839 0.688613 0.107259
Si Si8 0.248635 0.719604 0.755348
O O1 0.857772 0.883336 0.642024
O O2 0.939743 0.783655 0.260843
O O3 0.017463 0.903078 0.526832
O O4 0.592692 0.129610 0.683636
O O5 0.564175 0.805445 0.528471
O O6 0.723524 0.777318 0.273806
O O7 0.839870 0.529220 0.065898
O O8 0.271627 0.882284 0.631037
O O9 0.174888 0.829234 0.730141
O O10 0.820813 0.168722 0.978161
O O11 0.710714 0.580042 0.465561
O O12 0.383010 0.921699 0.911898
O O13 0.121420 0.254149 0.297029
O O14 0.937874 0.230585 0.207695
O O15 0.000000 0.500000 0.500000
O O16 0.109252 0.304617 0.068240
O O17 0.500000 0.500000 0.500000
#
# Coordination Sequence:
#
# PCOD9031050 Si02
#       8
#     2   2   2   2   2   2   2   2
#     4  11  23  38  65  93 128 165 203 256 318 379
#     4  10  23  42  63  84 125 173 203 258 313 365
#     4   9  20  36  58  96 123 162 209 253 310 372
#     4  10  22  43  64  89 131 162 209 262 305 368
#     4  10  23  36  62  96 121 161 209 255 310 369
#     4  11  25  42  65  92 121 166 212 265 309 371
#     4  10  24  44  61  88 127 162 213 259 314 375
#     4   9  17  35  58  85 130 166 200 253 307 362
#
# _framework density 21.507650999999999
#
# number of rings (size 3 to 8) (size 9 to 14) (size 15 to 20)
#    0.000    2.000    0.000    2.625    7.000    3.000 
#    0.000    2.500    0.000    0.000    0.000    0.000 
#    0.000    0.000    0.000    0.000    0.000    0.000 
#
# Total GULP energy -89342.969050 kJ/mol
# GULP energy per Si atom -5583.935566 kJ/mol
# Density = 2.145870 g / cm^3
# Si number density = 21.507651 Si / 1000 Ang^3
#
#
#
# Elastic Constant Matrix: (Units=GPa)
#
#
# Indices 1 2 3 4 5 6 
#
# 1 76.1880 9.5018 42.2367 -6.5015 10.1076 -3.1497
# 2 9.5018 61.7159 15.6828 6.0112 5.5311 0.7699
# 3 42.2367 15.6828 98.0585 -7.4663 5.3175 2.1356
# 4 -6.5015 6.0112 -7.4663 32.0350 -9.9513 5.0321
# 5 10.1076 5.5311 5.3175 -9.9513 24.6158 -1.8722
# 6 -3.1497 0.7699 2.1356 5.0321 -1.8722 29.0145
#
#
#
# Elastic Compliance Matrix: (Units=1/GPa)
#
#
# Indices 1 2 3 4 5 6 
#
# 1 0.018167 -0.000406 -0.007509 -0.000073 -0.005610 0.002186
# 2 -0.000406 0.018078 -0.002871 -0.005957 -0.005656 0.000356
# 3 -0.007509 -0.002871 0.014086 0.003209 0.001815 -0.002215
# 4 -0.000073 -0.005957 0.003209 0.038942 0.015976 -0.005809
# 5 -0.005610 -0.005656 0.001815 0.015976 0.050256 -0.000120
# 6 0.002186 0.000356 -0.002215 -0.005809 -0.000120 0.035856
#
#
# Mechanical properties :
#
#
# Convention : Reuss Voigt Hill
#
# Bulk Modulus (GPa) = 34.77241 41.20057 37.98649
# Shear Modulus (GPa) = 24.20788 28.36913 26.28851
#
# Velocity S-wave (km/s) = 3.35856 3.63578 3.49991
# Velocity P-wave (km/s) = 5.58949 6.06820 5.83376
#
# Compressibility (1/GPa) = 0.02875843
#
# Stress axis : x y z
#
# Youngs Moduli (GPa) = 55.04363 55.31591 70.99363
#
# Poissons Ratio (x) = 0.02248 0.53311
# Poissons Ratio (y) = 0.02237 0.20381
# Poissons Ratio (z) = 0.41333 0.15880
#
# Static dielectric constant tensor:
#      x y z
#    x 1.833070 0.007260 -0.003920 
#    y 0.007260 1.785890 0.005840 
#    z -0.003920 0.005840 1.808220 
# 
# From -- ./inp_files/279902.got.cif
#   From: 2010.05.17/outbox.cif.g08.bks.cpg/sg2_140_cif.got.tgz:279902.got - 2010.06.03 11:33:40.
