data_PCOD9031899
_publ_section_title
;
Structure prediction by ZEFSAII (Michael W. Deem and Ramdas Pophale) SiO2 
 PCOD9031899
Probable space group: P -1
;
_chemical_formula_sum "Si O2"
_cell_formula_units_Z 14
_cell_length_a 15.257921
_cell_length_b 9.066886
_cell_length_c 14.273723
_cell_angle_alpha 37.908058
_cell_angle_beta 31.307709
_cell_angle_gamma 34.717950
_cell_volume 558.748879
_symmetry_space_group_name_H-M "P -1"
_symmetry_group_IT_number 2
_symmetry_cell_setting 'triclinic'
loop_
_space_group_symop_operation_xyz
x,y,z
-x,-y,-z
loop_
_atom_site_type_symbol
_atom_site_label
_atom_site_fract_x
_atom_site_fract_y
_atom_site_fract_z
Si Si1 0.524597 0.386608 0.907374
Si Si2 0.521596 0.585004 0.269283
Si Si3 0.852935 0.001372 0.213062
Si Si4 0.643515 0.968799 0.261444
Si Si5 0.099879 0.995553 0.146866
Si Si6 0.119663 0.850730 0.557524
Si Si7 0.391107 0.027879 0.308032
O O1 0.523955 0.274765 0.860662
O O2 0.432674 0.706284 0.822766
O O3 0.733786 0.250991 0.826286
O O4 0.406943 0.289395 0.130335
O O5 0.707690 0.306471 0.224461
O O6 0.318722 0.591227 0.477935
O O7 0.540266 0.771251 0.238876
O O8 0.736889 0.870845 0.327792
O O9 0.979262 0.889615 0.246328
O O10 0.000000 0.000000 0.000000
O O11 0.462212 0.959517 0.383683
O O12 0.803044 0.887232 0.075219
O O13 0.988563 0.197259 0.232798
O O14 0.196792 0.042757 0.441238
O O15 0.000000 0.000000 0.500000
#
# Coordination Sequence:
#
# PCOD9031899 Si02
#       7
#     2   2   2   2   2   2   2
#     4  10  17  34  57  79 105 140 178 224 268 305
#     4   9  19  32  55  77 109 135 180 220 267 306
#     4   9  19  35  55  78 101 142 186 219 260 313
#     4   9  19  35  56  79 106 139 180 223 266 307
#     4  10  17  32  54  75 103 143 178 216 257 319
#     4  10  20  33  52  81 113 138 176 219 265 319
#     4   9  18  31  53  81 106 138 176 222 267 309
#
# _framework density 25.055979000000001
#
# number of rings (size 3 to 8) (size 9 to 14) (size 15 to 20)
#    0.857    1.714    1.429    2.143    0.000    0.571 
#    0.000   10.000    0.000    3.429    0.000    0.000 
#    0.000    0.000    0.000    0.000    0.000    0.000 
#
# Total GULP energy -78083.707447 kJ/mol
# GULP energy per Si atom -5577.407675 kJ/mol
# Density = 2.499895 g / cm^3
# Si number density = 25.055979 Si / 1000 Ang^3
#
#
#
# Elastic Constant Matrix: (Units=GPa)
#
#
# Indices 1 2 3 4 5 6 
#
# 1 222.6993 17.4975 30.1747 -10.4447 -8.1501 13.9291
# 2 17.4975 78.6233 21.1664 20.4645 -2.3755 3.5589
# 3 30.1747 21.1664 57.8769 21.4007 12.5650 -6.1011
# 4 -10.4447 20.4645 21.4007 26.4606 7.8707 -0.5243
# 5 -8.1501 -2.3755 12.5650 7.8707 45.1400 8.1147
# 6 13.9291 3.5589 -6.1011 -0.5243 8.1147 38.6160
#
#
#
# Elastic Compliance Matrix: (Units=1/GPa)
#
#
# Indices 1 2 3 4 5 6 
#
# 1 0.006161 -0.001546 -0.006476 0.008197 0.002019 -0.003416
# 2 -0.001546 0.017325 -0.001411 -0.014069 0.003887 -0.002270
# 3 -0.006476 -0.001411 0.033398 -0.026032 -0.007617 0.008990
# 4 0.008197 -0.014069 -0.026032 0.074149 -0.004246 -0.003874
# 5 0.002019 0.003887 -0.007617 -0.004246 0.027026 -0.008027
# 6 -0.003416 -0.002270 0.008990 -0.003874 -0.008027 0.030392
#
#
# Mechanical properties :
#
#
# Convention : Reuss Voigt Hill
#
# Bulk Modulus (GPa) = 26.30345 55.20851 40.75598
# Shear Modulus (GPa) = 22.72839 41.40073 32.06456
#
# Velocity S-wave (km/s) = 3.01508 4.06930 3.58119
# Velocity P-wave (km/s) = 4.75832 6.64536 5.77938
#
# Compressibility (1/GPa) = 0.03801783
#
# Stress axis : x y z
#
# Youngs Moduli (GPa) = 162.30325 57.72068 29.94221
#
# Poissons Ratio (x) = 0.08922 0.19392
# Poissons Ratio (y) = 0.25087 0.04225
# Poissons Ratio (z) = 1.05113 0.08144
#
# Static dielectric constant tensor:
#      x y z
#    x 2.005820 0.014900 -0.048500 
#    y 0.014900 1.997110 0.011560 
#    z -0.048500 0.011560 2.128500 
# 
# From -- ./inp_files/526349.got.cif
#   From: 2010.05.17/outbox.cif.g08.bks.cpg/sg2_264_cif.got.tgz:526349.got - 2010.06.03 11:33:40.
