data_PCOD9031789
_publ_section_title
;
Structure prediction by ZEFSAII (Michael W. Deem and Ramdas Pophale) SiO2 
 PCOD9031789
Probable space group: P -1
;
_chemical_formula_sum "Si O2"
_cell_formula_units_Z 14
_cell_length_a 10.752058
_cell_length_b 17.554095
_cell_length_c 13.605415
_cell_angle_alpha 24.446026
_cell_angle_beta 45.390907
_cell_angle_gamma 40.570339
_cell_volume 690.606718
_symmetry_space_group_name_H-M "P -1"
_symmetry_group_IT_number 2
_symmetry_cell_setting 'triclinic'
loop_
_space_group_symop_operation_xyz
x,y,z
-x,-y,-z
loop_
_atom_site_type_symbol
_atom_site_label
_atom_site_fract_x
_atom_site_fract_y
_atom_site_fract_z
Si Si1 0.499578 0.980217 0.762867
Si Si2 0.692645 0.929169 0.036461
Si Si3 0.788349 0.166480 0.398833
Si Si4 0.894691 0.145735 0.143452
Si Si5 0.789878 0.585976 0.964219
Si Si6 0.219950 0.171661 0.518475
Si Si7 0.009769 0.479518 0.633758
O O1 0.349256 0.001573 0.908044
O O2 0.631194 0.085395 0.610846
O O3 0.398844 0.096677 0.582201
O O4 0.636752 0.752427 0.924073
O O5 0.781947 0.686853 0.263287
O O6 0.500000 0.000000 0.000000
O O7 0.871688 0.972519 0.844890
O O8 0.752489 0.386703 0.199262
O O9 0.000000 0.000000 0.500000
O O10 0.793728 0.167152 0.277533
O O11 0.813629 0.025069 0.260061
O O12 0.868871 0.369079 0.865921
O O13 0.778761 0.705328 0.726513
O O14 0.000000 0.500000 0.000000
O O15 0.048470 0.323270 0.502017
O O16 0.000000 0.500000 0.500000
#
# Coordination Sequence:
#
# PCOD9031789 Si02
#       7
#     2   2   2   2   2   2   2
#     4  12  26  41  69 103 135 170 230 279 322 404
#     4  10  23  44  68  94 135 173 223 275 327 395
#     4  12  23  44  69  96 136 176 222 274 344 392
#     4  10  23  42  71  90 136 179 212 275 343 383
#     4  12  25  42  70  98 134 179 219 276 342 395
#     4  12  23  45  68 100 136 174 230 272 331 406
#     4  10  22  43  68  92 131 181 214 270 337 385
#
# _framework density 20.272030999999998
#
# number of rings (size 3 to 8) (size 9 to 14) (size 15 to 20)
#    0.857    0.000    5.714    1.286    2.000    4.000 
#    2.571    0.714    0.000    0.000    0.000    0.000 
#    0.000    0.000    0.000    0.000    0.000    0.000 
#
# Total GULP energy -78069.201789 kJ/mol
# GULP energy per Si atom -5576.371556 kJ/mol
# Density = 2.022589 g / cm^3
# Si number density = 20.272031 Si / 1000 Ang^3
#
#
#
# Elastic Constant Matrix: (Units=GPa)
#
#
# Indices 1 2 3 4 5 6 
#
# 1 85.6723 6.8958 15.7655 -18.5005 -4.6521 0.9976
# 2 6.8958 112.5057 10.3068 -18.4348 -5.2035 13.7750
# 3 15.7655 10.3068 26.3238 -7.4493 10.1635 2.9227
# 4 -18.5005 -18.4348 -7.4493 37.6877 -2.2770 1.2488
# 5 -4.6521 -5.2035 10.1635 -2.2770 28.6045 -7.9635
# 6 0.9976 13.7750 2.9227 1.2488 -7.9635 36.5292
#
#
#
# Elastic Compliance Matrix: (Units=1/GPa)
#
#
# Indices 1 2 3 4 5 6 
#
# 1 0.015361 0.001290 -0.010947 0.006416 0.007520 0.001390
# 2 0.001290 0.010605 -0.004323 0.005265 0.003212 -0.003168
# 3 -0.010947 -0.004323 0.057601 0.002652 -0.025118 -0.008246
# 4 0.006416 0.005265 0.002652 0.033053 0.002890 -0.002873
# 5 0.007520 0.003212 -0.025118 0.002890 0.049035 0.011184
# 6 0.001390 -0.003168 -0.008246 -0.002873 0.011184 0.031728
#
#
# Mechanical properties :
#
#
# Convention : Reuss Voigt Hill
#
# Bulk Modulus (GPa) = 17.98355 32.27090 25.12722
# Shear Modulus (GPa) = 20.50202 33.33322 26.91762
#
# Velocity S-wave (km/s) = 3.18362 4.05939 3.64788
# Velocity P-wave (km/s) = 4.73331 6.15833 5.49223
#
# Compressibility (1/GPa) = 0.05560639
#
# Stress axis : x y z
#
# Youngs Moduli (GPa) = 65.10121 94.29871 17.36071
#
# Poissons Ratio (x) = -0.12168 0.19005
# Poissons Ratio (y) = -0.08400 0.07506
# Poissons Ratio (z) = 0.71266 0.40770
#
# Static dielectric constant tensor:
#      x y z
#    x 1.717090 -0.012700 0.025010 
#    y -0.012700 1.673980 -0.042640 
#    z 0.025010 -0.042640 1.631460 
# 
# From -- ./inp_files/398048.got.cif
#   From: 2010.05.17/outbox.cif.g08.bks.cpg/sg2_200_cif.got.tgz:398048.got - 2010.06.03 11:33:40.
