data_PCOD9031280
_publ_section_title
;
Structure prediction by ZEFSAII (Michael W. Deem and Ramdas Pophale) SiO2 
 PCOD9031280
Probable space group: P -1
;
_chemical_formula_sum "Si O2"
_cell_formula_units_Z 16
_cell_length_a 6.243309
_cell_length_b 8.752425
_cell_length_c 16.216723
_cell_angle_alpha 63.234043
_cell_angle_beta 76.580817
_cell_angle_gamma 60.022947
_cell_volume 685.329600
_symmetry_space_group_name_H-M "P -1"
_symmetry_group_IT_number 2
_symmetry_cell_setting 'triclinic'
loop_
_space_group_symop_operation_xyz
x,y,z
-x,-y,-z
loop_
_atom_site_type_symbol
_atom_site_label
_atom_site_fract_x
_atom_site_fract_y
_atom_site_fract_z
Si Si1 0.664651 0.155984 0.654615
Si Si2 0.294246 0.218174 0.547366
Si Si3 0.564668 0.392510 0.243083
Si Si4 0.848886 0.091921 0.407987
Si Si5 0.831320 0.441254 0.644170
Si Si6 0.467124 0.144130 0.184019
Si Si7 0.051148 0.489266 0.899555
Si Si8 0.759076 0.954959 0.042779
O O1 0.542921 0.206463 0.563440
O O2 0.678088 0.339570 0.643163
O O3 0.540634 0.052849 0.743900
O O4 0.938401 0.990091 0.659456
O O5 0.206281 0.362547 0.443797
O O6 0.106164 0.301557 0.621467
O O7 0.314018 0.017043 0.567954
O O8 0.695705 0.310653 0.340366
O O9 0.275989 0.518781 0.263688
O O10 0.583017 0.216650 0.228646
O O11 0.707882 0.488091 0.157339
O O12 0.000000 0.000000 0.500000
O O13 0.194544 0.323239 0.154426
O O14 0.629818 0.085986 0.101872
O O15 0.105753 0.278503 0.912880
O O16 0.000000 0.500000 0.000000
O O17 0.500000 0.000000 0.000000
O O18 0.000000 0.000000 0.000000
#
# Coordination Sequence:
#
# PCOD9031280 Si02
#       8
#     2   2   2   2   2   2   2   2
#     4  11  22  44  64 100 141 192 245 314 375 455
#     4  10  22  43  65  99 143 198 250 318 387 454
#     4  12  26  45  72 111 146 198 258 324 391 479
#     4  11  24  40  69  99 146 195 254 311 380 460
#     4  10  24  40  68 100 143 193 256 312 384 455
#     4  12  27  47  79 111 155 202 259 326 404 482
#     4  12  27  52  80 113 157 196 262 327 406 488
#     4  12  29  53  85 120 160 212 264 333 414 490
#
# _framework density 23.346433000000001
#
# number of rings (size 3 to 8) (size 9 to 14) (size 15 to 20)
#    0.000    0.750    3.750    2.625    3.500    6.000 
#    0.000    0.000    0.000    0.000    0.000    0.000 
#    0.000    0.000    0.000    0.000    0.000    0.000 
#
# Total GULP energy -89143.724912 kJ/mol
# GULP energy per Si atom -5571.482807 kJ/mol
# Density = 2.329330 g / cm^3
# Si number density = 23.346433 Si / 1000 Ang^3
#
#
#
# Elastic Constant Matrix: (Units=GPa)
#
#
# Indices 1 2 3 4 5 6 
#
# 1 89.2793 33.8976 53.6878 12.3242 -20.1336 -0.2059
# 2 33.8976 102.9338 28.1131 17.5628 -17.4397 -11.3539
# 3 53.6878 28.1131 104.6271 8.3570 -21.2684 -8.8868
# 4 12.3242 17.5628 8.3570 50.9048 -8.3849 -11.8230
# 5 -20.1336 -17.4397 -21.2684 -8.3849 51.4412 4.9660
# 6 -0.2059 -11.3539 -8.8868 -11.8230 4.9660 37.3934
#
#
#
# Elastic Compliance Matrix: (Units=1/GPa)
#
#
# Indices 1 2 3 4 5 6 
#
# 1 0.018257 -0.003386 -0.008063 -0.002410 0.002653 -0.003958
# 2 -0.003386 0.012007 -0.000721 -0.002328 0.001829 0.002477
# 3 -0.008063 -0.000721 0.014586 0.000952 0.002479 0.003175
# 4 -0.002410 -0.002328 0.000952 0.022656 0.001732 0.006439
# 5 0.002653 0.001829 0.002479 0.001732 0.022530 -0.001285
# 6 -0.003958 0.002477 0.003175 0.006439 -0.001285 0.030434
#
#
# Mechanical properties :
#
#
# Convention : Reuss Voigt Hill
#
# Bulk Modulus (GPa) = 48.75323 58.69303 53.72313
# Shear Modulus (GPa) = 32.97150 40.02399 36.49774
#
# Velocity S-wave (km/s) = 3.76210 4.14496 3.95816
# Velocity P-wave (km/s) = 6.30865 6.93558 6.62953
#
# Compressibility (1/GPa) = 0.02051146
#
# Stress axis : x y z
#
# Youngs Moduli (GPa) = 54.77403 83.28371 68.55735
#
# Poissons Ratio (x) = 0.28199 0.55276
# Poissons Ratio (y) = 0.18546 0.04941
# Poissons Ratio (z) = 0.44163 0.06003
#
# Static dielectric constant tensor:
#      x y z
#    x 1.934560 -0.055730 0.039420 
#    y -0.055730 1.875560 0.018110 
#    z 0.039420 0.018110 1.966260 
# 
# From -- ./inp_files/547877.got.cif
#   From: 2010.05.17/outbox.cif.g08.bks.cpg/sg2_274_cif.got.tgz:547877.got - 2010.06.03 11:33:40.
