data_PCOD9031892
_publ_section_title
;
Structure prediction by ZEFSAII (Michael W. Deem and Ramdas Pophale) SiO2 
 PCOD9031892
Probable space group: P -1
;
_chemical_formula_sum "Si O2"
_cell_formula_units_Z 16
_cell_length_a 20.452843
_cell_length_b 16.943687
_cell_length_c 7.992786
_cell_angle_alpha 67.276707
_cell_angle_beta 124.457575
_cell_angle_gamma 158.910869
_cell_volume 722.123053
_symmetry_space_group_name_H-M "P -1"
_symmetry_group_IT_number 2
_symmetry_cell_setting 'triclinic'
loop_
_space_group_symop_operation_xyz
x,y,z
-x,-y,-z
loop_
_atom_site_type_symbol
_atom_site_label
_atom_site_fract_x
_atom_site_fract_y
_atom_site_fract_z
Si Si1 0.767037 0.772207 0.957345
Si Si2 0.721235 0.023296 0.547448
Si Si3 0.943458 0.037194 0.320893
Si Si4 0.477350 0.635711 0.106123
Si Si5 0.459115 0.107247 0.969845
Si Si6 0.083218 0.513778 0.741646
Si Si7 0.439892 0.571135 0.493342
Si Si8 0.319764 0.892268 0.290185
O O1 0.678280 0.589027 0.040134
O O2 0.552942 0.596529 0.690960
O O3 0.825983 0.896983 0.088291
O O4 0.000000 0.000000 0.000000
O O5 0.665442 0.995853 0.300169
O O6 0.631166 0.836909 0.591270
O O7 0.984226 0.318550 0.713707
O O8 0.608938 0.964665 0.583201
O O9 0.748876 0.888808 0.266267
O O10 0.000000 0.000000 0.500000
O O11 0.190611 0.333077 0.411503
O O12 0.448521 0.707265 0.980717
O O13 0.405548 0.541776 0.269119
O O14 0.648339 0.229178 0.088973
O O15 0.328819 0.935358 0.080148
O O16 0.944690 0.397094 0.803897
O O17 0.000000 0.500000 0.500000
O O18 0.500000 0.000000 0.500000
#
# Coordination Sequence:
#
# PCOD9031892 Si02
#       8
#     2   2   2   2   2   2   2   2
#     4  12  24  40  68  92 132 184 219 274 337 377
#     4   9  25  42  65 101 132 172 221 276 334 394
#     4  12  25  42  64  95 133 175 235 273 324 400
#     4  11  25  43  65  98 128 177 228 275 330 394
#     4  11  23  45  66  97 139 169 221 282 333 397
#     4  10  22  44  69  96 133 170 217 274 338 409
#     4  11  24  46  62  92 139 172 224 281 324 393
#     4  10  22  43  68  98 130 167 218 267 328 414
#
# _framework density 22.156889
#
# number of rings (size 3 to 8) (size 9 to 14) (size 15 to 20)
#    0.750    0.500    3.750    1.500    3.500    4.000 
#    6.750    1.250    0.000    0.000    0.000    0.000 
#    0.000    0.000    0.000    0.000    0.000    0.000 
#
# Total GULP energy -89262.219253 kJ/mol
# GULP energy per Si atom -5578.888703 kJ/mol
# Density = 2.210646 g / cm^3
# Si number density = 22.156889 Si / 1000 Ang^3
#
#
#
# Elastic Constant Matrix: (Units=GPa)
#
#
# Indices 1 2 3 4 5 6 
#
# 1 72.5403 39.4463 13.5166 -0.3523 12.1116 6.3511
# 2 39.4463 135.2146 30.6736 -2.9483 7.2939 23.0484
# 3 13.5166 30.6736 48.6225 -16.8314 7.9572 18.6821
# 4 -0.3523 -2.9483 -16.8314 24.9823 7.2807 -5.5390
# 5 12.1116 7.2939 7.9572 7.2807 34.1579 7.4133
# 6 6.3511 23.0484 18.6821 -5.5390 7.4133 53.6439
#
#
#
# Elastic Compliance Matrix: (Units=1/GPa)
#
#
# Indices 1 2 3 4 5 6 
#
# 1 0.017339 -0.004682 -0.001234 0.000655 -0.005257 0.001183
# 2 -0.004682 0.010357 -0.006083 -0.004174 0.002304 -0.002526
# 3 -0.001234 -0.006083 0.038461 0.027201 -0.011673 -0.006213
# 4 0.000655 -0.004174 0.027201 0.063943 -0.019645 0.001560
# 5 -0.005257 0.002304 -0.011673 -0.019645 0.038342 -0.003629
# 6 0.001183 -0.002526 -0.006213 0.001560 -0.003629 0.022413
#
#
# Mechanical properties :
#
#
# Convention : Reuss Voigt Hill
#
# Bulk Modulus (GPa) = 23.72001 47.07228 35.39614
# Shear Modulus (GPa) = 21.84316 34.07289 27.95802
#
# Velocity S-wave (km/s) = 3.14322 3.92574 3.55607
# Velocity P-wave (km/s) = 4.88895 6.46836 5.73330
#
# Compressibility (1/GPa) = 0.04215850
#
# Stress axis : x y z
#
# Youngs Moduli (GPa) = 57.67426 96.55386 26.00068
#
# Poissons Ratio (x) = 0.45208 0.03207
# Poissons Ratio (y) = 0.27004 0.15817
# Poissons Ratio (z) = 0.07114 0.58735
#
# Static dielectric constant tensor:
#      x y z
#    x 2.419010 -0.395840 0.328350 
#    y -0.395840 2.085200 -0.212460 
#    z 0.328350 -0.212460 2.069530 
# 
# From -- ./inp_files/348446.got.cif
#   From: 2010.05.17/outbox.cif.g08.bks.cpg/sg2_175_cif.got.tgz:348446.got - 2010.06.03 11:33:40.
