data_PCOD9031091
_publ_section_title
;
Structure prediction by ZEFSAII (Michael W. Deem and Ramdas Pophale) SiO2 
 PCOD9031091
Probable space group: P -1
;
_chemical_formula_sum "Si O2"
_cell_formula_units_Z 14
_cell_length_a 9.772609
_cell_length_b 9.659090
_cell_length_c 8.204110
_cell_angle_alpha 128.151704
_cell_angle_beta 58.153258
_cell_angle_gamma 106.302868
_cell_volume 516.125764
_symmetry_space_group_name_H-M "P -1"
_symmetry_group_IT_number 2
_symmetry_cell_setting 'triclinic'
loop_
_space_group_symop_operation_xyz
x,y,z
-x,-y,-z
loop_
_atom_site_type_symbol
_atom_site_label
_atom_site_fract_x
_atom_site_fract_y
_atom_site_fract_z
Si Si1 0.746759 0.767001 0.369119
Si Si2 0.813147 0.470932 0.567204
Si Si3 0.907012 0.999156 0.225668
Si Si4 0.428560 0.967998 0.708989
Si Si5 0.322992 0.585756 0.729221
Si Si6 0.391177 0.670521 0.124518
Si Si7 0.777163 0.870320 0.773552
O O1 0.885234 0.815564 0.195806
O O2 0.782602 0.572479 0.264940
O O3 0.740112 0.887057 0.620556
O O4 0.557690 0.805592 0.471806
O O5 0.763503 0.365373 0.356817
O O6 0.756969 0.366320 0.686554
O O7 0.744702 0.676622 0.727681
O O8 0.000000 0.500000 0.500000
O O9 0.720319 0.034963 0.323421
O O10 0.032034 0.104775 0.324949
O O11 0.000000 0.000000 0.000000
O O12 0.518034 0.150288 0.779147
O O13 0.334958 0.982752 0.952043
O O14 0.500000 0.500000 0.500000
O O15 0.349551 0.668726 0.954258
O O16 0.500000 0.500000 0.000000
#
# Coordination Sequence:
#
# PCOD9031091 Si02
#       7
#     2   2   2   2   2   2   2
#     4  11  23  41  69  99 135 174 234 277 336 419
#     4  11  26  44  70 101 140 182 237 286 346 418
#     4  10  23  39  63  95 136 178 221 272 343 403
#     4  11  23  42  67 104 131 179 229 279 344 407
#     4  11  24  44  74 104 134 187 232 284 351 411
#     4  12  22  44  75  97 145 182 230 291 342 407
#     4  10  22  43  64  96 135 178 220 286 348 396
#
# _framework density 27.125173
#
# number of rings (size 3 to 8) (size 9 to 14) (size 15 to 20)
#    0.000    1.143    2.857    3.000    4.000    1.714 
#    0.000    2.857    0.000    0.000    0.000    0.000 
#    0.000    0.000    0.000    0.000    0.000    0.000 
#
# Total GULP energy -78080.407195 kJ/mol
# GULP energy per Si atom -5577.171942 kJ/mol
# Density = 2.706344 g / cm^3
# Si number density = 27.125173 Si / 1000 Ang^3
#
#
#
# Elastic Constant Matrix: (Units=GPa)
#
#
# Indices 1 2 3 4 5 6 
#
# 1 141.9160 22.0924 66.7296 -23.6156 29.6923 22.8746
# 2 22.0924 149.6095 22.5125 -41.2268 -2.0042 14.3484
# 3 66.7296 22.5125 121.0401 -38.6423 15.7036 7.7799
# 4 -23.6156 -41.2268 -38.6423 46.2643 3.9107 -5.3496
# 5 29.6923 -2.0042 15.7036 3.9107 46.3024 -6.1431
# 6 22.8746 14.3484 7.7799 -5.3496 -6.1431 41.7510
#
#
#
# Elastic Compliance Matrix: (Units=1/GPa)
#
#
# Indices 1 2 3 4 5 6 
#
# 1 0.012190 0.000055 -0.004638 0.002249 -0.007310 -0.006620
# 2 0.000055 0.009255 0.001584 0.009420 -0.001298 -0.002490
# 3 -0.004638 0.001584 0.014521 0.011450 -0.002803 0.000346
# 4 0.002249 0.009420 0.011450 0.041157 -0.008741 -0.002616
# 5 -0.007310 -0.001298 -0.002803 -0.008741 0.028994 0.008119
# 6 -0.006620 -0.002490 0.000346 -0.002616 0.008119 0.029229
#
#
# Mechanical properties :
#
#
# Convention : Reuss Voigt Hill
#
# Bulk Modulus (GPa) = 33.37059 70.58162 51.97611
# Shear Modulus (GPa) = 33.03949 46.94560 39.99254
#
# Velocity S-wave (km/s) = 3.49383 4.16468 3.84392
# Velocity P-wave (km/s) = 5.34836 7.01451 6.23732
#
# Compressibility (1/GPa) = 0.02996650
#
# Stress axis : x y z
#
# Youngs Moduli (GPa) = 82.03713 108.05195 68.86573
#
# Poissons Ratio (x) = -0.00591 0.31943
# Poissons Ratio (y) = -0.00449 -0.10910
# Poissons Ratio (z) = 0.38053 -0.17119
#
# Static dielectric constant tensor:
#      x y z
#    x 1.473000 0.148010 0.031480 
#    y 0.148010 2.190050 0.011410 
#    z 0.031480 0.011410 2.274920 
# 
# From -- ./inp_files/181314.got.cif
#   From: 2010.05.17/outbox.cif.g08.bks.cpg/sg2_91_cif.got.tgz:181314.got - 2010.06.03 11:33:40.
