data_PCOD9031716
_publ_section_title
;
Structure prediction by ZEFSAII (Michael W. Deem and Ramdas Pophale) SiO2 
 PCOD9031716
Probable space group: P -1
;
_chemical_formula_sum "Si O2"
_cell_formula_units_Z 10
_cell_length_a 5.655978
_cell_length_b 11.110877
_cell_length_c 11.371687
_cell_angle_alpha 139.412610
_cell_angle_beta 60.718165
_cell_angle_gamma 100.933231
_cell_volume 384.167871
_symmetry_space_group_name_H-M "P -1"
_symmetry_group_IT_number 2
_symmetry_cell_setting 'triclinic'
loop_
_space_group_symop_operation_xyz
x,y,z
-x,-y,-z
loop_
_atom_site_type_symbol
_atom_site_label
_atom_site_fract_x
_atom_site_fract_y
_atom_site_fract_z
Si Si1 0.966815 0.724548 0.912460
Si Si2 0.593175 0.117988 0.169166
Si Si3 0.442831 0.229115 0.541934
Si Si4 0.491787 0.579736 0.928716
Si Si5 0.066467 0.097765 0.710372
O O1 0.802462 0.577165 0.805241
O O2 0.284568 0.720989 0.800457
O O3 0.880058 0.761769 0.097147
O O4 0.808914 0.933079 0.046142
O O5 0.414353 0.224103 0.405020
O O6 0.500000 0.000000 0.000000
O O7 0.378241 0.442516 0.770224
O O8 0.225180 0.129654 0.578783
O O9 0.760755 0.111690 0.431255
O O10 0.500000 0.500000 0.000000
O O11 0.274097 0.803496 0.146552
#
# Coordination Sequence:
#
# PCOD9031716 Si02
#       5
#     2   2   2   2   2
#     4  10  22  43  68 100 143 181 229 291 349 402
#     4  10  22  46  69  97 143 187 234 288 338 420
#     4  10  23  44  73 107 132 192 234 277 362 407
#     4  12  24  42  72 108 146 175 226 303 346 411
#     4  10  22  46  67 103 145 178 238 285 338 426
#
# _framework density 26.030286
#
# number of rings (size 3 to 8) (size 9 to 14) (size 15 to 20)
#    0.000    1.600    2.000    1.800    0.000    1.600 
#   10.800    4.000    0.000    3.600    0.000    0.000 
#    0.000    0.000    0.000    0.000    0.000    0.000 
#
# Total GULP energy -55794.855715 kJ/mol
# GULP energy per Si atom -5579.485571 kJ/mol
# Density = 2.597104 g / cm^3
# Si number density = 26.030286 Si / 1000 Ang^3
#
#
#
# Elastic Constant Matrix: (Units=GPa)
#
#
# Indices 1 2 3 4 5 6 
#
# 1 73.0305 46.9967 51.4947 -17.4209 -2.9107 13.3796
# 2 46.9967 137.0469 59.5982 -29.3510 2.6581 15.4990
# 3 51.4947 59.5982 132.1572 -8.2240 14.8962 -11.8317
# 4 -17.4209 -29.3510 -8.2240 58.0383 -20.4769 2.2715
# 5 -2.9107 2.6581 14.8962 -20.4769 45.5418 8.9076
# 6 13.3796 15.4990 -11.8317 2.2715 8.9076 45.5883
#
#
#
# Elastic Compliance Matrix: (Units=1/GPa)
#
#
# Indices 1 2 3 4 5 6 
#
# 1 0.030760 0.000309 -0.014594 0.013674 0.016147 -0.016757
# 2 0.000309 0.012663 -0.006784 0.008221 0.006738 -0.007882
# 3 -0.014594 -0.006784 0.018580 -0.010826 -0.014368 0.014758
# 4 0.013674 0.008221 -0.010826 0.032104 0.021381 -0.015395
# 5 0.016147 0.006738 -0.014368 0.021381 0.040781 -0.019792
# 6 -0.016757 -0.007882 0.014758 -0.015395 -0.019792 0.037998
#
#
# Mechanical properties :
#
#
# Convention : Reuss Voigt Hill
#
# Bulk Modulus (GPa) = 50.34435 73.15707 61.75071
# Shear Modulus (GPa) = 22.55862 42.11003 32.33432
#
# Velocity S-wave (km/s) = 2.94705 4.02647 3.52828
# Velocity P-wave (km/s) = 5.56442 7.05565 6.35394
#
# Compressibility (1/GPa) = 0.01986320
#
# Stress axis : x y z
#
# Youngs Moduli (GPa) = 32.50982 78.97295 53.82197
#
# Poissons Ratio (x) = -0.02437 0.78547
# Poissons Ratio (y) = -0.01003 0.36514
# Poissons Ratio (z) = 0.47445 0.53576
#
# Static dielectric constant tensor:
#      x y z
#    x 2.201350 0.011830 -0.101000 
#    y 0.011830 2.025590 -0.047570 
#    z -0.101000 -0.047570 2.106090 
# 
# From -- ./inp_files/15738.got.cif
#   From: 2010.05.17/outbox.cif.g08.bks.cpg/sg2_8_cif.got.tgz:15738.got - 2010.06.03 11:33:40.
