data_PCOD9031674
_publ_section_title
;
Structure prediction by ZEFSAII (Michael W. Deem and Ramdas Pophale) SiO2 
 PCOD9031674
Probable space group: P -1
;
_chemical_formula_sum "Si O2"
_cell_formula_units_Z 16
_cell_length_a 18.136067
_cell_length_b 8.817209
_cell_length_c 19.352189
_cell_angle_alpha 133.608516
_cell_angle_beta 25.802177
_cell_angle_gamma 147.675245
_cell_volume 685.862507
_symmetry_space_group_name_H-M "P -1"
_symmetry_group_IT_number 2
_symmetry_cell_setting 'triclinic'
loop_
_space_group_symop_operation_xyz
x,y,z
-x,-y,-z
loop_
_atom_site_type_symbol
_atom_site_label
_atom_site_fract_x
_atom_site_fract_y
_atom_site_fract_z
Si Si1 0.402103 0.736186 0.167787
Si Si2 0.450030 0.832283 0.627618
Si Si3 0.511774 0.275023 0.289904
Si Si4 0.813853 0.654426 0.030940
Si Si5 0.145978 0.282607 0.619111
Si Si6 0.974298 0.104697 0.266930
Si Si7 0.354186 0.209865 0.889211
Si Si8 0.734361 0.155756 0.895180
O O1 0.478117 0.654462 0.141686
O O2 0.179122 0.451690 0.224451
O O3 0.361951 0.930717 0.295445
O O4 0.625158 0.971892 0.001872
O O5 0.408090 0.657192 0.677325
O O6 0.270310 0.594764 0.646264
O O7 0.724927 0.008754 0.430782
O O8 0.387024 0.012825 0.762468
O O9 0.731352 0.482877 0.118473
O O10 0.350987 0.330752 0.425240
O O11 0.605930 0.582003 0.137771
O O12 0.876458 0.501161 0.887805
O O13 0.000000 0.000000 0.000000
O O14 0.929642 0.154786 0.711573
O O15 0.068955 0.070187 0.682342
O O16 0.095925 0.060200 0.092497
O O17 0.500000 0.000000 0.000000
#
# Coordination Sequence:
#
# PCOD9031674 Si02
#       8
#     2   2   2   2   2   2   2   2
#     4  10  22  43  67  99 128 174 229 271 328 407
#     4  10  24  43  68 104 131 170 230 275 331 401
#     4   9  22  43  65  97 138 170 215 280 338 389
#     4  11  25  41  65  97 134 177 222 272 334 400
#     4  11  23  42  70  97 132 175 220 279 334 396
#     4  11  22  40  72 103 129 170 229 278 330 392
#     4  11  23  41  68  98 131 179 217 276 331 391
#     4  11  24  45  64  97 135 173 226 270 338 403
#
# _framework density 23.328289999999999
#
# number of rings (size 3 to 8) (size 9 to 14) (size 15 to 20)
#    0.000    1.500    1.250    3.375    5.250    5.000 
#    4.500    2.500    0.000    0.000    0.000    0.000 
#    0.000    0.000    0.000    0.000    0.000    0.000 
#
# Total GULP energy -89307.381405 kJ/mol
# GULP energy per Si atom -5581.711338 kJ/mol
# Density = 2.327519 g / cm^3
# Si number density = 23.328290 Si / 1000 Ang^3
#
#
#
# Elastic Constant Matrix: (Units=GPa)
#
#
# Indices 1 2 3 4 5 6 
#
# 1 78.1331 11.8024 21.1572 2.6329 -24.5700 3.3841
# 2 11.8024 104.0634 21.5145 -2.9606 -12.9829 11.8629
# 3 21.1572 21.5145 72.2566 19.3490 -9.7252 5.7434
# 4 2.6329 -2.9606 19.3490 27.8557 -5.4306 -0.3531
# 5 -24.5700 -12.9829 -9.7252 -5.4306 35.9420 1.7855
# 6 3.3841 11.8629 5.7434 -0.3531 1.7855 20.2548
#
#
#
# Elastic Compliance Matrix: (Units=1/GPa)
#
#
# Indices 1 2 3 4 5 6 
#
# 1 0.017664 0.000912 -0.004646 0.003934 0.011899 -0.003149
# 2 0.000912 0.011765 -0.003884 0.004728 0.004849 -0.006287
# 3 -0.004646 -0.003884 0.020262 -0.014302 -0.001116 -0.002846
# 4 0.003934 0.004728 -0.014302 0.047467 0.007661 0.000781
# 5 0.011899 0.004849 -0.001116 0.007661 0.038952 -0.007812
# 6 -0.003149 -0.006287 -0.002846 0.000781 -0.007812 0.055088
#
#
# Mechanical properties :
#
#
# Convention : Reuss Voigt Hill
#
# Bulk Modulus (GPa) = 29.02138 40.37793 34.69966
# Shear Modulus (GPa) = 22.94431 30.14243 26.54337
#
# Velocity S-wave (km/s) = 3.13955 3.59848 3.37682
# Velocity P-wave (km/s) = 5.06061 5.88315 5.48732
#
# Compressibility (1/GPa) = 0.03445735
#
# Stress axis : x y z
#
# Youngs Moduli (GPa) = 56.61119 84.99655 49.35359
#
# Poissons Ratio (x) = -0.07755 0.22928
# Poissons Ratio (y) = -0.05165 0.19168
# Poissons Ratio (z) = 0.26299 0.33011
#
# Static dielectric constant tensor:
#      x y z
#    x 1.923250 0.020920 0.030230 
#    y 0.020920 1.915290 0.031890 
#    z 0.030230 0.031890 1.909800 
# 
# From -- ./inp_files/613601.got.cif
#   From: 2010.05.17/outbox.cif.g08.bks.cpg/sg2_307_cif.got.tgz:613601.got - 2010.06.03 11:33:40.
