data_PCOD9031552
_publ_section_title
;
Structure prediction by ZEFSAII (Michael W. Deem and Ramdas Pophale) SiO2 
 PCOD9031552
Probable space group: P -1
;
_chemical_formula_sum "Si O2"
_cell_formula_units_Z 14
_cell_length_a 11.100785
_cell_length_b 9.004726
_cell_length_c 10.738315
_cell_angle_alpha 50.014452
_cell_angle_beta 124.489696
_cell_angle_gamma 90.823571
_cell_volume 564.608860
_symmetry_space_group_name_H-M "P -1"
_symmetry_group_IT_number 2
_symmetry_cell_setting 'triclinic'
loop_
_space_group_symop_operation_xyz
x,y,z
-x,-y,-z
loop_
_atom_site_type_symbol
_atom_site_label
_atom_site_fract_x
_atom_site_fract_y
_atom_site_fract_z
Si Si1 0.215068 0.116228 0.898124
Si Si2 0.338813 0.197960 0.375833
Si Si3 0.265773 0.655016 0.872779
Si Si4 0.670916 0.403752 0.733242
Si Si5 0.937866 0.791050 0.964934
Si Si6 0.489116 0.186536 0.115230
Si Si7 0.975593 0.070061 0.643384
O O1 0.285787 0.846244 0.071333
O O2 0.145166 0.175002 0.967373
O O3 0.366768 0.161418 0.960858
O O4 0.065944 0.210000 0.655061
O O5 0.370087 0.404420 0.292377
O O6 0.159249 0.274943 0.157672
O O7 0.500000 0.000000 0.500000
O O8 0.374579 0.061608 0.602700
O O9 0.409587 0.715289 0.945831
O O10 0.178259 0.779102 0.622738
O O11 0.105093 0.816287 0.788168
O O12 0.363374 0.384509 0.037418
O O13 0.500000 0.500000 0.500000
O O14 0.852104 0.366955 0.808183
O O15 0.909633 0.021926 0.759191
#
# Coordination Sequence:
#
# PCOD9031552 Si02
#       7
#     2   2   2   2   2   2   2
#     4  11  24  42  67  99 134 161 210 278 336 382
#     4  12  23  39  67  98 133 170 215 269 330 391
#     4  10  24  44  67  88 125 183 221 261 305 384
#     4  11  22  39  60  98 133 167 204 265 340 381
#     4  11  23  42  66 102 130 168 212 270 337 389
#     4  11  23  43  64  95 128 171 225 260 317 384
#     4  10  22  43  67  92 129 168 223 264 320 382
#
# _framework density 24.795926999999999
#
# number of rings (size 3 to 8) (size 9 to 14) (size 15 to 20)
#    0.000    1.143    4.286    2.143    4.000    2.286 
#    0.000    0.000    3.143    0.000    0.000    0.000 
#    0.000    0.000    0.000    0.000    0.000    0.000 
#
# Total GULP energy -78178.109658 kJ/mol
# GULP energy per Si atom -5584.150690 kJ/mol
# Density = 2.473949 g / cm^3
# Si number density = 24.795927 Si / 1000 Ang^3
#
#
#
# Elastic Constant Matrix: (Units=GPa)
#
#
# Indices 1 2 3 4 5 6 
#
# 1 71.3969 34.5628 16.4236 6.4662 21.6888 15.4571
# 2 34.5628 131.2300 12.8731 11.4806 42.1170 31.5657
# 3 16.4236 12.8731 64.2835 9.5102 40.7803 2.8736
# 4 6.4662 11.4806 9.5102 50.7463 16.3481 13.8807
# 5 21.6888 42.1170 40.7803 16.3481 24.8286 14.9135
# 6 15.4571 31.5657 2.8736 13.8807 14.9135 50.3661
#
#
#
# Elastic Compliance Matrix: (Units=1/GPa)
#
#
# Indices 1 2 3 4 5 6 
#
# 1 0.017002 -0.004214 -0.005379 -0.000405 0.003277 -0.003129
# 2 -0.004214 0.005389 -0.011699 -0.003060 0.019601 -0.006377
# 3 -0.005379 -0.011699 -0.009609 -0.009774 0.047946 -0.001972
# 4 -0.000405 -0.003060 -0.009774 0.020119 0.012308 -0.006589
# 5 0.003277 0.019601 0.047946 0.012308 -0.086390 0.006163
# 6 -0.003129 -0.006377 -0.001972 -0.006589 0.006163 0.024915
#
#
# Mechanical properties :
#
#
# Convention : Reuss Voigt Hill
#
# Bulk Modulus (GPa) = -33.55501 43.84772 5.14635
# Shear Modulus (GPa) = 1226.77291 38.72493 632.74892
#
# Velocity S-wave (km/s) = 22.26706 3.95618 15.99177
# Velocity P-wave (km/s) = 25.44669 6.21211 18.52194
#
# Compressibility (1/GPa) = -0.02980181
#
# Stress axis : x y z
#
# Youngs Moduli (GPa) = 58.81631 185.57396 -104.07301
#
# Poissons Ratio (x) = 0.78201 -0.55981
# Poissons Ratio (y) = 0.24785 -1.21755
# Poissons Ratio (z) = 0.31637 2.17103
#
# Static dielectric constant tensor:
#      x y z
#    x 2.085160 -0.019810 0.003820 
#    y -0.019810 1.996420 0.041380 
#    z 0.003820 0.041380 2.151560 
# 
# From -- ./inp_files/419202.got.cif
#   From: 2010.05.17/outbox.cif.g08.bks.cpg/sg2_210_cif.got.tgz:419202.got - 2010.06.03 11:33:40.
