data_PCOD9031473
_publ_section_title
;
Structure prediction by ZEFSAII (Michael W. Deem and Ramdas Pophale) SiO2 
 PCOD9031473
Probable space group: P -1
;
_chemical_formula_sum "Si O2"
_cell_formula_units_Z 16
_cell_length_a 11.927559
_cell_length_b 15.830335
_cell_length_c 9.225963
_cell_angle_alpha 115.159297
_cell_angle_beta 102.602805
_cell_angle_gamma 132.725073
_cell_volume 750.165830
_symmetry_space_group_name_H-M "P -1"
_symmetry_group_IT_number 2
_symmetry_cell_setting 'triclinic'
loop_
_space_group_symop_operation_xyz
x,y,z
-x,-y,-z
loop_
_atom_site_type_symbol
_atom_site_label
_atom_site_fract_x
_atom_site_fract_y
_atom_site_fract_z
Si Si1 0.444212 0.366272 0.475509
Si Si2 0.339709 0.295610 0.837583
Si Si3 0.665037 0.405975 0.812086
Si Si4 0.444654 0.867345 0.293490
Si Si5 0.405130 0.225298 0.077809
Si Si6 0.135202 0.566805 0.733268
Si Si7 0.056029 0.730981 0.374406
Si Si8 0.062582 0.181114 0.448839
O O1 0.500000 0.500000 0.500000
O O2 0.628892 0.440685 0.682516
O O3 0.387561 0.250967 0.252851
O O4 0.242308 0.257397 0.448738
O O5 0.464438 0.301110 0.789588
O O6 0.094462 0.151608 0.590221
O O7 0.500000 0.500000 0.000000
O O8 0.347660 0.271554 0.987984
O O9 0.627207 0.267757 0.715460
O O10 0.914772 0.612281 0.100479
O O11 0.500000 0.000000 0.500000
O O12 0.701698 0.043254 0.418888
O O13 0.252541 0.721403 0.999574
O O14 0.643538 0.340657 0.187208
O O15 0.189106 0.003783 0.828559
O O16 0.000000 0.500000 0.500000
O O17 0.944289 0.369015 0.621817
O O18 0.898388 0.684322 0.400927
#
# Coordination Sequence:
#
# PCOD9031473 Si02
#       8
#     2   2   2   2   2   2   2   2
#     4  11  25  40  62 100 147 180 216 275 355 419
#     4  11  18  36  68  95 125 176 220 261 333 419
#     4  10  22  43  66  99 135 180 228 277 338 421
#     4  11  25  46  70 101 130 177 247 300 342 401
#     4  12  22  42  61  98 138 170 227 281 335 418
#     4  11  25  45  72  98 134 183 235 295 355 408
#     4  11  21  44  73  94 131 181 234 279 343 421
#     4  11  22  39  66  99 131 178 220 271 338 423
#
# _framework density 21.328617999999999
#
# number of rings (size 3 to 8) (size 9 to 14) (size 15 to 20)
#    0.000    1.000    5.000    3.000    0.000    5.500 
#    4.500    0.000    0.000    0.000    0.000    0.000 
#    0.000    0.000    0.000    0.000    0.000    0.000 
#
# Total GULP energy -89159.447727 kJ/mol
# GULP energy per Si atom -5572.465483 kJ/mol
# Density = 2.128007 g / cm^3
# Si number density = 21.328618 Si / 1000 Ang^3
#
#
#
# Elastic Constant Matrix: (Units=GPa)
#
#
# Indices 1 2 3 4 5 6 
#
# 1 80.0602 16.3403 44.8325 -11.8338 -27.6753 -6.1482
# 2 16.3403 84.8744 65.8916 -22.5958 -0.6697 -21.7921
# 3 44.8325 65.8916 150.8088 -25.6263 -5.8305 -25.7136
# 4 -11.8338 -22.5958 -25.6263 43.8829 -4.3044 0.4231
# 5 -27.6753 -0.6697 -5.8305 -4.3044 41.1264 -0.1413
# 6 -6.1482 -21.7921 -25.7136 0.4231 -0.1413 31.9289
#
#
#
# Elastic Compliance Matrix: (Units=1/GPa)
#
#
# Indices 1 2 3 4 5 6 
#
# 1 0.020651 0.001834 -0.005487 0.004639 0.013637 0.000808
# 2 0.001834 0.021102 -0.006905 0.007378 0.001403 0.009103
# 3 -0.005487 -0.006905 0.012214 0.001875 -0.001863 0.004033
# 4 0.004639 0.007378 0.001875 0.029514 0.006621 0.007077
# 5 0.013637 0.001403 -0.001863 0.006621 0.033951 0.002145
# 6 0.000808 0.009103 0.004033 0.007077 0.002145 0.040852
#
#
# Mechanical properties :
#
#
# Convention : Reuss Voigt Hill
#
# Bulk Modulus (GPa) = 30.44124 63.31916 46.88020
# Shear Modulus (GPa) = 26.26730 35.96623 31.11676
#
# Velocity S-wave (km/s) = 3.51315 4.11090 3.82373
# Velocity P-wave (km/s) = 5.54615 7.23080 6.44377
#
# Compressibility (1/GPa) = 0.03285017
#
# Stress axis : x y z
#
# Youngs Moduli (GPa) = 48.42459 47.38783 81.87602
#
# Poissons Ratio (x) = -0.08692 0.44927
# Poissons Ratio (y) = -0.08882 0.56538
# Poissons Ratio (z) = 0.26572 0.32723
#
# Static dielectric constant tensor:
#      x y z
#    x 1.846460 0.018900 -0.007360 
#    y 0.018900 1.824920 0.006390 
#    z -0.007360 0.006390 1.837500 
# 
# From -- ./inp_files/273837.got.cif
#   From: 2010.05.17/outbox.cif.g08.bks.cpg/sg2_137_cif.got.tgz:273837.got - 2010.06.03 11:33:40.
