data_PCOD9031854
_publ_section_title
;
Structure prediction by ZEFSAII (Michael W. Deem and Ramdas Pophale) SiO2 
 PCOD9031854
Probable space group: P -1
;
_chemical_formula_sum "Si O2"
_cell_formula_units_Z 14
_cell_length_a 9.100228
_cell_length_b 7.015094
_cell_length_c 12.320302
_cell_angle_alpha 77.010758
_cell_angle_beta 91.456432
_cell_angle_gamma 127.227547
_cell_volume 604.001914
_symmetry_space_group_name_H-M "P -1"
_symmetry_group_IT_number 2
_symmetry_cell_setting 'triclinic'
loop_
_space_group_symop_operation_xyz
x,y,z
-x,-y,-z
loop_
_atom_site_type_symbol
_atom_site_label
_atom_site_fract_x
_atom_site_fract_y
_atom_site_fract_z
Si Si1 0.908915 0.772691 0.108909
Si Si2 0.695724 0.052439 0.899697
Si Si3 0.284940 0.358753 0.294498
Si Si4 0.358747 0.592570 0.030936
Si Si5 0.587638 0.954494 0.671638
Si Si6 0.319102 0.411918 0.669902
Si Si7 0.169509 0.504708 0.460898
O O1 0.814087 0.775687 0.214760
O O2 0.088752 0.796710 0.143553
O O3 0.757492 0.541842 0.061772
O O4 0.000000 0.000000 0.000000
O O5 0.684081 0.220569 0.960037
O O6 0.591042 0.010263 0.791200
O O7 0.580543 0.776213 0.984874
O O8 0.303392 0.425904 0.158919
O O9 0.266001 0.107987 0.333727
O O10 0.490602 0.555866 0.328161
O O11 0.149079 0.385341 0.357471
O O12 0.394690 0.690511 0.671675
O O13 0.657851 0.201137 0.579275
O O14 0.218217 0.368101 0.561137
O O15 0.000000 0.500000 0.500000
#
# Coordination Sequence:
#
# PCOD9031854 Si02
#       7
#     2   2   2   2   2   2   2
#     4  12  24  40  68 104 139 181 229 282 341 415
#     4  11  22  40  68  98 143 178 230 280 346 407
#     4  10  23  41  70  93 135 182 226 276 347 411
#     4  11  22  42  65 102 137 184 225 283 346 411
#     4  10  22  43  68  96 136 182 225 276 349 405
#     4  10  24  43  68  97 138 180 232 276 344 414
#     4  12  24  44  68  99 136 176 232 290 339 406
#
# _framework density 23.178733000000001
#
# number of rings (size 3 to 8) (size 9 to 14) (size 15 to 20)
#    0.857    0.286    2.857    3.857    0.000    2.286 
#    0.000    0.000    0.000    0.000    0.000    0.000 
#    0.000    0.000    0.000    0.000    0.000    0.000 
#
# Total GULP energy -78162.416196 kJ/mol
# GULP energy per Si atom -5583.029728 kJ/mol
# Density = 2.312598 g / cm^3
# Si number density = 23.178733 Si / 1000 Ang^3
#
#
#
# Elastic Constant Matrix: (Units=GPa)
#
#
# Indices 1 2 3 4 5 6 
#
# 1 48.6411 7.1987 23.7430 2.0301 -18.0042 11.3798
# 2 7.1987 48.8585 7.8493 -3.0376 -3.9773 -4.3969
# 3 23.7430 7.8493 128.6817 -2.7458 -3.2881 -5.5329
# 4 2.0301 -3.0376 -2.7458 30.7128 -2.5392 3.3033
# 5 -18.0042 -3.9773 -3.2881 -2.5392 40.0088 1.0194
# 6 11.3798 -4.3969 -5.5329 3.3033 1.0194 26.4314
#
#
#
# Elastic Compliance Matrix: (Units=1/GPa)
#
#
# Indices 1 2 3 4 5 6 
#
# 1 0.033711 -0.004308 -0.006322 -0.000170 0.014647 -0.017098
# 2 -0.004308 0.021742 -0.000264 0.001870 0.000188 0.005175
# 3 -0.006322 -0.000264 0.009106 0.000528 -0.002206 0.004603
# 4 -0.000170 0.001870 0.000528 0.033405 0.002369 -0.003771
# 5 0.014647 0.000188 -0.002206 0.002369 0.031784 -0.008259
# 6 -0.017098 0.005175 0.004603 -0.003771 -0.008259 0.047810
#
#
# Mechanical properties :
#
#
# Convention : Reuss Voigt Hill
#
# Bulk Modulus (GPa) = 23.38026 33.75150 28.56588
# Shear Modulus (GPa) = 23.40803 31.92329 27.66566
#
# Velocity S-wave (km/s) = 3.18133 3.71518 3.45857
# Velocity P-wave (km/s) = 4.85832 5.74425 5.31976
#
# Compressibility (1/GPa) = 0.04277113
#
# Stress axis : x y z
#
# Youngs Moduli (GPa) = 29.66409 45.99446 109.81231
#
# Poissons Ratio (x) = 0.19815 0.69420
# Poissons Ratio (y) = 0.12780 0.02900
# Poissons Ratio (z) = 0.18753 0.01215
#
# Static dielectric constant tensor:
#      x y z
#    x 1.944420 0.018350 0.002080 
#    y 0.018350 1.904780 -0.046770 
#    z 0.002080 -0.046770 1.866700 
# 
# From -- ./inp_files/412635.got.cif
#   From: 2010.05.17/outbox.cif.g08.bks.cpg/sg2_207_cif.got.tgz:412635.got - 2010.06.03 11:33:40.
