data_PCOD9031162
_publ_section_title
;
Structure prediction by ZEFSAII (Michael W. Deem and Ramdas Pophale) SiO2 
 PCOD9031162
Probable space group: P -1
;
_chemical_formula_sum "Si O2"
_cell_formula_units_Z 14
_cell_length_a 9.200865
_cell_length_b 8.840488
_cell_length_c 11.909016
_cell_angle_alpha 108.428967
_cell_angle_beta 53.019455
_cell_angle_gamma 134.014120
_cell_volume 547.693249
_symmetry_space_group_name_H-M "P -1"
_symmetry_group_IT_number 2
_symmetry_cell_setting 'triclinic'
loop_
_space_group_symop_operation_xyz
x,y,z
-x,-y,-z
loop_
_atom_site_type_symbol
_atom_site_label
_atom_site_fract_x
_atom_site_fract_y
_atom_site_fract_z
Si Si1 0.191027 0.751490 0.508845
Si Si2 0.895809 0.101293 0.621857
Si Si3 0.586843 0.271978 0.160663
Si Si4 0.289777 0.552077 0.083280
Si Si5 0.008692 0.885967 0.807109
Si Si6 0.221778 0.567555 0.650389
Si Si7 0.241995 0.972925 0.959101
O O1 0.253530 0.872907 0.391163
O O2 0.338535 0.736160 0.531444
O O3 0.000000 0.500000 0.500000
O O4 0.098042 0.851276 0.645871
O O5 0.128735 0.340455 0.604945
O O6 0.696707 0.938485 0.768760
O O7 0.000000 0.000000 0.500000
O O8 0.625577 0.350056 0.287932
O O9 0.735800 0.196028 0.054658
O O10 0.674162 0.442054 0.065136
O O11 0.247680 0.354973 0.109478
O O12 0.501008 0.788802 0.085910
O O13 0.032116 0.488971 0.215682
O O14 0.958621 0.042800 0.883099
O O15 0.175691 0.941550 0.850497
#
# Coordination Sequence:
#
# PCOD9031162 Si02
#       7
#     2   2   2   2   2   2   2
#     4   9  20  43  66  85 125 174 207 257 307 370
#     4  11  26  43  63  90 124 169 219 265 304 375
#     4  12  24  40  64  95 127 171 206 255 331 376
#     4  11  22  39  65  96 129 163 199 263 323 380
#     4  10  23  41  64 100 128 159 213 267 308 382
#     4  10  22  43  65  90 126 164 214 259 318 375
#     4  11  22  39  66  99 125 163 211 258 329 371
#
# _framework density 25.561755000000002
#
# number of rings (size 3 to 8) (size 9 to 14) (size 15 to 20)
#    0.000    1.429    4.286    1.286    2.000    1.143 
#    2.571    0.000    0.000    0.000    0.000    0.000 
#    0.000    0.000    0.000    0.000    0.000    0.000 
#
# Total GULP energy -78307.448995 kJ/mol
# GULP energy per Si atom -5593.389214 kJ/mol
# Density = 2.550358 g / cm^3
# Si number density = 25.561755 Si / 1000 Ang^3
#
#
#
# Elastic Constant Matrix: (Units=GPa)
#
#
# Indices 1 2 3 4 5 6 
#
# 1 69.7438 22.7792 21.3043 16.0833 11.2652 6.5197
# 2 22.7792 115.0573 30.9967 24.7170 1.5575 -1.7655
# 3 21.3043 30.9967 81.4188 12.2917 11.7258 -13.0236
# 4 16.0833 24.7170 12.2917 49.4911 -1.6509 -0.7580
# 5 11.2652 1.5575 11.7258 -1.6509 43.2081 12.0595
# 6 6.5197 -1.7655 -13.0236 -0.7580 12.0595 47.3826
#
#
#
# Elastic Compliance Matrix: (Units=1/GPa)
#
#
# Indices 1 2 3 4 5 6 
#
# 1 0.017617 -0.001690 -0.003326 -0.004197 -0.003038 -0.002695
# 2 -0.001690 0.010741 -0.003275 -0.003979 0.000950 -0.000573
# 3 -0.003326 -0.003275 0.016347 -0.001424 -0.005217 0.006134
# 4 -0.004197 -0.003979 -0.001424 0.023994 0.002608 -0.000242
# 5 -0.003038 0.000950 -0.005217 0.002608 0.027643 -0.007974
# 6 -0.002695 -0.000573 0.006134 -0.000242 -0.007974 0.025166
#
#
# Mechanical properties :
#
#
# Convention : Reuss Voigt Hill
#
# Bulk Modulus (GPa) = 35.55883 46.26447 40.91165
# Shear Modulus (GPa) = 33.90668 40.75901 37.33284
#
# Velocity S-wave (km/s) = 3.64601 3.99749 3.82579
# Velocity P-wave (km/s) = 5.62723 6.28052 5.96283
#
# Compressibility (1/GPa) = 0.02812241
#
# Stress axis : x y z
#
# Youngs Moduli (GPa) = 56.76403 93.09860 61.17460
#
# Poissons Ratio (x) = 0.15736 0.20348
# Poissons Ratio (y) = 0.09595 0.20033
# Poissons Ratio (z) = 0.18881 0.30487
#
# Static dielectric constant tensor:
#      x y z
#    x 2.077460 0.016030 -0.001440 
#    y 0.016030 2.014410 -0.002480 
#    z -0.001440 -0.002480 2.011360 
# 
# From -- ./inp_files/382552.got.cif
#   From: 2010.05.17/outbox.cif.g08.bks.cpg/sg2_192_cif.got.tgz:382552.got - 2010.06.03 11:33:40.
