data_PCOD9031449
_publ_section_title
;
Structure prediction by ZEFSAII (Michael W. Deem and Ramdas Pophale) SiO2 
 PCOD9031449
Probable space group: P -1
;
_chemical_formula_sum "Si O2"
_cell_formula_units_Z 16
_cell_length_a 12.989211
_cell_length_b 8.634177
_cell_length_c 9.358474
_cell_angle_alpha 124.606104
_cell_angle_beta 103.153653
_cell_angle_gamma 58.996571
_cell_volume 737.308096
_symmetry_space_group_name_H-M "P -1"
_symmetry_group_IT_number 2
_symmetry_cell_setting 'triclinic'
loop_
_space_group_symop_operation_xyz
x,y,z
-x,-y,-z
loop_
_atom_site_type_symbol
_atom_site_label
_atom_site_fract_x
_atom_site_fract_y
_atom_site_fract_z
Si Si1 0.551587 0.921611 0.634895
Si Si2 0.524880 0.670108 0.012977
Si Si3 0.944329 0.618044 0.330924
Si Si4 0.813324 0.175489 0.201865
Si Si5 0.793373 0.407313 0.034162
Si Si6 0.995341 0.733101 0.140547
Si Si7 0.828512 0.574832 0.536798
Si Si8 0.440554 0.714741 0.687411
O O1 0.684361 0.715499 0.568705
O O2 0.459761 0.877281 0.677432
O O3 0.500000 0.000000 0.500000
O O4 0.560673 0.106119 0.821683
O O5 0.506852 0.677623 0.841824
O O6 0.500000 0.500000 0.000000
O O7 0.663542 0.596655 0.053190
O O8 0.872631 0.501971 0.183338
O O9 0.939493 0.794884 0.313455
O O10 0.880242 0.684062 0.498187
O O11 0.087456 0.463323 0.319552
O O12 0.783510 0.252676 0.068300
O O13 0.856194 0.336778 0.369812
O O14 0.695250 0.213887 0.271591
O O15 0.910016 0.926504 0.112144
O O16 0.871748 0.298274 0.861143
O O17 0.000000 0.500000 0.000000
O O18 0.500000 0.500000 0.500000
#
# Coordination Sequence:
#
# PCOD9031449 Si02
#       8
#     2   2   2   2   2   2   2   2
#     4  12  26  45  75 106 148 193 235 295 363 424
#     4  12  26  48  71 111 142 187 243 293 359 438
#     4   9  21  42  65  94 134 179 233 284 347 414
#     4  11  22  42  67  97 138 182 234 293 351 425
#     4  10  22  44  67  94 140 179 229 292 352 417
#     4  10  23  38  66  95 129 179 233 286 348 409
#     4  10  22  43  66  97 138 180 234 284 355 421
#     4  12  26  46  73 106 145 191 238 295 364 427
#
# _framework density 21.700561
#
# number of rings (size 3 to 8) (size 9 to 14) (size 15 to 20)
#    0.000    1.250    2.500    3.000    7.000    2.500 
#    6.750    0.000    0.000    0.000    0.000    0.000 
#    0.000    0.000    0.000    0.000    0.000    0.000 
#
# Total GULP energy -89249.653825 kJ/mol
# GULP energy per Si atom -5578.103364 kJ/mol
# Density = 2.165117 g / cm^3
# Si number density = 21.700561 Si / 1000 Ang^3
#
#
#
# Elastic Constant Matrix: (Units=GPa)
#
#
# Indices 1 2 3 4 5 6 
#
# 1 111.0176 21.4446 16.0124 -12.9089 -14.1987 -0.6287
# 2 21.4446 86.6183 40.3262 -8.2772 2.1277 -0.9512
# 3 16.0124 40.3262 82.4968 -12.4402 3.7753 10.8614
# 4 -12.9089 -8.2772 -12.4402 46.2273 2.2287 -5.5728
# 5 -14.1987 2.1277 3.7753 2.2287 35.2506 -11.8320
# 6 -0.6287 -0.9512 10.8614 -5.5728 -11.8320 46.3503
#
#
#
# Elastic Compliance Matrix: (Units=1/GPa)
#
#
# Indices 1 2 3 4 5 6 
#
# 1 0.010461 -0.001896 -0.001248 0.002239 0.004969 0.001933
# 2 -0.001896 0.015540 -0.007405 0.000517 -0.000262 0.002024
# 3 -0.001248 -0.007405 0.017170 0.002542 -0.003675 -0.004825
# 4 0.002239 0.000517 0.002542 0.023307 -0.000132 0.002214
# 5 0.004969 -0.000262 -0.003675 -0.000132 0.034006 0.009588
# 6 0.001933 0.002024 -0.004825 0.002214 0.009588 0.025487
#
#
# Mechanical properties :
#
#
# Convention : Reuss Voigt Hill
#
# Bulk Modulus (GPa) = 45.30234 48.41098 46.85666
# Shear Modulus (GPa) = 32.37822 39.05560 35.71691
#
# Velocity S-wave (km/s) = 3.86689 4.24695 4.06137
# Velocity P-wave (km/s) = 6.39207 6.81218 6.60547
#
# Compressibility (1/GPa) = 0.02207392
#
# Stress axis : x y z
#
# Youngs Moduli (GPa) = 95.59722 64.35178 58.24058
#
# Poissons Ratio (x) = 0.12199 0.07268
# Poissons Ratio (y) = 0.18122 0.43125
# Poissons Ratio (z) = 0.11930 0.47650
#
# Static dielectric constant tensor:
#      x y z
#    x 1.802770 -0.002930 -0.059120 
#    y -0.002930 1.761490 -0.071110 
#    z -0.059120 -0.071110 1.946970 
# 
# From -- ./inp_files/245569.got.cif
#   From: 2010.05.17/outbox.cif.g08.bks.cpg/sg2_123_cif.got.tgz:245569.got - 2010.06.03 11:33:40.
