data_PCOD9031684
_publ_section_title
;
Structure prediction by ZEFSAII (Michael W. Deem and Ramdas Pophale) SiO2 
 PCOD9031684
Probable space group: P -1
;
_chemical_formula_sum "Si O2"
_cell_formula_units_Z 14
_cell_length_a 11.579674
_cell_length_b 5.804567
_cell_length_c 9.152049
_cell_angle_alpha 107.537076
_cell_angle_beta 80.442038
_cell_angle_gamma 88.331642
_cell_volume 576.368474
_symmetry_space_group_name_H-M "P -1"
_symmetry_group_IT_number 2
_symmetry_cell_setting 'triclinic'
loop_
_space_group_symop_operation_xyz
x,y,z
-x,-y,-z
loop_
_atom_site_type_symbol
_atom_site_label
_atom_site_fract_x
_atom_site_fract_y
_atom_site_fract_z
Si Si1 0.866630 0.838689 0.885836
Si Si2 0.387315 0.135154 0.622367
Si Si3 0.679463 0.141238 0.154825
Si Si4 0.818538 0.540655 0.329965
Si Si5 0.950862 0.306942 0.827632
Si Si6 0.194089 0.556145 0.377409
Si Si7 0.471579 0.471612 0.323283
O O1 0.939734 0.073243 0.888410
O O2 0.914294 0.598961 0.927644
O O3 0.848597 0.702674 0.711799
O O4 0.741347 0.950619 0.994669
O O5 0.290719 0.270713 0.564733
O O6 0.452287 0.334561 0.735294
O O7 0.500000 0.000000 0.500000
O O8 0.314203 0.975894 0.709089
O O9 0.761606 0.364911 0.192253
O O10 0.540238 0.227490 0.199134
O O11 0.853596 0.393325 0.440587
O O12 0.922294 0.675758 0.266867
O O13 0.860118 0.270956 0.705603
O O14 0.335345 0.536027 0.339675
O O15 0.500000 0.500000 0.500000
#
# Coordination Sequence:
#
# PCOD9031684 Si02
#       7
#     2   2   2   2   2   2   2
#     4  10  27  46  66  97 144 177 225 275 337 404
#     4  11  21  37  67 101 132 167 224 288 333 389
#     4  11  24  41  67 100 132 179 224 278 342 392
#     4  11  23  41  71  98 131 178 230 279 332 398
#     4  10  26  47  66  99 138 182 226 272 337 400
#     4  10  22  43  67  99 136 177 221 283 335 402
#     4  11  20  41  63 100 130 165 224 278 334 398
#
# _framework density 24.290016999999999
#
# number of rings (size 3 to 8) (size 9 to 14) (size 15 to 20)
#    0.857    0.571    4.286    0.429    6.000    5.714 
#    0.000    1.429    0.000    0.000    0.000    0.000 
#    0.000    0.000    0.000    0.000    0.000    0.000 
#
# Total GULP energy -77972.750195 kJ/mol
# GULP energy per Si atom -5569.482157 kJ/mol
# Density = 2.423473 g / cm^3
# Si number density = 24.290017 Si / 1000 Ang^3
#
#
#
# Elastic Constant Matrix: (Units=GPa)
#
#
# Indices 1 2 3 4 5 6 
#
# 1 127.6348 41.8181 20.3419 -11.5771 -22.4712 0.5637
# 2 41.8181 117.0014 2.0787 -24.1205 -2.9467 7.2680
# 3 20.3419 2.0787 45.1738 -3.3599 -19.6326 -2.7274
# 4 -11.5771 -24.1205 -3.3599 27.5248 1.7468 -5.0062
# 5 -22.4712 -2.9467 -19.6326 1.7468 35.8464 1.9319
# 6 0.5637 7.2680 -2.7274 -5.0062 1.9319 38.5388
#
#
#
# Elastic Compliance Matrix: (Units=1/GPa)
#
#
# Indices 1 2 3 4 5 6 
#
# 1 0.010213 -0.003329 -0.002272 0.000828 0.004834 0.000183
# 2 -0.003329 0.011555 0.001191 0.008769 -0.000865 -0.000864
# 3 -0.002272 0.001191 0.029858 0.003082 0.014791 0.001581
# 4 0.000828 0.008769 0.003082 0.045518 0.000470 0.004441
# 5 0.004834 -0.000865 0.014791 0.000470 0.038974 -0.000753
# 6 0.000183 -0.000864 0.001581 0.004441 -0.000753 0.026835
#
#
# Mechanical properties :
#
#
# Convention : Reuss Voigt Hill
#
# Bulk Modulus (GPa) = 23.36105 46.47638 34.91872
# Shear Modulus (GPa) = 26.87571 35.42008 31.14790
#
# Velocity S-wave (km/s) = 3.32994 3.82280 3.58485
# Velocity P-wave (km/s) = 4.94198 6.21776 5.61621
#
# Compressibility (1/GPa) = 0.04280629
#
# Stress axis : x y z
#
# Youngs Moduli (GPa) = 97.91444 86.54097 33.49196
#
# Poissons Ratio (x) = 0.28809 0.07611
# Poissons Ratio (y) = 0.32595 -0.03990
# Poissons Ratio (z) = 0.22249 -0.10310
#
# Static dielectric constant tensor:
#      x y z
#    x 1.955490 -0.072160 0.031730 
#    y -0.072160 2.154150 0.084340 
#    z 0.031730 0.084340 1.972030 
# 
# From -- ./inp_files/411020.got.cif
#   From: 2010.05.17/outbox.cif.g08.bks.cpg/sg2_206_cif.got.tgz:411020.got - 2010.06.03 11:33:40.
