data_PCOD9031807
_publ_section_title
;
Structure prediction by ZEFSAII (Michael W. Deem and Ramdas Pophale) SiO2 
 PCOD9031807
Probable space group: P -1
;
_chemical_formula_sum "Si O2"
_cell_formula_units_Z 14
_cell_length_a 8.975021
_cell_length_b 9.354558
_cell_length_c 8.431064
_cell_angle_alpha 84.081194
_cell_angle_beta 90.929937
_cell_angle_gamma 59.566737
_cell_volume 605.131080
_symmetry_space_group_name_H-M "P -1"
_symmetry_group_IT_number 2
_symmetry_cell_setting 'triclinic'
loop_
_space_group_symop_operation_xyz
x,y,z
-x,-y,-z
loop_
_atom_site_type_symbol
_atom_site_label
_atom_site_fract_x
_atom_site_fract_y
_atom_site_fract_z
Si Si1 0.141853 0.404471 0.646035
Si Si2 0.940130 0.837055 0.149367
Si Si3 0.129557 0.959981 0.363125
Si Si4 0.549420 0.390260 0.175172
Si Si5 0.573858 0.121914 0.013748
Si Si6 0.935962 0.299707 0.168966
Si Si7 0.481785 0.681458 0.339556
O O1 0.134964 0.244690 0.722965
O O2 0.092986 0.529792 0.779409
O O3 0.328827 0.365904 0.594790
O O4 0.000000 0.500000 0.500000
O O5 0.070943 0.877053 0.236184
O O6 0.032241 0.718135 0.015246
O O7 0.777876 0.005737 0.061121
O O8 0.324887 0.819854 0.424491
O O9 0.000000 0.000000 0.500000
O O10 0.092866 0.137084 0.275241
O O11 0.757426 0.303177 0.202840
O O12 0.473093 0.517417 0.307592
O O13 0.500000 0.500000 0.000000
O O14 0.500484 0.251136 0.145831
O O15 0.538234 0.225479 0.840098
O O16 0.500000 0.000000 0.000000
#
# Coordination Sequence:
#
# PCOD9031807 Si02
#       7
#     2   2   2   2   2   2   2
#     4  11  25  46  67 101 145 179 219 283 351 412
#     4  12  22  41  71 101 134 174 232 284 335 399
#     4  12  25  44  68 101 136 181 229 282 345 407
#     4   9  19  36  62  96 133 169 216 282 332 392
#     4  11  19  36  67 107 132 165 231 289 331 393
#     4  11  22  42  69  96 133 177 231 278 333 403
#     4  10  22  43  68  93 138 181 226 275 340 411
#
# _framework density 23.135484000000002
#
# number of rings (size 3 to 8) (size 9 to 14) (size 15 to 20)
#    0.000    1.143    4.286    3.429    0.000    0.000 
#    2.571   12.143    0.000    0.000    0.000    0.000 
#    0.000    0.000    0.000    0.000    0.000    0.000 
#
# Total GULP energy -78356.917199 kJ/mol
# GULP energy per Si atom -5596.922657 kJ/mol
# Density = 2.308283 g / cm^3
# Si number density = 23.135484 Si / 1000 Ang^3
#
#
#
# Elastic Constant Matrix: (Units=GPa)
#
#
# Indices 1 2 3 4 5 6 
#
# 1 83.9984 48.8175 23.1464 -3.8285 9.7248 -11.6280
# 2 48.8175 97.7894 -1.0589 0.3032 0.3582 -6.8012
# 3 23.1464 -1.0589 59.2457 -3.3893 0.2247 -15.3591
# 4 -3.8285 0.3032 -3.3893 26.0294 -8.3398 -3.8247
# 5 9.7248 0.3582 0.2247 -8.3398 34.3435 -4.9458
# 6 -11.6280 -6.8012 -15.3591 -3.8247 -4.9458 52.9699
#
#
#
# Elastic Compliance Matrix: (Units=1/GPa)
#
#
# Indices 1 2 3 4 5 6 
#
# 1 0.021033 -0.010545 -0.008267 0.000385 -0.005645 0.000367
# 2 -0.010545 0.015624 0.004739 0.000042 0.002996 0.001348
# 3 -0.008267 0.004739 0.021883 0.003665 0.003868 0.005765
# 4 0.000385 0.000042 0.003665 0.043305 0.011149 0.005320
# 5 -0.005645 0.002996 0.003868 0.011149 0.033978 0.004245
# 6 0.000367 0.001348 0.005765 0.005320 0.004245 0.021584
#
#
# Mechanical properties :
#
#
# Convention : Reuss Voigt Hill
#
# Bulk Modulus (GPa) = 32.89967 42.53816 37.71892
# Shear Modulus (GPa) = 25.55138 34.01048 29.78093
#
# Velocity S-wave (km/s) = 3.32689 3.83829 3.59171
# Velocity P-wave (km/s) = 5.38599 6.17007 5.79132
#
# Compressibility (1/GPa) = 0.03039544
#
# Stress axis : x y z
#
# Youngs Moduli (GPa) = 47.54389 64.00416 45.69780
#
# Poissons Ratio (x) = 0.67489 0.37780
# Poissons Ratio (y) = 0.50133 -0.21658
# Poissons Ratio (z) = 0.39306 -0.30335
#
# Static dielectric constant tensor:
#      x y z
#    x 1.860460 -0.015270 -0.018120 
#    y -0.015270 1.897720 -0.009600 
#    z -0.018120 -0.009600 1.899960 
# 
# From -- ./inp_files/158066.got.cif
#   From: 2010.05.17/outbox.cif.g08.bks.cpg/sg2_80_cif.got.tgz:158066.got - 2010.06.03 11:33:40.
