data_PCOD9031995
_publ_section_title
;
Structure prediction by ZEFSAII (Michael W. Deem and Ramdas Pophale) SiO2 
 PCOD9031995
Probable space group: P -1
;
_chemical_formula_sum "Si O2"
_cell_formula_units_Z 16
_cell_length_a 5.202865
_cell_length_b 9.411223
_cell_length_c 15.520208
_cell_angle_alpha 70.355400
_cell_angle_beta 83.549089
_cell_angle_gamma 114.230284
_cell_volume 624.328053
_symmetry_space_group_name_H-M "P -1"
_symmetry_group_IT_number 2
_symmetry_cell_setting 'triclinic'
loop_
_space_group_symop_operation_xyz
x,y,z
-x,-y,-z
loop_
_atom_site_type_symbol
_atom_site_label
_atom_site_fract_x
_atom_site_fract_y
_atom_site_fract_z
Si Si1 0.234239 0.189673 0.561603
Si Si2 0.624444 0.234609 0.697596
Si Si3 0.098530 0.037007 0.087171
Si Si4 0.376265 0.867966 0.845075
Si Si5 0.167506 0.858030 0.561856
Si Si6 0.218341 0.555038 0.629407
Si Si7 0.693723 0.666547 0.193440
Si Si8 0.714313 0.481163 0.064919
O O1 0.373933 0.229522 0.643209
O O2 0.525841 0.322248 0.470016
O O3 0.990681 0.210132 0.510508
O O4 0.085801 0.981397 0.595605
O O5 0.567070 0.289063 0.784157
O O6 0.946262 0.387914 0.631834
O O7 0.558293 0.037976 0.745447
O O8 0.926703 0.128750 0.120596
O O9 0.443002 0.119486 0.076093
O O10 0.971125 0.846914 0.170207
O O11 0.000000 0.000000 0.000000
O O12 0.370781 0.696979 0.844621
O O13 0.120545 0.687993 0.645620
O O14 0.500000 0.000000 0.500000
O O15 0.347735 0.484333 0.711391
O O16 0.743980 0.618158 0.107080
O O17 0.500000 0.500000 0.000000
O O18 0.000000 0.500000 0.000000
#
# Coordination Sequence:
#
# PCOD9031995 Si02
#       8
#     2   2   2   2   2   2   2   2
#     4  10  22  43  69 102 146 204 245 300 372 439
#     4  11  25  43  69 109 152 194 249 308 373 443
#     4  11  22  44  72 101 142 186 232 303 376 451
#     4  11  24  45  68 110 140 187 244 298 369 445
#     4   9  21  41  66 100 139 194 251 303 362 439
#     4  11  22  42  67 104 147 192 249 309 366 436
#     4  11  26  42  68 107 145 185 246 310 371 444
#     4  12  28  50  77 108 145 195 246 309 385 458
#
# _framework density 25.627551
#
# number of rings (size 3 to 8) (size 9 to 14) (size 15 to 20)
#    0.000    1.250    1.250    3.750    3.500    5.000 
#    0.000    3.750    0.000    0.000    0.000    0.000 
#    0.000    0.000    0.000    0.000    0.000    0.000 
#
# Total GULP energy -89285.612183 kJ/mol
# GULP energy per Si atom -5580.350761 kJ/mol
# Density = 2.556922 g / cm^3
# Si number density = 25.627551 Si / 1000 Ang^3
#
#
#
# Elastic Constant Matrix: (Units=GPa)
#
#
# Indices 1 2 3 4 5 6 
#
# 1 132.3922 47.2166 25.8121 1.1379 17.6703 5.8044
# 2 47.2166 132.3867 42.4557 -24.9965 -1.9488 -13.1553
# 3 25.8121 42.4557 80.3103 -10.2113 4.2465 -1.9624
# 4 1.1379 -24.9965 -10.2113 56.9248 -4.9077 10.1913
# 5 17.6703 -1.9488 4.2465 -4.9077 27.4211 -8.0620
# 6 5.8044 -13.1553 -1.9624 10.1913 -8.0620 42.7699
#
#
#
# Elastic Compliance Matrix: (Units=1/GPa)
#
#
# Indices 1 2 3 4 5 6 
#
# 1 0.010684 -0.004450 -0.001025 -0.002393 -0.008623 -0.003921
# 2 -0.004450 0.011937 -0.004569 0.004305 0.006445 0.004255
# 3 -0.001025 -0.004569 0.015388 0.000790 -0.002250 -0.001173
# 4 -0.002393 0.004305 0.000790 0.020465 0.004711 -0.002303
# 5 -0.008623 0.006445 -0.002250 0.004711 0.046837 0.010755
# 6 -0.003921 0.004255 -0.001173 -0.002303 0.010755 0.027744
#
#
# Mechanical properties :
#
#
# Convention : Reuss Voigt Hill
#
# Bulk Modulus (GPa) = 55.80906 64.00647 59.90777
# Shear Modulus (GPa) = 31.42346 40.73014 36.07680
#
# Velocity S-wave (km/s) = 3.50545 3.99094 3.75605
# Velocity P-wave (km/s) = 6.18131 6.80196 6.49905
#
# Compressibility (1/GPa) = 0.01791824
#
# Stress axis : x y z
#
# Youngs Moduli (GPa) = 93.60090 83.77599 64.98686
#
# Poissons Ratio (x) = 0.37280 0.06664
# Poissons Ratio (y) = 0.41652 0.29696
# Poissons Ratio (z) = 0.09598 0.38281
#
# Static dielectric constant tensor:
#      x y z
#    x 2.142860 -0.057550 -0.051030 
#    y -0.057550 2.143300 0.032470 
#    z -0.051030 0.032470 2.078310 
# 
# From -- ./inp_files/547978.got.cif
#   From: 2010.05.17/outbox.cif.g08.bks.cpg/sg2_274_cif.got.tgz:547978.got - 2010.06.03 11:33:40.
