data_PCOD9031756
_publ_section_title
;
Structure prediction by ZEFSAII (Michael W. Deem and Ramdas Pophale) SiO2 
 PCOD9031756
Probable space group: P -1
;
_chemical_formula_sum "Si O2"
_cell_formula_units_Z 16
_cell_length_a 25.586369
_cell_length_b 5.361067
_cell_length_c 15.584107
_cell_angle_alpha 63.348108
_cell_angle_beta 156.098576
_cell_angle_gamma 103.656013
_cell_volume 678.852844
_symmetry_space_group_name_H-M "P -1"
_symmetry_group_IT_number 2
_symmetry_cell_setting 'triclinic'
loop_
_space_group_symop_operation_xyz
x,y,z
-x,-y,-z
loop_
_atom_site_type_symbol
_atom_site_label
_atom_site_fract_x
_atom_site_fract_y
_atom_site_fract_z
Si Si1 0.126708 0.399202 0.989553
Si Si2 0.102346 0.069080 0.308846
Si Si3 0.208047 0.586595 0.678431
Si Si4 0.539396 0.782001 0.507735
Si Si5 0.375977 0.189535 0.713216
Si Si6 0.506005 0.068046 0.238131
Si Si7 0.190769 0.918811 0.287918
Si Si8 0.931973 0.841395 0.485429
O O1 0.287936 0.365087 0.230306
O O2 0.141243 0.062824 0.095976
O O3 0.023995 0.649096 0.869264
O O4 0.056434 0.546432 0.770451
O O5 0.263309 0.046652 0.565560
O O6 0.135712 0.738136 0.455153
O O7 0.074678 0.112723 0.158602
O O8 0.161703 0.314658 0.672013
O O9 0.155398 0.877689 0.620469
O O10 0.383440 0.407690 0.969219
O O11 0.500000 0.500000 0.500000
O O12 0.500000 0.000000 0.500000
O O13 0.460926 0.985584 0.273701
O O14 0.256467 0.560259 0.474112
O O15 0.466495 0.159349 0.766220
O O16 0.500000 0.000000 0.000000
O O17 0.664588 0.039064 0.492831
O O18 0.000000 0.000000 0.500000
#
# Coordination Sequence:
#
# PCOD9031756 Si02
#       8
#     2   2   2   2   2   2   2   2
#     4  10  25  46  70 104 144 181 248 295 363 440
#     4  10  23  43  65 107 139 191 232 297 360 432
#     4  11  25  43  73 102 141 182 240 291 362 427
#     4  11  28  48  74 102 137 190 242 305 368 420
#     4  11  23  40  72 105 151 192 240 288 364 440
#     4  10  25  42  69 103 143 188 241 300 354 434
#     4  10  22  43  68 103 145 191 235 294 364 431
#     4  11  27  47  70 102 137 189 240 302 358 418
#
# _framework density 23.569172999999999
#
# number of rings (size 3 to 8) (size 9 to 14) (size 15 to 20)
#    0.000    1.500    0.000    2.250   15.750    4.500 
#    9.000    0.000    0.000    0.000    0.000    0.000 
#    0.000    0.000    0.000    0.000    0.000    0.000 
#
# Total GULP energy -89325.531306 kJ/mol
# GULP energy per Si atom -5582.845707 kJ/mol
# Density = 2.351553 g / cm^3
# Si number density = 23.569173 Si / 1000 Ang^3
#
#
#
# Elastic Constant Matrix: (Units=GPa)
#
#
# Indices 1 2 3 4 5 6 
#
# 1 124.2021 35.8187 51.4200 -9.3827 -14.4024 16.1619
# 2 35.8187 100.7745 15.6405 -5.8443 -8.0120 24.8211
# 3 51.4200 15.6405 110.7569 -5.0648 -4.9314 -5.2882
# 4 -9.3827 -5.8443 -5.0648 30.4390 6.3598 1.2476
# 5 -14.4024 -8.0120 -4.9314 6.3598 37.2673 -0.0509
# 6 16.1619 24.8211 -5.2882 1.2476 -0.0509 40.5235
#
#
#
# Elastic Compliance Matrix: (Units=1/GPa)
#
#
# Indices 1 2 3 4 5 6 
#
# 1 0.011832 -0.002000 -0.005186 0.001921 0.003123 -0.004226
# 2 -0.002000 0.012801 -0.001081 0.001635 0.001547 -0.007232
# 3 -0.005186 -0.001081 0.011767 0.000122 -0.000694 0.004261
# 4 0.001921 0.001635 0.000122 0.034909 -0.004851 -0.002832
# 5 0.003123 0.001547 -0.000694 -0.004851 0.029106 -0.002098
# 6 -0.004226 -0.007232 0.004261 -0.002832 -0.002098 0.031433
#
#
# Mechanical properties :
#
#
# Convention : Reuss Voigt Hill
#
# Bulk Modulus (GPa) = 50.33462 60.16577 55.25019
# Shear Modulus (GPa) = 32.25736 37.16956 34.71346
#
# Velocity S-wave (km/s) = 3.70351 3.97551 3.84191
# Velocity P-wave (km/s) = 6.30003 6.83049 6.57062
#
# Compressibility (1/GPa) = 0.01986704
#
# Stress axis : x y z
#
# Youngs Moduli (GPa) = 84.51475 78.11876 84.98332
#
# Poissons Ratio (x) = 0.15626 0.44069
# Poissons Ratio (y) = 0.16905 0.09184
# Poissons Ratio (z) = 0.43826 0.08443
#
# Static dielectric constant tensor:
#      x y z
#    x 1.912980 -0.017740 -0.059890 
#    y -0.017740 2.002230 -0.005640 
#    z -0.059890 -0.005640 1.951840 
# 
# From -- ./inp_files/83313.got.cif
#   From: 2010.05.17/outbox.cif.g08.bks.cpg/sg2_42_cif.got.tgz:83313.got - 2010.06.03 11:33:40.
