data_PCOD9031811
_publ_section_title
;
Structure prediction by ZEFSAII (Michael W. Deem and Ramdas Pophale) SiO2 
 PCOD9031811
Probable space group: P -1
;
_chemical_formula_sum "Si O2"
_cell_formula_units_Z 16
_cell_length_a 13.391154
_cell_length_b 8.521576
_cell_length_c 12.120466
_cell_angle_alpha 78.901224
_cell_angle_beta 31.420856
_cell_angle_gamma 64.873959
_cell_volume 609.084224
_symmetry_space_group_name_H-M "P -1"
_symmetry_group_IT_number 2
_symmetry_cell_setting 'triclinic'
loop_
_space_group_symop_operation_xyz
x,y,z
-x,-y,-z
loop_
_atom_site_type_symbol
_atom_site_label
_atom_site_fract_x
_atom_site_fract_y
_atom_site_fract_z
Si Si1 0.188420 0.056984 0.318642
Si Si2 0.319983 0.878542 0.998747
Si Si3 0.461231 0.456523 0.668808
Si Si4 0.995564 0.818938 0.067082
Si Si5 0.911489 0.573837 0.748122
Si Si6 0.492997 0.520004 0.141872
Si Si7 0.211105 0.246678 0.934404
Si Si8 0.869851 0.851182 0.411993
O O1 0.081634 0.272098 0.355114
O O2 0.276047 0.032672 0.363176
O O3 0.350265 0.933357 0.086024
O O4 0.000000 0.000000 0.500000
O O5 0.091411 0.869864 0.212068
O O6 0.298286 0.037150 0.918339
O O7 0.496420 0.675041 0.824424
O O8 0.500000 0.500000 0.500000
O O9 0.241832 0.650842 0.888889
O O10 0.618075 0.395205 0.640214
O O11 0.397699 0.298995 0.733199
O O12 0.925308 0.730075 0.049153
O O13 0.824513 0.882294 0.321615
O O14 0.000000 0.000000 0.000000
O O15 0.936623 0.623463 0.843080
O O16 0.065832 0.360336 0.600923
O O17 0.671728 0.588247 0.969618
O O18 0.500000 0.500000 0.000000
#
# Coordination Sequence:
#
# PCOD9031811 Si02
#       8
#     2   2   2   2   2   2   2   2
#     4   9  18  30  52  85 113 147 183 245 307 352
#     4   9  17  36  59  83 117 155 198 258 311 361
#     4  11  24  44  63  93 129 165 210 265 307 370
#     4  12  21  39  66  91 124 164 208 252 315 378
#     4   9  18  34  56  81 120 153 194 253 308 359
#     4  10  20  41  63  80 116 170 210 246 312 379
#     4  10  19  37  66  90 117 166 205 251 317 376
#     4  10  17  32  53  84 121 147 190 246 308 349
#
# _framework density 26.268947000000001
#
# number of rings (size 3 to 8) (size 9 to 14) (size 15 to 20)
#    0.000    2.000    5.000    0.750    0.000    0.000 
#    4.500   10.625    0.000    0.000    0.000    0.000 
#    0.000    0.000    0.000    0.000    0.000    0.000 
#
# Total GULP energy -89207.021706 kJ/mol
# GULP energy per Si atom -5575.438857 kJ/mol
# Density = 2.620916 g / cm^3
# Si number density = 26.268947 Si / 1000 Ang^3
#
#
#
# Elastic Constant Matrix: (Units=GPa)
#
#
# Indices 1 2 3 4 5 6 
#
# 1 161.4798 29.3652 62.5482 -2.1745 61.3666 26.1263
# 2 29.3652 202.1162 35.8456 -34.5217 6.0074 17.5218
# 3 62.5482 35.8456 117.2278 -35.5019 31.0977 14.6928
# 4 -2.1745 -34.5217 -35.5019 27.4801 10.6529 2.8343
# 5 61.3666 6.0074 31.0977 10.6529 58.6798 8.1879
# 6 26.1263 17.5218 14.6928 2.8343 8.1879 36.8107
#
#
#
# Elastic Compliance Matrix: (Units=1/GPa)
#
#
# Indices 1 2 3 4 5 6 
#
# 1 0.012381 0.000312 -0.000562 0.006316 -0.012947 -0.006318
# 2 0.000312 0.009121 0.009452 0.028537 -0.010300 -0.008242
# 3 -0.000562 0.009452 0.043121 0.083384 -0.035605 -0.019812
# 4 0.006316 0.028537 0.083384 0.219108 -0.086665 -0.048942
# 5 -0.012947 -0.010300 -0.035605 -0.086665 0.063324 0.020891
# 6 -0.006318 -0.008242 -0.019812 -0.048942 0.020891 0.042603
#
#
# Mechanical properties :
#
#
# Convention : Reuss Voigt Hill
#
# Bulk Modulus (GPa) = 12.04428 81.81574 46.93001
# Shear Modulus (GPa) = 12.53354 48.13178 30.33266
#
# Velocity S-wave (km/s) = 2.18669 4.28515 3.40177
# Velocity P-wave (km/s) = 3.31216 7.46300 5.77351
#
# Compressibility (1/GPa) = 0.08302699
#
# Stress axis : x y z
#
# Youngs Moduli (GPa) = 80.76646 109.64079 23.19049
#
# Poissons Ratio (x) = -0.03423 0.01304
# Poissons Ratio (y) = -0.02522 -0.21920
# Poissons Ratio (z) = 0.04542 -1.03633
#
# Static dielectric constant tensor:
#      x y z
#    x 2.168340 -0.106880 -0.103360 
#    y -0.106880 2.030290 0.056650 
#    z -0.103360 0.056650 2.450710 
# 
# From -- ./inp_files/445821.got.cif
#   From: 2010.05.17/outbox.cif.g08.bks.cpg/sg2_223_cif.got.tgz:445821.got - 2010.06.03 11:33:40.
