data_PCOD9031005
_publ_section_title
;
Structure prediction by ZEFSAII (Michael W. Deem and Ramdas Pophale) SiO2 
 PCOD9031005
Probable space group: P -1
;
_chemical_formula_sum "Si O2"
_cell_formula_units_Z 16
_cell_length_a 14.884827
_cell_length_b 5.761390
_cell_length_c 12.908502
_cell_angle_alpha 81.002348
_cell_angle_beta 48.593812
_cell_angle_gamma 58.460297
_cell_volume 675.806284
_symmetry_space_group_name_H-M "P -1"
_symmetry_group_IT_number 2
_symmetry_cell_setting 'triclinic'
loop_
_space_group_symop_operation_xyz
x,y,z
-x,-y,-z
loop_
_atom_site_type_symbol
_atom_site_label
_atom_site_fract_x
_atom_site_fract_y
_atom_site_fract_z
Si Si1 0.274295 0.244405 0.070897
Si Si2 0.094469 0.682485 0.826051
Si Si3 0.921073 0.776748 0.611055
Si Si4 0.571882 0.709173 0.336198
Si Si5 0.218217 0.698621 0.440626
Si Si6 0.992312 0.300276 0.880100
Si Si7 0.439567 0.339828 0.115021
Si Si8 0.475965 0.326737 0.394435
O O1 0.168697 0.196449 0.222007
O O2 0.173057 0.485279 0.048323
O O3 0.344132 0.328841 0.099112
O O4 0.414772 0.956408 0.941415
O O5 0.259046 0.489447 0.752640
O O6 0.064484 0.478527 0.796456
O O7 0.997994 0.754309 0.999920
O O8 0.055985 0.993252 0.799003
O O9 0.000000 0.500000 0.500000
O O10 0.056023 0.780505 0.549579
O O11 0.806786 0.010305 0.599529
O O12 0.536555 0.519700 0.305412
O O13 0.488420 0.752424 0.506071
O O14 0.529445 0.025434 0.322002
O O15 0.329908 0.483447 0.283545
O O16 0.303344 0.548114 0.490610
O O17 0.500000 0.500000 0.000000
#
# Coordination Sequence:
#
# PCOD9031005 Si02
#       8
#     2   2   2   2   2   2   2   2
#     4  11  25  42  68  99 128 186 215 286 332 404
#     4  10  22  43  63  96 131 166 220 276 323 403
#     4  11  24  44  65  96 139 163 235 272 334 402
#     4  10  22  43  63  96 131 166 220 276 323 403
#     4  11  25  42  68  99 128 186 215 286 332 404
#     4  10  24  40  67  95 128 171 222 265 339 389
#     4  11  24  44  65  96 139 163 235 272 334 402
#     4  10  24  40  67  95 128 171 222 265 339 389
#
# _framework density 23.675424
#
# number of rings (size 3 to 8) (size 9 to 14) (size 15 to 20)
#    0.000    1.500    2.500    0.750    7.000    2.000 
#    0.000    0.000    0.000    0.000    0.000    0.000 
#    0.000    0.000    0.000    0.000    0.000    0.000 
#
# Total GULP energy -89237.189731 kJ/mol
# GULP energy per Si atom -5577.324358 kJ/mol
# Density = 2.362154 g / cm^3
# Si number density = 23.675424 Si / 1000 Ang^3
#
#
#
# Elastic Constant Matrix: (Units=GPa)
#
#
# Indices 1 2 3 4 5 6 
#
# 1 -971.7032 1548.5001 1250.0275 -42.7871 -59.0615 -107.0820
# 2 1548.5001-1886.6193-1694.5490 108.7757 38.9248 174.1406
# 3 1250.0275-1694.5490-1353.8735 63.4229 27.7714 144.3166
# 4 -42.7871 108.7757 63.4229 36.2766 -12.9110 -7.3666
# 5 -59.0615 38.9248 27.7714 -12.9110 39.4569 -4.7733
# 6 -107.0820 174.1406 144.3166 -7.3666 -4.7733 34.1771
#
#
#
# Elastic Compliance Matrix: (Units=1/GPa)
#
#
# Indices 1 2 3 4 5 6 
#
# 1 0.007147 0.000521 0.005595 -0.001766 0.005241 -0.003535
# 2 0.000521 0.004864 -0.005803 -0.004228 -0.001286 0.000263
# 3 0.005595 -0.005803 0.011964 0.005435 0.007308 -0.001229
# 4 -0.001766 -0.004228 0.005435 0.031810 0.008241 0.001069
# 5 0.005241 -0.001286 0.007308 0.008241 0.031807 -0.001671
# 6 -0.003535 0.000263 -0.001229 0.001069 -0.001671 0.022030
#
#
# Mechanical properties :
#
#
# Convention : Reuss Voigt Hill
#
# Bulk Modulus (GPa) = 40.65280 -222.69322 -91.02021
# Shear Modulus (GPa) = 42.66344 -332.42951 -144.88304
#
# Velocity S-wave (km/s) = 4.24962 -11.86238 -7.83124
# Velocity P-wave (km/s) = 6.42551 16.78948 10.96812
#
# Compressibility (1/GPa) = 0.02459855
#
# Stress axis : x y z
#
# Youngs Moduli (GPa) = 139.92733 205.60407 83.58408
#
# Poissons Ratio (x) = -0.10704 -0.46763
# Poissons Ratio (y) = -0.07285 0.48506
# Poissons Ratio (z) = -0.78286 1.19317
#
# Static dielectric constant tensor:
#      x y z
#    x 1.900830 0.061060 0.033790 
#    y 0.061060 1.948790 -0.066260 
#    z 0.033790 -0.066260 1.829210 
# 
# From -- ./inp_files/525686.got.cif
#   From: 2010.05.17/outbox.cif.g08.bks.cpg/sg2_263_cif.got.tgz:525686.got - 2010.06.03 11:33:40.
