data_PCOD9031413
_publ_section_title
;
Structure prediction by ZEFSAII (Michael W. Deem and Ramdas Pophale) SiO2 
 PCOD9031413
Probable space group: P -1
;
_chemical_formula_sum "Si O2"
_cell_formula_units_Z 10
_cell_length_a 4.678348
_cell_length_b 5.248552
_cell_length_c 21.307129
_cell_angle_alpha 132.577630
_cell_angle_beta 70.855984
_cell_angle_gamma 92.980308
_cell_volume 352.928423
_symmetry_space_group_name_H-M "P -1"
_symmetry_group_IT_number 2
_symmetry_cell_setting 'triclinic'
loop_
_space_group_symop_operation_xyz
x,y,z
-x,-y,-z
loop_
_atom_site_type_symbol
_atom_site_label
_atom_site_fract_x
_atom_site_fract_y
_atom_site_fract_z
Si Si1 0.195443 0.590523 0.351909
Si Si2 0.637798 0.466211 0.415418
Si Si3 0.635219 0.838510 0.062052
Si Si4 0.836083 0.692834 0.275123
Si Si5 0.739015 0.473658 0.108119
O O1 0.389610 0.439129 0.375446
O O2 0.471816 0.751927 0.330309
O O3 0.843900 0.751021 0.432700
O O4 0.055835 0.469556 0.275715
O O5 0.500000 0.500000 0.500000
O O6 0.893919 0.085737 0.332960
O O7 0.614262 0.841299 0.139867
O O8 0.516702 0.210055 0.095977
O O9 0.500000 0.500000 0.000000
O O10 0.986902 0.726007 0.991281
O O11 0.860960 0.539519 0.178214
#
# Coordination Sequence:
#
# PCOD9031413 Si02
#       5
#     2   2   2   2   2
#     4  10  25  42  67  99 134 179 228 284 349 411
#     4  11  24  44  69 100 136 180 229 285 346 415
#     4  10  22  43  66  96 131 180 233 281 351 413
#     4  11  25  43  65 101 137 180 229 285 349 410
#     4  10  24  40  65  98 135 180 231 288 343 419
#
# _framework density 28.334358000000002
#
# number of rings (size 3 to 8) (size 9 to 14) (size 15 to 20)
#    0.000    1.600    0.000    2.400    8.400    6.400 
#    0.000    0.000    0.000    0.000    0.000    0.000 
#    0.000    0.000    0.000    0.000    0.000    0.000 
#
# Total GULP energy -55756.109732 kJ/mol
# GULP energy per Si atom -5575.610973 kJ/mol
# Density = 2.826987 g / cm^3
# Si number density = 28.334358 Si / 1000 Ang^3
#
#
#
# Elastic Constant Matrix: (Units=GPa)
#
#
# Indices 1 2 3 4 5 6 
#
# 1 201.6574 66.1817 59.5818 -28.0071 26.6212 10.7894
# 2 66.1817 187.2122 78.0035 -52.3633 20.3311 2.1008
# 3 59.5818 78.0035 157.0449 -48.7756 35.1921 -13.4313
# 4 -28.0071 -52.3633 -48.7756 58.6629 -8.9968 11.1307
# 5 26.6212 20.3311 35.1921 -8.9968 44.8168 -5.3947
# 6 10.7894 2.1008 -13.4313 11.1307 -5.3947 49.9678
#
#
#
# Elastic Compliance Matrix: (Units=1/GPa)
#
#
# Indices 1 2 3 4 5 6 
#
# 1 0.006238 -0.001172 -0.001115 0.001041 -0.002340 -0.002082
# 2 -0.001172 0.008160 -0.001971 0.005348 -0.000610 -0.001877
# 3 -0.001115 -0.001971 0.010926 0.005652 -0.005722 0.001384
# 4 0.001041 0.005348 0.005652 0.027639 -0.002580 -0.005366
# 5 -0.002340 -0.000610 -0.005722 -0.002580 0.028270 0.002620
# 6 -0.002082 -0.001877 0.001384 -0.005366 0.002620 0.022391
#
#
# Mechanical properties :
#
#
# Convention : Reuss Voigt Hill
#
# Bulk Modulus (GPa) = 59.49695 105.93872 82.71783
# Shear Modulus (GPa) = 42.46521 53.49934 47.98227
#
# Velocity S-wave (km/s) = 3.87553 4.34999 4.11960
# Velocity P-wave (km/s) = 6.40859 7.91832 7.20312
#
# Compressibility (1/GPa) = 0.01680759
#
# Stress axis : x y z
#
# Youngs Moduli (GPa) = 160.31331 122.54301 91.52678
#
# Poissons Ratio (x) = 0.14361 0.10204
# Poissons Ratio (y) = 0.18788 0.18044
# Poissons Ratio (z) = 0.17872 0.24158
#
# Static dielectric constant tensor:
#      x y z
#    x 2.195530 -0.043700 -0.025250 
#    y -0.043700 2.344380 0.029510 
#    z -0.025250 0.029510 2.276560 
# 
# From -- ./inp_files/580354.got.cif
#   From: 2010.05.17/outbox.cif.g08.bks.cpg/sg2_291_cif.got.tgz:580354.got - 2010.06.03 11:33:40.
