data_PCOD9031179
_publ_section_title
;
Structure prediction by ZEFSAII (Michael W. Deem and Ramdas Pophale) SiO2 
 PCOD9031179
Probable space group: P -1
;
_chemical_formula_sum "Si O2"
_cell_formula_units_Z 16
_cell_length_a 5.721013
_cell_length_b 5.609395
_cell_length_c 25.195203
_cell_angle_alpha 63.075740
_cell_angle_beta 59.202483
_cell_angle_gamma 83.848934
_cell_volume 610.984532
_symmetry_space_group_name_H-M "P -1"
_symmetry_group_IT_number 2
_symmetry_cell_setting 'triclinic'
loop_
_space_group_symop_operation_xyz
x,y,z
-x,-y,-z
loop_
_atom_site_type_symbol
_atom_site_label
_atom_site_fract_x
_atom_site_fract_y
_atom_site_fract_z
Si Si1 0.703917 0.769674 0.582610
Si Si2 0.430340 0.091399 0.082919
Si Si3 0.182839 0.343458 0.666147
Si Si4 0.434007 0.857520 0.704934
Si Si5 0.082406 0.559136 0.046049
Si Si6 0.945061 0.420368 0.795015
Si Si7 0.531001 0.233922 0.174781
Si Si8 0.267033 0.680524 0.521098
O O1 0.480982 0.501649 0.633511
O O2 0.697282 0.863239 0.635781
O O3 0.972432 0.711119 0.525709
O O4 0.596484 0.008778 0.537765
O O5 0.267040 0.343272 0.068285
O O6 0.527065 0.085645 0.133661
O O7 0.201672 0.829014 0.127965
O O8 0.707828 0.154829 0.008913
O O9 0.127386 0.527812 0.605090
O O10 0.969262 0.336887 0.739279
O O11 0.242399 0.043907 0.678603
O O12 0.464543 0.940763 0.754560
O O13 0.252580 0.559931 0.759353
O O14 0.791428 0.480379 0.117093
O O15 0.000000 0.500000 0.000000
O O16 0.743963 0.637663 0.802231
O O17 0.500000 0.500000 0.500000
#
# Coordination Sequence:
#
# PCOD9031179 Si02
#       8
#     2   2   2   2   2   2   2   2
#     4  10  24  43  66  99 131 176 228 269 343 405
#     4  10  22  43  65  92 127 173 216 272 332 397
#     4  11  23  42  65  93 132 176 220 279 328 400
#     4  11  24  43  63  96 133 176 222 273 331 399
#     4   9  20  40  66  92 127 168 218 269 333 397
#     4  11  24  39  64  93 131 169 222 271 330 397
#     4  11  22  39  63  94 130 170 218 273 332 400
#     4  11  22  44  69  95 135 174 221 282 337 397
#
# _framework density 26.187242999999999
#
# number of rings (size 3 to 8) (size 9 to 14) (size 15 to 20)
#    0.000    1.500    1.250    3.375    0.000    7.000 
#    2.250    8.750    0.000    0.000    0.000    0.000 
#    0.000    0.000    0.000    0.000    0.000    0.000 
#
# Total GULP energy -89305.802282 kJ/mol
# GULP energy per Si atom -5581.612643 kJ/mol
# Density = 2.612764 g / cm^3
# Si number density = 26.187243 Si / 1000 Ang^3
#
#
#
# Elastic Constant Matrix: (Units=GPa)
#
#
# Indices 1 2 3 4 5 6 
#
# 1 50.1055 14.6425 43.7538 6.4046 -3.7293 -8.0329
# 2 14.6425 65.5928 48.0268 -3.2232 -4.7934 -16.6042
# 3 43.7538 48.0268 189.7636 -2.7539 -4.8400 -2.4322
# 4 6.4046 -3.2232 -2.7539 48.6372 1.7356 -11.9573
# 5 -3.7293 -4.7934 -4.8400 1.7356 53.0787 3.8505
# 6 -8.0329 -16.6042 -2.4322 -11.9573 3.8505 28.4454
#
#
#
# Elastic Compliance Matrix: (Units=1/GPa)
#
#
# Indices 1 2 3 4 5 6 
#
# 1 0.026571 -0.000103 -0.006038 -0.002466 0.000970 0.005759
# 2 -0.000103 0.023555 -0.005661 0.005002 0.000331 0.015294
# 3 -0.006038 -0.005661 0.008038 -0.000219 0.000126 -0.004431
# 4 -0.002466 0.005002 -0.000219 0.024365 -0.001455 0.012644
# 5 0.000970 0.000331 0.000126 -0.001455 0.019195 -0.002732
# 6 0.005759 0.015294 -0.004431 0.012644 -0.002732 0.051015
#
#
# Mechanical properties :
#
#
# Convention : Reuss Voigt Hill
#
# Bulk Modulus (GPa) = 28.93472 57.58981 43.26226
# Shear Modulus (GPa) = 26.61535 39.30152 32.95843
#
# Velocity S-wave (km/s) = 3.19148 3.87820 3.55148
# Velocity P-wave (km/s) = 4.96527 6.48793 5.77699
#
# Compressibility (1/GPa) = 0.03456056
#
# Stress axis : x y z
#
# Youngs Moduli (GPa) = 37.63503 42.45407 124.41427
#
# Poissons Ratio (x) = 0.00439 0.75116
# Poissons Ratio (y) = 0.00389 0.70425
# Poissons Ratio (z) = 0.22722 0.24031
#
# Static dielectric constant tensor:
#      x y z
#    x 2.200880 0.124640 -0.000310 
#    y 0.124640 2.113960 -0.015470 
#    z -0.000310 -0.015470 2.060880 
# 
# From -- ./inp_files/614836.got.cif
#   From: 2010.05.17/outbox.cif.g08.bks.cpg/sg2_308_cif.got.tgz:614836.got - 2010.06.03 11:33:40.
