data_PCOD9031772
_publ_section_title
;
Structure prediction by ZEFSAII (Michael W. Deem and Ramdas Pophale) SiO2 
 PCOD9031772
Probable space group: P -1
;
_chemical_formula_sum "Si O2"
_cell_formula_units_Z 16
_cell_length_a 8.496589
_cell_length_b 15.672251
_cell_length_c 5.338886
_cell_angle_alpha 81.665706
_cell_angle_beta 93.466347
_cell_angle_gamma 108.559433
_cell_volume 666.761749
_symmetry_space_group_name_H-M "P -1"
_symmetry_group_IT_number 2
_symmetry_cell_setting 'triclinic'
loop_
_space_group_symop_operation_xyz
x,y,z
-x,-y,-z
loop_
_atom_site_type_symbol
_atom_site_label
_atom_site_fract_x
_atom_site_fract_y
_atom_site_fract_z
Si Si1 0.223517 0.048662 0.743069
Si Si2 0.147485 0.939615 0.274816
Si Si3 0.593990 0.751691 0.274175
Si Si4 0.690773 0.521481 0.057089
Si Si5 0.743389 0.337726 0.961965
Si Si6 0.879005 0.231097 0.356739
Si Si7 0.959231 0.590430 0.390912
Si Si8 0.223578 0.284973 0.195580
O O1 0.372480 0.140659 0.757627
O O2 0.049932 0.072257 0.744094
O O3 0.221541 0.008946 0.481586
O O4 0.219264 0.977868 0.995786
O O5 0.173258 0.846527 0.408186
O O6 0.676563 0.729360 0.544750
O O7 0.401505 0.693961 0.244473
O O8 0.687735 0.732528 0.042234
O O9 0.768304 0.609836 0.857354
O O10 0.500000 0.500000 0.000000
O O11 0.728361 0.428090 0.052217
O O12 0.766058 0.558509 0.317774
O O13 0.736015 0.252198 0.173658
O O14 0.928238 0.370815 0.857443
O O15 0.970402 0.326082 0.457735
O O16 0.033380 0.218138 0.217356
O O17 0.000000 0.500000 0.500000
#
# Coordination Sequence:
#
# PCOD9031772 Si02
#       8
#     2   2   2   2   2   2   2   2
#     4  10  22  43  68 108 139 177 238 305 356 420
#     4  10  23  40  74 103 140 181 237 296 362 426
#     4  12  27  47  73 109 144 189 241 305 360 421
#     4  12  25  46  69 108 144 189 248 295 351 417
#     4  12  28  45  69 103 150 193 238 295 362 432
#     4  12  26  46  72 104 142 195 239 290 364 437
#     4  12  26  47  71 102 147 196 238 296 359 430
#     4  12  26  45  73 105 145 190 246 295 350 427
#
# _framework density 23.996578
#
# number of rings (size 3 to 8) (size 9 to 14) (size 15 to 20)
#    0.000    0.500    5.000    2.625    8.750    0.500 
#    0.000    1.250    0.000    0.000    0.000    0.000 
#    0.000    0.000    0.000    0.000    0.000    0.000 
#
# Total GULP energy -89538.750246 kJ/mol
# GULP energy per Si atom -5596.171890 kJ/mol
# Density = 2.394196 g / cm^3
# Si number density = 23.996578 Si / 1000 Ang^3
#
#
#
# Elastic Constant Matrix: (Units=GPa)
#
#
# Indices 1 2 3 4 5 6 
#
# 1 61.1327 8.9184 27.4768 6.1455 14.6247 3.8979
# 2 8.9184 107.1132 26.5571 -10.8609 14.6485 8.2816
# 3 27.4768 26.5571 121.9598 -11.4161 25.8211 -8.1720
# 4 6.1455 -10.8609 -11.4161 54.0474 -7.2832 12.9588
# 5 14.6247 14.6485 25.8211 -7.2832 30.7930 -0.6932
# 6 3.8979 8.2816 -8.1720 12.9588 -0.6932 27.6840
#
#
#
# Elastic Compliance Matrix: (Units=1/GPa)
#
#
# Indices 1 2 3 4 5 6 
#
# 1 0.020223 0.000050 -0.003443 -0.003455 -0.007614 -0.002452
# 2 0.000050 0.010869 -0.001802 0.002587 -0.003186 -0.005081
# 3 -0.003443 -0.001802 0.011070 0.000555 -0.006572 0.003867
# 4 -0.003455 0.002587 0.000555 0.022773 0.005091 -0.010656
# 5 -0.007614 -0.003186 -0.006572 0.005091 0.044295 -0.001189
# 6 -0.002452 -0.005081 0.003867 -0.010656 -0.001189 0.044087
#
#
# Mechanical properties :
#
#
# Convention : Reuss Voigt Hill
#
# Bulk Modulus (GPa) = 31.47269 46.23448 38.85359
# Shear Modulus (GPa) = 28.68658 37.65511 33.17084
#
# Velocity S-wave (km/s) = 3.46127 3.96559 3.72198
# Velocity P-wave (km/s) = 5.39609 6.34640 5.89044
#
# Compressibility (1/GPa) = 0.03177358
#
# Stress axis : x y z
#
# Youngs Moduli (GPa) = 49.44862 92.00163 90.33513
#
# Poissons Ratio (x) = -0.00463 0.31100
# Poissons Ratio (y) = -0.00249 0.16278
# Poissons Ratio (z) = 0.17024 0.16578
#
# Static dielectric constant tensor:
#      x y z
#    x 1.928080 -0.027000 -0.062070 
#    y -0.027000 1.885400 0.001220 
#    z -0.062070 0.001220 1.967690 
# 
# From -- ./inp_files/38059.got.cif
#   From: 2010.05.17/outbox.cif.g08.bks.cpg/sg2_20_cif.got.tgz:38059.got - 2010.06.03 11:33:40.
