data_PCOD9031948
_publ_section_title
;
Structure prediction by ZEFSAII (Michael W. Deem and Ramdas Pophale) SiO2 
 PCOD9031948
Probable space group: P -1
;
_chemical_formula_sum "Si O2"
_cell_formula_units_Z 16
_cell_length_a 17.949340
_cell_length_b 8.753386
_cell_length_c 9.421970
_cell_angle_alpha 80.701130
_cell_angle_beta 139.721446
_cell_angle_gamma 129.244247
_cell_volume 568.761639
_symmetry_space_group_name_H-M "P -1"
_symmetry_group_IT_number 2
_symmetry_cell_setting 'triclinic'
loop_
_space_group_symop_operation_xyz
x,y,z
-x,-y,-z
loop_
_atom_site_type_symbol
_atom_site_label
_atom_site_fract_x
_atom_site_fract_y
_atom_site_fract_z
Si Si1 0.372950 0.577300 0.400689
Si Si2 0.251864 0.480838 0.931340
Si Si3 0.909877 0.331447 0.700294
Si Si4 0.769465 0.180780 0.222150
Si Si5 0.680370 0.802147 0.496708
Si Si6 0.652560 0.351541 0.320535
Si Si7 0.812399 0.115785 0.973377
Si Si8 0.072470 0.107212 0.396389
O O1 0.252199 0.504136 0.102983
O O2 0.338388 0.357630 0.396358
O O3 0.332128 0.590417 0.498808
O O4 0.592595 0.860297 0.652596
O O5 0.462709 0.628784 0.190148
O O6 0.257187 0.662534 0.853648
O O7 0.074155 0.168633 0.700332
O O8 0.913666 0.298650 0.541510
O O9 0.742960 0.280621 0.458744
O O10 0.090099 0.620405 0.975240
O O11 0.825793 0.097521 0.698230
O O12 0.820583 0.154516 0.151442
O O13 0.565322 0.888124 0.005426
O O14 0.789627 0.843530 0.514172
O O15 0.768412 0.599850 0.357648
O O16 0.933208 0.089394 0.129709
#
# Coordination Sequence:
#
# PCOD9031948 Si02
#       8
#     2   2   2   2   2   2   2   2
#     4  10  23  45  66 100 138 176 225 276 343 404
#     4  12  24  44  70 100 138 181 221 275 344 407
#     4  11  22  44  67 101 134 175 234 275 339 405
#     4  11  23  43  71  96 137 184 219 281 343 399
#     4  11  23  42  68  99 131 185 219 274 341 391
#     4   9  21  40  65  95 132 174 219 279 328 388
#     4  10  22  43  69 100 137 176 227 284 334 399
#     4  10  23  43  65  97 141 175 227 269 334 410
#
# _framework density 28.131294
#
# number of rings (size 3 to 8) (size 9 to 14) (size 15 to 20)
#    0.000    1.500    2.500    1.875    0.000    4.000 
#    2.250   15.625    0.000    0.000    0.000    0.000 
#    0.000    0.000    0.000    0.000    0.000    0.000 
#
# Total GULP energy -89671.905257 kJ/mol
# GULP energy per Si atom -5604.494079 kJ/mol
# Density = 2.806727 g / cm^3
# Si number density = 28.131294 Si / 1000 Ang^3
#
#
#
# Elastic Constant Matrix: (Units=GPa)
#
#
# Indices 1 2 3 4 5 6 
#
# 1 101.0999 43.5454 23.2824 2.6301 20.3788 -6.3891
# 2 43.5454 243.5208 88.1354 20.1717 3.0631 12.6617
# 3 23.2824 88.1354 175.5271 30.6846 -5.2385 0.0864
# 4 2.6301 20.1717 30.6846 63.4930 9.5002 7.3669
# 5 20.3788 3.0631 -5.2385 9.5002 47.6154 9.8936
# 6 -6.3891 12.6617 0.0864 7.3669 9.8936 52.7294
#
#
#
# Elastic Compliance Matrix: (Units=1/GPa)
#
#
# Indices 1 2 3 4 5 6 
#
# 1 0.012393 -0.002023 -0.001022 0.001197 -0.006143 0.002974
# 2 -0.002023 0.005435 -0.002368 -0.000412 0.000673 -0.001615
# 3 -0.001022 -0.002368 0.007650 -0.003258 0.001974 0.000517
# 4 0.001197 -0.000412 -0.003258 0.018204 -0.004162 -0.001513
# 5 -0.006143 0.000673 0.001974 -0.004162 0.025705 -0.005151
# 6 0.002974 -0.001615 0.000517 -0.001513 -0.005151 0.020890
#
#
# Mechanical properties :
#
#
# Convention : Reuss Voigt Hill
#
# Bulk Modulus (GPa) = 68.24977 92.23047 80.24012
# Shear Modulus (GPa) = 47.17621 57.11321 52.14471
#
# Velocity S-wave (km/s) = 4.09956 4.51070 4.31004
# Velocity P-wave (km/s) = 6.83538 7.74503 7.30438
#
# Compressibility (1/GPa) = 0.01465206
#
# Stress axis : x y z
#
# Youngs Moduli (GPa) = 80.69104 184.00559 130.72356
#
# Poissons Ratio (x) = 0.37217 0.13365
# Poissons Ratio (y) = 0.16321 0.30951
# Poissons Ratio (z) = 0.08250 0.43566
#
# Static dielectric constant tensor:
#      x y z
#    x 2.421180 0.042770 -0.071670 
#    y 0.042770 2.093990 0.027990 
#    z -0.071670 0.027990 2.096870 
# 
# From -- ./inp_files/470000.got.cif
#   From: 2010.05.17/outbox.cif.g08.bks.cpg/sg2_235_cif.got.tgz:470000.got - 2010.06.03 11:33:40.
