data_PCOD9031487
_publ_section_title
;
Structure prediction by ZEFSAII (Michael W. Deem and Ramdas Pophale) SiO2 
 PCOD9031487
Probable space group: P -1
;
_chemical_formula_sum "Si O2"
_cell_formula_units_Z 12
_cell_length_a 30.243649
_cell_length_b 12.223384
_cell_length_c 8.133254
_cell_angle_alpha 31.464578
_cell_angle_beta 31.744409
_cell_angle_gamma 19.772144
_cell_volume 511.139572
_symmetry_space_group_name_H-M "P -1"
_symmetry_group_IT_number 2
_symmetry_cell_setting 'triclinic'
loop_
_space_group_symop_operation_xyz
x,y,z
-x,-y,-z
loop_
_atom_site_type_symbol
_atom_site_label
_atom_site_fract_x
_atom_site_fract_y
_atom_site_fract_z
Si Si1 0.801419 0.691846 0.492245
Si Si2 0.921485 0.024456 0.080238
Si Si3 0.746106 0.013363 0.572474
Si Si4 0.505833 0.227605 0.632628
Si Si5 0.107265 0.624104 0.713286
Si Si6 0.394379 0.057912 0.665760
O O1 0.872476 0.585891 0.226275
O O2 0.835324 0.749272 0.477556
O O3 0.643491 0.043795 0.510586
O O4 0.828095 0.391598 0.825457
O O5 0.828168 0.010097 0.435770
O O6 0.000000 0.000000 0.000000
O O7 0.034477 0.710784 0.001830
O O8 0.628500 0.388509 0.387130
O O9 0.669534 0.980672 0.954340
O O10 0.524263 0.202057 0.409981
O O11 0.500000 0.000000 0.000000
O O12 0.257222 0.418774 0.549180
O O13 0.000000 0.000000 0.500000
O O14 0.500000 0.000000 0.500000
#
# Coordination Sequence:
#
# PCOD9031487 Si02
#       6
#     2   2   2   2   2   2
#     4  10  22  43  67 100 140 184 240 289 347 427
#     4  11  24  43  72  99 145 188 237 293 352 428
#     4  12  25  43  74 106 142 190 235 296 364 419
#     4  11  22  44  70 102 142 184 237 293 359 424
#     4   9  22  45  69 101 141 193 235 290 353 418
#     4  11  25  43  73 107 145 185 242 299 357 424
#
# _framework density 23.476953000000002
#
# number of rings (size 3 to 8) (size 9 to 14) (size 15 to 20)
#    0.000    1.333    1.667    3.000    2.333    3.333 
#    0.000    5.000    0.000    0.000    0.000    0.000 
#    0.000    0.000    0.000    0.000    0.000    0.000 
#
# Total GULP energy -67003.353422 kJ/mol
# GULP energy per Si atom -5583.612785 kJ/mol
# Density = 2.342352 g / cm^3
# Si number density = 23.476953 Si / 1000 Ang^3
#
#
#
# Elastic Constant Matrix: (Units=GPa)
#
#
# Indices 1 2 3 4 5 6 
#
# 1 168.1808 42.1731 70.1554 14.3845 -23.3651 9.0881
# 2 42.1731 120.8983 38.6000 -6.1323 -12.8926 4.7331
# 3 70.1554 38.6000 89.1527 14.2275 -14.4155 6.0884
# 4 14.3845 -6.1323 14.2275 32.0153 -6.8997 5.4988
# 5 -23.3651 -12.8926 -14.4155 -6.8997 34.1192 7.0008
# 6 9.0881 4.7331 6.0884 5.4988 7.0008 48.4578
#
#
#
# Elastic Compliance Matrix: (Units=1/GPa)
#
#
# Indices 1 2 3 4 5 6 
#
# 1 0.009397 -0.000877 -0.006241 -0.000605 0.003621 -0.001347
# 2 -0.000877 0.010515 -0.004108 0.005100 0.002946 -0.001351
# 3 -0.006241 -0.004108 0.019081 -0.006191 0.001040 -0.000273
# 4 -0.000605 0.005100 -0.006191 0.037716 0.007545 -0.004977
# 5 0.003621 0.002946 0.001040 0.007545 0.036345 -0.007205
# 6 -0.001347 -0.001351 -0.000273 -0.004977 -0.007205 0.022661
#
#
# Mechanical properties :
#
#
# Convention : Reuss Voigt Hill
#
# Bulk Modulus (GPa) = 60.45452 75.56540 68.00996
# Shear Modulus (GPa) = 30.54757 38.07201 34.30979
#
# Velocity S-wave (km/s) = 3.61109 4.03137 3.82701
# Velocity P-wave (km/s) = 6.57215 7.34345 6.96848
#
# Compressibility (1/GPa) = 0.01654136
#
# Stress axis : x y z
#
# Youngs Moduli (GPa) = 106.41977 95.10624 52.40865
#
# Poissons Ratio (x) = 0.08343 0.32706
# Poissons Ratio (y) = 0.09335 0.21527
# Poissons Ratio (z) = 0.66412 0.39065
#
# Static dielectric constant tensor:
#      x y z
#    x 2.000740 -0.011870 0.056240 
#    y -0.011870 1.895310 -0.003080 
#    z 0.056240 -0.003080 1.908100 
# 
# From -- ./inp_files/22369.got.cif
#   From: 2010.05.17/outbox.cif.g08.bks.cpg/sg2_12_cif.got.tgz:22369.got - 2010.06.03 11:33:40.
