data_PCOD9031393
_publ_section_title
;
Structure prediction by ZEFSAII (Michael W. Deem and Ramdas Pophale) SiO2 
 PCOD9031393
Probable space group: P -1
;
_chemical_formula_sum "Si O2"
_cell_formula_units_Z 15
_cell_length_a 20.922191
_cell_length_b 5.275990
_cell_length_c 5.439869
_cell_angle_alpha 85.606743
_cell_angle_beta 106.110268
_cell_angle_gamma 100.654018
_cell_volume 566.751678
_symmetry_space_group_name_H-M "P -1"
_symmetry_group_IT_number 2
_symmetry_cell_setting 'triclinic'
loop_
_space_group_symop_operation_xyz
x,y,z
-x,-y,-z
loop_
_atom_site_type_symbol
_atom_site_label
_atom_site_fract_x
_atom_site_fract_y
_atom_site_fract_z
Si Si1 0.319494 0.995329 0.506610
Si Si2 0.637946 0.592934 0.848863
Si Si3 0.421730 0.945195 0.982855
Si Si4 0.194837 0.651860 0.279478
Si Si5 0.062353 0.481948 0.866075
Si Si6 0.232565 0.247607 0.734948
Si Si7 0.898521 0.068625 0.480754
Si Si8 0.000000 0.000000 0.000000
O O1 0.378764 0.868291 0.693192
O O2 0.264143 0.843641 0.272898
O O3 0.273040 0.035996 0.684396
O O4 0.352525 0.270480 0.414130
O O5 0.598152 0.303903 0.845773
O O6 0.714615 0.602285 0.029345
O O7 0.600971 0.796277 0.948515
O O8 0.500000 0.000000 0.000000
O O9 0.219231 0.430125 0.482038
O O10 0.146959 0.788376 0.394097
O O11 0.140420 0.548686 0.022993
O O12 0.058459 0.697887 0.644147
O O13 0.042033 0.182228 0.821217
O O14 0.000000 0.500000 0.000000
O O15 0.158472 0.104177 0.733070
O O16 0.937848 0.924242 0.733607
#
# Coordination Sequence:
#
# PCOD9031393 Si02
#       8
#     2   2   2   2   2   2   2   1
#     4  10  24  42  68  98 134 170 230 270 335 402
#     4  11  24  43  71 100 137 187 223 278 341 389
#     4  11  25  44  68 104 143 179 228 277 330 403
#     4  11  22  43  64  92 126 168 216 276 334 399
#     4  12  26  42  62  89 124 163 217 270 338 404
#     4  10  22  43  66  95 129 171 218 280 329 398
#     4  11  25  43  62  92 124 165 220 274 336 410
#     4  12  24  42  60  88 118 166 210 274 338 404
#
# _framework density 26.466616999999999
#
# number of rings (size 3 to 8) (size 9 to 14) (size 15 to 20)
#    0.000    1.067    4.000    1.600    1.867    3.733 
#    0.000    0.000    0.000    0.000    0.000    0.000 
#    0.000    0.000    0.000    0.000    0.000    0.000 
#
# Total GULP energy -83679.603189 kJ/mol
# GULP energy per Si atom -5578.640213 kJ/mol
# Density = 2.640638 g / cm^3
# Si number density = 26.466617 Si / 1000 Ang^3
#
#
#
# Elastic Constant Matrix: (Units=GPa)
#
#
# Indices 1 2 3 4 5 6 
#
# 1 158.7531 53.8953 40.0135 0.8064 18.8438 18.7370
# 2 53.8953 122.8938 26.7743 -20.1458 0.0057 28.4754
# 3 40.0135 26.7743 80.7759 -33.0718 0.7779 9.0183
# 4 0.8064 -20.1458 -33.0718 48.8995 0.2304 -14.8435
# 5 18.8438 0.0057 0.7779 0.2304 28.6511 -6.1497
# 6 18.7370 28.4754 9.0183 -14.8435 -6.1497 47.6955
#
#
#
# Elastic Compliance Matrix: (Units=1/GPa)
#
#
# Indices 1 2 3 4 5 6 
#
# 1 0.010506 -0.003431 -0.006474 -0.007161 -0.007547 -0.004057
# 2 -0.003431 0.011173 -0.000226 0.003258 0.001356 -0.004091
# 3 -0.006474 -0.000226 0.021668 0.015891 0.004421 0.004097
# 4 -0.007161 0.003258 0.015891 0.035580 0.006078 0.009720
# 5 -0.007547 0.001356 0.004421 0.006078 0.041536 0.008566
# 6 -0.004057 -0.004091 0.004097 0.009720 0.008566 0.028357
#
#
# Mechanical properties :
#
#
# Convention : Reuss Voigt Hill
#
# Bulk Modulus (GPa) = 43.31581 67.08765 55.20173
# Shear Modulus (GPa) = 28.28432 41.16518 34.72475
#
# Velocity S-wave (km/s) = 3.27261 3.94809 3.62611
# Velocity P-wave (km/s) = 5.53911 6.79605 6.19951
#
# Compressibility (1/GPa) = 0.02308626
#
# Stress axis : x y z
#
# Youngs Moduli (GPa) = 95.17972 89.50157 46.15138
#
# Poissons Ratio (x) = 0.30706 0.29876
# Poissons Ratio (y) = 0.32654 0.01044
# Poissons Ratio (z) = 0.61615 0.02024
#
# Static dielectric constant tensor:
#      x y z
#    x 2.003410 -0.014770 -0.008900 
#    y -0.014770 2.173270 0.025180 
#    z -0.008900 0.025180 2.130160 
# 
# From -- ./inp_files/114447.got.cif
#   From: 2010.05.17/outbox.cif.g08.bks.cpg/sg2_58_cif.got.tgz:114447.got - 2010.06.03 11:33:40.
