data_PCOD9031199
_publ_section_title
;
Structure prediction by ZEFSAII (Michael W. Deem and Ramdas Pophale) SiO2 
 PCOD9031199
Probable space group: P -1
;
_chemical_formula_sum "Si O2"
_cell_formula_units_Z 16
_cell_length_a 9.207469
_cell_length_b 11.336673
_cell_length_c 21.459480
_cell_angle_alpha 31.223642
_cell_angle_beta 141.458931
_cell_angle_gamma 130.978065
_cell_volume 722.897300
_symmetry_space_group_name_H-M "P -1"
_symmetry_group_IT_number 2
_symmetry_cell_setting 'triclinic'
loop_
_space_group_symop_operation_xyz
x,y,z
-x,-y,-z
loop_
_atom_site_type_symbol
_atom_site_label
_atom_site_fract_x
_atom_site_fract_y
_atom_site_fract_z
Si Si1 0.815504 0.669456 0.398938
Si Si2 0.969861 0.956044 0.776489
Si Si3 0.502423 0.744913 0.503771
Si Si4 0.250773 0.547699 0.862443
Si Si5 0.674060 0.935705 0.346938
Si Si6 0.676363 0.158463 0.954069
Si Si7 0.822959 0.620144 0.774934
Si Si8 0.264115 0.064327 0.053435
O O1 0.598526 0.507683 0.410804
O O2 0.841498 0.787332 0.422955
O O3 0.000000 0.500000 0.500000
O O4 0.843910 0.887775 0.265625
O O5 0.930647 0.747494 0.811490
O O6 0.722131 0.086369 0.641561
O O7 0.073015 0.892870 0.906643
O O8 0.620580 0.795503 0.454411
O O9 0.676381 0.774437 0.606738
O O10 0.253884 0.335191 0.912349
O O11 0.037716 0.513605 0.854242
O O12 0.234591 0.813713 0.718115
O O13 0.500000 0.500000 0.000000
O O14 0.437213 0.998019 0.198820
O O15 0.650624 0.429925 0.827401
O O16 0.500000 0.000000 0.000000
O O17 0.656948 0.086348 0.909676
O O18 0.000000 0.000000 0.000000
#
# Coordination Sequence:
#
# PCOD9031199 Si02
#       8
#     2   2   2   2   2   2   2   2
#     4  10  22  43  65  93 137 182 222 276 335 398
#     4  11  24  46  68  99 140 184 226 280 344 411
#     4  11  25  41  70 102 134 184 231 275 345 406
#     4  10  24  41  71  95 137 179 224 280 351 387
#     4  11  22  44  68  96 139 177 227 281 339 406
#     4  12  26  42  72 103 132 180 233 281 343 403
#     4  12  24  46  69  99 143 180 226 288 341 407
#     4  11  22  42  68 100 136 172 227 286 339 399
#
# _framework density 22.133157000000001
#
# number of rings (size 3 to 8) (size 9 to 14) (size 15 to 20)
#    0.000    1.000    2.500    4.125    3.500    1.500 
#    4.500    1.250    0.000    0.000    0.000    0.000 
#    0.000    0.000    0.000    0.000    0.000    0.000 
#
# Total GULP energy -89233.364781 kJ/mol
# GULP energy per Si atom -5577.085299 kJ/mol
# Density = 2.208278 g / cm^3
# Si number density = 22.133157 Si / 1000 Ang^3
#
#
#
# Elastic Constant Matrix: (Units=GPa)
#
#
# Indices 1 2 3 4 5 6 
#
# 1 83.6704 14.8107 34.8966 -10.1520 -5.8869 12.8730
# 2 14.8107 123.1208 42.8820 -25.2461 -10.2710 -3.8743
# 3 34.8966 42.8820 84.9998 1.4936 1.4887 3.2429
# 4 -10.1520 -25.2461 1.4936 43.4538 8.1485 3.7354
# 5 -5.8869 -10.2710 1.4887 8.1485 31.0606 -14.0487
# 6 12.8730 -3.8743 3.2429 3.7354 -14.0487 26.5932
#
#
#
# Elastic Compliance Matrix: (Units=1/GPa)
#
#
# Indices 1 2 3 4 5 6 
#
# 1 0.016696 0.001355 -0.007288 0.005963 -0.001505 -0.008629
# 2 0.001355 0.012238 -0.007055 0.006533 0.004483 0.003438
# 3 -0.007288 -0.007055 0.018506 -0.005724 -0.003450 -0.000776
# 4 0.005963 0.006533 -0.005724 0.031057 -0.009349 -0.010538
# 5 -0.001505 0.004483 -0.003450 -0.009349 0.049168 0.029090
# 6 -0.008629 0.003438 -0.000776 -0.010538 0.029090 0.059224
#
#
# Mechanical properties :
#
#
# Convention : Reuss Voigt Hill
#
# Bulk Modulus (GPa) = 46.58463 52.99666 49.79064
# Shear Modulus (GPa) = 22.72527 33.50163 28.11345
#
# Velocity S-wave (km/s) = 3.20777 3.89477 3.56785
# Velocity P-wave (km/s) = 5.90024 6.64997 6.28629
#
# Compressibility (1/GPa) = 0.02146631
#
# Stress axis : x y z
#
# Youngs Moduli (GPa) = 59.89337 81.71273 54.03530
#
# Poissons Ratio (x) = -0.11075 0.39379
# Poissons Ratio (y) = -0.08117 0.38121
# Poissons Ratio (z) = 0.43648 0.57647
#
# Static dielectric constant tensor:
#      x y z
#    x 1.822550 0.002990 -0.033320 
#    y 0.002990 1.849620 -0.001710 
#    z -0.033320 -0.001710 1.855470 
# 
# From -- ./inp_files/381012.got.cif
#   From: 2010.05.17/outbox.cif.g08.bks.cpg/sg2_191_cif.got.tgz:381012.got - 2010.06.03 11:33:40.
