data_PCOD9031597
_publ_section_title
;
Structure prediction by ZEFSAII (Michael W. Deem and Ramdas Pophale) SiO2 
 PCOD9031597
Probable space group: P -1
;
_chemical_formula_sum "Si O2"
_cell_formula_units_Z 14
_cell_length_a 5.667440
_cell_length_b 12.531482
_cell_length_c 10.643406
_cell_angle_alpha 72.252319
_cell_angle_beta 118.926805
_cell_angle_gamma 130.260887
_cell_volume 504.840171
_symmetry_space_group_name_H-M "P -1"
_symmetry_group_IT_number 2
_symmetry_cell_setting 'triclinic'
loop_
_space_group_symop_operation_xyz
x,y,z
-x,-y,-z
loop_
_atom_site_type_symbol
_atom_site_label
_atom_site_fract_x
_atom_site_fract_y
_atom_site_fract_z
Si Si1 0.635483 0.348110 0.273552
Si Si2 0.100115 0.324760 0.563640
Si Si3 0.888795 0.104462 0.803293
Si Si4 0.262666 0.716578 0.949829
Si Si5 0.220720 0.944431 0.561453
Si Si6 0.528925 0.457387 0.823836
Si Si7 0.075004 0.902597 0.887944
O O1 0.708204 0.296387 0.185685
O O2 0.702117 0.495435 0.210073
O O3 0.239729 0.221917 0.233279
O O4 0.856863 0.361283 0.440933
O O5 0.474895 0.448841 0.661279
O O6 0.972009 0.234697 0.693634
O O7 0.048248 0.218160 0.483148
O O8 0.478511 0.998410 0.724393
O O9 0.041950 0.028076 0.810450
O O10 0.988176 0.125577 0.967598
O O11 0.878943 0.587842 0.924179
O O12 0.333457 0.861272 0.956374
O O13 0.470547 0.671759 0.089536
O O14 0.500000 0.000000 0.500000
O O15 0.000000 0.000000 0.500000
#
# Coordination Sequence:
#
# PCOD9031597 Si02
#       7
#     2   2   2   2   2   2   2
#     4  11  22  42  65  96 130 172 222 283 343 411
#     4  11  23  41  68  96 133 178 220 281 352 409
#     4  10  22  44  67  98 133 180 222 281 340 422
#     4  10  23  42  68  93 127 174 222 287 339 409
#     4  10  23  43  66 101 141 182 230 282 349 421
#     4  10  23  43  63  95 129 171 230 277 345 408
#     4  10  22  43  67  95 134 172 230 271 343 414
#
# _framework density 27.731551
#
# number of rings (size 3 to 8) (size 9 to 14) (size 15 to 20)
#    0.000    1.714    1.429    1.714    2.000    5.143 
#    5.143    2.143    0.000    0.000    0.000    0.000 
#    0.000    0.000    0.000    0.000    0.000    0.000 
#
# Total GULP energy -78180.694984 kJ/mol
# GULP energy per Si atom -5584.335356 kJ/mol
# Density = 2.766843 g / cm^3
# Si number density = 27.731551 Si / 1000 Ang^3
#
#
#
# Elastic Constant Matrix: (Units=GPa)
#
#
# Indices 1 2 3 4 5 6 
#
# 1 73.4774 46.8312 38.8328 -28.7880 25.6763 -37.9266
# 2 46.8312 134.5354 31.1588 -22.5397 18.2452 -51.1047
# 3 38.8328 31.1588 209.5170 -11.2821 30.3617 -7.0121
# 4 -28.7880 -22.5397 -11.2821 56.7946 -7.0257 11.2110
# 5 25.6763 18.2452 30.3617 -7.0257 43.0250 -1.2857
# 6 -37.9266 -51.1047 -7.0121 11.2110 -1.2857 45.4744
#
#
#
# Elastic Compliance Matrix: (Units=1/GPa)
#
#
# Indices 1 2 3 4 5 6 
#
# 1 0.047490 0.005782 -0.003968 0.014417 -0.024406 0.041250
# 2 0.005782 0.015218 -0.001324 0.003683 -0.007753 0.020593
# 3 -0.003968 -0.001324 0.005733 -0.000827 -0.001363 -0.003748
# 4 0.014417 0.003683 -0.000827 0.023551 -0.005435 0.010076
# 5 -0.024406 -0.007753 -0.001363 -0.005435 0.040368 -0.026797
# 6 0.041250 0.020593 -0.003748 0.010076 -0.026797 0.075717
#
#
# Mechanical properties :
#
#
# Convention : Reuss Voigt Hill
#
# Bulk Modulus (GPa) = 14.40477 72.35280 43.37878
# Shear Modulus (GPa) = 21.71665 49.10592 35.41128
#
# Velocity S-wave (km/s) = 2.80143 4.21260 3.57729
# Velocity P-wave (km/s) = 3.95849 7.05751 5.72181
#
# Compressibility (1/GPa) = 0.06942147
#
# Stress axis : x y z
#
# Youngs Moduli (GPa) = 21.05688 65.71209 174.43441
#
# Poissons Ratio (x) = -0.37997 0.69222
# Poissons Ratio (y) = -0.12176 0.23092
# Poissons Ratio (z) = 0.08356 0.08699
#
# Static dielectric constant tensor:
#      x y z
#    x 2.298750 0.152350 0.057080 
#    y 0.152350 2.305800 0.075950 
#    z 0.057080 0.075950 2.177740 
# 
# From -- ./inp_files/65687.got.cif
#   From: 2010.05.17/outbox.cif.g08.bks.cpg/sg2_33_cif.got.tgz:65687.got - 2010.06.03 11:33:40.
