data_PCOD9031746
_publ_section_title
;
Structure prediction by ZEFSAII (Michael W. Deem and Ramdas Pophale) SiO2 
 PCOD9031746
Probable space group: P -1
;
_chemical_formula_sum "Si O2"
_cell_formula_units_Z 12
_cell_length_a 8.637841
_cell_length_b 14.624227
_cell_length_c 5.165257
_cell_angle_alpha 54.467092
_cell_angle_beta 82.999312
_cell_angle_gamma 67.565197
_cell_volume 486.443482
_symmetry_space_group_name_H-M "P -1"
_symmetry_group_IT_number 2
_symmetry_cell_setting 'triclinic'
loop_
_space_group_symop_operation_xyz
x,y,z
-x,-y,-z
loop_
_atom_site_type_symbol
_atom_site_label
_atom_site_fract_x
_atom_site_fract_y
_atom_site_fract_z
Si Si1 0.383053 0.718620 0.113471
Si Si2 0.470295 0.876317 0.186820
Si Si3 0.580576 0.624212 0.718594
Si Si4 0.011918 0.735320 0.231683
Si Si5 0.929365 0.409876 0.024932
Si Si6 0.109007 0.001865 0.226793
O O1 0.424437 0.838283 0.975187
O O2 0.449025 0.639669 0.490171
O O3 0.187244 0.744870 0.084955
O O4 0.494062 0.644168 0.979589
O O5 0.615004 0.749755 0.463906
O O6 0.295077 0.897904 0.341487
O O7 0.500000 0.000000 0.000000
O O8 0.736565 0.498655 0.868393
O O9 0.040304 0.693027 0.592838
O O10 0.986437 0.644065 0.177592
O O11 0.872298 0.868929 0.003296
O O12 0.000000 0.500000 0.000000
O O13 0.000000 0.000000 0.500000
O O14 0.000000 0.000000 0.000000
#
# Coordination Sequence:
#
# PCOD9031746 Si02
#       6
#     2   2   2   2   2   2
#     4  10  22  43  68 103 130 172 234 273 358 407
#     4  10  25  43  72 103 141 180 229 295 351 407
#     4  10  23  44  66  96 137 171 232 281 339 411
#     4  12  25  44  73  99 135 188 224 287 348 410
#     4  12  28  45  67  97 140 181 236 283 344 418
#     4  12  24  46  72 104 144 178 235 286 344 432
#
# _framework density 24.668845999999998
#
# number of rings (size 3 to 8) (size 9 to 14) (size 15 to 20)
#    1.000    0.000    1.667    4.500    2.333    6.000 
#    0.000    0.000    0.000    0.000    0.000    0.000 
#    0.000    0.000    0.000    0.000    0.000    0.000 
#
# Total GULP energy -67114.306041 kJ/mol
# GULP energy per Si atom -5592.858837 kJ/mol
# Density = 2.461270 g / cm^3
# Si number density = 24.668846 Si / 1000 Ang^3
#
#
#
# Elastic Constant Matrix: (Units=GPa)
#
#
# Indices 1 2 3 4 5 6 
#
# 1 34.5272 9.1380 0.0221 -0.2551 4.2903 8.8043
# 2 9.1380 121.3335 43.7783 8.4650 19.8699 -2.1633
# 3 0.0221 43.7783 104.4878 -0.0485 8.9621 -5.6202
# 4 -0.2551 8.4650 -0.0485 60.0457 4.4060 0.7063
# 5 4.2903 19.8699 8.9621 4.4060 34.0070 -7.9375
# 6 8.8043 -2.1633 -5.6202 0.7063 -7.9375 48.5807
#
#
#
# Elastic Compliance Matrix: (Units=1/GPa)
#
#
# Indices 1 2 3 4 5 6 
#
# 1 0.031774 -0.002150 0.000941 0.000855 -0.004632 -0.006514
# 2 -0.002150 0.010759 -0.004111 -0.001167 -0.004871 -0.000386
# 3 0.000941 -0.004111 0.011391 0.000627 -0.000600 0.000857
# 4 0.000855 -0.001167 0.000627 0.016974 -0.001954 -0.000700
# 5 -0.004632 -0.004871 -0.000600 -0.001954 0.034706 0.006252
# 6 -0.006514 -0.000386 0.000857 -0.000700 0.006252 0.022879
#
#
# Mechanical properties :
#
#
# Convention : Reuss Voigt Hill
#
# Bulk Modulus (GPa) = 23.10286 40.69170 31.89728
# Shear Modulus (GPa) = 32.56262 42.35401 37.45832
#
# Velocity S-wave (km/s) = 3.63711 4.14805 3.90095
# Velocity P-wave (km/s) = 5.19842 6.28273 5.76612
#
# Compressibility (1/GPa) = 0.04328468
#
# Stress axis : x y z
#
# Youngs Moduli (GPa) = 31.47215 92.94454 87.79235
#
# Poissons Ratio (x) = 0.19982 -0.08264
# Poissons Ratio (y) = 0.06766 0.36091
# Poissons Ratio (z) = -0.02963 0.38209
#
# Static dielectric constant tensor:
#      x y z
#    x 1.869620 0.055910 -0.073600 
#    y 0.055910 1.955220 -0.064720 
#    z -0.073600 -0.064720 1.987910 
# 
# From -- ./inp_files/33922.got.cif
#   From: 2010.05.17/outbox.cif.g08.bks.cpg/sg2_17_cif.got.tgz:33922.got - 2010.06.03 11:33:40.
