data_PCOD9031821
_publ_section_title
;
Structure prediction by ZEFSAII (Michael W. Deem and Ramdas Pophale) SiO2 
 PCOD9031821
Probable space group: P -1
;
_chemical_formula_sum "Si O2"
_cell_formula_units_Z 12
_cell_length_a 8.972084
_cell_length_b 16.193871
_cell_length_c 17.314068
_cell_angle_alpha 163.331873
_cell_angle_beta 140.474273
_cell_angle_gamma 48.453377
_cell_volume 417.863311
_symmetry_space_group_name_H-M "P -1"
_symmetry_group_IT_number 2
_symmetry_cell_setting 'triclinic'
loop_
_space_group_symop_operation_xyz
x,y,z
-x,-y,-z
loop_
_atom_site_type_symbol
_atom_site_label
_atom_site_fract_x
_atom_site_fract_y
_atom_site_fract_z
Si Si1 0.268517 0.163865 0.128419
Si Si2 0.178628 0.015591 0.703096
Si Si3 0.919082 0.368956 0.080711
Si Si4 0.341893 0.550646 0.645159
Si Si5 0.400435 0.545990 0.830545
Si Si6 0.221988 0.764078 0.272391
O O1 0.500000 0.500000 0.500000
O O2 0.033980 0.139783 0.958616
O O3 0.318926 0.851581 0.867044
O O4 0.231833 0.246583 0.276151
O O5 0.349596 0.319386 0.096200
O O6 0.889881 0.968211 0.527346
O O7 0.362135 0.110155 0.786380
O O8 0.152037 0.710209 0.464465
O O9 0.735576 0.423374 0.119249
O O10 0.797031 0.277743 0.865900
O O11 0.235421 0.493756 0.639173
O O12 0.525215 0.291759 0.657117
O O13 0.000000 0.500000 0.000000
#
# Coordination Sequence:
#
# PCOD9031821 Si02
#       6
#     2   2   2   2   2   2
#     4  12  23  41  74  99 144 180 240 276 351 421
#     4   9  22  42  65  97 132 178 225 277 354 400
#     4  12  24  40  70  98 130 187 225 287 349 411
#     4  10  24  44  66 105 137 186 223 294 339 410
#     4   9  23  45  63 101 138 170 238 282 345 416
#     4  10  22  43  68  94 137 173 233 287 347 411
#
# _framework density 28.717524000000001
#
# number of rings (size 3 to 8) (size 9 to 14) (size 15 to 20)
#    1.000    0.667    1.667    2.000    2.333    4.667 
#    6.000    0.000    0.000    0.000    0.000    0.000 
#    0.000    0.000    0.000    0.000    0.000    0.000 
#
# Total GULP energy -67209.099845 kJ/mol
# GULP energy per Si atom -5600.758320 kJ/mol
# Density = 2.865216 g / cm^3
# Si number density = 28.717524 Si / 1000 Ang^3
#
#
#
# Elastic Constant Matrix: (Units=GPa)
#
#
# Indices 1 2 3 4 5 6 
#
# 1 172.3316 43.4975 34.7972 5.5184 22.9072 21.9336
# 2 43.4975 205.2352 20.5023 9.2122 7.1684 5.7908
# 3 34.7972 20.5023 79.8084 3.9067 21.2253 2.5327
# 4 5.5184 9.2122 3.9067 43.0586 -1.9391 -4.0281
# 5 22.9072 7.1684 21.2253 -1.9391 39.7444 1.8282
# 6 21.9336 5.7908 2.5327 -4.0281 1.8282 52.9021
#
#
#
# Elastic Compliance Matrix: (Units=1/GPa)
#
#
# Indices 1 2 3 4 5 6 
#
# 1 0.007242 -0.001120 -0.001987 -0.000893 -0.002828 -0.002755
# 2 -0.001120 0.005234 -0.000837 -0.000909 0.000110 -0.000142
# 3 -0.001987 -0.000837 0.015547 -0.001266 -0.007083 0.000319
# 4 -0.000893 -0.000909 -0.001266 0.023969 0.002420 0.002272
# 5 -0.002828 0.000110 -0.007083 0.002420 0.030643 0.000625
# 6 -0.002755 -0.000142 0.000319 0.002272 0.000625 0.020197
#
#
# Mechanical properties :
#
#
# Convention : Reuss Voigt Hill
#
# Bulk Modulus (GPa) = 49.66098 72.77437 61.21767
# Shear Modulus (GPa) = 42.57848 51.04622 46.81235
#
# Velocity S-wave (km/s) = 3.85472 4.22065 4.04183
# Velocity P-wave (km/s) = 6.09444 7.01058 6.56851
#
# Compressibility (1/GPa) = 0.02013653
#
# Stress axis : x y z
#
# Youngs Moduli (GPa) = 138.08963 191.04741 64.32199
#
# Poissons Ratio (x) = 0.21392 0.12778
# Poissons Ratio (y) = 0.15463 0.05383
# Poissons Ratio (z) = 0.27432 0.15987
#
# Static dielectric constant tensor:
#      x y z
#    x 2.345060 0.033560 0.034140 
#    y 0.033560 2.233690 -0.101940 
#    z 0.034140 -0.101940 2.353160 
# 
# From -- ./inp_files/176874.got.cif
#   From: 2010.05.17/outbox.cif.g08.bks.cpg/sg2_89_cif.got.tgz:176874.got - 2010.06.03 11:33:40.
