data_PCOD9031985
_publ_section_title
;
Structure prediction by ZEFSAII (Michael W. Deem and Ramdas Pophale) SiO2 
 PCOD9031985
Probable space group: P -1
;
_chemical_formula_sum "Si O2"
_cell_formula_units_Z 16
_cell_length_a 7.793751
_cell_length_b 12.013145
_cell_length_c 15.747071
_cell_angle_alpha 141.430427
_cell_angle_beta 105.235617
_cell_angle_gamma 101.906452
_cell_volume 646.543898
_symmetry_space_group_name_H-M "P -1"
_symmetry_group_IT_number 2
_symmetry_cell_setting 'triclinic'
loop_
_space_group_symop_operation_xyz
x,y,z
-x,-y,-z
loop_
_atom_site_type_symbol
_atom_site_label
_atom_site_fract_x
_atom_site_fract_y
_atom_site_fract_z
Si Si1 0.210536 0.514155 0.444890
Si Si2 0.847005 0.775982 0.281944
Si Si3 0.532700 0.105939 0.425308
Si Si4 0.364865 0.244703 0.228730
Si Si5 0.362773 0.232022 0.920784
Si Si6 0.912958 0.113257 0.870881
Si Si7 0.806372 0.327785 0.768566
Si Si8 0.325583 0.995784 0.917308
O O1 0.260409 0.722603 0.517153
O O2 0.299590 0.403869 0.335549
O O3 0.371896 0.615314 0.611592
O O4 0.931926 0.279232 0.286611
O O5 0.598882 0.518517 0.131647
O O6 0.025644 0.735393 0.252523
O O7 0.744252 0.825610 0.221296
O O8 0.000000 0.000000 0.500000
O O9 0.651391 0.244822 0.612528
O O10 0.313327 0.066509 0.330115
O O11 0.386769 0.827708 0.271880
O O12 0.183834 0.997444 0.114350
O O13 0.331832 0.176543 0.085974
O O14 0.433079 0.100235 0.899641
O O15 0.127935 0.130139 0.883025
O O16 0.020498 0.383525 0.031962
O O17 0.500000 0.000000 0.000000
#
# Coordination Sequence:
#
# PCOD9031985 Si02
#       8
#     2   2   2   2   2   2   2   2
#     4  10  22  43  69 102 132 176 237 282 347 406
#     4  11  28  49  68 100 144 188 230 279 347 421
#     4  10  23  37  68 102 133 168 226 289 339 396
#     4  10  23  43  72 100 133 178 231 293 340 409
#     4  11  27  46  71 101 138 189 231 283 346 420
#     4  11  22  43  71 101 138 174 230 291 340 401
#     4  11  24  40  69 101 134 178 229 283 345 401
#     4  12  27  45  69 102 143 185 227 284 353 415
#
# _framework density 24.746964999999999
#
# number of rings (size 3 to 8) (size 9 to 14) (size 15 to 20)
#    0.000    1.250    2.500    1.500    8.750    2.500 
#    2.250    0.000    0.000    0.000    0.000    0.000 
#    0.000    0.000    0.000    0.000    0.000    0.000 
#
# Total GULP energy -89484.616633 kJ/mol
# GULP energy per Si atom -5592.788540 kJ/mol
# Density = 2.469064 g / cm^3
# Si number density = 24.746965 Si / 1000 Ang^3
#
#
#
# Elastic Constant Matrix: (Units=GPa)
#
#
# Indices 1 2 3 4 5 6 
#
# 1 43.4565 -14.0492 7.4631 -2.6487 -6.6235 -11.8852
# 2 -14.0492 165.8525 64.3085 5.7136 5.0202 -17.0732
# 3 7.4631 64.3085 172.5615 1.1704 22.2832 -2.2905
# 4 -2.6487 5.7136 1.1704 46.5087 -7.2558 6.1531
# 5 -6.6235 5.0202 22.2832 -7.2558 29.8797 -1.5106
# 6 -11.8852 -17.0732 -2.2905 6.1531 -1.5106 23.3738
#
#
#
# Elastic Compliance Matrix: (Units=1/GPa)
#
#
# Indices 1 2 3 4 5 6 
#
# 1 0.034043 0.006880 -0.005212 0.000022 0.011423 0.022558
# 2 0.006880 0.009184 -0.003972 -0.001532 0.003099 0.010421
# 3 -0.005212 -0.003972 0.008351 -0.000453 -0.007082 -0.005072
# 4 0.000022 -0.001532 -0.000453 0.023555 0.005968 -0.006967
# 5 0.011423 0.003099 -0.007082 0.005968 0.042643 0.008563
# 6 0.022558 0.010421 -0.005072 -0.006967 0.008563 0.063756
#
#
# Mechanical properties :
#
#
# Convention : Reuss Voigt Hill
#
# Bulk Modulus (GPa) = 21.28987 55.25725 38.27356
# Shear Modulus (GPa) = 24.77755 41.56231 33.16993
#
# Velocity S-wave (km/s) = 3.16766 4.10261 3.66507
# Velocity P-wave (km/s) = 4.69047 6.69471 5.78013
#
# Compressibility (1/GPa) = 0.04697071
#
# Stress axis : x y z
#
# Youngs Moduli (GPa) = 29.37466 108.88483 119.74792
#
# Poissons Ratio (x) = -0.74917 0.62416
# Poissons Ratio (y) = -0.20211 0.47559
# Poissons Ratio (z) = 0.15311 0.43245
#
# Static dielectric constant tensor:
#      x y z
#    x 1.980120 -0.294210 0.215660 
#    y -0.294210 1.700780 0.312090 
#    z 0.215660 0.312090 1.584760 
# 
# From -- ./inp_files/500870.got.cif
#   From: 2010.05.17/outbox.cif.g08.bks.cpg/sg2_251_cif.got.tgz:500870.got - 2010.06.03 11:33:40.
