data_PCOD9031557
_publ_section_title
;
Structure prediction by ZEFSAII (Michael W. Deem and Ramdas Pophale) SiO2 
 PCOD9031557
Probable space group: P -1
;
_chemical_formula_sum "Si O2"
_cell_formula_units_Z 14
_cell_length_a 11.275452
_cell_length_b 11.433285
_cell_length_c 6.653564
_cell_angle_alpha 90.351525
_cell_angle_beta 84.731567
_cell_angle_gamma 43.690818
_cell_volume 586.710904
_symmetry_space_group_name_H-M "P -1"
_symmetry_group_IT_number 2
_symmetry_cell_setting 'triclinic'
loop_
_space_group_symop_operation_xyz
x,y,z
-x,-y,-z
loop_
_atom_site_type_symbol
_atom_site_label
_atom_site_fract_x
_atom_site_fract_y
_atom_site_fract_z
Si Si1 0.798963 0.603009 0.775872
Si Si2 0.810506 0.036980 0.968276
Si Si3 0.620586 0.338106 0.679396
Si Si4 0.687617 0.871552 0.070216
Si Si5 0.530020 0.314543 0.294087
Si Si6 0.863548 0.757602 0.437920
Si Si7 0.952972 0.152192 0.396655
O O1 0.622172 0.657416 0.768589
O O2 0.820627 0.688605 0.605470
O O3 0.966127 0.402004 0.719399
O O4 0.782616 0.684403 0.987488
O O5 0.708469 0.195215 0.831698
O O6 0.006285 0.896879 0.847317
O O7 0.718779 0.136362 0.192563
O O8 0.769624 0.928853 0.963633
O O9 0.526185 0.320736 0.536108
O O10 0.502949 0.528840 0.772340
O O11 0.761035 0.306230 0.514762
O O12 0.706290 0.875875 0.305740
O O13 0.500000 0.000000 0.000000
O O14 0.923503 0.833561 0.537970
O O15 0.000000 0.000000 0.500000
#
# Coordination Sequence:
#
# PCOD9031557 Si02
#       7
#     2   2   2   2   2   2   2
#     4  11  24  45  70  95 134 182 224 275 338 401
#     4  11  24  41  64  99 135 167 224 279 335 388
#     4  10  24  45  65  98 134 177 224 271 335 408
#     4  12  26  41  66 103 133 172 226 281 338 397
#     4  11  23  42  71  97 131 177 224 278 334 396
#     4  11  25  46  67  96 137 181 222 277 334 408
#     4  10  22  43  67  92 136 174 218 272 334 399
#
# _framework density 23.861837000000001
#
# number of rings (size 3 to 8) (size 9 to 14) (size 15 to 20)
#    0.000    1.143    4.286    0.857    6.000    1.143 
#    2.571    1.429    0.000    0.000    0.000    0.000 
#    0.000    0.000    0.000    0.000    0.000    0.000 
#
# Total GULP energy -78181.724598 kJ/mol
# GULP energy per Si atom -5584.408900 kJ/mol
# Density = 2.380753 g / cm^3
# Si number density = 23.861837 Si / 1000 Ang^3
#
#
#
# Elastic Constant Matrix: (Units=GPa)
#
#
# Indices 1 2 3 4 5 6 
#
# 1 103.5298 6.8264 12.4080 6.0590 15.9132 7.7452
# 2 6.8264 54.0757 14.4177 12.8855 17.3011 12.5586
# 3 12.4080 14.4177 64.6625 18.3929 9.5646 4.6214
# 4 6.0590 12.8855 18.3929 46.9297 3.2219 6.2790
# 5 15.9132 17.3011 9.5646 3.2219 27.3423 2.3301
# 6 7.7452 12.5586 4.6214 6.2790 2.3301 36.0701
#
#
#
# Elastic Compliance Matrix: (Units=1/GPa)
#
#
# Indices 1 2 3 4 5 6 
#
# 1 0.010936 0.001798 -0.001130 -0.000690 -0.006833 -0.002268
# 2 0.001798 0.026856 -0.002078 -0.004666 -0.016114 -0.007617
# 3 -0.001130 -0.002078 0.018486 -0.006262 -0.003750 -0.000070
# 4 -0.000690 -0.004666 -0.006262 0.025211 0.002744 -0.001991
# 5 -0.006833 -0.016114 -0.003750 0.002744 0.051414 0.003759
# 6 -0.002268 -0.007617 -0.000070 -0.001991 0.003759 0.030976
#
#
# Mechanical properties :
#
#
# Convention : Reuss Voigt Hill
#
# Bulk Modulus (GPa) = 18.70639 32.17470 25.44054
# Shear Modulus (GPa) = 27.09748 34.64281 30.87014
#
# Velocity S-wave (km/s) = 3.37352 3.81439 3.60071
# Velocity P-wave (km/s) = 4.79903 5.73694 5.28882
#
# Compressibility (1/GPa) = 0.05345767
#
# Stress axis : x y z
#
# Youngs Moduli (GPa) = 91.43902 37.23548 54.09515
#
# Poissons Ratio (x) = -0.06695 0.06115
# Poissons Ratio (y) = -0.16441 0.11240
# Poissons Ratio (z) = 0.10336 0.07737
#
# Static dielectric constant tensor:
#      x y z
#    x 1.921010 -0.055120 0.019140 
#    y -0.055120 1.936270 0.074090 
#    z 0.019140 0.074090 1.968730 
# 
# From -- ./inp_files/59198.got.cif
#   From: 2010.05.17/outbox.cif.g08.bks.cpg/sg2_30_cif.got.tgz:59198.got - 2010.06.03 11:33:40.
