data_PCOD9031996
_publ_section_title
;
Structure prediction by ZEFSAII (Michael W. Deem and Ramdas Pophale) SiO2 
 PCOD9031996
Probable space group: P -1
;
_chemical_formula_sum "Si O2"
_cell_formula_units_Z 13
_cell_length_a 7.706858
_cell_length_b 10.644189
_cell_length_c 9.212722
_cell_angle_alpha 107.494831
_cell_angle_beta 116.618574
_cell_angle_gamma 45.359177
_cell_volume 480.620173
_symmetry_space_group_name_H-M "P -1"
_symmetry_group_IT_number 2
_symmetry_cell_setting 'triclinic'
loop_
_space_group_symop_operation_xyz
x,y,z
-x,-y,-z
loop_
_atom_site_type_symbol
_atom_site_label
_atom_site_fract_x
_atom_site_fract_y
_atom_site_fract_z
Si Si1 0.099645 0.008068 0.889722
Si Si2 0.090876 0.833678 0.572969
Si Si3 0.113133 0.325930 0.387681
Si Si4 0.439941 0.127418 0.835750
Si Si5 0.281980 0.494895 0.965212
Si Si6 0.852410 0.314498 0.729477
Si Si7 0.500000 0.000000 0.500000
O O1 0.205494 0.850293 0.764138
O O2 0.850945 0.186107 0.783020
O O3 0.317433 0.014970 0.020369
O O4 0.000000 0.000000 0.000000
O O5 0.892413 0.813068 0.566550
O O6 0.251916 0.670149 0.464823
O O7 0.000000 0.000000 0.500000
O O8 0.954540 0.384125 0.199432
O O9 0.000000 0.500000 0.500000
O O10 0.420407 0.179748 0.435219
O O11 0.383796 0.303679 0.912164
O O12 0.159331 0.187872 0.763815
O O13 0.526692 0.072199 0.685577
O O14 0.500000 0.500000 0.000000
O O15 0.221022 0.542680 0.130754
#
# Coordination Sequence:
#
# PCOD9031996 Si02
#       7
#     2   2   2   2   2   2   1
#     4  11  23  42  70 105 145 195 253 306 384 458
#     4  10  22  43  69 102 151 190 245 312 376 445
#     4  12  24  48  74 112 149 198 261 310 375 464
#     4  12  24  43  72 108 144 200 256 311 382 451
#     4  12  26  47  73 107 155 199 252 320 391 454
#     4  11  23  44  69 102 150 192 257 317 367 465
#     4  12  24  44  80 106 150 198 252 314 380 448
#
# _framework density 27.048389
#
# number of rings (size 3 to 8) (size 9 to 14) (size 15 to 20)
#    0.000    0.615    3.077    5.538    0.000    1.231 
#    0.000    3.077    0.000    0.000    0.000    0.000 
#    0.000    0.000    0.000    0.000    0.000    0.000 
#
# Total GULP energy -72438.406123 kJ/mol
# GULP energy per Si atom -5572.185086 kJ/mol
# Density = 2.698683 g / cm^3
# Si number density = 27.048389 Si / 1000 Ang^3
#
#
#
# Elastic Constant Matrix: (Units=GPa)
#
#
# Indices 1 2 3 4 5 6 
#
# 1 84.5397 0.2220 10.0012 9.5667 -8.5966 -0.7373
# 2 0.2220 127.4285 51.4010 30.1752 -9.8468 -8.2073
# 3 10.0012 51.4010 261.0272 50.6963 -24.6481 -22.3106
# 4 9.5667 30.1752 50.6963 51.1076 -7.8388 -0.6836
# 5 -8.5966 -9.8468 -24.6481 -7.8388 48.9531 5.4529
# 6 -0.7373 -8.2073 -22.3106 -0.6836 5.4529 28.6597
#
#
#
# Elastic Compliance Matrix: (Units=1/GPa)
#
#
# Indices 1 2 3 4 5 6 
#
# 1 0.012297 0.000697 0.000068 -0.002484 0.001920 0.000144
# 2 0.000697 0.009467 -0.000714 -0.004883 0.000670 0.001929
# 3 0.000068 -0.000714 0.005294 -0.004579 0.001406 0.003542
# 4 -0.002484 -0.004883 -0.004579 0.027580 0.001205 -0.004598
# 5 0.001920 0.000670 0.001406 0.001205 0.022117 -0.002844
# 6 0.000144 0.001929 0.003542 -0.004598 -0.002844 0.038637
#
#
# Mechanical properties :
#
#
# Convention : Reuss Voigt Hill
#
# Bulk Modulus (GPa) = 36.82172 66.24930 51.53551
# Shear Modulus (GPa) = 40.21143 53.16883 46.69013
#
# Velocity S-wave (km/s) = 3.85989 4.43842 4.15923
# Velocity P-wave (km/s) = 5.78860 7.12827 6.49307
#
# Compressibility (1/GPa) = 0.02715789
#
# Stress axis : x y z
#
# Youngs Moduli (GPa) = 81.32381 105.63306 188.89537
#
# Poissons Ratio (x) = -0.07364 -0.01278
# Poissons Ratio (y) = -0.05670 0.13496
# Poissons Ratio (z) = -0.00550 0.07547
#
# Static dielectric constant tensor:
#      x y z
#    x 1.043120 0.975370 -0.242000 
#    y 0.975370 1.534830 0.169060 
#    z -0.242000 0.169060 2.080060 
# 
# From -- ./inp_files/190316.got.cif
#   From: 2010.05.17/outbox.cif.g08.bks.cpg/sg2_96_cif.got.tgz:190316.got - 2010.06.03 11:33:40.
