data_PCOD9031350
_publ_section_title
;
Structure prediction by ZEFSAII (Michael W. Deem and Ramdas Pophale) SiO2 
 PCOD9031350
Probable space group: P -1
;
_chemical_formula_sum "Si O2"
_cell_formula_units_Z 16
_cell_length_a 8.947816
_cell_length_b 22.501059
_cell_length_c 8.860768
_cell_angle_alpha 49.158277
_cell_angle_beta 81.937027
_cell_angle_gamma 120.950561
_cell_volume 785.348979
_symmetry_space_group_name_H-M "P -1"
_symmetry_group_IT_number 2
_symmetry_cell_setting 'triclinic'
loop_
_space_group_symop_operation_xyz
x,y,z
-x,-y,-z
loop_
_atom_site_type_symbol
_atom_site_label
_atom_site_fract_x
_atom_site_fract_y
_atom_site_fract_z
Si Si1 0.963294 0.899616 0.589978
Si Si2 0.922999 0.307247 0.109601
Si Si3 0.753872 0.556290 0.870304
Si Si4 0.175427 0.139816 0.668167
Si Si5 0.760071 0.660986 0.199580
Si Si6 0.738513 0.380918 0.136358
Si Si7 0.566525 0.016315 0.640465
Si Si8 0.974519 0.209274 0.743493
O O1 0.838331 0.865023 0.503246
O O2 0.242934 0.977831 0.390091
O O3 0.807292 0.762630 0.927767
O O4 0.000000 0.000000 0.500000
O O5 0.788189 0.334716 0.083632
O O6 0.723021 0.157799 0.441428
O O7 0.153095 0.411960 0.023441
O O8 0.031924 0.314576 0.931547
O O9 0.976444 0.692835 0.522308
O O10 0.500000 0.500000 0.000000
O O11 0.695066 0.450447 0.971392
O O12 0.476422 0.253472 0.476517
O O13 0.054654 0.170215 0.693054
O O14 0.000000 0.000000 0.000000
O O15 0.500000 0.500000 0.500000
O O16 0.828770 0.710871 0.277349
O O17 0.000000 0.500000 0.000000
O O18 0.500000 0.000000 0.500000
O O19 0.307753 0.906385 0.955319
#
# Coordination Sequence:
#
# PCOD9031350 Si02
#       8
#     2   2   2   2   2   2   2   2
#     4  11  26  47  71 101 142 183 227 295 347 411
#     4  10  22  43  66  91 134 177 219 283 345 400
#     4  11  22  41  66  98 133 170 225 279 343 410
#     4  12  26  42  73 105 135 178 237 290 344 419
#     4  11  24  41  68  98 135 185 229 274 344 418
#     4  10  24  42  67  96 139 175 218 285 354 402
#     4  11  23  44  67  96 136 180 228 281 345 408
#     4  12  23  40  70  98 133 179 229 281 343 416
#
# _framework density 20.373107999999998
#
# number of rings (size 3 to 8) (size 9 to 14) (size 15 to 20)
#    0.000    1.000    3.750    3.750    5.250    4.000 
#    2.250    0.625    0.000    0.000    0.000    0.000 
#    0.000    0.000    0.000    0.000    0.000    0.000 
#
# Total GULP energy -89253.150052 kJ/mol
# GULP energy per Si atom -5578.321878 kJ/mol
# Density = 2.032674 g / cm^3
# Si number density = 20.373108 Si / 1000 Ang^3
#
#
#
# Elastic Constant Matrix: (Units=GPa)
#
#
# Indices 1 2 3 4 5 6 
#
# 1 111.7374 40.3655 31.7869 -14.3695 -5.6896 -35.9175
# 2 40.3655 98.5734 29.3261 -4.4466 2.4332 -24.3379
# 3 31.7869 29.3261 113.1604 -21.9492 -18.5133 -19.5833
# 4 -14.3695 -4.4466 -21.9492 35.3752 4.8542 2.3555
# 5 -5.6896 2.4332 -18.5133 4.8542 32.8158 -9.3119
# 6 -35.9175 -24.3379 -19.5833 2.3555 -9.3119 50.1585
#
#
#
# Elastic Compliance Matrix: (Units=1/GPa)
#
#
# Indices 1 2 3 4 5 6 
#
# 1 0.013766 -0.003396 0.000087 0.003990 0.004627 0.008916
# 2 -0.003396 0.012906 -0.002531 -0.001209 -0.002082 0.002512
# 3 0.000087 -0.002531 0.012858 0.006268 0.007959 0.005038
# 4 0.003990 -0.001209 0.006268 0.033373 0.000290 0.003204
# 5 0.004627 -0.002082 0.007959 0.000290 0.039489 0.012728
# 6 0.008916 0.002512 0.005038 0.003204 0.012728 0.031720
#
#
# Mechanical properties :
#
#
# Convention : Reuss Voigt Hill
#
# Bulk Modulus (GPa) = 35.90649 58.49203 47.19926
# Shear Modulus (GPa) = 30.28928 38.46939 34.37934
#
# Velocity S-wave (km/s) = 3.86000 4.35011 4.11236
# Velocity P-wave (km/s) = 6.12608 7.34874 6.76509
#
# Compressibility (1/GPa) = 0.02785012
#
# Stress axis : x y z
#
# Youngs Moduli (GPa) = 72.64101 77.48627 77.77174
#
# Poissons Ratio (x) = 0.26315 -0.00678
# Poissons Ratio (y) = 0.24670 0.19683
# Poissons Ratio (z) = -0.00633 0.19611
#
# Static dielectric constant tensor:
#      x y z
#    x 1.661580 0.035050 0.071870 
#    y 0.035050 1.750690 -0.053780 
#    z 0.071870 -0.053780 1.694160 
# 
# From -- ./inp_files/226138.got.cif
#   From: 2010.05.17/outbox.cif.g08.bks.cpg/sg2_114_cif.got.tgz:226138.got - 2010.06.03 11:33:40.
