data_PCOD9031036
_publ_section_title
;
Structure prediction by ZEFSAII (Michael W. Deem and Ramdas Pophale) SiO2 
 PCOD9031036
Probable space group: P -1
;
_chemical_formula_sum "Si O2"
_cell_formula_units_Z 14
_cell_length_a 15.892971
_cell_length_b 11.156907
_cell_length_c 12.850654
_cell_angle_alpha 115.427229
_cell_angle_beta 24.082849
_cell_angle_gamma 132.783917
_cell_volume 526.085049
_symmetry_space_group_name_H-M "P -1"
_symmetry_group_IT_number 2
_symmetry_cell_setting 'triclinic'
loop_
_space_group_symop_operation_xyz
x,y,z
-x,-y,-z
loop_
_atom_site_type_symbol
_atom_site_label
_atom_site_fract_x
_atom_site_fract_y
_atom_site_fract_z
Si Si1 0.827992 0.159159 0.958393
Si Si2 0.081240 0.824430 0.605139
Si Si3 0.034676 0.065001 0.855442
Si Si4 0.927258 0.524450 0.346101
Si Si5 0.595192 0.399538 0.888840
Si Si6 0.594855 0.892586 0.833064
Si Si7 0.577361 0.234744 0.434695
O O1 0.795837 0.255806 0.120085
O O2 0.448507 0.966455 0.278091
O O3 0.989971 0.119152 0.819061
O O4 0.048331 0.314422 0.669647
O O5 0.893944 0.597246 0.701303
O O6 0.099926 0.926567 0.518718
O O7 0.954572 0.867995 0.848896
O O8 0.395723 0.250213 0.569006
O O9 0.759720 0.988437 0.214001
O O10 0.710231 0.403958 0.648547
O O11 0.784820 0.373326 0.354126
O O12 0.303936 0.686696 0.012821
O O13 0.500000 0.500000 0.000000
O O14 0.395458 0.193433 0.107570
O O15 0.500000 0.000000 0.000000
#
# Coordination Sequence:
#
# PCOD9031036 Si02
#       7
#     2   2   2   2   2   2   2
#     4  10  23  42  73  97 136 195 228 298 355 417
#     4  10  24  45  69 106 145 180 240 287 355 430
#     4  10  22  43  70  99 143 182 233 296 356 420
#     4  11  24  42  68 101 139 183 240 288 351 430
#     4  12  27  44  70 109 144 186 236 298 357 429
#     4  11  25  47  72 100 144 195 238 288 355 424
#     4  10  22  43  64 104 138 180 242 290 355 423
#
# _framework density 26.611668000000002
#
# number of rings (size 3 to 8) (size 9 to 14) (size 15 to 20)
#    0.000    1.429    1.429    2.143    4.000    4.571 
#    2.571    0.000    0.000    0.000    0.000    0.000 
#    0.000    0.000    0.000    0.000    0.000    0.000 
#
# Total GULP energy -78182.168460 kJ/mol
# GULP energy per Si atom -5584.440604 kJ/mol
# Density = 2.655110 g / cm^3
# Si number density = 26.611668 Si / 1000 Ang^3
#
#
#
# Elastic Constant Matrix: (Units=GPa)
#
#
# Indices 1 2 3 4 5 6 
#
# 1 201.6187 75.1928 28.5949 -7.4042 5.0242 -22.9741
# 2 75.1928 109.6788 39.1250 -1.5350 9.3646 11.3921
# 3 28.5949 39.1250 59.0074 1.1224 17.3467 -11.1764
# 4 -7.4042 -1.5350 1.1224 37.0795 2.0417 1.5287
# 5 5.0242 9.3646 17.3467 2.0417 52.0716 -13.4771
# 6 -22.9741 11.3921 -11.1764 1.5287 -13.4771 61.4417
#
#
#
# Elastic Compliance Matrix: (Units=1/GPa)
#
#
# Indices 1 2 3 4 5 6 
#
# 1 0.007596 -0.006015 0.000762 0.001002 0.001176 0.004327
# 2 -0.006015 0.017662 -0.009862 0.000213 -0.001287 -0.007606
# 3 0.000762 -0.009862 0.025790 -0.000973 -0.005392 0.005646
# 4 0.001002 0.000213 -0.000973 0.027298 -0.001077 -0.000757
# 5 0.001176 -0.001287 -0.005392 -0.001077 0.022359 0.004629
# 6 0.004327 -0.007606 0.005646 -0.000757 0.004629 0.021365
#
#
# Mechanical properties :
#
#
# Convention : Reuss Voigt Hill
#
# Bulk Modulus (GPa) = 48.03576 72.90335 60.46956
# Shear Modulus (GPa) = 31.39946 45.27804 38.33875
#
# Velocity S-wave (km/s) = 3.43871 4.12932 3.79974
# Velocity P-wave (km/s) = 5.81860 7.08448 6.48251
#
# Compressibility (1/GPa) = 0.02081782
#
# Stress axis : x y z
#
# Youngs Moduli (GPa) = 131.65572 56.61770 38.77509
#
# Poissons Ratio (x) = 0.34056 -0.02956
# Poissons Ratio (y) = 0.79192 0.38241
# Poissons Ratio (z) = -0.10038 0.55838
#
# Static dielectric constant tensor:
#      x y z
#    x 2.136310 0.023550 -0.019130 
#    y 0.023550 2.187770 -0.034940 
#    z -0.019130 -0.034940 2.116220 
# 
# From -- ./inp_files/450381.got.cif
#   From: 2010.05.17/outbox.cif.g08.bks.cpg/sg2_226_cif.got.tgz:450381.got - 2010.06.03 11:33:40.
