data_PCOD9031705
_publ_section_title
;
Structure prediction by ZEFSAII (Michael W. Deem and Ramdas Pophale) SiO2 
 PCOD9031705
Probable space group: P -1
;
_chemical_formula_sum "Si O2"
_cell_formula_units_Z 15
_cell_length_a 11.846920
_cell_length_b 4.865140
_cell_length_c 21.943480
_cell_angle_alpha 108.318393
_cell_angle_beta 27.260484
_cell_angle_gamma 108.913522
_cell_volume 547.027164
_symmetry_space_group_name_H-M "P -1"
_symmetry_group_IT_number 2
_symmetry_cell_setting 'triclinic'
loop_
_space_group_symop_operation_xyz
x,y,z
-x,-y,-z
loop_
_atom_site_type_symbol
_atom_site_label
_atom_site_fract_x
_atom_site_fract_y
_atom_site_fract_z
Si Si1 0.147717 0.808529 0.778723
Si Si2 0.500000 0.500000 0.000000
Si Si3 0.044590 0.828191 0.210188
Si Si4 0.314455 0.512953 0.413618
Si Si5 0.406864 0.576141 0.193970
Si Si6 0.118816 0.098729 0.380632
Si Si7 0.789390 0.713853 0.123133
Si Si8 0.354019 0.953564 0.505055
O O1 0.437218 0.900046 0.630896
O O2 0.085679 0.463651 0.780117
O O3 0.110513 0.981818 0.871243
O O4 0.974173 0.923559 0.815282
O O5 0.691218 0.248152 0.900789
O O6 0.522863 0.470960 0.911917
O O7 0.898719 0.918330 0.346662
O O8 0.200996 0.220634 0.416659
O O9 0.584802 0.568537 0.258869
O O10 0.142040 0.771429 0.496553
O O11 0.322943 0.604333 0.485661
O O12 0.310082 0.282243 0.255460
O O13 0.630770 0.729594 0.138463
O O14 0.179923 0.773098 0.320928
O O15 0.000000 0.500000 0.000000
O O16 0.500000 0.000000 0.500000
#
# Coordination Sequence:
#
# PCOD9031705 Si02
#       8
#     2   1   2   2   2   2   2   2
#     4  10  23  43  68  94 127 171 221 271 320 380
#     4  12  28  46  68  98 138 178 218 268 336 406
#     4  11  24  42  65  95 132 173 216 265 324 390
#     4   9  20  39  67  97 131 172 218 274 327 385
#     4  11  26  44  69  97 132 175 221 275 331 393
#     4  10  23  45  68  97 128 171 227 275 325 383
#     4  10  22  43  68 100 136 175 221 272 331 396
#     4   9  19  38  63  94 127 166 215 268 322 379
#
# _framework density 27.420940999999999
#
# number of rings (size 3 to 8) (size 9 to 14) (size 15 to 20)
#    0.000    1.867    0.000    2.000    0.000   16.533 
#    0.000   13.333    0.000    0.000    0.000    0.000 
#    0.000    0.000    0.000    0.000    0.000    0.000 
#
# Total GULP energy -83796.133408 kJ/mol
# GULP energy per Si atom -5586.408894 kJ/mol
# Density = 2.735853 g / cm^3
# Si number density = 27.420941 Si / 1000 Ang^3
#
#
#
# Elastic Constant Matrix: (Units=GPa)
#
#
# Indices 1 2 3 4 5 6 
#
# 1 141.4455 11.6644 49.5935 21.6560 16.1265 -0.0205
# 2 11.6644 73.1436 23.5027 14.5887 18.0616 -6.3592
# 3 49.5935 23.5027 194.0485 31.1384 15.8561 5.7661
# 4 21.6560 14.5887 31.1384 44.1332 9.6384 0.4443
# 5 16.1265 18.0616 15.8561 9.6384 62.0639 15.4810
# 6 -0.0205 -6.3592 5.7661 0.4443 15.4810 36.1577
#
#
#
# Elastic Compliance Matrix: (Units=1/GPa)
#
#
# Indices 1 2 3 4 5 6 
#
# 1 0.008200 0.000223 -0.001599 -0.002622 -0.001637 0.001032
# 2 0.000223 0.016540 -0.001205 -0.003611 -0.005360 0.005440
# 3 -0.001599 -0.001205 0.006262 -0.003213 -0.000047 -0.001151
# 4 -0.002622 -0.003611 -0.003213 0.027806 -0.001846 0.000324
# 5 -0.001637 -0.005360 -0.000047 -0.001846 0.020851 -0.009841
# 6 0.001032 0.005440 -0.001151 0.000324 -0.009841 0.033007
#
#
# Mechanical properties :
#
#
# Convention : Reuss Voigt Hill
#
# Bulk Modulus (GPa) = 38.69758 64.23988 51.46873
# Shear Modulus (GPa) = 39.54422 50.06276 44.80349
#
# Velocity S-wave (km/s) = 3.80164 4.27747 4.04656
# Velocity P-wave (km/s) = 5.78040 6.91909 6.37522
#
# Compressibility (1/GPa) = 0.02584141
#
# Stress axis : x y z
#
# Youngs Moduli (GPa) = 121.94536 60.45950 159.70410
#
# Poissons Ratio (x) = -0.01349 0.25535
# Poissons Ratio (y) = -0.02721 0.19237
# Poissons Ratio (z) = 0.19498 0.07282
#
# Static dielectric constant tensor:
#      x y z
#    x 2.293360 0.006670 0.017880 
#    y 0.006670 2.116300 -0.111450 
#    z 0.017880 -0.111450 2.154950 
# 
# From -- ./inp_files/609102.got.cif
#   From: 2010.05.17/outbox.cif.g08.bks.cpg/sg2_305_cif.got.tgz:609102.got - 2010.06.03 11:33:40.
