data_PCOD9031236
_publ_section_title
;
Structure prediction by ZEFSAII (Michael W. Deem and Ramdas Pophale) SiO2 
 PCOD9031236
Probable space group: P -1
;
_chemical_formula_sum "Si O2"
_cell_formula_units_Z 14
_cell_length_a 8.482340
_cell_length_b 15.211072
_cell_length_c 7.721355
_cell_angle_alpha 105.752393
_cell_angle_beta 127.236934
_cell_angle_gamma 103.468759
_cell_volume 652.801654
_symmetry_space_group_name_H-M "P -1"
_symmetry_group_IT_number 2
_symmetry_cell_setting 'triclinic'
loop_
_space_group_symop_operation_xyz
x,y,z
-x,-y,-z
loop_
_atom_site_type_symbol
_atom_site_label
_atom_site_fract_x
_atom_site_fract_y
_atom_site_fract_z
Si Si1 0.820505 0.987461 0.521298
Si Si2 0.196245 0.799187 0.371556
Si Si3 0.113096 0.161654 0.303238
Si Si4 0.272715 0.288336 0.836579
Si Si5 0.246494 0.603902 0.701007
Si Si6 0.456749 0.241158 0.260859
Si Si7 0.709478 0.197022 0.956639
O O1 0.896455 0.948148 0.719633
O O2 0.557265 0.895028 0.258126
O O3 0.812483 0.093832 0.593720
O O4 0.000000 0.000000 0.500000
O O5 0.412756 0.821521 0.645781
O O6 0.235816 0.769140 0.190450
O O7 0.951834 0.711192 0.246495
O O8 0.289469 0.222835 0.297515
O O9 0.211318 0.230646 0.581388
O O10 0.871483 0.152230 0.098161
O O11 0.529839 0.393092 0.062984
O O12 0.312908 0.221057 0.978272
O O13 0.330806 0.639110 0.577407
O O14 0.000000 0.500000 0.500000
O O15 0.239360 0.701730 0.840118
#
# Coordination Sequence:
#
# PCOD9031236 Si02
#       7
#     2   2   2   2   2   2   2
#     4  12  25  41  66 100 141 182 228 266 328 405
#     4  12  22  43  67 102 134 187 218 269 342 391
#     4  12  23  44  67  96 142 182 217 275 337 383
#     4  10  22  43  65  95 138 168 222 283 322 401
#     4  10  22  46  72  97 130 173 225 286 341 396
#     4  10  23  42  69  93 139 172 225 280 329 395
#     4  12  24  42  69  98 138 175 229 278 329 405
#
# _framework density 21.446021999999999
#
# number of rings (size 3 to 8) (size 9 to 14) (size 15 to 20)
#    0.857    0.000    5.714    1.286    0.000    2.286 
#    0.000    8.571    0.000    0.000    0.000    0.000 
#    0.000    0.000    0.000    0.000    0.000    0.000 
#
# Total GULP energy -78136.961339 kJ/mol
# GULP energy per Si atom -5581.211524 kJ/mol
# Density = 2.139721 g / cm^3
# Si number density = 21.446022 Si / 1000 Ang^3
#
#
#
# Elastic Constant Matrix: (Units=GPa)
#
#
# Indices 1 2 3 4 5 6 
#
# 1 164.8042 35.0295 60.9110 -4.6035 25.0832 22.5597
# 2 35.0295 44.9802 29.4553 -8.3997 10.4807 5.7007
# 3 60.9110 29.4553 96.1399 -7.9815 25.2786 1.1119
# 4 -4.6035 -8.3997 -7.9815 39.4257 7.4648 8.5489
# 5 25.0832 10.4807 25.2786 7.4648 45.9684 -12.7210
# 6 22.5597 5.7007 1.1119 8.5489 -12.7210 36.5195
#
#
#
# Elastic Compliance Matrix: (Units=1/GPa)
#
#
# Indices 1 2 3 4 5 6 
#
# 1 0.010068 -0.002475 -0.003839 0.002720 -0.005554 -0.008288
# 2 -0.002475 0.031790 -0.005856 0.007991 -0.005969 -0.007205
# 3 -0.003839 -0.005856 0.016452 0.002778 -0.006062 0.000023
# 4 0.002720 0.007991 0.002778 0.034284 -0.014891 -0.016225
# 5 -0.005554 -0.005969 -0.006062 -0.014891 0.037760 0.021186
# 6 -0.008288 -0.007205 0.000023 -0.016225 0.021186 0.044804
#
#
# Mechanical properties :
#
#
# Convention : Reuss Voigt Hill
#
# Bulk Modulus (GPa) = 29.43583 61.85730 45.64657
# Shear Modulus (GPa) = 23.71666 36.41797 30.06732
#
# Velocity S-wave (km/s) = 3.32908 4.12530 3.74839
# Velocity P-wave (km/s) = 5.34157 7.18308 6.32965
#
# Compressibility (1/GPa) = 0.03397220
#
# Stress axis : x y z
#
# Youngs Moduli (GPa) = 99.32044 31.45616 60.78286
#
# Poissons Ratio (x) = 0.07785 0.23333
# Poissons Ratio (y) = 0.24580 0.35592
# Poissons Ratio (z) = 0.38127 0.18420
#
# Static dielectric constant tensor:
#      x y z
#    x 1.798250 0.022770 0.024030 
#    y 0.022770 1.832620 -0.012590 
#    z 0.024030 -0.012590 1.802940 
# 
# From -- ./inp_files/203410.got.cif
#   From: 2010.05.17/outbox.cif.g08.bks.cpg/sg2_102_cif.got.tgz:203410.got - 2010.06.03 11:33:40.
