data_PCOD9031930
_publ_section_title
;
Structure prediction by ZEFSAII (Michael W. Deem and Ramdas Pophale) SiO2 
 PCOD9031930
Probable space group: P -1
;
_chemical_formula_sum "Si O2"
_cell_formula_units_Z 16
_cell_length_a 5.627306
_cell_length_b 15.602988
_cell_length_c 8.540321
_cell_angle_alpha 103.844324
_cell_angle_beta 82.855006
_cell_angle_gamma 59.140432
_cell_volume 596.901614
_symmetry_space_group_name_H-M "P -1"
_symmetry_group_IT_number 2
_symmetry_cell_setting 'triclinic'
loop_
_space_group_symop_operation_xyz
x,y,z
-x,-y,-z
loop_
_atom_site_type_symbol
_atom_site_label
_atom_site_fract_x
_atom_site_fract_y
_atom_site_fract_z
Si Si1 0.157579 0.477536 0.808754
Si Si2 0.614324 0.678279 0.527420
Si Si3 0.262869 0.211456 0.667907
Si Si4 0.707539 0.309331 0.877982
Si Si5 0.386253 0.159864 0.167631
Si Si6 0.226904 0.663026 0.784831
Si Si7 0.247236 0.904122 0.184094
Si Si8 0.723598 0.942658 0.602449
O O1 0.120553 0.424651 0.631519
O O2 0.481357 0.384769 0.799903
O O3 0.151058 0.577415 0.785657
O O4 0.000000 0.500000 0.000000
O O5 0.534985 0.765598 0.436812
O O6 0.650186 0.740237 0.693538
O O7 0.397978 0.651471 0.607599
O O8 0.461046 0.134910 0.757497
O O9 0.119943 0.176212 0.535761
O O10 0.992541 0.308405 0.823762
O O11 0.812050 0.185387 0.818651
O O12 0.590417 0.349360 0.079992
O O13 0.428172 0.068635 0.239000
O O14 0.070973 0.218310 0.137565
O O15 0.657902 0.106011 0.005871
O O16 0.073324 0.020102 0.331915
O O17 0.500000 0.000000 0.500000
#
# Coordination Sequence:
#
# PCOD9031930 Si02
#       8
#     2   2   2   2   2   2   2   2
#     4  12  27  48  71 100 138 183 234 285 343 408
#     4  11  25  44  68  99 136 182 225 284 342 399
#     4  10  22  43  68  99 139 183 230 278 342 403
#     4  12  24  45  72  98 139 186 230 280 343 410
#     4  11  23  44  71 100 147 176 229 285 344 405
#     4  12  26  45  68 105 137 183 232 283 345 405
#     4  11  20  43  69 100 140 184 229 282 340 405
#     4   9  22  40  70 104 138 184 227 278 343 409
#
# _framework density 26.805085999999999
#
# number of rings (size 3 to 8) (size 9 to 14) (size 15 to 20)
#    0.000    1.000    3.750    2.625    3.500    1.000 
#    0.000    5.625    0.000    0.000    0.000    0.000 
#    0.000    0.000    0.000    0.000    0.000    0.000 
#
# Total GULP energy -89213.614298 kJ/mol
# GULP energy per Si atom -5575.850894 kJ/mol
# Density = 2.674408 g / cm^3
# Si number density = 26.805086 Si / 1000 Ang^3
#
#
#
# Elastic Constant Matrix: (Units=GPa)
#
#
# Indices 1 2 3 4 5 6 
#
# 1 36.4293 27.6144 28.7186 -3.4858 -7.7639 7.8786
# 2 27.6144 123.1355 52.1679 -24.3140 -4.5055 35.1592
# 3 28.7186 52.1679 164.6310 -15.4037 -18.2458 32.4600
# 4 -3.4858 -24.3140 -15.4037 58.0888 18.2015 7.0797
# 5 -7.7639 -4.5055 -18.2458 18.2015 51.0982 -4.5863
# 6 7.8786 35.1592 32.4600 7.0797 -4.5863 40.9979
#
#
#
# Elastic Compliance Matrix: (Units=1/GPa)
#
#
# Indices 1 2 3 4 5 6 
#
# 1 0.037276 -0.008763 -0.004684 -0.005082 0.005527 0.005556
# 2 -0.008763 0.015759 -0.000455 0.009019 -0.004532 -0.013535
# 3 -0.004684 -0.000455 0.008466 0.002153 0.000995 -0.005673
# 4 -0.005082 0.009019 0.002153 0.026019 -0.009737 -0.014045
# 5 0.005527 -0.004532 0.000995 -0.009737 0.024413 0.006449
# 6 0.005556 -0.013535 -0.005673 -0.014045 0.006449 0.042570
#
#
# Mechanical properties :
#
#
# Convention : Reuss Voigt Hill
#
# Bulk Modulus (GPa) = 29.67632 60.13307 44.90469
# Shear Modulus (GPa) = 25.83496 44.41664 35.12580
#
# Velocity S-wave (km/s) = 3.10789 4.07507 3.62389
# Velocity P-wave (km/s) = 4.89631 6.68010 5.85652
#
# Compressibility (1/GPa) = 0.03369690
#
# Stress axis : x y z
#
# Youngs Moduli (GPa) = 26.82724 63.45731 118.12431
#
# Poissons Ratio (x) = 0.55605 0.55331
# Poissons Ratio (y) = 0.23508 0.05371
# Poissons Ratio (z) = 0.12566 0.02885
#
# Static dielectric constant tensor:
#      x y z
#    x 2.200170 0.201190 0.066380 
#    y 0.201190 2.737700 0.276620 
#    z 0.066380 0.276620 2.149820 
# 
# From -- ./inp_files/135495.got.cif
#   From: 2010.05.17/outbox.cif.g08.bks.cpg/sg2_68_cif.got.tgz:135495.got - 2010.06.03 11:33:40.
