data_PCOD9031884
_publ_section_title
;
Structure prediction by ZEFSAII (Michael W. Deem and Ramdas Pophale) SiO2 
 PCOD9031884
Probable space group: P -1
;
_chemical_formula_sum "Si O2"
_cell_formula_units_Z 16
_cell_length_a 6.518705
_cell_length_b 8.923448
_cell_length_c 17.726054
_cell_angle_alpha 117.883740
_cell_angle_beta 53.662749
_cell_angle_gamma 95.820464
_cell_volume 711.465979
_symmetry_space_group_name_H-M "P -1"
_symmetry_group_IT_number 2
_symmetry_cell_setting 'triclinic'
loop_
_space_group_symop_operation_xyz
x,y,z
-x,-y,-z
loop_
_atom_site_type_symbol
_atom_site_label
_atom_site_fract_x
_atom_site_fract_y
_atom_site_fract_z
Si Si1 0.058367 0.305308 0.676751
Si Si2 0.026269 0.813329 0.488660
Si Si3 0.455749 0.487066 0.683903
Si Si4 0.303454 0.997997 0.941344
Si Si5 0.177244 0.130154 0.763131
Si Si6 0.614451 0.233393 0.981958
Si Si7 0.564321 0.833328 0.692615
Si Si8 0.558190 0.574506 0.159983
O O1 0.103519 0.276825 0.571271
O O2 0.177233 0.466693 0.710658
O O3 0.186045 0.164692 0.679869
O O4 0.747927 0.332456 0.761478
O O5 0.855470 0.837877 0.606613
O O6 0.318387 0.695122 0.411232
O O7 0.000000 0.000000 0.500000
O O8 0.548235 0.634455 0.653635
O O9 0.423778 0.530010 0.789539
O O10 0.466057 0.918703 0.813905
O O11 0.365676 0.188518 0.983809
O O12 0.388226 0.871082 0.964175
O O13 0.000000 0.000000 0.000000
O O14 0.280720 0.280479 0.822593
O O15 0.880328 0.147388 0.858697
O O16 0.366934 0.947414 0.701982
O O17 0.623181 0.431654 0.045987
#
# Coordination Sequence:
#
# PCOD9031884 Si02
#       8
#     2   2   2   2   2   2   2   2
#     4  10  24  44  65 100 135 177 226 272 344 405
#     4  11  25  46  71  99 134 176 224 283 342 399
#     4  10  23  44  69 100 133 173 225 282 337 403
#     4  11  25  43  65 102 140 174 230 281 334 404
#     4  11  25  41  67 103 135 183 227 274 344 401
#     4  11  24  41  69  99 132 186 229 274 345 396
#     4  12  24  45  71  95 141 177 220 290 335 396
#     4  10  22  43  68  97 142 176 226 286 333 398
#
# _framework density 22.488776999999999
#
# number of rings (size 3 to 8) (size 9 to 14) (size 15 to 20)
#    0.000    1.250    2.500    3.000    5.250    3.000 
#    0.000    0.000    0.000    0.000    0.000    0.000 
#    0.000    0.000    0.000    0.000    0.000    0.000 
#
# Total GULP energy -89383.804944 kJ/mol
# GULP energy per Si atom -5586.487809 kJ/mol
# Density = 2.243759 g / cm^3
# Si number density = 22.488777 Si / 1000 Ang^3
#
#
#
# Elastic Constant Matrix: (Units=GPa)
#
#
# Indices 1 2 3 4 5 6 
#
# 1 107.1535 27.8147 22.3021 2.6093 0.8880 26.7877
# 2 27.8147 65.5997 -16.6654 4.6549 -9.4779 7.2147
# 3 22.3021 -16.6654 80.3260 -12.1667 -13.0384 7.9650
# 4 2.6093 4.6549 -12.1667 37.0295 0.1313 0.1917
# 5 0.8880 -9.4779 -13.0384 0.1313 15.5690 -10.9059
# 6 26.7877 7.2147 7.9650 0.1917 -10.9059 28.0433
#
#
#
# Elastic Compliance Matrix: (Units=1/GPa)
#
#
# Indices 1 2 3 4 5 6 
#
# 1 0.028847 -0.020445 -0.018370 -0.005094 -0.056861 -0.039156
# 2 -0.020445 0.034060 0.019909 0.003352 0.057877 0.027598
# 3 -0.018370 0.019909 0.029408 0.008124 0.055720 0.025686
# 4 -0.005094 0.003352 0.008124 0.029529 0.013651 0.006803
# 5 -0.056861 0.057877 0.055720 0.013651 0.227769 0.112084
# 6 -0.039156 0.027598 0.025686 0.006803 0.112084 0.102209
#
#
# Mechanical properties :
#
#
# Convention : Reuss Voigt Hill
#
# Bulk Modulus (GPa) = 18.34792 35.55354 26.95073
# Shear Modulus (GPa) = 9.84639 30.77021 20.30830
#
# Velocity S-wave (km/s) = 2.09472 3.70300 3.00833
# Velocity P-wave (km/s) = 3.74525 5.84180 4.90681
#
# Compressibility (1/GPa) = 0.05450208
#
# Stress axis : x y z
#
# Youngs Moduli (GPa) = 34.66585 29.36020 34.00453
#
# Poissons Ratio (x) = 0.60028 0.62465
# Poissons Ratio (y) = 0.70876 -0.67699
# Poissons Ratio (z) = 0.63680 -0.58453
#
# Static dielectric constant tensor:
#      x y z
#    x 1.673640 -0.097030 0.072560 
#    y -0.097030 1.773040 0.042960 
#    z 0.072560 0.042960 1.870240 
# 
# From -- ./inp_files/323725.got.cif
#   From: 2010.05.17/outbox.cif.g08.bks.cpg/sg2_162_cif.got.tgz:323725.got - 2010.06.03 11:33:40.
