data_PCOD9031018
_publ_section_title
;
Structure prediction by ZEFSAII (Michael W. Deem and Ramdas Pophale) SiO2 
 PCOD9031018
Probable space group: P -1
;
_chemical_formula_sum "Si O2"
_cell_formula_units_Z 16
_cell_length_a 17.211678
_cell_length_b 9.341802
_cell_length_c 5.711979
_cell_angle_alpha 77.943095
_cell_angle_beta 51.124423
_cell_angle_gamma 92.876797
_cell_volume 679.113207
_symmetry_space_group_name_H-M "P -1"
_symmetry_group_IT_number 2
_symmetry_cell_setting 'triclinic'
loop_
_space_group_symop_operation_xyz
x,y,z
-x,-y,-z
loop_
_atom_site_type_symbol
_atom_site_label
_atom_site_fract_x
_atom_site_fract_y
_atom_site_fract_z
Si Si1 0.864525 0.095011 0.454977
Si Si2 0.022322 0.634898 0.099605
Si Si3 0.521201 0.206459 0.075038
Si Si4 0.312519 0.991754 0.559363
Si Si5 0.767571 0.804478 0.991604
Si Si6 0.461980 0.322630 0.659476
Si Si7 0.838530 0.524763 0.841043
Si Si8 0.273959 0.740563 0.096831
O O1 0.831964 0.218192 0.642180
O O2 0.769531 0.049539 0.474044
O O3 0.855894 0.938239 0.661259
O O4 0.959850 0.197961 0.100741
O O5 0.124180 0.603189 0.039536
O O6 0.932307 0.605155 0.470124
O O7 0.000000 0.500000 0.000000
O O8 0.431420 0.057495 0.259008
O O9 0.494770 0.260527 0.369270
O O10 0.510194 0.292718 0.826937
O O11 0.640485 0.213081 0.881998
O O12 0.270715 0.117683 0.740551
O O13 0.311098 0.850907 0.774955
O O14 0.807368 0.654247 0.006608
O O15 0.661486 0.747961 0.063707
O O16 0.500000 0.500000 0.500000
O O17 0.747694 0.432130 0.880337
#
# Coordination Sequence:
#
# PCOD9031018 Si02
#       8
#     2   2   2   2   2   2   2   2
#     4  11  22  43  69  92 137 172 227 277 347 406
#     4  11  24  45  69  98 126 169 220 293 346 409
#     4  11  24  40  65 102 140 184 238 281 332 408
#     4  10  22  43  63  98 141 180 220 279 339 409
#     4  10  24  42  65  99 135 181 219 277 345 412
#     4  11  23  42  62  97 147 188 229 283 339 404
#     4  11  24  43  68  99 131 165 232 279 345 411
#     4  11  23  39  69 100 130 185 229 280 336 405
#
# _framework density 23.560136
#
# number of rings (size 3 to 8) (size 9 to 14) (size 15 to 20)
#    0.000    1.250    3.750    1.500    1.750    3.000 
#    0.000    1.250    0.000    0.000    0.000    0.000 
#    0.000    0.000    0.000    0.000    0.000    0.000 
#
# Total GULP energy -89347.682169 kJ/mol
# GULP energy per Si atom -5584.230136 kJ/mol
# Density = 2.350651 g / cm^3
# Si number density = 23.560136 Si / 1000 Ang^3
#
#
#
# Elastic Constant Matrix: (Units=GPa)
#
#
# Indices 1 2 3 4 5 6 
#
# 1 54.7096 8.9138 3.8030 6.2632 11.0451 17.3044
# 2 8.9138 110.9942 34.9689 -2.1073 -6.7964 12.9091
# 3 3.8030 34.9689 74.7454 -11.2754 7.3314 -8.6263
# 4 6.2632 -2.1073 -11.2754 28.7997 -2.4359 -2.7989
# 5 11.0451 -6.7964 7.3314 -2.4359 26.9977 -4.3051
# 6 17.3044 12.9091 -8.6263 -2.7989 -4.3051 28.9889
#
#
#
# Elastic Compliance Matrix: (Units=1/GPa)
#
#
# Indices 1 2 3 4 5 6 
#
# 1 0.030510 0.000585 -0.004797 -0.012088 -0.015858 -0.023423
# 2 0.000585 0.012381 -0.007454 -0.002611 0.003418 -0.007825
# 3 -0.004797 -0.007454 0.020255 0.009453 -0.002529 0.012748
# 4 -0.012088 -0.002611 0.009453 0.043172 0.008261 0.016587
# 5 -0.015858 0.003418 -0.002529 0.008261 0.048237 0.015152
# 6 -0.023423 -0.007825 0.012748 0.016587 0.015152 0.059607
#
#
# Mechanical properties :
#
#
# Convention : Reuss Voigt Hill
#
# Bulk Modulus (GPa) = 25.11730 37.31341 31.21536
# Shear Modulus (GPa) = 19.93882 29.80817 24.87350
#
# Velocity S-wave (km/s) = 2.91227 3.56082 3.25275
# Velocity P-wave (km/s) = 4.68962 5.72519 5.23308
#
# Compressibility (1/GPa) = 0.03981320
#
# Stress axis : x y z
#
# Youngs Moduli (GPa) = 32.77579 80.77014 49.36933
#
# Poissons Ratio (x) = -0.04723 0.23684
# Poissons Ratio (y) = -0.01917 0.36801
# Poissons Ratio (z) = 0.15723 0.60208
#
# Static dielectric constant tensor:
#      x y z
#    x 1.934670 0.001460 0.000180 
#    y 0.001460 1.880130 0.008160 
#    z 0.000180 0.008160 1.952640 
# 
# From -- ./inp_files/78038.got.cif
#   From: 2010.05.17/outbox.cif.g08.bks.cpg/sg2_40_cif.got.tgz:78038.got - 2010.06.03 11:33:40.
