data_PCOD9031312
_publ_section_title
;
Structure prediction by ZEFSAII (Michael W. Deem and Ramdas Pophale) SiO2 
 PCOD9031312
Probable space group: P -1
;
_chemical_formula_sum "Si O2"
_cell_formula_units_Z 14
_cell_length_a 11.850757
_cell_length_b 5.777187
_cell_length_c 10.438280
_cell_angle_alpha 55.553399
_cell_angle_beta 101.423465
_cell_angle_gamma 83.035411
_cell_volume 553.080764
_symmetry_space_group_name_H-M "P -1"
_symmetry_group_IT_number 2
_symmetry_cell_setting 'triclinic'
loop_
_space_group_symop_operation_xyz
x,y,z
-x,-y,-z
loop_
_atom_site_type_symbol
_atom_site_label
_atom_site_fract_x
_atom_site_fract_y
_atom_site_fract_z
Si Si1 0.770631 0.996812 0.561013
Si Si2 0.441932 0.842931 0.342294
Si Si3 0.018228 0.817546 0.426425
Si Si4 0.635144 0.187355 0.218397
Si Si5 0.173544 0.021753 0.878554
Si Si6 0.886439 0.467830 0.904464
Si Si7 0.299049 0.276909 0.995103
O O1 0.648274 0.040466 0.597389
O O2 0.843487 0.209267 0.566373
O O3 0.736741 0.067432 0.385868
O O4 0.858996 0.676960 0.710770
O O5 0.500000 0.500000 0.500000
O O6 0.534443 0.036156 0.283765
O O7 0.365323 0.944177 0.161181
O O8 0.000000 0.500000 0.500000
O O9 0.923684 0.988918 0.246438
O O10 0.000000 0.000000 0.500000
O O11 0.697034 0.079417 0.130761
O O12 0.613384 0.539341 0.094786
O O13 0.190764 0.306996 0.860615
O O14 0.128539 0.846386 0.035255
O O15 0.771584 0.576777 0.939979
O O16 0.000000 0.500000 0.000000
#
# Coordination Sequence:
#
# PCOD9031312 Si02
#       7
#     2   2   2   2   2   2   2
#     4  11  24  46  70 106 145 188 242 307 374 441
#     4  11  27  46  70 104 139 190 245 309 371 434
#     4  12  26  45  75 111 152 195 245 308 376 459
#     4  11  24  46  72  96 142 185 243 295 370 435
#     4  11  24  43  72 104 139 190 238 297 365 454
#     4  10  22  43  66 102 144 182 232 295 379 433
#     4  10  25  47  69 101 139 187 242 297 368 448
#
# _framework density 25.312757999999999
#
# number of rings (size 3 to 8) (size 9 to 14) (size 15 to 20)
#    0.000    1.143    2.857    1.714    8.000    1.143 
#    5.143    0.000    0.000    0.000    0.000    0.000 
#    0.000    0.000    0.000    0.000    0.000    0.000 
#
# Total GULP energy -78065.617808 kJ/mol
# GULP energy per Si atom -5576.115558 kJ/mol
# Density = 2.525515 g / cm^3
# Si number density = 25.312758 Si / 1000 Ang^3
#
#
#
# Elastic Constant Matrix: (Units=GPa)
#
#
# Indices 1 2 3 4 5 6 
#
# 1 129.1461 32.2423 33.5533 -15.8462 -20.4537 32.7234
# 2 32.2423 83.9826 39.3944 -4.0733 -14.4163 28.1655
# 3 33.5533 39.3944 146.5503 -16.5653 -12.1929 15.2396
# 4 -15.8462 -4.0733 -16.5653 44.5314 12.2774 -6.6584
# 5 -20.4537 -14.4163 -12.1929 12.2774 38.9516 -3.4314
# 6 32.7234 28.1655 15.2396 -6.6584 -3.4314 45.8965
#
#
#
# Elastic Compliance Matrix: (Units=1/GPa)
#
#
# Indices 1 2 3 4 5 6 
#
# 1 0.010581 -0.000689 -0.001111 0.001246 0.004008 -0.006272
# 2 -0.000689 0.017646 -0.003512 -0.002722 0.005118 -0.009183
# 3 -0.001111 -0.003512 0.008237 0.002439 -0.000024 0.000564
# 4 0.001246 -0.002722 0.002439 0.026114 -0.007539 0.003197
# 5 0.004008 0.005118 -0.000024 -0.007539 0.031625 -0.004720
# 6 -0.006272 -0.009183 0.000564 0.003197 -0.004720 0.031819
#
#
# Mechanical properties :
#
#
# Convention : Reuss Voigt Hill
#
# Bulk Modulus (GPa) = 38.70185 63.33989 51.02087
# Shear Modulus (GPa) = 34.42120 42.84185 38.63152
#
# Velocity S-wave (km/s) = 3.69160 4.11846 3.91086
# Velocity P-wave (km/s) = 5.78733 6.90600 6.37127
#
# Compressibility (1/GPa) = 0.02583856
#
# Stress axis : x y z
#
# Youngs Moduli (GPa) = 94.51270 56.67034 121.40249
#
# Poissons Ratio (x) = 0.03906 0.13484
# Poissons Ratio (y) = 0.06515 0.42642
# Poissons Ratio (z) = 0.10497 0.19905
#
# Static dielectric constant tensor:
#      x y z
#    x 2.071880 -0.008460 0.084100 
#    y -0.008460 2.120800 -0.068520 
#    z 0.084100 -0.068520 2.289680 
# 
# From -- ./inp_files/47540.got.cif
#   From: 2010.05.17/outbox.cif.g08.bks.cpg/sg2_24_cif.got.tgz:47540.got - 2010.06.03 11:33:40.
