data_PCOD9031477
_publ_section_title
;
Structure prediction by ZEFSAII (Michael W. Deem and Ramdas Pophale) SiO2 
 PCOD9031477
Probable space group: P -1
;
_chemical_formula_sum "Si O2"
_cell_formula_units_Z 16
_cell_length_a 23.796496
_cell_length_b 4.944861
_cell_length_c 11.084342
_cell_angle_alpha 122.525798
_cell_angle_beta 33.895126
_cell_angle_gamma 125.088882
_cell_volume 589.923922
_symmetry_space_group_name_H-M "P -1"
_symmetry_group_IT_number 2
_symmetry_cell_setting 'triclinic'
loop_
_space_group_symop_operation_xyz
x,y,z
-x,-y,-z
loop_
_atom_site_type_symbol
_atom_site_label
_atom_site_fract_x
_atom_site_fract_y
_atom_site_fract_z
Si Si1 0.459343 0.976660 0.931300
Si Si2 0.090578 0.497464 0.435640
Si Si3 0.818979 0.780683 0.265324
Si Si4 0.618049 0.212433 0.309381
Si Si5 0.996326 0.451628 0.144925
Si Si6 0.656588 0.974450 0.427952
Si Si7 0.741472 0.780150 0.656039
Si Si8 0.284835 0.327522 0.072639
O O1 0.560543 0.059651 0.687387
O O2 0.389629 0.613675 0.926266
O O3 0.500000 0.000000 0.000000
O O4 0.376461 0.190029 0.127648
O O5 0.039395 0.372481 0.629847
O O6 0.175437 0.299917 0.194381
O O7 0.000000 0.500000 0.500000
O O8 0.170016 0.873613 0.393360
O O9 0.747495 0.938018 0.346226
O O10 0.764594 0.643157 0.455060
O O11 0.911758 0.098308 0.219164
O O12 0.887348 0.560689 0.032026
O O13 0.621367 0.583610 0.354295
O O14 0.500000 0.000000 0.500000
O O15 0.676926 0.206510 0.330435
O O16 0.678507 0.008902 0.069883
O O17 0.000000 0.500000 0.000000
O O18 0.741609 0.558945 0.719263
#
# Coordination Sequence:
#
# PCOD9031477 Si02
#       8
#     2   2   2   2   2   2   2   2
#     4  11  23  42  68 102 142 182 234 294 356 428
#     4  10  24  43  68 102 139 181 239 298 365 437
#     4  10  23  42  66 101 136 181 240 300 361 430
#     4  12  27  46  71 100 150 194 238 293 360 433
#     4  10  22  43  70  95 141 185 234 306 372 432
#     4  12  27  45  71 108 141 192 245 294 357 442
#     4  10  22  43  66  99 140 179 234 294 362 425
#     4  11  25  42  70  99 142 192 231 296 358 436
#
# _framework density 27.122142
#
# number of rings (size 3 to 8) (size 9 to 14) (size 15 to 20)
#    0.000    1.250    2.500    1.875    7.000    2.000 
#    0.000    0.000    0.000    0.000    0.000    0.000 
#    0.000    0.000    0.000    0.000    0.000    0.000 
#
# Total GULP energy -89463.006149 kJ/mol
# GULP energy per Si atom -5591.437884 kJ/mol
# Density = 2.706041 g / cm^3
# Si number density = 27.122142 Si / 1000 Ang^3
#
#
#
# Elastic Constant Matrix: (Units=GPa)
#
#
# Indices 1 2 3 4 5 6 
#
# 1 151.5166 8.2433 71.7765 -8.1489 -12.9886 0.7896
# 2 8.2433 50.6320 15.2125 7.1429 -8.7353 0.3230
# 3 71.7765 15.2125 193.4780 -4.2096 -23.3610 8.8852
# 4 -8.1489 7.1429 -4.2096 40.2007 1.3897 -2.1628
# 5 -12.9886 -8.7353 -23.3610 1.3897 66.8392 -7.2087
# 6 0.7896 0.3230 8.8852 -2.1628 -7.2087 38.9925
#
#
#
# Elastic Compliance Matrix: (Units=1/GPa)
#
#
# Indices 1 2 3 4 5 6 
#
# 1 0.008128 -0.000569 -0.002906 0.001463 0.000533 0.000682
# 2 -0.000569 0.021203 -0.001278 -0.004079 0.002334 0.000332
# 3 -0.002906 -0.001278 0.006578 0.000215 0.001439 -0.001152
# 4 0.001463 -0.004079 0.000215 0.026008 -0.000575 0.001291
# 5 0.000533 0.002334 0.001439 -0.000575 0.016165 0.002599
# 6 0.000682 0.000332 -0.001152 0.001291 0.002599 0.026444
#
#
# Mechanical properties :
#
#
# Convention : Reuss Voigt Hill
#
# Bulk Modulus (GPa) = 37.87371 65.12124 51.49747
# Shear Modulus (GPa) = 40.70523 49.23278 44.96901
#
# Velocity S-wave (km/s) = 3.87823 4.26517 4.07629
# Velocity P-wave (km/s) = 5.83513 6.95112 6.41743
#
# Compressibility (1/GPa) = 0.02640354
#
# Stress axis : x y z
#
# Youngs Moduli (GPa) = 123.02803 47.16278 152.01390
#
# Poissons Ratio (x) = 0.02684 0.44173
# Poissons Ratio (y) = 0.07001 0.19430
# Poissons Ratio (z) = 0.35750 0.06028
#
# Static dielectric constant tensor:
#      x y z
#    x 2.261570 0.059520 0.016180 
#    y 0.059520 2.195060 -0.003730 
#    z 0.016180 -0.003730 2.123660 
# 
# From -- ./inp_files/46242.got.cif
#   From: 2010.05.17/outbox.cif.g08.bks.cpg/sg2_24_cif.got.tgz:46242.got - 2010.06.03 11:33:40.
