data_PCOD9031478
_publ_section_title
;
Structure prediction by ZEFSAII (Michael W. Deem and Ramdas Pophale) SiO2 
 PCOD9031478
Probable space group: P -1
;
_chemical_formula_sum "Si O2"
_cell_formula_units_Z 14
_cell_length_a 15.479040
_cell_length_b 16.017471
_cell_length_c 5.208978
_cell_angle_alpha 75.509694
_cell_angle_beta 85.178035
_cell_angle_gamma 26.529911
_cell_volume 528.520399
_symmetry_space_group_name_H-M "P -1"
_symmetry_group_IT_number 2
_symmetry_cell_setting 'triclinic'
loop_
_space_group_symop_operation_xyz
x,y,z
-x,-y,-z
loop_
_atom_site_type_symbol
_atom_site_label
_atom_site_fract_x
_atom_site_fract_y
_atom_site_fract_z
Si Si1 0.096067 0.476045 0.789345
Si Si2 0.388752 0.464357 0.757926
Si Si3 0.201984 0.939850 0.044673
Si Si4 0.564426 0.887585 0.324051
Si Si5 0.993201 0.279652 0.618137
Si Si6 0.164914 0.810320 0.790147
Si Si7 0.647602 0.654423 0.779997
O O1 0.195889 0.339519 0.624738
O O2 0.955328 0.684254 0.595158
O O3 0.293063 0.341924 0.988924
O O4 0.000000 0.500000 0.000000
O O5 0.177981 0.623492 0.558966
O O6 0.343786 0.601809 0.753056
O O7 0.588641 0.261788 0.693439
O O8 0.427360 0.368546 0.069203
O O9 0.221200 0.837200 0.942576
O O10 0.179874 0.051995 0.828052
O O11 0.977092 0.132699 0.076802
O O12 0.520768 0.827252 0.476587
O O13 0.500000 0.000000 0.500000
O O14 0.500000 0.000000 0.000000
O O15 0.865724 0.434523 0.765289
O O16 0.000000 0.000000 0.500000
#
# Coordination Sequence:
#
# PCOD9031478 Si02
#       7
#     2   2   2   2   2   2   2
#     4  10  23  43  70 100 139 193 238 302 372 432
#     4  11  23  43  68  99 138 185 237 291 364 434
#     4  11  24  42  68  99 132 189 232 291 369 423
#     4  11  22  42  67  98 136 180 238 299 362 433
#     4  10  22  43  66  99 146 178 241 302 352 444
#     4  11  23  43  67  97 140 176 237 299 348 438
#     4  10  22  44  66  93 146 184 231 305 361 431
#
# _framework density 26.489046999999999
#
# number of rings (size 3 to 8) (size 9 to 14) (size 15 to 20)
#    0.000    1.429    4.286    0.429    0.000    5.143 
#    2.571    0.000    0.000    0.000    0.000    0.000 
#    0.000    0.000    0.000    0.000    0.000    0.000 
#
# Total GULP energy -78220.692701 kJ/mol
# GULP energy per Si atom -5587.192336 kJ/mol
# Density = 2.642876 g / cm^3
# Si number density = 26.489047 Si / 1000 Ang^3
#
#
#
# Elastic Constant Matrix: (Units=GPa)
#
#
# Indices 1 2 3 4 5 6 
#
# 1 61.4108 17.1704 17.7729 -5.0560 -13.8126 16.2979
# 2 17.1704 162.7456 40.8314 -26.1731 -1.9217 28.0505
# 3 17.7729 40.8314 118.0514 -13.7835 -28.6462 18.6783
# 4 -5.0560 -26.1731 -13.7835 52.9386 11.1734 -5.9499
# 5 -13.8126 -1.9217 -28.6462 11.1734 46.5002 -3.6986
# 6 16.2979 28.0505 18.6783 -5.9499 -3.6986 36.7273
#
#
#
# Elastic Compliance Matrix: (Units=1/GPa)
#
#
# Indices 1 2 3 4 5 6 
#
# 1 0.019708 -0.000704 -0.000332 -0.000490 0.005134 -0.007601
# 2 -0.000704 0.008031 -0.002154 0.003344 -0.002360 -0.004422
# 3 -0.000332 -0.002154 0.011392 0.000116 0.006538 -0.003323
# 4 -0.000490 0.003344 0.000116 0.021669 -0.005095 0.000602
# 5 0.005134 -0.002360 0.006538 -0.005095 0.028041 -0.001802
# 6 -0.007601 -0.004422 -0.003323 0.000602 -0.001802 0.035584
#
#
# Mechanical properties :
#
#
# Convention : Reuss Voigt Hill
#
# Bulk Modulus (GPa) = 30.53430 54.86189 42.69809
# Shear Modulus (GPa) = 35.27955 44.99543 40.13749
#
# Velocity S-wave (km/s) = 3.65342 4.12593 3.89684
# Velocity P-wave (km/s) = 5.41745 6.59195 6.03335
#
# Compressibility (1/GPa) = 0.03275005
#
# Stress axis : x y z
#
# Youngs Moduli (GPa) = 50.73957 124.51186 87.78111
#
# Poissons Ratio (x) = 0.08765 0.02919
# Poissons Ratio (y) = 0.03572 0.18912
# Poissons Ratio (z) = 0.01687 0.26825
#
# Static dielectric constant tensor:
#      x y z
#    x 2.453010 -0.200400 -0.039680 
#    y -0.200400 2.127190 0.074220 
#    z -0.039680 0.074220 2.246820 
# 
# From -- ./inp_files/97699.got.cif
#   From: 2010.05.17/outbox.cif.g08.bks.cpg/sg2_49_cif.got.tgz:97699.got - 2010.06.03 11:33:40.
