data_PCOD9031662
_publ_section_title
;
Structure prediction by ZEFSAII (Michael W. Deem and Ramdas Pophale) SiO2 
 PCOD9031662
Probable space group: P -1
;
_chemical_formula_sum "Si O2"
_cell_formula_units_Z 16
_cell_length_a 14.636677
_cell_length_b 9.080239
_cell_length_c 8.905966
_cell_angle_alpha 113.694813
_cell_angle_beta 77.758052
_cell_angle_gamma 140.827015
_cell_volume 674.429420
_symmetry_space_group_name_H-M "P -1"
_symmetry_group_IT_number 2
_symmetry_cell_setting 'triclinic'
loop_
_space_group_symop_operation_xyz
x,y,z
-x,-y,-z
loop_
_atom_site_type_symbol
_atom_site_label
_atom_site_fract_x
_atom_site_fract_y
_atom_site_fract_z
Si Si1 0.659576 0.782167 0.528475
Si Si2 0.807260 0.571452 0.619521
Si Si3 0.570276 0.879070 0.051504
Si Si4 0.154466 0.243549 0.625488
Si Si5 0.626366 0.037805 0.439535
Si Si6 0.726366 0.810390 0.849014
Si Si7 0.745232 0.381893 0.012150
Si Si8 0.000799 0.811231 0.891726
O O1 0.500000 0.500000 0.500000
O O2 0.751005 0.788384 0.389581
O O3 0.744771 0.892730 0.703752
O O4 0.630811 0.910877 0.512898
O O5 0.765069 0.564914 0.464000
O O6 0.766696 0.332797 0.535592
O O7 0.732715 0.622816 0.759860
O O8 0.973590 0.782938 0.710802
O O9 0.610372 0.949417 0.241231
O O10 0.682736 0.139737 0.018752
O O11 0.584010 0.714760 0.919473
O O12 0.405515 0.727324 0.024521
O O13 0.161250 0.380355 0.810753
O O14 0.000000 0.000000 0.500000
O O15 0.500000 0.000000 0.500000
O O16 0.852604 0.042918 0.012620
O O17 0.860065 0.529027 0.893871
O O18 0.000000 0.000000 0.000000
#
# Coordination Sequence:
#
# PCOD9031662 Si02
#       8
#     2   2   2   2   2   2   2   2
#     4  11  25  43  70 100 134 183 231 283 344 420
#     4  10  22  43  67  98 134 183 226 280 341 412
#     4  11  26  42  68 107 138 178 234 294 351 405
#     4  11  22  44  70  99 141 184 229 284 353 412
#     4  12  25  44  69 101 141 182 231 287 349 410
#     4  10  23  45  69  99 138 178 237 279 348 418
#     4  11  23  42  68 100 143 180 230 288 352 416
#     4  10  22  43  68  97 137 187 227 278 348 416
#
# _framework density 23.723758
#
# number of rings (size 3 to 8) (size 9 to 14) (size 15 to 20)
#    0.000    1.250    1.250    5.250    5.250    4.500 
#    2.250    6.875    0.000    0.000    0.000    0.000 
#    0.000    0.000    0.000    0.000    0.000    0.000 
#
# Total GULP energy -89274.281869 kJ/mol
# GULP energy per Si atom -5579.642617 kJ/mol
# Density = 2.366976 g / cm^3
# Si number density = 23.723758 Si / 1000 Ang^3
#
#
#
# Elastic Constant Matrix: (Units=GPa)
#
#
# Indices 1 2 3 4 5 6 
#
# 1 108.0692 28.7402 13.3027 -5.9539 15.8095 -21.2371
# 2 28.7402 71.1644 -12.5776 1.5977 -4.0747 -14.7433
# 3 13.3027 -12.5776 99.4605 2.4799 8.3166 -10.1535
# 4 -5.9539 1.5977 2.4799 31.0865 6.4000 4.9463
# 5 15.8095 -4.0747 8.3166 6.4000 39.2181 -1.0309
# 6 -21.2371 -14.7433 -10.1535 4.9463 -1.0309 38.2555
#
#
#
# Elastic Compliance Matrix: (Units=1/GPa)
#
#
# Indices 1 2 3 4 5 6 
#
# 1 0.012555 -0.004878 -0.001483 0.003288 -0.005682 0.004118
# 2 -0.004878 0.018107 0.003297 -0.003851 0.003928 0.005749
# 3 -0.001483 0.003297 0.011168 -0.001700 -0.001056 0.003603
# 4 0.003288 -0.003851 -0.001700 0.035406 -0.007271 -0.004884
# 5 -0.005682 0.003928 -0.001056 -0.007271 0.029603 -0.000183
# 6 0.004118 0.005749 0.003603 -0.004884 -0.000183 0.032224
#
#
# Mechanical properties :
#
#
# Convention : Reuss Voigt Hill
#
# Bulk Modulus (GPa) = 28.01017 37.51385 32.76201
# Shear Modulus (GPa) = 31.82850 38.32728 35.07789
#
# Velocity S-wave (km/s) = 3.66680 4.02377 3.84943
# Velocity P-wave (km/s) = 5.45524 6.11839 5.79631
#
# Compressibility (1/GPa) = 0.03570132
#
# Stress axis : x y z
#
# Youngs Moduli (GPa) = 79.65110 55.22657 89.54208
#
# Poissons Ratio (x) = 0.26942 0.13276
# Poissons Ratio (y) = 0.38857 -0.29520
# Poissons Ratio (z) = 0.11809 -0.18207
#
# Static dielectric constant tensor:
#      x y z
#    x 1.943600 -0.001560 0.014760 
#    y -0.001560 1.974360 -0.129310 
#    z 0.014760 -0.129310 1.929980 
# 
# From -- ./inp_files/299215.got.cif
#   From: 2010.05.17/outbox.cif.g08.bks.cpg/sg2_150_cif.got.tgz:299215.got - 2010.06.03 11:33:40.
