data_PCOD9031926
_publ_section_title
;
Structure prediction by ZEFSAII (Michael W. Deem and Ramdas Pophale) SiO2 
 PCOD9031926
Probable space group: P -1
;
_chemical_formula_sum "Si O2"
_cell_formula_units_Z 16
_cell_length_a 10.947979
_cell_length_b 16.280401
_cell_length_c 9.015384
_cell_angle_alpha 52.218531
_cell_angle_beta 62.888057
_cell_angle_gamma 28.435640
_cell_volume 589.846028
_symmetry_space_group_name_H-M "P -1"
_symmetry_group_IT_number 2
_symmetry_cell_setting 'triclinic'
loop_
_space_group_symop_operation_xyz
x,y,z
-x,-y,-z
loop_
_atom_site_type_symbol
_atom_site_label
_atom_site_fract_x
_atom_site_fract_y
_atom_site_fract_z
Si Si1 0.479119 0.777097 0.614608
Si Si2 0.582217 0.726321 0.956243
Si Si3 0.944760 0.644795 0.200125
Si Si4 0.103989 0.967798 0.135237
Si Si5 0.620919 0.318845 0.471581
Si Si6 0.781180 0.336632 0.103764
Si Si7 0.115590 0.551100 0.653831
Si Si8 0.416239 0.062961 0.661212
O O1 0.483059 0.751396 0.819231
O O2 0.783881 0.561027 0.638556
O O3 0.335875 0.797658 0.551353
O O4 0.422415 0.934807 0.451936
O O5 0.583234 0.849990 0.796534
O O6 0.821452 0.508109 0.139861
O O7 0.369801 0.850426 0.066143
O O8 0.864706 0.585117 0.247843
O O9 0.722298 0.835257 0.215926
O O10 0.052064 0.667526 0.012242
O O11 0.950205 0.143044 0.133586
O O12 0.170141 0.825757 0.353883
O O13 0.000000 0.000000 0.000000
O O14 0.692051 0.374800 0.279397
O O15 0.340027 0.476763 0.529833
O O16 0.500000 0.500000 0.000000
O O17 0.835692 0.770710 0.497096
#
# Coordination Sequence:
#
# PCOD9031926 Si02
#       8
#     2   2   2   2   2   2   2   2
#     4  11  21  41  69  98 134 176 219 278 334 397
#     4  11  25  40  67 102 139 174 223 284 339 397
#     4  11  21  40  71  97 136 175 225 278 333 398
#     4  11  26  46  65  93 138 177 216 281 344 399
#     4  11  22  43  73  94 128 177 227 267 336 403
#     4  12  23  41  71  98 128 173 232 271 324 406
#     4  10  22  43  68  99 137 179 221 277 344 392
#     4  11  20  41  68  98 138 178 222 276 334 400
#
# _framework density 27.125724000000002
#
# number of rings (size 3 to 8) (size 9 to 14) (size 15 to 20)
#    0.000    1.000    5.000    2.250    0.000    3.500 
#    0.000    4.375    0.000    0.000    0.000    0.000 
#    0.000    0.000    0.000    0.000    0.000    0.000 
#
# Total GULP energy -89429.120277 kJ/mol
# GULP energy per Si atom -5589.320017 kJ/mol
# Density = 2.706398 g / cm^3
# Si number density = 27.125724 Si / 1000 Ang^3
#
#
#
# Elastic Constant Matrix: (Units=GPa)
#
#
# Indices 1 2 3 4 5 6 
#
# 1 115.2388 33.5678 67.4201 -2.2056 -0.8683 15.4541
# 2 33.5678 80.9739 26.5991 21.6555 -3.6496 -0.8366
# 3 67.4201 26.5991 195.0840 23.9809 4.2687 -7.4380
# 4 -2.2056 21.6555 23.9809 49.9931 -8.4765 -1.9364
# 5 -0.8683 -3.6496 4.2687 -8.4765 50.8803 4.0396
# 6 15.4541 -0.8366 -7.4380 -1.9364 4.0396 36.4072
#
#
#
# Elastic Compliance Matrix: (Units=1/GPa)
#
#
# Indices 1 2 3 4 5 6 
#
# 1 0.014545 -0.005825 -0.005251 0.005707 0.001799 -0.007277
# 2 -0.005825 0.016590 0.000825 -0.007819 -0.000493 0.002661
# 3 -0.005251 0.000825 0.007542 -0.004347 -0.001685 0.003744
# 4 0.005707 -0.007819 -0.004347 0.026390 0.004503 -0.002586
# 5 0.001799 -0.000493 -0.001685 0.004503 0.020794 -0.003187
# 6 -0.007277 0.002661 0.003744 -0.002586 -0.003187 0.031598
#
#
# Mechanical properties :
#
#
# Convention : Reuss Voigt Hill
#
# Bulk Modulus (GPa) = 55.02184 71.83009 63.42596
# Shear Modulus (GPa) = 34.71716 45.03675 39.87695
#
# Velocity S-wave (km/s) = 3.58140 4.07909 3.83832
# Velocity P-wave (km/s) = 6.11800 6.98021 6.56328
#
# Compressibility (1/GPa) = 0.01817460
#
# Stress axis : x y z
#
# Youngs Moduli (GPa) = 68.75178 60.27690 132.58619
#
# Poissons Ratio (x) = 0.35112 0.69619
# Poissons Ratio (y) = 0.40049 -0.10933
# Poissons Ratio (z) = 0.36100 -0.04970
#
# Static dielectric constant tensor:
#      x y z
#    x 2.178760 -0.028080 0.008860 
#    y -0.028080 2.201210 -0.039690 
#    z 0.008860 -0.039690 2.202750 
# 
# From -- ./inp_files/263044.got.cif
#   From: 2010.05.17/outbox.cif.g08.bks.cpg/sg2_132_cif.got.tgz:263044.got - 2010.06.03 11:33:40.
