data_PCOD9031874
_publ_section_title
;
Structure prediction by ZEFSAII (Michael W. Deem and Ramdas Pophale) SiO2 
 PCOD9031874
Probable space group: P -1
;
_chemical_formula_sum "Si O2"
_cell_formula_units_Z 12
_cell_length_a 22.402098
_cell_length_b 5.561488
_cell_length_c 19.348955
_cell_angle_alpha 95.174865
_cell_angle_beta 10.103190
_cell_angle_gamma 95.683051
_cell_volume 420.436856
_symmetry_space_group_name_H-M "P -1"
_symmetry_group_IT_number 2
_symmetry_cell_setting 'triclinic'
loop_
_space_group_symop_operation_xyz
x,y,z
-x,-y,-z
loop_
_atom_site_type_symbol
_atom_site_label
_atom_site_fract_x
_atom_site_fract_y
_atom_site_fract_z
Si Si1 0.288355 0.950144 0.576418
Si Si2 0.256473 0.447957 0.569787
Si Si3 0.366658 0.749149 0.984193
Si Si4 0.386836 0.613955 0.561377
Si Si5 0.301878 0.733147 0.214640
Si Si6 0.997474 0.043169 0.316798
O O1 0.082772 0.703926 0.778361
O O2 0.346870 0.892858 0.589786
O O3 0.117793 0.181000 0.744797
O O4 0.666384 0.939729 0.112291
O O5 0.406172 0.427752 0.322497
O O6 0.524811 0.490715 0.329957
O O7 0.217824 0.707078 0.228661
O O8 0.636289 0.986613 0.689997
O O9 0.063394 0.803835 0.280043
O O10 0.500000 0.500000 0.500000
O O11 0.000000 0.500000 0.000000
O O12 0.030535 0.755854 0.586535
O O13 0.500000 0.500000 0.000000
O O14 0.500000 0.000000 0.000000
#
# Coordination Sequence:
#
# PCOD9031874 Si02
#       6
#     2   2   2   2   2   2
#     4   9  22  43  66  99 130 173 217 268 329 389
#     4   9  22  43  66  99 130 173 217 268 329 389
#     4  10  22  43  68  97 135 176 223 272 324 387
#     4  10  24  44  68  97 132 169 216 272 332 396
#     4  10  23  42  64  98 132 178 220 272 320 384
#     4  10  22  43  68  97 135 176 223 272 324 387
#
# _framework density 28.541744999999999
#
# number of rings (size 3 to 8) (size 9 to 14) (size 15 to 20)
#    1.000    1.333    0.000    0.500    0.000   17.333 
#    3.000    7.500    0.000    0.000    0.000    0.000 
#    0.000    0.000    0.000    0.000    0.000    0.000 
#
# Total GULP energy -66928.313567 kJ/mol
# GULP energy per Si atom -5577.359464 kJ/mol
# Density = 2.847678 g / cm^3
# Si number density = 28.541745 Si / 1000 Ang^3
#
#
#
# Elastic Constant Matrix: (Units=GPa)
#
#
# Indices 1 2 3 4 5 6 
#
# 1 165.6682 30.6165 23.1243 -14.2810 0.5320 -4.3226
# 2 30.6165 184.2078 18.8388 4.0697 5.8346 -28.8268
# 3 23.1243 18.8388 79.2659 -10.3321 8.4565 -15.2679
# 4 -14.2810 4.0697 -10.3321 46.1368 -6.9626 13.4275
# 5 0.5320 5.8346 8.4565 -6.9626 47.5984 2.1672
# 6 -4.3226 -28.8268 -15.2679 13.4275 2.1672 54.3620
#
#
#
# Elastic Compliance Matrix: (Units=1/GPa)
#
#
# Indices 1 2 3 4 5 6 
#
# 1 0.006649 -0.001188 -0.001667 0.002238 0.000747 -0.001152
# 2 -0.001188 0.006361 -0.000627 -0.002329 -0.001165 0.003724
# 3 -0.001667 -0.000627 0.014328 0.001426 -0.002392 0.003302
# 4 0.002238 -0.002329 0.001426 0.025585 0.004075 -0.007139
# 5 0.000747 -0.001165 -0.002392 0.004075 0.022307 -0.003126
# 6 -0.001152 0.003724 0.003302 -0.007139 -0.003126 0.023094
#
#
# Mechanical properties :
#
#
# Convention : Reuss Voigt Hill
#
# Bulk Modulus (GPa) = 49.08288 63.81122 56.44705
# Shear Modulus (GPa) = 44.61094 53.39025 49.00060
#
# Velocity S-wave (km/s) = 3.95778 4.32974 4.14793
# Velocity P-wave (km/s) = 6.17410 6.88485 6.53914
#
# Compressibility (1/GPa) = 0.02037370
#
# Stress axis : x y z
#
# Youngs Moduli (GPa) = 150.40200 157.19678 69.79179
#
# Poissons Ratio (x) = 0.18674 0.11636
# Poissons Ratio (y) = 0.17867 0.04377
# Poissons Ratio (z) = 0.25077 0.09860
#
# Static dielectric constant tensor:
#      x y z
#    x 2.324000 0.068970 0.029610 
#    y 0.068970 2.307700 -0.075720 
#    z 0.029610 -0.075720 2.417090 
# 
# From -- ./inp_files/601710.got.cif
#   From: 2010.05.17/outbox.cif.g08.bks.cpg/sg2_301_cif.got.tgz:601710.got - 2010.06.03 11:33:40.
