data_PCOD9031621
_publ_section_title
;
Structure prediction by ZEFSAII (Michael W. Deem and Ramdas Pophale) SiO2 
 PCOD9031621
Probable space group: P -1
;
_chemical_formula_sum "Si O2"
_cell_formula_units_Z 14
_cell_length_a 16.116859
_cell_length_b 19.851987
_cell_length_c 9.111135
_cell_angle_alpha 36.449983
_cell_angle_beta 43.756381
_cell_angle_gamma 18.966496
_cell_volume 551.651755
_symmetry_space_group_name_H-M "P -1"
_symmetry_group_IT_number 2
_symmetry_cell_setting 'triclinic'
loop_
_space_group_symop_operation_xyz
x,y,z
-x,-y,-z
loop_
_atom_site_type_symbol
_atom_site_label
_atom_site_fract_x
_atom_site_fract_y
_atom_site_fract_z
Si Si1 0.729010 0.556880 0.280768
Si Si2 0.272294 0.911826 0.030917
Si Si3 0.579260 0.833618 0.583039
Si Si4 0.994511 0.667661 0.981169
Si Si5 0.726630 0.428858 0.954777
Si Si6 0.439333 0.205289 0.641349
Si Si7 0.264674 0.712769 0.207861
O O1 0.906747 0.434578 0.130608
O O2 0.756417 0.611347 0.293359
O O3 0.780716 0.381306 0.552979
O O4 0.439507 0.805621 0.145357
O O5 0.969567 0.183670 0.976925
O O6 0.389623 0.890523 0.785266
O O7 0.331724 0.731385 0.233454
O O8 0.559950 0.874923 0.363041
O O9 0.500000 0.000000 0.500000
O O10 0.881358 0.545250 0.723783
O O11 0.138514 0.642588 0.939604
O O12 0.700824 0.949720 0.838133
O O13 0.588103 0.649605 0.660022
O O14 0.501274 0.532095 0.108769
O O15 0.000000 0.000000 0.000000
#
# Coordination Sequence:
#
# PCOD9031621 Si02
#       7
#     2   2   2   2   2   2   2
#     4  11  23  38  67  95 133 179 218 269 326 390
#     4  11  23  45  64  95 140 174 222 280 324 388
#     4  10  24  48  73  96 131 174 220 280 340 392
#     4  10  22  43  67  96 138 169 221 276 326 391
#     4  11  23  41  64  95 138 178 220 268 323 388
#     4  11  22  41  69  95 129 176 218 270 330 393
#     4  12  24  40  64  99 136 183 226 260 328 396
#
# _framework density 25.378329999999998
#
# number of rings (size 3 to 8) (size 9 to 14) (size 15 to 20)
#    0.000    1.143    5.714    2.143    2.000    4.571 
#    0.000    5.714    0.000    0.000    0.000    0.000 
#    0.000    0.000    0.000    0.000    0.000    0.000 
#
# Total GULP energy -78239.411674 kJ/mol
# GULP energy per Si atom -5588.529405 kJ/mol
# Density = 2.532057 g / cm^3
# Si number density = 25.378330 Si / 1000 Ang^3
#
#
#
# Elastic Constant Matrix: (Units=GPa)
#
#
# Indices 1 2 3 4 5 6 
#
# 1 134.2767 54.4337 34.9327 8.1706 25.5962 28.4728
# 2 54.4337 149.8202 55.1082 -20.1249 9.7271 17.9019
# 3 34.9327 55.1082 110.0423 -10.3952 19.5264 -11.2966
# 4 8.1706 -20.1249 -10.3952 25.8678 14.2794 8.7834
# 5 25.5962 9.7271 19.5264 14.2794 29.1349 7.2934
# 6 28.4728 17.9019 -11.2966 8.7834 7.2934 52.2583
#
#
#
# Elastic Compliance Matrix: (Units=1/GPa)
#
#
# Indices 1 2 3 4 5 6 
#
# 1 0.011154 -0.002717 -0.001762 -0.001636 -0.005797 -0.004443
# 2 -0.002717 0.011352 -0.003514 0.011911 -0.003721 -0.004651
# 3 -0.001762 -0.003514 0.015338 0.009588 -0.013704 0.005781
# 4 -0.001636 0.011911 0.009588 0.080738 -0.046483 -0.008199
# 5 -0.005797 -0.003721 -0.013704 -0.046483 0.072846 -0.000883
# 6 -0.004443 -0.004651 0.005781 -0.008199 -0.000883 0.025901
#
#
# Mechanical properties :
#
#
# Convention : Reuss Voigt Hill
#
# Bulk Modulus (GPa) = 45.75351 75.89871 60.82611
# Shear Modulus (GPa) = 20.78134 38.09650 29.43892
#
# Velocity S-wave (km/s) = 2.86468 3.87866 3.40958
# Velocity P-wave (km/s) = 5.38605 7.07323 6.28650
#
# Compressibility (1/GPa) = 0.02185625
#
# Stress axis : x y z
#
# Youngs Moduli (GPa) = 89.65485 88.09310 65.19836
#
# Poissons Ratio (x) = 0.23933 0.11491
# Poissons Ratio (y) = 0.24357 0.22913
# Poissons Ratio (z) = 0.15801 0.30959
#
# Static dielectric constant tensor:
#      x y z
#    x 2.132360 -0.057910 0.005740 
#    y -0.057910 1.981140 -0.005760 
#    z 0.005740 -0.005760 2.001260 
# 
# From -- ./inp_files/337428.got.cif
#   From: 2010.05.17/outbox.cif.g08.bks.cpg/sg2_169_cif.got.tgz:337428.got - 2010.06.03 11:33:40.
