data_PCOD9031104
_publ_section_title
;
Structure prediction by ZEFSAII (Michael W. Deem and Ramdas Pophale) SiO2 
 PCOD9031104
Probable space group: P -1
;
_chemical_formula_sum "Si O2"
_cell_formula_units_Z 16
_cell_length_a 8.315686
_cell_length_b 12.105839
_cell_length_c 9.150449
_cell_angle_alpha 94.120748
_cell_angle_beta 84.561603
_cell_angle_gamma 122.106042
_cell_volume 776.519245
_symmetry_space_group_name_H-M "P -1"
_symmetry_group_IT_number 2
_symmetry_cell_setting 'triclinic'
loop_
_space_group_symop_operation_xyz
x,y,z
-x,-y,-z
loop_
_atom_site_type_symbol
_atom_site_label
_atom_site_fract_x
_atom_site_fract_y
_atom_site_fract_z
Si Si1 0.185080 0.090200 0.393377
Si Si2 0.028001 0.625981 0.424425
Si Si3 0.160929 0.613696 0.092507
Si Si4 0.542335 0.130464 0.940133
Si Si5 0.563959 0.628344 0.098996
Si Si6 0.353104 0.908964 0.384717
Si Si7 0.656473 0.640556 0.435550
Si Si8 0.827258 0.868586 0.933933
O O1 0.319639 0.228617 0.479719
O O2 0.142715 0.128374 0.241953
O O3 0.262310 0.993234 0.348437
O O4 0.000000 0.000000 0.500000
O O5 0.063949 0.606271 0.252266
O O6 0.208146 0.769395 0.457778
O O7 0.000000 0.500000 0.500000
O O8 0.850558 0.644198 0.448814
O O9 0.247367 0.753626 0.021812
O O10 0.364389 0.626580 0.106431
O O11 0.000000 0.500000 0.000000
O O12 0.550167 0.117739 0.763211
O O13 0.371105 0.140920 0.017395
O O14 0.500000 0.000000 0.000000
O O15 0.612588 0.635631 0.266513
O O16 0.500000 0.500000 0.000000
O O17 0.764877 0.736609 0.014790
O O18 0.500000 0.000000 0.500000
O O19 0.500000 0.500000 0.500000
O O20 0.000000 0.000000 0.000000
#
# Coordination Sequence:
#
# PCOD9031104 Si02
#       8
#     2   2   2   2   2   2   2   2
#     4  12  25  45  69 104 142 180 235 283 355 413
#     4  11  25  45  66  99 135 177 231 280 345 411
#     4  10  23  41  67  94 132 175 224 280 333 403
#     4  10  22  43  64  97 131 174 229 271 340 401
#     4  11  24  45  68 100 136 179 236 280 350 415
#     4  11  26  43  71 100 138 183 227 287 344 414
#     4  12  26  43  73 100 142 184 230 292 348 420
#     4  11  25  41  70 100 138 181 227 285 340 413
#
# _framework density 20.604769000000001
#
# number of rings (size 3 to 8) (size 9 to 14) (size 15 to 20)
#    0.000    1.000    2.500    3.000    8.750    3.000 
#    0.000    0.000    0.000    0.000    0.000    0.000 
#    0.000    0.000    0.000    0.000    0.000    0.000 
#
# Total GULP energy -89171.690787 kJ/mol
# GULP energy per Si atom -5573.230674 kJ/mol
# Density = 2.055787 g / cm^3
# Si number density = 20.604769 Si / 1000 Ang^3
#
#
#
# Elastic Constant Matrix: (Units=GPa)
#
#
# Indices 1 2 3 4 5 6 
#
# 1 27.5656 11.1218 12.0644 -4.3772 -5.1806 9.8773
# 2 11.1218 209.3119 79.5353 -0.4830 13.8363 32.4594
# 3 12.0644 79.5353 126.3187 0.5676 3.5236 23.8861
# 4 -4.3772 -0.4830 0.5676 45.9418 2.7481 -2.6801
# 5 -5.1806 13.8363 3.5236 2.7481 36.8872 4.5767
# 6 9.8773 32.4594 23.8861 -2.6801 4.5767 39.3348
#
#
#
# Elastic Compliance Matrix: (Units=1/GPa)
#
#
# Indices 1 2 3 4 5 6 
#
# 1 0.042756 -0.000405 -0.002213 0.003092 0.007341 -0.009702
# 2 -0.000405 0.006763 -0.003584 0.000009 -0.001869 -0.003085
# 3 -0.002213 -0.003584 0.010990 -0.000600 0.000432 -0.003252
# 4 0.003092 0.000009 -0.000600 0.022221 -0.001322 0.001249
# 5 0.007341 -0.001869 0.000432 -0.001322 0.029405 -0.004075
# 6 -0.009702 -0.003085 -0.003252 0.001249 -0.004075 0.032938
#
#
# Mechanical properties :
#
#
# Convention : Reuss Voigt Hill
#
# Bulk Modulus (GPa) = 20.78750 63.18211 41.98481
# Shear Modulus (GPa) = 28.81664 41.79773 35.30718
#
# Velocity S-wave (km/s) = 3.74377 4.50883 4.14399
# Velocity P-wave (km/s) = 5.36640 7.60502 6.58159
#
# Compressibility (1/GPa) = 0.04810583
#
# Stress axis : x y z
#
# Youngs Moduli (GPa) = 23.38856 147.86496 90.99132
#
# Poissons Ratio (x) = 0.05982 0.20135
# Poissons Ratio (y) = 0.00946 0.32613
# Poissons Ratio (z) = 0.05175 0.52997
#
# Static dielectric constant tensor:
#      x y z
#    x 1.807840 -0.065010 0.042550 
#    y -0.065010 1.788900 -0.034940 
#    z 0.042550 -0.034940 1.727030 
# 
# From -- ./inp_files/188469.got.cif
#   From: 2010.05.17/outbox.cif.g08.bks.cpg/sg2_95_cif.got.tgz:188469.got - 2010.06.03 11:33:40.
