data_PCOD9031341
_publ_section_title
;
Structure prediction by ZEFSAII (Michael W. Deem and Ramdas Pophale) SiO2 
 PCOD9031341
Probable space group: P -1
;
_chemical_formula_sum "Si O2"
_cell_formula_units_Z 14
_cell_length_a 13.148196
_cell_length_b 7.438880
_cell_length_c 8.175448
_cell_angle_alpha 126.993969
_cell_angle_beta 64.227467
_cell_angle_gamma 95.323571
_cell_volume 559.055860
_symmetry_space_group_name_H-M "P -1"
_symmetry_group_IT_number 2
_symmetry_cell_setting 'triclinic'
loop_
_space_group_symop_operation_xyz
x,y,z
-x,-y,-z
loop_
_atom_site_type_symbol
_atom_site_label
_atom_site_fract_x
_atom_site_fract_y
_atom_site_fract_z
Si Si1 0.601242 0.492270 0.210561
Si Si2 0.335240 0.877302 0.277783
Si Si3 0.955732 0.543692 0.741044
Si Si4 0.224169 0.995520 0.774789
Si Si5 0.170650 0.594904 0.787529
Si Si6 0.882043 0.146888 0.727136
Si Si7 0.543653 0.114834 0.290927
O O1 0.717037 0.523102 0.245706
O O2 0.560458 0.294133 0.236545
O O3 0.505081 0.726953 0.429490
O O4 0.622800 0.390609 0.958071
O O5 0.268874 0.959524 0.538093
O O6 0.229939 0.957438 0.265840
O O7 0.445092 0.986077 0.242736
O O8 0.870002 0.380713 0.757842
O O9 0.000000 0.500000 0.500000
O O10 0.074236 0.468355 0.724365
O O11 0.887014 0.800933 0.987563
O O12 0.208911 0.740858 0.695734
O O13 0.331723 0.038286 0.830871
O O14 0.103469 0.791922 0.064178
O O15 0.000000 0.000000 0.500000
#
# Coordination Sequence:
#
# PCOD9031341 Si02
#       7
#     2   2   2   2   2   2   2
#     4   9  22  42  68  99 130 175 230 260 338 386
#     4  11  23  40  68  95 139 172 219 275 330 391
#     4  12  25  43  68  99 134 175 221 278 341 391
#     4  11  24  43  64 100 136 174 220 275 335 397
#     4  10  22  43  66  90 133 170 218 279 323 395
#     4  11  24  41  65  98 126 176 227 269 329 398
#     4  10  22  44  64  98 138 177 217 277 318 406
#
# _framework density 25.04222
#
# number of rings (size 3 to 8) (size 9 to 14) (size 15 to 20)
#    0.000    1.429    0.000    4.286    6.000    0.571 
#   10.286    0.000    0.000    0.000    0.000    0.000 
#    0.000    0.000    0.000    0.000    0.000    0.000 
#
# Total GULP energy -78251.888877 kJ/mol
# GULP energy per Si atom -5589.420634 kJ/mol
# Density = 2.498522 g / cm^3
# Si number density = 25.042220 Si / 1000 Ang^3
#
#
#
# Elastic Constant Matrix: (Units=GPa)
#
#
# Indices 1 2 3 4 5 6 
#
# 1 146.9621 29.9229 39.8241 1.6404 -2.7482 32.3444
# 2 29.9229 59.6278 23.9853 -7.6960 0.5714 11.6280
# 3 39.8241 23.9853 119.0002 -7.0768 -1.3675 -3.8147
# 4 1.6404 -7.6960 -7.0768 35.7105 -7.2298 -10.3923
# 5 -2.7482 0.5714 -1.3675 -7.2298 39.7733 -1.4540
# 6 32.3444 11.6280 -3.8147 -10.3923 -1.4540 31.6150
#
#
#
# Elastic Compliance Matrix: (Units=1/GPa)
#
#
# Indices 1 2 3 4 5 6 
#
# 1 0.011336 -0.002187 -0.004136 -0.005846 -0.000875 -0.013255
# 2 -0.002187 0.020521 -0.003429 0.002331 -0.000322 -0.004973
# 3 -0.004136 -0.003429 0.011014 0.004294 0.001226 0.008289
# 4 -0.005846 0.002331 0.004294 0.036233 0.006950 0.017871
# 5 -0.000875 -0.000322 0.001226 0.006950 0.026563 0.004667
# 6 -0.013255 -0.004973 0.008289 0.017871 0.004667 0.054109
#
#
# Mechanical properties :
#
#
# Convention : Reuss Voigt Hill
#
# Bulk Modulus (GPa) = 42.79235 57.00608 49.89922
# Shear Modulus (GPa) = 26.72830 36.87694 31.80262
#
# Velocity S-wave (km/s) = 3.27055 3.84160 3.56752
# Velocity P-wave (km/s) = 5.60242 6.51848 6.07773
#
# Compressibility (1/GPa) = 0.02336866
#
# Stress axis : x y z
#
# Youngs Moduli (GPa) = 88.21099 48.73060 90.79671
#
# Poissons Ratio (x) = 0.10656 0.37550
# Poissons Ratio (y) = 0.19290 0.31132
# Poissons Ratio (z) = 0.36481 0.16709
#
# Static dielectric constant tensor:
#      x y z
#    x 1.961410 0.008350 -0.006230 
#    y 0.008350 2.079620 0.031320 
#    z -0.006230 0.031320 2.014580 
# 
# From -- ./inp_files/245766.got.cif
#   From: 2010.05.17/outbox.cif.g08.bks.cpg/sg2_123_cif.got.tgz:245766.got - 2010.06.03 11:33:40.
