data_PCOD9031671
_publ_section_title
;
Structure prediction by ZEFSAII (Michael W. Deem and Ramdas Pophale) SiO2 
 PCOD9031671
Probable space group: P -1
;
_chemical_formula_sum "Si O2"
_cell_formula_units_Z 16
_cell_length_a 20.180289
_cell_length_b 9.176985
_cell_length_c 5.774440
_cell_angle_alpha 62.702427
_cell_angle_beta 120.820757
_cell_angle_gamma 129.027545
_cell_volume 698.449018
_symmetry_space_group_name_H-M "P -1"
_symmetry_group_IT_number 2
_symmetry_cell_setting 'triclinic'
loop_
_space_group_symop_operation_xyz
x,y,z
-x,-y,-z
loop_
_atom_site_type_symbol
_atom_site_label
_atom_site_fract_x
_atom_site_fract_y
_atom_site_fract_z
Si Si1 0.902968 0.469163 0.899475
Si Si2 0.809779 0.308484 0.340654
Si Si3 0.242864 0.116151 0.508109
Si Si4 0.431190 0.733128 0.989284
Si Si5 0.254719 0.402831 0.936419
Si Si6 0.901605 0.842147 0.527690
Si Si7 0.581166 0.717607 0.008925
Si Si8 0.464188 0.086993 0.562231
O O1 0.849580 0.374450 0.628396
O O2 0.907643 0.671991 0.786194
O O3 0.868516 0.363754 0.164228
O O4 0.000000 0.500000 0.000000
O O5 0.762390 0.079478 0.428211
O O6 0.759459 0.426922 0.120535
O O7 0.263415 0.269353 0.234023
O O8 0.146381 0.071341 0.468042
O O9 0.323338 0.221792 0.759520
O O10 0.352323 0.533564 0.897909
O O11 0.529378 0.787015 0.036694
O O12 0.447139 0.738472 0.287507
O O13 0.414336 0.903311 0.771717
O O14 0.169429 0.265806 0.727615
O O15 0.000000 0.000000 0.500000
O O16 0.500000 0.500000 0.000000
O O17 0.592672 0.830906 0.709396
O O18 0.500000 0.000000 0.500000
#
# Coordination Sequence:
#
# PCOD9031671 Si02
#       8
#     2   2   2   2   2   2   2   2
#     4  11  24  50  77 109 147 191 247 317 377 447
#     4  11  27  46  73 114 146 194 249 306 377 453
#     4  12  27  45  73 105 144 192 243 309 373 445
#     4  10  22  43  67  98 139 185 233 289 364 426
#     4  11  26  47  69 104 147 191 241 307 369 442
#     4  11  26  48  74 103 143 193 243 309 376 446
#     4  11  24  42  65 103 139 184 238 298 361 436
#     4   9  21  39  66  97 132 182 235 290 346 433
#
# _framework density 22.907897999999999
#
# number of rings (size 3 to 8) (size 9 to 14) (size 15 to 20)
#    0.000    1.250    1.250    2.625    8.750    7.500 
#    0.000    0.000    0.000    0.000    0.000    0.000 
#    0.000    0.000    0.000    0.000    0.000    0.000 
#
# Total GULP energy -89235.035443 kJ/mol
# GULP energy per Si atom -5577.189715 kJ/mol
# Density = 2.285576 g / cm^3
# Si number density = 22.907898 Si / 1000 Ang^3
#
#
#
# Elastic Constant Matrix: (Units=GPa)
#
#
# Indices 1 2 3 4 5 6 
#
# 1 107.1910 28.1624 11.5735 -6.0044 7.8915 3.1269
# 2 28.1624 130.2079 33.8403 -10.6992 1.8291 -4.8519
# 3 11.5735 33.8403 101.4025 -17.2446 16.1635 2.9134
# 4 -6.0044 -10.6992 -17.2446 36.4373 -4.1356 5.1888
# 5 7.8915 1.8291 16.1635 -4.1356 33.3324 -1.0365
# 6 3.1269 -4.8519 2.9134 5.1888 -1.0365 42.4222
#
#
#
# Elastic Compliance Matrix: (Units=1/GPa)
#
#
# Indices 1 2 3 4 5 6 
#
# 1 0.010139 -0.002155 0.000127 0.001010 -0.002255 -0.001181
# 2 -0.002155 0.008999 -0.002891 0.000911 0.001572 0.001314
# 3 0.000127 -0.002891 0.012541 0.004765 -0.005421 -0.001917
# 4 0.001010 0.000911 0.004765 0.030834 0.001100 -0.004042
# 5 -0.002255 0.001572 -0.005421 0.001100 0.033257 0.001396
# 6 -0.001181 0.001314 -0.001917 -0.004042 0.001396 0.024470
#
#
# Mechanical properties :
#
#
# Convention : Reuss Voigt Hill
#
# Bulk Modulus (GPa) = 45.78324 53.99486 49.88905
# Shear Modulus (GPa) = 36.40103 40.12006 38.26054
#
# Velocity S-wave (km/s) = 3.99057 4.18947 4.09123
# Velocity P-wave (km/s) = 6.42355 6.85739 6.64401
#
# Compressibility (1/GPa) = 0.02184205
#
# Stress axis : x y z
#
# Youngs Moduli (GPa) = 98.63157 111.12157 79.73545
#
# Poissons Ratio (x) = 0.23950 -0.01015
# Poissons Ratio (y) = 0.21258 0.23049
# Poissons Ratio (z) = -0.01256 0.32122
#
# Static dielectric constant tensor:
#      x y z
#    x 2.084550 -0.020920 -0.113460 
#    y -0.020920 1.860550 0.006070 
#    z -0.113460 0.006070 1.956250 
# 
# From -- ./inp_files/116741.got.cif
#   From: 2010.05.17/outbox.cif.g08.bks.cpg/sg2_59_cif.got.tgz:116741.got - 2010.06.03 11:33:40.
