data_PCOD9031945
_publ_section_title
;
Structure prediction by ZEFSAII (Michael W. Deem and Ramdas Pophale) SiO2 
 PCOD9031945
Probable space group: P -1
;
_chemical_formula_sum "Si O2"
_cell_formula_units_Z 14
_cell_length_a 8.021107
_cell_length_b 11.681733
_cell_length_c 7.543245
_cell_angle_alpha 93.944111
_cell_angle_beta 126.343040
_cell_angle_gamma 94.909595
_cell_volume 560.907122
_symmetry_space_group_name_H-M "P -1"
_symmetry_group_IT_number 2
_symmetry_cell_setting 'triclinic'
loop_
_space_group_symop_operation_xyz
x,y,z
-x,-y,-z
loop_
_atom_site_type_symbol
_atom_site_label
_atom_site_fract_x
_atom_site_fract_y
_atom_site_fract_z
Si Si1 0.398268 0.345449 0.088617
Si Si2 0.188011 0.187843 0.637322
Si Si3 0.134254 0.537707 0.907710
Si Si4 0.778782 0.228209 0.873156
Si Si5 0.262094 0.763244 0.558607
Si Si6 0.540284 0.990966 0.232106
Si Si7 0.814607 0.676700 0.676254
O O1 0.283177 0.446330 0.940697
O O2 0.638913 0.328572 0.270020
O O3 0.337539 0.357843 0.259477
O O4 0.290576 0.234908 0.893410
O O5 0.245042 0.062120 0.620332
O O6 0.284559 0.267942 0.543932
O O7 0.945334 0.201140 0.483019
O O8 0.282661 0.659049 0.056316
O O9 0.000000 0.500000 0.000000
O O10 0.942279 0.575325 0.678858
O O11 0.798030 0.265624 0.684649
O O12 0.635504 0.106222 0.804425
O O13 0.006360 0.229143 0.105898
O O14 0.434627 0.879647 0.664679
O O15 0.500000 0.000000 0.000000
#
# Coordination Sequence:
#
# PCOD9031945 Si02
#       7
#     2   2   2   2   2   2   2
#     4  11  22  43  71 101 132 180 225 272 339 402
#     4  12  24  45  68  98 140 174 227 283 331 401
#     4   8  18  41  70 100 136 172 223 275 335 400
#     4  10  22  43  69 100 135 175 229 272 337 400
#     4  12  24  43  69 100 134 181 229 274 338 399
#     4  12  25  44  66  97 137 177 229 280 335 400
#     4   9  21  42  67  98 138 170 218 274 334 396
#
# _framework density 24.959571
#
# number of rings (size 3 to 8) (size 9 to 14) (size 15 to 20)
#    0.857    0.571    2.857    2.571    0.000    1.143 
#    0.000    6.429    0.000    0.000    0.000    0.000 
#    0.000    0.000    0.000    0.000    0.000    0.000 
#
# Total GULP energy -78125.046844 kJ/mol
# GULP energy per Si atom -5580.360489 kJ/mol
# Density = 2.490276 g / cm^3
# Si number density = 24.959571 Si / 1000 Ang^3
#
#
#
# Elastic Constant Matrix: (Units=GPa)
#
#
# Indices 1 2 3 4 5 6 
#
# 1 61.8712 -4.5075 26.3910 -12.2697 6.9862 -3.9165
# 2 -4.5075 50.1524 11.2945 -12.1405 -7.1002 -15.8800
# 3 26.3910 11.2945 103.6492 -27.9288 4.2585 -5.9534
# 4 -12.2697 -12.1405 -27.9288 46.5268 -0.3114 7.5302
# 5 6.9862 -7.1002 4.2585 -0.3114 44.4376 -3.3968
# 6 -3.9165 -15.8800 -5.9534 7.5302 -3.3968 32.0941
#
#
#
# Elastic Compliance Matrix: (Units=1/GPa)
#
#
# Indices 1 2 3 4 5 6 
#
# 1 0.019267 0.004040 -0.004280 0.003128 -0.001750 0.002637
# 2 0.004040 0.026619 -0.002129 0.004714 0.004824 0.012673
# 3 -0.004280 -0.002129 0.012574 0.005978 -0.000887 -0.000740
# 4 0.003128 0.004714 0.005978 0.027567 -0.000323 -0.002679
# 5 -0.001750 0.004824 -0.000887 -0.000323 0.023985 0.004623
# 6 0.002637 0.012673 -0.000740 -0.002679 0.004623 0.038732
#
#
# Mechanical properties :
#
#
# Convention : Reuss Voigt Hill
#
# Bulk Modulus (GPa) = 18.61442 31.33653 24.97547
# Shear Modulus (GPa) = 29.17310 36.77801 32.97556
#
# Velocity S-wave (km/s) = 3.42250 3.84279 3.63872
# Velocity P-wave (km/s) = 4.80542 5.68080 5.26135
#
# Compressibility (1/GPa) = 0.05372178
#
# Stress axis : x y z
#
# Youngs Moduli (GPa) = 51.90146 37.56755 79.52705
#
# Poissons Ratio (x) = -0.15177 0.34037
# Poissons Ratio (y) = -0.20968 0.16933
# Poissons Ratio (z) = 0.22213 0.07999
#
# Static dielectric constant tensor:
#      x y z
#    x 2.077080 0.040000 0.019180 
#    y 0.040000 1.993190 -0.008840 
#    z 0.019180 -0.008840 1.921270 
# 
# From -- ./inp_files/178393.got.cif
#   From: 2010.05.17/outbox.cif.g08.bks.cpg/sg2_90_cif.got.tgz:178393.got - 2010.06.03 11:33:40.
