data_PCOD9031254
_publ_section_title
;
Structure prediction by ZEFSAII (Michael W. Deem and Ramdas Pophale) SiO2 
 PCOD9031254
Probable space group: P -1
;
_chemical_formula_sum "Si O2"
_cell_formula_units_Z 14
_cell_length_a 12.209921
_cell_length_b 12.264096
_cell_length_c 9.484787
_cell_angle_alpha 46.066887
_cell_angle_beta 35.773521
_cell_angle_gamma 56.539022
_cell_volume 597.697754
_symmetry_space_group_name_H-M "P -1"
_symmetry_group_IT_number 2
_symmetry_cell_setting 'triclinic'
loop_
_space_group_symop_operation_xyz
x,y,z
-x,-y,-z
loop_
_atom_site_type_symbol
_atom_site_label
_atom_site_fract_x
_atom_site_fract_y
_atom_site_fract_z
Si Si1 0.772679 0.849939 0.317799
Si Si2 0.069091 0.826809 0.561388
Si Si3 0.796033 0.685106 0.175977
Si Si4 0.893857 0.181767 0.803654
Si Si5 0.406252 0.636320 0.893199
Si Si6 0.505676 0.459770 0.695810
Si Si7 0.479169 0.824177 0.205898
O O1 0.878785 0.768475 0.150276
O O2 0.565980 0.771523 0.605918
O O3 0.894488 0.823214 0.353765
O O4 0.788015 0.026138 0.104665
O O5 0.104113 0.810048 0.374216
O O6 0.258122 0.799964 0.475028
O O7 0.000000 0.000000 0.500000
O O8 0.923045 0.705110 0.888876
O O9 0.716932 0.521107 0.452574
O O10 0.612736 0.779009 0.234643
O O11 0.778044 0.311740 0.883059
O O12 0.376422 0.559307 0.839798
O O13 0.500000 0.500000 0.000000
O O14 0.500000 0.500000 0.500000
O O15 0.470508 0.280560 0.888240
O O16 0.500000 0.000000 0.000000
#
# Coordination Sequence:
#
# PCOD9031254 Si02
#       7
#     2   2   2   2   2   2   2
#     4  10  23  44  66  97 133 174 225 269 329 391
#     4  12  23  40  66 101 131 167 223 272 324 384
#     4  10  22  43  65  97 132 167 221 273 323 392
#     4  11  24  43  68  98 134 176 220 274 329 389
#     4  11  24  44  65  93 136 176 220 267 331 398
#     4   9  22  42  64  95 126 168 218 266 328 387
#     4  11  21  39  68  94 126 166 214 276 323 379
#
# _framework density 23.423209
#
# number of rings (size 3 to 8) (size 9 to 14) (size 15 to 20)
#    0.000    1.429    2.857    1.286    0.000    8.000 
#    2.571    4.286    0.000    0.000    0.000    0.000 
#    0.000    0.000    0.000    0.000    0.000    0.000 
#
# Total GULP energy -78173.402408 kJ/mol
# GULP energy per Si atom -5583.814458 kJ/mol
# Density = 2.336990 g / cm^3
# Si number density = 23.423209 Si / 1000 Ang^3
#
#
#
# Elastic Constant Matrix: (Units=GPa)
#
#
# Indices 1 2 3 4 5 6 
#
# 1 86.1545 20.4913 21.2884 5.6088 8.4493 2.4499
# 2 20.4913 125.6209 32.8603 2.9707 7.2869 27.5083
# 3 21.2884 32.8603 70.8783 12.9239 9.4234 1.9164
# 4 5.6088 2.9707 12.9239 41.3809 5.9840 -1.1573
# 5 8.4493 7.2869 9.4234 5.9840 30.1750 3.0994
# 6 2.4499 27.5083 1.9164 -1.1573 3.0994 30.6348
#
#
#
# Elastic Compliance Matrix: (Units=1/GPa)
#
#
# Indices 1 2 3 4 5 6 
#
# 1 0.012876 -0.001323 -0.002883 -0.000392 -0.002366 0.000563
# 2 -0.001323 0.011613 -0.004819 0.000573 -0.000016 -0.009998
# 3 -0.002883 -0.004819 0.018351 -0.004425 -0.003249 0.003571
# 4 -0.000392 0.000573 -0.004425 0.026165 -0.003957 0.001182
# 5 -0.002366 -0.000016 -0.003249 -0.003957 0.035953 -0.003380
# 6 0.000563 -0.009998 0.003571 0.001182 -0.003380 0.041738
#
#
# Mechanical properties :
#
#
# Convention : Reuss Voigt Hill
#
# Bulk Modulus (GPa) = 40.33865 47.99262 44.16564
# Shear Modulus (GPa) = 28.90015 34.30572 31.60294
#
# Velocity S-wave (km/s) = 3.51640 3.83117 3.67715
# Velocity P-wave (km/s) = 5.80911 6.33279 6.07660
#
# Compressibility (1/GPa) = 0.02479012
#
# Stress axis : x y z
#
# Youngs Moduli (GPa) = 77.66620 86.10694 54.49280
#
# Poissons Ratio (x) = 0.11391 0.15711
# Poissons Ratio (y) = 0.10275 0.26260
# Poissons Ratio (z) = 0.22392 0.41494
#
# Static dielectric constant tensor:
#      x y z
#    x 1.921300 0.029400 -0.009560 
#    y 0.029400 1.968490 -0.021420 
#    z -0.009560 -0.021420 1.955150 
# 
# From -- ./inp_files/261384.got.cif
#   From: 2010.05.17/outbox.cif.g08.bks.cpg/sg2_131_cif.got.tgz:261384.got - 2010.06.03 11:33:40.
