data_PCOD9031770
_publ_section_title
;
Structure prediction by ZEFSAII (Michael W. Deem and Ramdas Pophale) SiO2 
 PCOD9031770
Probable space group: P -1
;
_chemical_formula_sum "Si O2"
_cell_formula_units_Z 16
_cell_length_a 19.960234
_cell_length_b 11.413039
_cell_length_c 7.891197
_cell_angle_alpha 124.090259
_cell_angle_beta 46.034329
_cell_angle_gamma 150.309675
_cell_volume 636.286582
_symmetry_space_group_name_H-M "P -1"
_symmetry_group_IT_number 2
_symmetry_cell_setting 'triclinic'
loop_
_space_group_symop_operation_xyz
x,y,z
-x,-y,-z
loop_
_atom_site_type_symbol
_atom_site_label
_atom_site_fract_x
_atom_site_fract_y
_atom_site_fract_z
Si Si1 0.695240 0.644910 0.674752
Si Si2 0.387363 0.384322 0.855318
Si Si3 0.443700 0.107216 0.729597
Si Si4 0.115608 0.934618 0.533665
Si Si5 0.569754 0.791465 0.630705
Si Si6 0.595396 0.117733 0.717414
Si Si7 0.119278 0.708143 0.093334
Si Si8 0.888743 0.495006 0.749394
O O1 0.555769 0.581549 0.812787
O O2 0.600386 0.381021 0.615737
O O3 0.831492 0.853271 0.472581
O O4 0.729036 0.711465 0.869224
O O5 0.419541 0.529261 0.760666
O O6 0.376951 0.220878 0.647861
O O7 0.491559 0.122709 0.851188
O O8 0.390539 0.926686 0.536025
O O9 0.273659 0.965694 0.947641
O O10 0.046626 0.751078 0.357605
O O11 0.993639 0.765340 0.764799
O O12 0.272523 0.042363 0.405122
O O13 0.525743 0.898271 0.759465
O O14 0.748675 0.336363 0.732801
O O15 0.159697 0.623272 0.077021
O O16 0.000000 0.500000 0.000000
O O17 0.000000 0.500000 0.500000
#
# Coordination Sequence:
#
# PCOD9031770 Si02
#       8
#     2   2   2   2   2   2   2   2
#     4  10  19  34  52  85 117 148 191 246 285 331
#     4   9  18  29  53  80 118 142 189 244 294 329
#     4  11  23  37  57  89 121 156 191 234 291 350
#     4  10  21  35  58  85 114 149 198 242 288 334
#     4  10  17  32  53  84 114 151 186 240 290 339
#     4  11  22  37  57  85 122 158 190 234 291 354
#     4  11  22  36  61  89 118 150 190 248 291 342
#     4  10  20  38  56  82 117 153 197 237 287 343
#
# _framework density 25.145904000000002
#
# number of rings (size 3 to 8) (size 9 to 14) (size 15 to 20)
#    0.000    1.750    3.750    3.750    0.000    0.500 
#    0.000    0.625    0.000    0.000    0.000    3.500 
#    0.000    0.000    0.000    0.000    0.000    0.000 
#
# Total GULP energy -89136.863957 kJ/mol
# GULP energy per Si atom -5571.053997 kJ/mol
# Density = 2.508867 g / cm^3
# Si number density = 25.145904 Si / 1000 Ang^3
#
#
#
# Elastic Constant Matrix: (Units=GPa)
#
#
# Indices 1 2 3 4 5 6 
#
# 1 99.2428 53.0935 11.6610 -13.4431 28.5401 2.5462
# 2 53.0935 142.2419 33.0673 -16.8689 19.7537 -13.7515
# 3 11.6610 33.0673 47.6399 -5.8794 21.3405 6.5382
# 4 -13.4431 -16.8689 -5.8794 37.7616 -5.4065 21.1566
# 5 28.5401 19.7537 21.3405 -5.4065 33.3285 -2.3030
# 6 2.5462 -13.7515 6.5382 21.1566 -2.3030 42.6486
#
#
#
# Elastic Compliance Matrix: (Units=1/GPa)
#
#
# Indices 1 2 3 4 5 6 
#
# 1 0.019547 -0.007279 0.011289 0.008670 -0.018977 -0.010570
# 2 -0.007279 0.011754 -0.010323 -0.002105 0.006031 0.007177
# 3 0.011289 -0.010323 0.042959 0.011907 -0.030377 -0.018136
# 4 0.008670 -0.002105 0.011907 0.043228 -0.008511 -0.024926
# 5 -0.018977 0.006031 -0.030377 -0.008511 0.061807 0.015294
# 6 -0.010570 0.007177 -0.018136 -0.024926 0.015294 0.042364
#
#
# Mechanical properties :
#
#
# Convention : Reuss Voigt Hill
#
# Bulk Modulus (GPa) = 16.22488 53.86313 35.04401
# Shear Modulus (GPa) = 19.62105 35.50128 27.56116
#
# Velocity S-wave (km/s) = 2.79639 3.76148 3.31426
# Velocity P-wave (km/s) = 4.11008 6.35073 5.34904
#
# Compressibility (1/GPa) = 0.06163375
#
# Stress axis : x y z
#
# Youngs Moduli (GPa) = 51.15937 85.08039 23.27804
#
# Poissons Ratio (x) = 0.61928 -0.26279
# Poissons Ratio (y) = 0.37238 0.24030
# Poissons Ratio (z) = -0.57754 0.87829
#
# Static dielectric constant tensor:
#      x y z
#    x 2.137190 -0.127460 0.004810 
#    y -0.127460 2.060550 0.048230 
#    z 0.004810 0.048230 2.164310 
# 
# From -- ./inp_files/345439.got.cif
#   From: 2010.05.17/outbox.cif.g08.bks.cpg/sg2_173_cif.got.tgz:345439.got - 2010.06.03 11:33:40.
