data_PCOD9031292
_publ_section_title
;
Structure prediction by ZEFSAII (Michael W. Deem and Ramdas Pophale) SiO2 
 PCOD9031292
Probable space group: P -1
;
_chemical_formula_sum "Si O2"
_cell_formula_units_Z 11
_cell_length_a 8.386323
_cell_length_b 14.414490
_cell_length_c 7.147399
_cell_angle_alpha 68.118625
_cell_angle_beta 104.665397
_cell_angle_gamma 143.907453
_cell_volume 470.489691
_symmetry_space_group_name_H-M "P -1"
_symmetry_group_IT_number 2
_symmetry_cell_setting 'triclinic'
loop_
_space_group_symop_operation_xyz
x,y,z
-x,-y,-z
loop_
_atom_site_type_symbol
_atom_site_label
_atom_site_fract_x
_atom_site_fract_y
_atom_site_fract_z
Si Si1 0.320439 0.137549 0.964029
Si Si2 0.296736 0.324190 0.660407
Si Si3 0.500000 0.000000 0.000000
Si Si4 0.007946 0.298089 0.890395
Si Si5 0.790745 0.392476 0.190109
Si Si6 0.228863 0.827540 0.466141
O O1 0.403297 0.264049 0.746239
O O2 0.386925 0.060737 0.968966
O O3 0.492228 0.239875 0.126401
O O4 0.000000 0.000000 0.000000
O O5 0.500000 0.500000 0.500000
O O6 0.222253 0.323630 0.851486
O O7 0.013011 0.209200 0.559304
O O8 0.809833 0.175112 0.089631
O O9 0.149702 0.473156 0.794020
O O10 0.747148 0.168597 0.759650
O O11 0.843360 0.318345 0.380293
O O12 0.000000 0.500000 0.000000
O O13 0.500000 0.000000 0.500000
#
# Coordination Sequence:
#
# PCOD9031292 Si02
#       6
#     2   2   1   2   2   2
#     4  12  24  44  69 104 140 183 235 291 346 418
#     4  10  23  43  67 102 144 176 231 298 345 417
#     4  12  22  44  70 104 136 188 232 290 352 412
#     4  10  24  41  70 101 139 187 235 278 361 418
#     4  12  23  40  73 102 139 189 235 290 348 427
#     4  10  22  43  66 100 140 186 231 283 352 420
#
# _framework density 23.379898000000001
#
# number of rings (size 3 to 8) (size 9 to 14) (size 15 to 20)
#    1.091    0.000    3.636    3.818    0.000    0.727 
#    0.000    0.000    0.000    7.636    0.000    0.000 
#    0.000    0.000    0.000    0.000    0.000    0.000 
#
# Total GULP energy -61253.152159 kJ/mol
# GULP energy per Si atom -5568.468378 kJ/mol
# Density = 2.332668 g / cm^3
# Si number density = 23.379898 Si / 1000 Ang^3
#
#
#
# Elastic Constant Matrix: (Units=GPa)
#
#
# Indices 1 2 3 4 5 6 
#
# 1 136.8477 49.4764 37.4317 -19.5130 31.8290 -14.3881
# 2 49.4764 123.3044 37.6508 -12.3546 19.4446 -26.3476
# 3 37.4317 37.6508 109.7106 -27.5877 35.3764 -13.8802
# 4 -19.5130 -12.3546 -27.5877 51.0313 -4.6390 10.6923
# 5 31.8290 19.4446 35.3764 -4.6390 42.2832 -23.2136
# 6 -14.3881 -26.3476 -13.8802 10.6923 -23.2136 49.3102
#
#
#
# Elastic Compliance Matrix: (Units=1/GPa)
#
#
# Indices 1 2 3 4 5 6 
#
# 1 0.010437 -0.003459 0.000777 0.003500 -0.008323 -0.003261
# 2 -0.003459 0.011095 -0.003296 -0.001341 0.003321 0.005846
# 3 0.000777 -0.003296 0.016023 0.008016 -0.014721 -0.005692
# 4 0.003500 -0.001341 0.008016 0.025650 -0.010192 -0.007799
# 5 -0.008323 0.003321 -0.014721 -0.010192 0.051467 0.021641
# 6 -0.003261 0.005846 -0.005692 -0.007799 0.021641 0.032729
#
#
# Mechanical properties :
#
#
# Convention : Reuss Voigt Hill
#
# Bulk Modulus (GPa) = 39.06264 68.77562 53.91913
# Shear Modulus (GPa) = 29.78120 44.87855 37.32987
#
# Velocity S-wave (km/s) = 3.57290 4.38600 4.00016
# Velocity P-wave (km/s) = 5.81075 7.42494 6.66688
#
# Compressibility (1/GPa) = 0.02559991
#
# Stress axis : x y z
#
# Youngs Moduli (GPa) = 95.80942 90.12717 62.40990
#
# Poissons Ratio (x) = 0.31175 -0.04851
# Poissons Ratio (y) = 0.33141 0.20572
# Poissons Ratio (z) = -0.07447 0.29709
#
# Static dielectric constant tensor:
#      x y z
#    x 1.915470 0.019380 -0.119820 
#    y 0.019380 2.078780 -0.007770 
#    z -0.119820 -0.007770 2.104130 
# 
# From -- ./inp_files/152723.got.cif
#   From: 2010.05.17/outbox.cif.g08.bks.cpg/sg2_77_cif.got.tgz:152723.got - 2010.06.03 11:33:40.
