data_PCOD9031527
_publ_section_title
;
Structure prediction by ZEFSAII (Michael W. Deem and Ramdas Pophale) SiO2 
 PCOD9031527
Probable space group: P -1
;
_chemical_formula_sum "Si O2"
_cell_formula_units_Z 16
_cell_length_a 11.546521
_cell_length_b 17.909469
_cell_length_c 12.907470
_cell_angle_alpha 148.397145
_cell_angle_beta 145.251093
_cell_angle_gamma 29.538853
_cell_volume 655.116771
_symmetry_space_group_name_H-M "P -1"
_symmetry_group_IT_number 2
_symmetry_cell_setting 'triclinic'
loop_
_space_group_symop_operation_xyz
x,y,z
-x,-y,-z
loop_
_atom_site_type_symbol
_atom_site_label
_atom_site_fract_x
_atom_site_fract_y
_atom_site_fract_z
Si Si1 0.859957 0.081755 0.601347
Si Si2 0.080130 0.695822 0.850226
Si Si3 0.467452 0.475426 0.712258
Si Si4 0.229135 0.798834 0.671788
Si Si5 0.265390 0.479296 0.339002
Si Si6 0.158213 0.977617 0.187194
Si Si7 0.235018 0.431978 0.834713
Si Si8 0.400738 0.125084 0.424819
O O1 0.676478 0.282866 0.676205
O O2 0.668221 0.048458 0.479424
O O3 0.000000 0.000000 0.500000
O O4 0.102529 0.978496 0.730695
O O5 0.227593 0.553995 0.701035
O O6 0.147013 0.594683 0.886538
O O7 0.798366 0.805086 0.732619
O O8 0.188994 0.813154 0.071655
O O9 0.380655 0.477193 0.534267
O O10 0.575538 0.585148 0.958474
O O11 0.216255 0.643803 0.433107
O O12 0.525319 0.697831 0.774851
O O13 0.045805 0.853880 0.698879
O O14 0.006198 0.515462 0.217213
O O15 0.370851 0.990782 0.309835
O O16 0.000000 0.000000 0.000000
O O17 0.325784 0.276601 0.633708
#
# Coordination Sequence:
#
# PCOD9031527 Si02
#       8
#     2   2   2   2   2   2   2   2
#     4  12  26  45  70 109 150 190 242 308 367 433
#     4  11  22  41  73 107 148 188 247 310 359 436
#     4  12  24  44  71 106 148 183 247 308 357 430
#     4  11  24  45  72  99 149 197 233 308 370 424
#     4  11  24  48  71 100 147 199 243 291 373 449
#     4  10  22  43  67 106 138 183 242 300 358 425
#     4  12  23  41  74 111 136 196 251 300 360 437
#     4  11  23  43  75 104 146 197 247 298 375 437
#
# _framework density 24.423127000000001
#
# number of rings (size 3 to 8) (size 9 to 14) (size 15 to 20)
#    0.000    0.750    5.000    3.000    1.750    1.500 
#    4.500    3.750    0.000    0.000    0.000    0.000 
#    0.000    0.000    0.000    0.000    0.000    0.000 
#
# Total GULP energy -89221.683584 kJ/mol
# GULP energy per Si atom -5576.355224 kJ/mol
# Density = 2.436754 g / cm^3
# Si number density = 24.423127 Si / 1000 Ang^3
#
#
#
# Elastic Constant Matrix: (Units=GPa)
#
#
# Indices 1 2 3 4 5 6 
#
# 1 71.0064 2.1841 -1.4611 -5.7052 13.2655 -40.2580
# 2 2.1841 100.7913 12.1921 5.0876 2.7006 -13.6829
# 3 -1.4611 12.1921 70.9371 -24.2791 12.0219 1.2937
# 4 -5.7052 5.0876 -24.2791 44.2998 4.6970 5.9677
# 5 13.2655 2.7006 12.0219 4.6970 32.3411 -4.1244
# 6 -40.2580 -13.6829 1.2937 5.9677 -4.1244 60.7761
#
#
#
# Elastic Compliance Matrix: (Units=1/GPa)
#
#
# Indices 1 2 3 4 5 6 
#
# 1 0.025347 0.001350 0.002959 0.003648 -0.010100 0.015987
# 2 0.001350 0.010955 -0.003224 -0.003441 0.000716 0.003815
# 3 0.002959 -0.003224 0.021327 0.013789 -0.011044 -0.001323
# 4 0.003648 -0.003441 0.013789 0.032557 -0.011398 -0.002622
# 5 -0.010100 0.000716 -0.011044 -0.011398 0.040454 -0.002430
# 6 0.015987 0.003815 -0.001323 -0.002622 -0.002430 0.028023
#
#
# Mechanical properties :
#
#
# Convention : Reuss Voigt Hill
#
# Bulk Modulus (GPa) = 16.72298 29.84057 23.28178
# Shear Modulus (GPa) = 28.34049 42.80471 35.57260
#
# Velocity S-wave (km/s) = 3.41015 4.19098 3.82057
# Velocity P-wave (km/s) = 4.72944 5.97192 5.38662
#
# Compressibility (1/GPa) = 0.05979794
#
# Stress axis : x y z
#
# Youngs Moduli (GPa) = 39.45316 91.28545 46.88846
#
# Poissons Ratio (x) = -0.12320 -0.13874
# Poissons Ratio (y) = -0.05325 0.15115
# Poissons Ratio (z) = -0.11674 0.29428
#
# Static dielectric constant tensor:
#      x y z
#    x 2.006380 0.004080 0.019910 
#    y 0.004080 1.972720 -0.015260 
#    z 0.019910 -0.015260 1.967500 
# 
# From -- ./inp_files/524112.got.cif
#   From: 2010.05.17/outbox.cif.g08.bks.cpg/sg2_263_cif.got.tgz:524112.got - 2010.06.03 11:33:40.
