data_PCOD9031277
_publ_section_title
;
Structure prediction by ZEFSAII (Michael W. Deem and Ramdas Pophale) SiO2 
 PCOD9031277
Probable space group: P -1
;
_chemical_formula_sum "Si O2"
_cell_formula_units_Z 16
_cell_length_a 17.815411
_cell_length_b 6.001094
_cell_length_c 9.188992
_cell_angle_alpha 90.281365
_cell_angle_beta 47.389430
_cell_angle_gamma 76.772777
_cell_volume 686.111261
_symmetry_space_group_name_H-M "P -1"
_symmetry_group_IT_number 2
_symmetry_cell_setting 'triclinic'
loop_
_space_group_symop_operation_xyz
x,y,z
-x,-y,-z
loop_
_atom_site_type_symbol
_atom_site_label
_atom_site_fract_x
_atom_site_fract_y
_atom_site_fract_z
Si Si1 0.875112 0.649839 0.658985
Si Si2 0.610186 0.141435 0.721654
Si Si3 0.288295 0.859598 0.116703
Si Si4 0.202653 0.316420 0.526721
Si Si5 0.475914 0.949333 0.701203
Si Si6 0.795019 0.431332 0.996381
Si Si7 0.001828 0.243592 0.920608
Si Si8 0.669996 0.482749 0.439028
O O1 0.835799 0.540372 0.568569
O O2 0.828389 0.638899 0.880138
O O3 0.000000 0.500000 0.500000
O O4 0.817769 0.924855 0.698542
O O5 0.631302 0.242739 0.851063
O O6 0.659664 0.252824 0.526975
O O7 0.682492 0.874334 0.649660
O O8 0.502025 0.124263 0.788036
O O9 0.239624 0.685380 0.097134
O O10 0.360711 0.938237 0.901041
O O11 0.115365 0.195987 0.689968
O O12 0.227314 0.471851 0.621870
O O13 0.560515 0.690239 0.613016
O O14 0.500000 0.000000 0.500000
O O15 0.902506 0.289739 0.939809
O O16 0.696190 0.481175 0.235661
O O17 0.000000 0.500000 0.000000
O O18 0.000000 0.000000 0.000000
#
# Coordination Sequence:
#
# PCOD9031277 Si02
#       8
#     2   2   2   2   2   2   2   2
#     4  11  24  44  66  95 139 182 237 292 366 427
#     4  10  23  44  68  99 138 185 232 299 362 439
#     4  11  26  44  67 101 140 183 236 298 362 441
#     4  10  22  43  65  99 136 185 235 299 353 436
#     4  11  24  43  70 102 137 178 235 296 363 437
#     4  12  25  41  68 102 139 188 237 298 359 440
#     4  12  26  43  70 105 146 193 247 309 372 438
#     4  11  23  42  71  98 139 180 236 285 366 430
#
# _framework density 23.319831000000001
#
# number of rings (size 3 to 8) (size 9 to 14) (size 15 to 20)
#    0.000    1.000    2.500    3.375    1.750    6.000 
#    0.000    0.000    0.000    0.000    0.000    0.000 
#    0.000    0.000    0.000    0.000    0.000    0.000 
#
# Total GULP energy -89076.743637 kJ/mol
# GULP energy per Si atom -5567.296477 kJ/mol
# Density = 2.326675 g / cm^3
# Si number density = 23.319831 Si / 1000 Ang^3
#
#
#
# Elastic Constant Matrix: (Units=GPa)
#
#
# Indices 1 2 3 4 5 6 
#
# 1 110.8419 37.4757 24.0829 1.8560 5.2337 -4.3763
# 2 37.4757 47.2293 23.7943 -15.1437 4.1753 -9.3637
# 3 24.0829 23.7943 92.3288 -13.0221 3.2487 -6.1391
# 4 1.8560 -15.1437 -13.0221 34.1633 0.5247 1.8169
# 5 5.2337 4.1753 3.2487 0.5247 46.5134 -2.4200
# 6 -4.3763 -9.3637 -6.1391 1.8169 -2.4200 32.3758
#
#
#
# Elastic Compliance Matrix: (Units=1/GPa)
#
#
# Indices 1 2 3 4 5 6 
#
# 1 0.013645 -0.012618 -0.001363 -0.006758 -0.000320 -0.001708
# 2 -0.012618 0.040362 -0.004173 0.016580 -0.001676 0.008121
# 3 -0.001363 -0.004173 0.012760 0.003049 -0.000354 0.000831
# 4 -0.006758 0.016580 0.003049 0.038051 -0.001254 0.002231
# 5 -0.000320 -0.001676 -0.000354 -0.001254 0.021782 0.001103
# 6 -0.001708 0.008121 0.000831 0.002231 0.001103 0.033120
#
#
# Mechanical properties :
#
#
# Convention : Reuss Voigt Hill
#
# Bulk Modulus (GPa) = 32.83074 46.78952 39.81013
# Shear Modulus (GPa) = 24.25069 33.61364 28.93217
#
# Velocity S-wave (km/s) = 3.22827 3.80072 3.52613
# Velocity P-wave (km/s) = 5.29195 6.27443 5.80401
#
# Compressibility (1/GPa) = 0.03045926
#
# Stress axis : x y z
#
# Youngs Moduli (GPa) = 73.28788 24.77566 78.37246
#
# Poissons Ratio (x) = 0.31261 0.10681
# Poissons Ratio (y) = 0.92472 0.32707
# Poissons Ratio (z) = 0.09988 0.10339
#
# Static dielectric constant tensor:
#      x y z
#    x 1.813600 0.119520 -0.204650 
#    y 0.119520 1.944950 0.156900 
#    z -0.204650 0.156900 1.418850 
# 
# From -- ./inp_files/72324.got.cif
#   From: 2010.05.17/outbox.cif.g08.bks.cpg/sg2_37_cif.got.tgz:72324.got - 2010.06.03 11:33:40.
