data_PCOD9031715
_publ_section_title
;
Structure prediction by ZEFSAII (Michael W. Deem and Ramdas Pophale) SiO2 
 PCOD9031715
Probable space group: P -1
;
_chemical_formula_sum "Si O2"
_cell_formula_units_Z 9
_cell_length_a 7.980401
_cell_length_b 5.260905
_cell_length_c 12.289057
_cell_angle_alpha 100.871144
_cell_angle_beta 52.706254
_cell_angle_gamma 119.866407
_cell_volume 351.123974
_symmetry_space_group_name_H-M "P -1"
_symmetry_group_IT_number 2
_symmetry_cell_setting 'triclinic'
loop_
_space_group_symop_operation_xyz
x,y,z
-x,-y,-z
loop_
_atom_site_type_symbol
_atom_site_label
_atom_site_fract_x
_atom_site_fract_y
_atom_site_fract_z
Si Si1 0.510969 0.222842 0.421520
Si Si2 0.260827 0.762676 0.950117
Si Si3 0.000000 0.000000 0.500000
Si Si4 0.532192 0.434710 0.857982
Si Si5 0.953172 0.376732 0.744703
O O1 0.500000 0.500000 0.500000
O O2 0.792195 0.374759 0.286095
O O3 0.500000 0.000000 0.500000
O O4 0.274317 0.053598 0.427544
O O5 0.439178 0.628375 0.847738
O O6 0.360075 0.082212 0.881229
O O7 0.221513 0.797041 0.098680
O O8 0.000000 0.500000 0.000000
O O9 0.001896 0.826659 0.372580
O O10 0.809170 0.512292 0.743937
O O11 0.500000 0.500000 0.000000
#
# Coordination Sequence:
#
# PCOD9031715 Si02
#       5
#     2   2   1   2   2
#     4  10  24  45  66  99 137 184 237 281 345 418
#     4  11  24  43  71 106 141 182 236 288 358 420
#     4  10  24  46  70 100 142 188 232 292 356 404
#     4  10  22  43  68 100 142 183 229 291 348 419
#     4  10  23  44  71 102 142 181 237 285 352 426
#
# _framework density 25.631971
#
# number of rings (size 3 to 8) (size 9 to 14) (size 15 to 20)
#    0.000    1.778    0.000    3.333    3.111   14.222 
#    8.000    0.000    0.000    0.000    0.000    0.000 
#    0.000    0.000    0.000    0.000    0.000    0.000 
#
# Total GULP energy -50102.341681 kJ/mol
# GULP energy per Si atom -5566.926853 kJ/mol
# Density = 2.557363 g / cm^3
# Si number density = 25.631971 Si / 1000 Ang^3
#
#
#
# Elastic Constant Matrix: (Units=GPa)
#
#
# Indices 1 2 3 4 5 6 
#
# 1 159.1970 75.8282 58.4530 -15.1926 -35.4186 31.5754
# 2 75.8282 161.9810 45.4507 -1.1029 -8.6028 -0.2364
# 3 58.4530 45.4507 144.9660 -1.7529 -29.1826 -9.5328
# 4 -15.1926 -1.1029 -1.7529 47.0339 12.2507 -11.5668
# 5 -35.4186 -8.6028 -29.1826 12.2507 43.1985 -0.5497
# 6 31.5754 -0.2364 -9.5328 -11.5668 -0.5497 57.9730
#
#
#
# Elastic Compliance Matrix: (Units=1/GPa)
#
#
# Indices 1 2 3 4 5 6 
#
# 1 0.012627 -0.004808 -0.002537 0.000129 0.007554 -0.007217
# 2 -0.004808 0.008606 -0.001206 -0.000017 -0.003007 0.002424
# 3 -0.002537 -0.001206 0.009332 -0.000936 0.004285 0.002765
# 4 0.000129 -0.000017 -0.000936 0.024306 -0.007365 0.004555
# 5 0.007554 -0.003007 0.004285 -0.007365 0.033668 -0.004572
# 6 -0.007217 0.002424 0.002765 0.004555 -0.004572 0.022510
#
#
# Mechanical properties :
#
#
# Convention : Reuss Voigt Hill
#
# Bulk Modulus (GPa) = 74.26621 91.73420 83.00021
# Shear Modulus (GPa) = 37.69607 48.73521 43.21564
#
# Velocity S-wave (km/s) = 3.83909 4.36517 4.11055
# Velocity P-wave (km/s) = 6.97771 7.82771 7.41490
#
# Compressibility (1/GPa) = 0.01346507
#
# Stress axis : x y z
#
# Youngs Moduli (GPa) = 79.19367 116.19278 107.15668
#
# Poissons Ratio (x) = 0.55865 0.27181
# Poissons Ratio (y) = 0.38076 0.12922
# Poissons Ratio (z) = 0.20088 0.14011
#
# Static dielectric constant tensor:
#      x y z
#    x 2.054620 -0.052540 0.046110 
#    y -0.052540 1.961930 -0.029640 
#    z 0.046110 -0.029640 2.102770 
# 
# From -- ./inp_files/86054.got.cif
#   From: 2010.05.17/outbox.cif.g08.bks.cpg/sg2_44_cif.got.tgz:86054.got - 2010.06.03 11:33:40.
