data_PCOD9031085
_publ_section_title
;
Structure prediction by ZEFSAII (Michael W. Deem and Ramdas Pophale) SiO2 
 PCOD9031085
Probable space group: P -1
;
_chemical_formula_sum "Si O2"
_cell_formula_units_Z 16
_cell_length_a 7.955406
_cell_length_b 9.618211
_cell_length_c 20.045206
_cell_angle_alpha 48.402245
_cell_angle_beta 65.317059
_cell_angle_gamma 47.785476
_cell_volume 848.389890
_symmetry_space_group_name_H-M "P -1"
_symmetry_group_IT_number 2
_symmetry_cell_setting 'triclinic'
loop_
_space_group_symop_operation_xyz
x,y,z
-x,-y,-z
loop_
_atom_site_type_symbol
_atom_site_label
_atom_site_fract_x
_atom_site_fract_y
_atom_site_fract_z
Si Si1 0.542638 0.562431 0.399804
Si Si2 0.868525 0.080239 0.195146
Si Si3 0.263560 0.176414 0.518670
Si Si4 0.113659 0.347912 0.632656
Si Si5 0.423444 0.295720 0.130696
Si Si6 0.123478 0.873358 0.588264
Si Si7 0.837844 0.184905 0.021862
Si Si8 0.155855 0.074195 0.267302
O O1 0.500000 0.500000 0.500000
O O2 0.745796 0.593691 0.363299
O O3 0.634968 0.352428 0.401067
O O4 0.322924 0.800455 0.335917
O O5 0.592940 0.240218 0.182532
O O6 0.947992 0.115037 0.099656
O O7 0.975529 0.132313 0.220980
O O8 0.930721 0.826633 0.272875
O O9 0.268109 0.226464 0.579475
O O10 0.113883 0.418203 0.429044
O O11 0.500000 0.000000 0.500000
O O12 0.138369 0.051802 0.572060
O O13 0.602542 0.208548 0.067201
O O14 0.306952 0.165510 0.197433
O O15 0.240405 0.564469 0.066052
O O16 0.975080 0.822414 0.673968
O O17 0.000000 0.000000 0.500000
O O18 0.000000 0.000000 0.000000
#
# Coordination Sequence:
#
# PCOD9031085 Si02
#       8
#     2   2   2   2   2   2   2   2
#     4  12  23  39  61  83 129 177 216 268 321 357
#     4  10  22  43  64  96 123 162 212 265 315 387
#     4  11  24  38  59  87 125 173 221 264 320 363
#     4  11  22  41  58  87 128 166 217 268 310 378
#     4   9  22  43  70  92 128 168 196 262 342 376
#     4  12  24  40  57  91 124 175 227 258 309 381
#     4   9  20  47  71  95 128 159 204 259 332 406
#     4  12  24  42  64  94 134 165 221 264 316 376
#
# _framework density 18.859252999999999
#
# number of rings (size 3 to 8) (size 9 to 14) (size 15 to 20)
#    0.750    0.500    5.000    0.750    3.500    2.500 
#    4.500    0.625    0.000    0.000    0.000    0.000 
#    0.000    0.000    0.000    0.000    0.000    0.000 
#
# Total GULP energy -89276.344162 kJ/mol
# GULP energy per Si atom -5579.771510 kJ/mol
# Density = 1.881633 g / cm^3
# Si number density = 18.859253 Si / 1000 Ang^3
#
#
#
# Elastic Constant Matrix: (Units=GPa)
#
#
# Indices 1 2 3 4 5 6 
#
# 1 78.3604 16.8944 41.3634 0.0529 1.9353 7.6294
# 2 16.8944 121.2346 56.1144 -5.8415 5.5262 -15.7594
# 3 41.3634 56.1144 113.6188 -14.5257 4.5938 -4.9849
# 4 0.0529 -5.8415 -14.5257 21.6339 2.0822 4.3615
# 5 1.9353 5.5262 4.5938 2.0822 31.2518 1.1494
# 6 7.6294 -15.7594 -4.9849 4.3615 1.1494 26.5220
#
#
#
# Elastic Compliance Matrix: (Units=1/GPa)
#
#
# Indices 1 2 3 4 5 6 
#
# 1 0.016933 -0.000129 -0.006821 -0.003555 0.000422 -0.005664
# 2 -0.000129 0.011648 -0.005601 -0.001746 -0.001342 0.006251
# 3 -0.006821 -0.005601 0.015245 0.008856 -0.001422 0.000105
# 4 -0.003555 -0.001746 0.008856 0.053506 -0.004081 -0.006972
# 5 0.000422 -0.001342 -0.001422 -0.004081 0.032761 -0.001935
# 6 -0.005664 0.006251 0.000105 -0.006972 -0.001935 0.044298
#
#
# Mechanical properties :
#
#
# Convention : Reuss Voigt Hill
#
# Bulk Modulus (GPa) = 53.40411 60.21755 56.81083
# Shear Modulus (GPa) = 24.30311 29.13765 26.72038
#
# Velocity S-wave (km/s) = 3.59368 3.93492 3.76817
# Velocity P-wave (km/s) = 6.75263 7.25562 7.00864
#
# Compressibility (1/GPa) = 0.01872515
#
# Stress axis : x y z
#
# Youngs Moduli (GPa) = 59.05540 85.84851 65.59624
#
# Poissons Ratio (x) = 0.01111 0.44741
# Poissons Ratio (y) = 0.00764 0.36737
# Poissons Ratio (z) = 0.40280 0.48080
#
# Static dielectric constant tensor:
#      x y z
#    x 1.690660 -0.008230 -0.010380 
#    y -0.008230 1.642650 0.008490 
#    z -0.010380 0.008490 1.668440 
# 
# From -- ./inp_files/586595.got.cif
#   From: 2010.05.17/outbox.cif.g08.bks.cpg/sg2_294_cif.got.tgz:586595.got - 2010.06.03 11:33:40.
