data_PCOD9031202
_publ_section_title
;
Structure prediction by ZEFSAII (Michael W. Deem and Ramdas Pophale) SiO2 
 PCOD9031202
Probable space group: P -1
;
_chemical_formula_sum "Si O2"
_cell_formula_units_Z 16
_cell_length_a 13.449806
_cell_length_b 8.294383
_cell_length_c 8.501035
_cell_angle_alpha 86.430214
_cell_angle_beta 104.966599
_cell_angle_gamma 51.568356
_cell_volume 685.888798
_symmetry_space_group_name_H-M "P -1"
_symmetry_group_IT_number 2
_symmetry_cell_setting 'triclinic'
loop_
_space_group_symop_operation_xyz
x,y,z
-x,-y,-z
loop_
_atom_site_type_symbol
_atom_site_label
_atom_site_fract_x
_atom_site_fract_y
_atom_site_fract_z
Si Si1 0.781535 0.272814 0.276286
Si Si2 0.020643 0.337149 0.893699
Si Si3 0.773842 0.958114 0.490455
Si Si4 0.958624 0.913742 0.803541
Si Si5 0.201690 0.604593 0.387991
Si Si6 0.289247 0.139036 0.821223
Si Si7 0.505139 0.179815 0.550371
Si Si8 0.535468 0.730004 0.103702
O O1 0.795707 0.080822 0.367807
O O2 0.813862 0.357041 0.432879
O O3 0.626787 0.474870 0.150351
O O4 0.892762 0.188563 0.192932
O O5 0.892051 0.436435 0.722637
O O6 0.155496 0.236713 0.857800
O O7 0.040386 0.156211 0.018015
O O8 0.000000 0.500000 0.000000
O O9 0.749255 0.828337 0.379845
O O10 0.635634 0.124993 0.524144
O O11 0.900423 0.834363 0.668169
O O12 0.854313 0.169467 0.719612
O O13 0.361172 0.410473 0.431502
O O14 0.355245 0.240707 0.888720
O O15 0.409335 0.885825 0.925833
O O16 0.516349 0.183880 0.744030
O O17 0.500000 0.000000 0.500000
#
# Coordination Sequence:
#
# PCOD9031202 Si02
#       8
#     2   2   2   2   2   2   2   2
#     4  10  22  43  65  94 126 166 213 261 316 379
#     4  12  26  39  65  97 126 172 217 259 315 380
#     4  11  23  39  69  91 121 170 209 259 316 380
#     4  11  23  43  66  93 134 164 213 268 312 379
#     4  10  24  42  66  91 129 170 206 267 323 368
#     4  11  23  41  61  91 130 166 214 257 315 379
#     4  11  23  42  66  94 128 165 215 264 316 376
#     4  10  23  40  62  90 133 167 203 267 319 365
#
# _framework density 23.327397000000001
#
# number of rings (size 3 to 8) (size 9 to 14) (size 15 to 20)
#    0.000    1.250    1.250    4.875    3.500    7.000 
#    0.000    3.125    0.000    0.000    0.000    0.000 
#    0.000    0.000    0.000    0.000    0.000    0.000 
#
# Total GULP energy -89618.268977 kJ/mol
# GULP energy per Si atom -5601.141811 kJ/mol
# Density = 2.327430 g / cm^3
# Si number density = 23.327397 Si / 1000 Ang^3
#
#
#
# Elastic Constant Matrix: (Units=GPa)
#
#
# Indices 1 2 3 4 5 6 
#
# 1 117.4329 8.5889 26.7641 18.4954 -9.8984 -35.1551
# 2 8.5889 72.3612 11.3590 0.9719 -10.7664 -3.4362
# 3 26.7641 11.3590 97.1609 -4.0924 9.3582 -6.7833
# 4 18.4954 0.9719 -4.0924 28.1094 4.8328 -0.6860
# 5 -9.8984 -10.7664 9.3582 4.8328 38.9485 14.2368
# 6 -35.1551 -3.4362 -6.7833 -0.6860 14.2368 35.2024
#
#
#
# Elastic Compliance Matrix: (Units=1/GPa)
#
#
# Indices 1 2 3 4 5 6 
#
# 1 0.015271 -0.000295 -0.003722 -0.010392 0.000886 0.013943
# 2 -0.000295 0.014977 -0.002361 -0.001629 0.005381 -0.001495
# 3 -0.003722 -0.002361 0.012403 0.005304 -0.005522 0.000779
# 4 -0.010392 -0.001629 0.005304 0.044464 -0.007888 -0.005458
# 5 0.000886 0.005381 -0.005522 -0.007888 0.034761 -0.013866
# 6 0.013943 -0.001495 0.000779 -0.005458 -0.013866 0.047837
#
#
# Mechanical properties :
#
#
# Convention : Reuss Voigt Hill
#
# Bulk Modulus (GPa) = 33.44977 42.26432 37.85705
# Shear Modulus (GPa) = 25.98299 36.46826 31.22563
#
# Velocity S-wave (km/s) = 3.34105 3.95818 3.66263
# Velocity P-wave (km/s) = 5.40868 6.24874 5.84383
#
# Compressibility (1/GPa) = 0.02989557
#
# Stress axis : x y z
#
# Youngs Moduli (GPa) = 65.48482 66.77044 80.62522
#
# Poissons Ratio (x) = 0.01968 0.30006
# Poissons Ratio (y) = 0.01930 0.19036
# Poissons Ratio (z) = 0.24371 0.15765
#
# Static dielectric constant tensor:
#      x y z
#    x 1.852280 0.070050 0.016980 
#    y 0.070050 1.911320 0.015180 
#    z 0.016980 0.015180 1.869930 
# 
# From -- ./inp_files/279562.got.cif
#   From: 2010.05.17/outbox.cif.g08.bks.cpg/sg2_140_cif.got.tgz:279562.got - 2010.06.03 11:33:40.
