data_PCOD9031607
_publ_section_title
;
Structure prediction by ZEFSAII (Michael W. Deem and Ramdas Pophale) SiO2 
 PCOD9031607
Probable space group: P -1
;
_chemical_formula_sum "Si O2"
_cell_formula_units_Z 15
_cell_length_a 9.491350
_cell_length_b 13.612172
_cell_length_c 15.220940
_cell_angle_alpha 149.872384
_cell_angle_beta 121.258745
_cell_angle_gamma 78.562880
_cell_volume 685.011951
_symmetry_space_group_name_H-M "P -1"
_symmetry_group_IT_number 2
_symmetry_cell_setting 'triclinic'
loop_
_space_group_symop_operation_xyz
x,y,z
-x,-y,-z
loop_
_atom_site_type_symbol
_atom_site_label
_atom_site_fract_x
_atom_site_fract_y
_atom_site_fract_z
Si Si1 0.876087 0.057382 0.569365
Si Si2 0.594530 0.566857 0.178851
Si Si3 0.772263 0.625779 0.957068
Si Si4 0.339208 0.114969 0.993859
Si Si5 0.314406 0.743927 0.923788
Si Si6 0.500000 0.500000 0.500000
Si Si7 0.326133 0.801824 0.523450
Si Si8 0.848771 0.411991 0.520588
O O1 0.727247 0.074733 0.471413
O O2 0.757888 0.849909 0.442669
O O3 0.000000 0.000000 0.500000
O O4 0.034995 0.293513 0.859216
O O5 0.413434 0.486444 0.123505
O O6 0.684469 0.426664 0.134389
O O7 0.500000 0.500000 0.000000
O O8 0.799279 0.849177 0.088008
O O9 0.702587 0.423537 0.706261
O O10 0.547522 0.235132 0.096797
O O11 0.376246 0.263638 0.209037
O O12 0.242669 0.832977 0.754814
O O13 0.080099 0.622325 0.734374
O O14 0.451870 0.012408 0.218310
O O15 0.705593 0.503713 0.551565
O O16 0.168503 0.694148 0.469133
#
# Coordination Sequence:
#
# PCOD9031607 Si02
#       8
#     2   2   2   2   2   1   2   2
#     4  12  21  36  62  89 128 183 218 260 322 383
#     4  11  20  37  59  89 129 176 223 255 313 394
#     4  11  23  39  61  95 134 173 222 273 320 390
#     4  10  23  47  68 100 136 170 216 282 336 395
#     4  10  22  43  67  95 140 178 214 271 333 390
#     4  12  24  48  76 100 128 166 230 282 342 408
#     4  11  23  40  61  96 138 172 223 275 317 394
#     4  11  24  45  73  97 133 175 220 276 344 395
#
# _framework density 21.897428999999999
#
# number of rings (size 3 to 8) (size 9 to 14) (size 15 to 20)
#    0.000    1.067    4.000    4.000    0.000    2.133 
#    4.800    3.333    0.000    0.000    0.000    0.000 
#    0.000    0.000    0.000    0.000    0.000    0.000 
#
# Total GULP energy -83525.959565 kJ/mol
# GULP energy per Si atom -5568.397304 kJ/mol
# Density = 2.184759 g / cm^3
# Si number density = 21.897429 Si / 1000 Ang^3
#
#
#
# Elastic Constant Matrix: (Units=GPa)
#
#
# Indices 1 2 3 4 5 6 
#
# 1 78.4924 19.7684 97.5738 -1.1747 -4.4873 -17.8929
# 2 19.7684 64.4468 32.0796 -7.7317 2.3503 -4.3004
# 3 97.5738 32.0796 159.6984 0.2693 -9.4233 -3.1038
# 4 -1.1747 -7.7317 0.2693 25.5040 2.5359 -2.4531
# 5 -4.4873 2.3503 -9.4233 2.5359 51.8505 0.4027
# 6 -17.8929 -4.3004 -3.1038 -2.4531 0.4027 28.2663
#
#
#
# Elastic Compliance Matrix: (Units=1/GPa)
#
#
# Indices 1 2 3 4 5 6 
#
# 1 0.107596 0.005849 -0.065956 0.013896 -0.004109 0.063022
# 2 0.005849 0.018694 -0.007338 0.006831 -0.002058 0.006363
# 3 -0.065956 -0.007338 0.047540 -0.009876 0.004047 -0.038562
# 4 0.013896 0.006831 -0.009876 0.043545 -0.003129 0.012575
# 5 -0.004109 -0.002058 0.004047 -0.003129 0.019936 -0.003026
# 6 0.063022 0.006363 -0.038562 0.012575 -0.003026 0.073140
#
#
# Mechanical properties :
#
#
# Convention : Reuss Voigt Hill
#
# Bulk Modulus (GPa) = 25.68031 66.83128 46.25580
# Shear Modulus (GPa) = 10.90935 31.33856 21.12396
#
# Velocity S-wave (km/s) = 2.23447 3.78716 3.10930
# Velocity P-wave (km/s) = 4.29070 7.05052 5.83609
#
# Compressibility (1/GPa) = 0.03894034
#
# Stress axis : x y z
#
# Youngs Moduli (GPa) = 9.29401 53.49183 21.03483
#
# Poissons Ratio (x) = -0.31287 1.38737
# Poissons Ratio (y) = -0.05436 0.15436
# Poissons Ratio (z) = 0.61300 0.39254
#
# Static dielectric constant tensor:
#      x y z
#    x 1.757760 -0.030520 -0.004380 
#    y -0.030520 1.842040 0.003850 
#    z -0.004380 0.003850 1.866840 
# 
# From -- ./inp_files/313875.got.cif
#   From: 2010.05.17/outbox.cif.g08.bks.cpg/sg2_157_cif.got.tgz:313875.got - 2010.06.03 11:33:40.
