data_PCOD9031114
_publ_section_title
;
Structure prediction by ZEFSAII (Michael W. Deem and Ramdas Pophale) SiO2 
 PCOD9031114
Probable space group: P -1
;
_chemical_formula_sum "Si O2"
_cell_formula_units_Z 14
_cell_length_a 8.097451
_cell_length_b 5.999706
_cell_length_c 15.619847
_cell_angle_alpha 62.730962
_cell_angle_beta 120.606495
_cell_angle_gamma 110.999869
_cell_volume 572.729881
_symmetry_space_group_name_H-M "P -1"
_symmetry_group_IT_number 2
_symmetry_cell_setting 'triclinic'
loop_
_space_group_symop_operation_xyz
x,y,z
-x,-y,-z
loop_
_atom_site_type_symbol
_atom_site_label
_atom_site_fract_x
_atom_site_fract_y
_atom_site_fract_z
Si Si1 0.157254 0.486251 0.664433
Si Si2 0.179274 0.451438 0.322636
Si Si3 0.132172 0.925551 0.124779
Si Si4 0.465773 0.298077 0.197542
Si Si5 0.533873 0.264802 0.413972
Si Si6 0.592922 0.288880 0.003970
Si Si7 0.074929 0.930273 0.782816
O O1 0.300086 0.631395 0.750549
O O2 0.247329 0.615577 0.578231
O O3 0.937505 0.488746 0.634604
O O4 0.189691 0.196753 0.731278
O O5 0.141235 0.637500 0.202511
O O6 0.407349 0.453569 0.392729
O O7 0.071552 0.179244 0.310877
O O8 0.352598 0.074142 0.149647
O O9 0.039290 0.018224 0.170426
O O10 0.000000 0.000000 0.000000
O O11 0.433413 0.223971 0.300874
O O12 0.378161 0.547693 0.104330
O O13 0.500000 0.000000 0.500000
O O14 0.780353 0.249229 0.112955
O O15 0.500000 0.500000 0.000000
O O16 0.500000 0.000000 0.000000
#
# Coordination Sequence:
#
# PCOD9031114 Si02
#       7
#     2   2   2   2   2   2   2
#     4   9  22  42  68  98 131 175 235 288 362 423
#     4  11  23  42  70  94 142 179 226 301 351 437
#     4  11  25  39  66 103 141 185 234 286 361 437
#     4  10  22  43  64  98 142 176 239 292 344 436
#     4  10  23  46  70  96 134 181 238 299 364 424
#     4  12  25  39  65 103 144 194 239 293 366 446
#     4  11  22  42  63  97 142 183 230 288 361 439
#
# _framework density 24.444331999999999
#
# number of rings (size 3 to 8) (size 9 to 14) (size 15 to 20)
#    0.857    0.571    2.857    1.714    6.000    4.000 
#    0.000    1.429    0.000    0.000    0.000    0.000 
#    0.000    0.000    0.000    0.000    0.000    0.000 
#
# Total GULP energy -78092.911477 kJ/mol
# GULP energy per Si atom -5578.065105 kJ/mol
# Density = 2.438870 g / cm^3
# Si number density = 24.444332 Si / 1000 Ang^3
#
#
#
# Elastic Constant Matrix: (Units=GPa)
#
#
# Indices 1 2 3 4 5 6 
#
# 1 88.4417 24.3867 23.2905 -29.6464 -22.5034 -16.3251
# 2 24.3867 87.5237 35.1503 -2.6843 -13.4606 11.3296
# 3 23.2905 35.1503 119.9734 -19.0526 -44.1962 -8.8956
# 4 -29.6464 -2.6843 -19.0526 47.3513 5.8045 -1.6909
# 5 -22.5034 -13.4606 -44.1962 5.8045 20.3251 -18.3569
# 6 -16.3251 11.3296 -8.8956 -1.6909 -18.3569 29.9803
#
#
#
# Elastic Compliance Matrix: (Units=1/GPa)
#
#
# Indices 1 2 3 4 5 6 
#
# 1 0.008445 -0.000530 -0.008579 0.003812 -0.019052 -0.009198
# 2 -0.000530 0.012762 0.000758 -0.000663 0.011756 0.002274
# 3 -0.008579 0.000758 0.002263 -0.002942 -0.016237 -0.014394
# 4 0.003812 -0.000663 -0.002942 0.023944 -0.015482 -0.006676
# 5 -0.019052 0.011756 -0.016237 -0.015482 -0.030239 -0.039023
# 6 -0.009198 0.002274 -0.014394 -0.006676 -0.039023 -0.001054
#
#
# Mechanical properties :
#
#
# Convention : Reuss Voigt Hill
#
# Bulk Modulus (GPa) = 147.79419 51.28819 99.54119
# Shear Modulus (GPa) = 142.53224 33.73876 88.13550
#
# Velocity S-wave (km/s) = 7.64431 3.71917 6.01115
# Velocity P-wave (km/s) = 11.76889 6.28253 9.43337
#
# Compressibility (1/GPa) = 0.00676617
#
# Stress axis : x y z
#
# Youngs Moduli (GPa) = 118.41808 78.35664 441.92905
#
# Poissons Ratio (x) = 0.04153 3.79143
# Poissons Ratio (y) = 0.06277 -0.33480
# Poissons Ratio (z) = 1.01594 -0.05936
#
# Static dielectric constant tensor:
#      x y z
#    x 2.069130 0.000010 -0.030280 
#    y 0.000010 1.964710 0.013440 
#    z -0.030280 0.013440 1.920290 
# 
# From -- ./inp_files/115984.got.cif
#   From: 2010.05.17/outbox.cif.g08.bks.cpg/sg2_58_cif.got.tgz:115984.got - 2010.06.03 11:33:40.
