data_PCOD9031918
_publ_section_title
;
Structure prediction by ZEFSAII (Michael W. Deem and Ramdas Pophale) SiO2 
 PCOD9031918
Probable space group: P -1
;
_chemical_formula_sum "Si O2"
_cell_formula_units_Z 13
_cell_length_a 8.946534
_cell_length_b 7.943906
_cell_length_c 10.685155
_cell_angle_alpha 90.538963
_cell_angle_beta 107.913657
_cell_angle_gamma 54.819596
_cell_volume 576.685974
_symmetry_space_group_name_H-M "P -1"
_symmetry_group_IT_number 2
_symmetry_cell_setting 'triclinic'
loop_
_space_group_symop_operation_xyz
x,y,z
-x,-y,-z
loop_
_atom_site_type_symbol
_atom_site_label
_atom_site_fract_x
_atom_site_fract_y
_atom_site_fract_z
Si Si1 0.256562 0.022676 0.951061
Si Si2 0.307017 0.730703 0.552112
Si Si3 0.405338 0.176556 0.789549
Si Si4 0.031822 0.395770 0.291474
Si Si5 0.021654 0.962943 0.709164
Si Si6 0.000000 0.500000 0.000000
Si Si7 0.606097 0.701630 0.469475
O O1 0.364232 0.033096 0.856176
O O2 0.143272 0.246713 0.992281
O O3 0.104361 0.985351 0.858234
O O4 0.424394 0.844275 0.085318
O O5 0.190790 0.855453 0.646471
O O6 0.463788 0.768081 0.551054
O O7 0.392173 0.489290 0.587259
O O8 0.154461 0.819005 0.397021
O O9 0.464914 0.133357 0.659788
O O10 0.194545 0.406642 0.737905
O O11 0.181542 0.377576 0.428994
O O12 0.043971 0.186739 0.295696
O O13 0.073593 0.434113 0.163832
#
# Coordination Sequence:
#
# PCOD9031918 Si02
#       7
#     2   2   2   2   2   1   2
#     4  10  24  44  68  96 138 174 231 278 338 401
#     4  10  24  41  66 102 138 173 232 271 341 388
#     4  10  22  43  68  99 133 184 222 272 338 403
#     4  11  24  42  71  98 140 177 224 272 346 391
#     4  11  24  44  66 102 134 182 215 287 338 402
#     4  10  24  46  64  98 126 180 222 280 328 402
#     4  11  23  44  68 101 136 182 225 280 319 416
#
# _framework density 22.5426
#
# number of rings (size 3 to 8) (size 9 to 14) (size 15 to 20)
#    0.000    1.538    1.538    2.308    6.462    5.538 
#    5.538    0.000    0.000    0.000    0.000    0.000 
#    0.000    0.000    0.000    0.000    0.000    0.000 
#
# Total GULP energy -72414.932597 kJ/mol
# GULP energy per Si atom -5570.379431 kJ/mol
# Density = 2.249129 g / cm^3
# Si number density = 22.542600 Si / 1000 Ang^3
#
#
#
# Elastic Constant Matrix: (Units=GPa)
#
#
# Indices 1 2 3 4 5 6 
#
# 1 60.6555 39.4958 42.5752 8.4426 7.5820 -4.3733
# 2 39.4958 50.8196 26.2029 0.4435 9.7800 -3.6281
# 3 42.5752 26.2029 137.7589 -10.1276 3.9128 1.9782
# 4 8.4426 0.4435 -10.1276 21.7746 8.4003 0.2467
# 5 7.5820 9.7800 3.9128 8.4003 31.0648 -3.4022
# 6 -4.3733 -3.6281 1.9782 0.2467 -3.4022 22.5727
#
#
#
# Elastic Compliance Matrix: (Units=1/GPa)
#
#
# Indices 1 2 3 4 5 6 
#
# 1 0.049207 -0.033289 -0.011154 -0.026679 0.007816 0.006630
# 2 -0.033289 0.045889 0.003238 0.018026 -0.011750 -0.001326
# 3 -0.011154 0.003238 0.010990 0.010513 -0.002869 -0.003151
# 4 -0.026679 0.018026 0.010513 0.068496 -0.019768 -0.006921
# 5 0.007816 -0.011750 -0.002869 -0.019768 0.040366 0.006177
# 6 0.006630 -0.001326 -0.003151 -0.006921 0.006177 0.046656
#
#
# Mechanical properties :
#
#
# Convention : Reuss Voigt Hill
#
# Bulk Modulus (GPa) = 42.23983 51.75353 46.99668
# Shear Modulus (GPa) = 14.20833 24.47977 19.34405
#
# Velocity S-wave (km/s) = 2.51328 3.29893 2.93253
# Velocity P-wave (km/s) = 5.21541 6.12523 5.68854
#
# Compressibility (1/GPa) = 0.02367434
#
# Stress axis : x y z
#
# Youngs Moduli (GPa) = 20.32243 21.79181 90.99059
#
# Poissons Ratio (x) = 0.72543 1.01494
# Poissons Ratio (y) = 0.67652 -0.29460
# Poissons Ratio (z) = 0.22668 -0.07056
#
# Static dielectric constant tensor:
#      x y z
#    x 1.880890 -0.036840 -0.018950 
#    y -0.036840 1.804420 -0.012700 
#    z -0.018950 -0.012700 1.794610 
# 
# From -- ./inp_files/155025.got.cif
#   From: 2010.05.17/outbox.cif.g08.bks.cpg/sg2_78_cif.got.tgz:155025.got - 2010.06.03 11:33:40.
