data_PCOD9031919
_publ_section_title
;
Structure prediction by ZEFSAII (Michael W. Deem and Ramdas Pophale) SiO2 
 PCOD9031919
Probable space group: P -1
;
_chemical_formula_sum "Si O2"
_cell_formula_units_Z 15
_cell_length_a 9.261801
_cell_length_b 11.316131
_cell_length_c 14.020645
_cell_angle_alpha 50.689939
_cell_angle_beta 109.755915
_cell_angle_gamma 68.923965
_cell_volume 658.933097
_symmetry_space_group_name_H-M "P -1"
_symmetry_group_IT_number 2
_symmetry_cell_setting 'triclinic'
loop_
_space_group_symop_operation_xyz
x,y,z
-x,-y,-z
loop_
_atom_site_type_symbol
_atom_site_label
_atom_site_fract_x
_atom_site_fract_y
_atom_site_fract_z
Si Si1 0.705901 0.782872 0.973555
Si Si2 0.297535 0.486352 0.767620
Si Si3 0.904160 0.808573 0.829465
Si Si4 0.228943 0.004080 0.986966
Si Si5 0.241011 0.791327 0.290405
Si Si6 0.512648 0.593782 0.861436
Si Si7 0.500000 0.000000 0.500000
Si Si8 0.736898 0.885515 0.417459
O O1 0.858742 0.721719 0.948388
O O2 0.783275 0.815876 0.067210
O O3 0.421963 0.041244 0.746974
O O4 0.723878 0.591303 0.098640
O O5 0.517989 0.231235 0.890837
O O6 0.382642 0.592522 0.751648
O O7 0.024927 0.681813 0.563534
O O8 0.795121 0.057699 0.711123
O O9 0.753749 0.869165 0.673627
O O10 0.199973 0.597503 0.997622
O O11 0.230552 0.898540 0.136285
O O12 0.992401 0.140657 0.801720
O O13 0.500000 0.500000 0.500000
O O14 0.371586 0.863637 0.703966
O O15 0.500000 0.500000 0.000000
O O16 0.343792 0.151929 0.490236
#
# Coordination Sequence:
#
# PCOD9031919 Si02
#       8
#     2   2   2   2   2   2   1   2
#     4  10  24  44  67  96 137 176 222 282 335 398
#     4  12  24  43  70  97 137 178 224 280 338 395
#     4  10  23  45  68  98 135 178 224 276 338 401
#     4  10  23  42  67 102 131 174 226 275 335 405
#     4  10  22  43  68  99 134 174 220 277 339 399
#     4  12  24  43  67  94 139 178 220 279 334 394
#     4  10  24  42  68 100 130 174 232 272 324 402
#     4  11  26  42  66 102 133 180 230 270 338 398
#
# _framework density 22.764071000000001
#
# number of rings (size 3 to 8) (size 9 to 14) (size 15 to 20)
#    0.000    1.333    2.667    1.600    1.867    8.000 
#    0.000    0.000    0.000    0.000    0.000    0.000 
#    0.000    0.000    0.000    0.000    0.000    0.000 
#
# Total GULP energy -83679.333099 kJ/mol
# GULP energy per Si atom -5578.622207 kJ/mol
# Density = 2.271226 g / cm^3
# Si number density = 22.764071 Si / 1000 Ang^3
#
#
#
# Elastic Constant Matrix: (Units=GPa)
#
#
# Indices 1 2 3 4 5 6 
#
# 1 104.0646 28.2658 42.5390 -4.9028 49.9500 10.9078
# 2 28.2658 66.8715 26.3222 -1.4024 7.9879 17.6919
# 3 42.5390 26.3222 100.9523 -10.4136 45.9712 8.5850
# 4 -4.9028 -1.4024 -10.4136 39.0160 -0.3286 11.6230
# 5 49.9500 7.9879 45.9712 -0.3286 42.9071 -6.2103
# 6 10.9078 17.6919 8.5850 11.6230 -6.2103 33.3269
#
#
#
# Elastic Compliance Matrix: (Units=1/GPa)
#
#
# Indices 1 2 3 4 5 6 
#
# 1 0.067435 -0.012141 0.045398 0.038621 -0.134110 -0.065781
# 2 -0.012141 0.021487 -0.010901 -0.003701 0.021893 0.000746
# 3 0.045398 -0.010901 0.057509 0.037344 -0.120750 -0.059411
# 4 0.038621 -0.003701 0.037344 0.056581 -0.092128 -0.057197
# 5 -0.134110 0.021893 -0.120750 -0.092128 0.326655 0.156378
# 6 -0.065781 0.000746 -0.059411 -0.057197 0.156378 0.115533
#
#
# Mechanical properties :
#
#
# Convention : Reuss Voigt Hill
#
# Bulk Modulus (GPa) = 5.23166 51.79362 28.51264
# Shear Modulus (GPa) = 7.52782 34.70075 21.11428
#
# Velocity S-wave (km/s) = 1.82046 3.90855 3.04884
# Velocity P-wave (km/s) = 2.59267 6.57044 4.99463
#
# Compressibility (1/GPa) = 0.19114380
#
# Stress axis : x y z
#
# Youngs Moduli (GPa) = 14.82901 46.54010 17.38844
#
# Poissons Ratio (x) = 0.56504 -0.78940
# Poissons Ratio (y) = 0.18004 0.18955
# Poissons Ratio (z) = -0.67321 0.50734
#
# Static dielectric constant tensor:
#      x y z
#    x 1.878580 -0.000650 -0.023990 
#    y -0.000650 1.850940 0.021110 
#    z -0.023990 0.021110 1.858550 
# 
# From -- ./inp_files/36921.got.cif
#   From: 2010.05.17/outbox.cif.g08.bks.cpg/sg2_19_cif.got.tgz:36921.got - 2010.06.03 11:33:40.
