data_PCOD9031044
_publ_section_title
;
Structure prediction by ZEFSAII (Michael W. Deem and Ramdas Pophale) SiO2 
 PCOD9031044
Probable space group: P -1
;
_chemical_formula_sum "Si O2"
_cell_formula_units_Z 16
_cell_length_a 7.124922
_cell_length_b 7.654739
_cell_length_c 19.998092
_cell_angle_alpha 70.931894
_cell_angle_beta 120.460670
_cell_angle_gamma 135.076560
_cell_volume 662.961528
_symmetry_space_group_name_H-M "P -1"
_symmetry_group_IT_number 2
_symmetry_cell_setting 'triclinic'
loop_
_space_group_symop_operation_xyz
x,y,z
-x,-y,-z
loop_
_atom_site_type_symbol
_atom_site_label
_atom_site_fract_x
_atom_site_fract_y
_atom_site_fract_z
Si Si1 0.504516 0.972686 0.891125
Si Si2 0.101418 0.447560 0.590192
Si Si3 0.249731 0.724226 0.321778
Si Si4 0.898027 0.251381 0.268510
Si Si5 0.868204 0.851324 0.903460
Si Si6 0.089927 0.029879 0.589347
Si Si7 0.424341 0.689864 0.032824
Si Si8 0.597598 0.806498 0.732468
O O1 0.275511 0.926524 0.802479
O O2 0.725657 0.957461 0.895816
O O3 0.647771 0.216982 0.929378
O O4 0.334327 0.745257 0.941926
O O5 0.063496 0.212993 0.595291
O O6 0.427571 0.653748 0.653822
O O7 0.000000 0.500000 0.500000
O O8 0.891834 0.400765 0.616997
O O9 0.585152 0.866077 0.369651
O O10 0.137086 0.542141 0.261629
O O11 0.184097 0.902372 0.278760
O O12 0.655897 0.238746 0.264074
O O13 0.042697 0.190518 0.354056
O O14 0.725793 0.594784 0.949038
O O15 0.751203 0.757728 0.817874
O O16 0.216800 0.089848 0.934755
O O17 0.000000 0.000000 0.500000
#
# Coordination Sequence:
#
# PCOD9031044 Si02
#       8
#     2   2   2   2   2   2   2   2
#     4  10  24  45  69 100 143 179 235 291 348 416
#     4  11  24  40  64  93 128 166 217 271 331 400
#     4  10  22  43  64  87 129 169 211 269 338 387
#     4   9  21  42  64  94 125 173 215 275 334 402
#     4  11  25  44  72 101 143 183 238 286 357 409
#     4  11  24  40  62  95 127 165 220 265 329 404
#     4  11  26  45  69 107 137 190 233 291 350 427
#     4   9  22  40  64  95 125 172 219 278 326 412
#
# _framework density 24.134129000000001
#
# number of rings (size 3 to 8) (size 9 to 14) (size 15 to 20)
#    0.000    1.750    0.000    3.000    7.000    9.000 
#    6.750    0.000    0.000    0.000    0.000    0.000 
#    0.000    0.000    0.000    0.000    0.000    0.000 
#
# Total GULP energy -89289.860928 kJ/mol
# GULP energy per Si atom -5580.616308 kJ/mol
# Density = 2.407920 g / cm^3
# Si number density = 24.134129 Si / 1000 Ang^3
#
#
#
# Elastic Constant Matrix: (Units=GPa)
#
#
# Indices 1 2 3 4 5 6 
#
# 1 97.5588 21.9886 -3.6314 5.8865 -2.4615 -6.6902
# 2 21.9886 80.5156 11.7682 0.9220 8.6213 -7.7016
# 3 -3.6314 11.7682 98.1812 10.4765 -0.7110 0.8940
# 4 5.8865 0.9220 10.4765 27.0771 -11.7041 -0.9028
# 5 -2.4615 8.6213 -0.7110 -11.7041 17.6397 -1.3018
# 6 -6.6902 -7.7016 0.8940 -0.9028 -1.3018 38.1255
#
#
#
# Elastic Compliance Matrix: (Units=1/GPa)
#
#
# Indices 1 2 3 4 5 6 
#
# 1 0.011286 -0.003316 0.001005 -0.001745 0.002175 0.001320
# 2 -0.003316 0.014854 -0.001636 -0.003344 -0.009857 0.002041
# 3 0.001005 -0.001636 0.010985 -0.005406 -0.002250 -0.000617
# 4 -0.001745 -0.003344 -0.005406 0.056283 0.038650 0.001797
# 5 0.002175 -0.009857 -0.002250 0.038650 0.087538 0.002348
# 6 0.001320 0.002041 -0.000617 0.001797 0.002348 0.027010
#
#
# Mechanical properties :
#
#
# Convention : Reuss Voigt Hill
#
# Bulk Modulus (GPa) = 34.21152 37.38962 35.80057
# Shear Modulus (GPa) = 22.16386 32.97715 27.57051
#
# Velocity S-wave (km/s) = 3.03374 3.70051 3.38359
# Velocity P-wave (km/s) = 5.14565 5.81244 5.48918
#
# Compressibility (1/GPa) = 0.02922992
#
# Stress axis : x y z
#
# Youngs Moduli (GPa) = 88.60828 67.32404 91.03585
#
# Poissons Ratio (x) = 0.22322 -0.09147
# Poissons Ratio (y) = 0.29379 0.14894
# Poissons Ratio (z) = -0.08903 0.11015
#
# Static dielectric constant tensor:
#      x y z
#    x 1.923650 0.003380 -0.029590 
#    y 0.003380 2.201470 -0.086680 
#    z -0.029590 -0.086680 2.088120 
# 
# From -- ./inp_files/587328.got.cif
#   From: 2010.05.17/outbox.cif.g08.bks.cpg/sg2_294_cif.got.tgz:587328.got - 2010.06.03 11:33:40.
