data_PCOD9031491
_publ_section_title
;
Structure prediction by ZEFSAII (Michael W. Deem and Ramdas Pophale) SiO2 
 PCOD9031491
Probable space group: P -1
;
_chemical_formula_sum "Si O2"
_cell_formula_units_Z 15
_cell_length_a 25.141921
_cell_length_b 5.732984
_cell_length_c 15.437358
_cell_angle_alpha 94.444322
_cell_angle_beta 161.450448
_cell_angle_gamma 95.517067
_cell_volume 596.351750
_symmetry_space_group_name_H-M "P -1"
_symmetry_group_IT_number 2
_symmetry_cell_setting 'triclinic'
loop_
_space_group_symop_operation_xyz
x,y,z
-x,-y,-z
loop_
_atom_site_type_symbol
_atom_site_label
_atom_site_fract_x
_atom_site_fract_y
_atom_site_fract_z
Si Si1 0.743164 0.461504 0.164501
Si Si2 0.078544 0.002876 0.778018
Si Si3 0.000000 0.000000 0.000000
Si Si4 0.877877 0.342069 0.705631
Si Si5 0.190451 0.892564 0.131549
Si Si6 0.409267 0.001881 0.202960
Si Si7 0.235702 0.880053 0.659089
Si Si8 0.548796 0.377749 0.262523
O O1 0.737131 0.314360 0.240166
O O2 0.920695 0.775784 0.459914
O O3 0.753774 0.303559 0.093203
O O4 0.533229 0.434660 0.832664
O O5 0.093162 0.878756 0.888468
O O6 0.294806 0.128465 0.075550
O O7 0.980622 0.176044 0.654870
O O8 0.886811 0.142718 0.781864
O O9 0.871191 0.952669 0.891423
O O10 0.752144 0.169134 0.423884
O O11 0.775617 0.508854 0.589335
O O12 0.086309 0.580288 0.997757
O O13 0.421955 0.007367 0.484683
O O14 0.507295 0.174697 0.271980
O O15 0.403522 0.190826 0.955048
#
# Coordination Sequence:
#
# PCOD9031491 Si02
#       8
#     2   2   1   2   2   2   2   2
#     4  10  23  44  69 100 132 180 230 272 340 387
#     4  11  23  46  70  97 137 179 228 278 329 400
#     4  12  26  44  70  94 138 176 216 280 338 402
#     4  12  24  45  70  98 137 172 226 277 341 405
#     4  12  26  44  69 101 133 182 223 273 344 401
#     4  11  25  43  67 102 139 175 228 277 332 398
#     4  10  22  43  67 101 130 177 225 280 336 392
#     4  10  24  41  67 103 131 175 225 279 338 397
#
# _framework density 25.152943
#
# number of rings (size 3 to 8) (size 9 to 14) (size 15 to 20)
#    0.000    1.067    4.000    1.600    1.867    6.400 
#    0.000    0.667    0.000    0.000    0.000    0.000 
#    0.000    0.000    0.000    0.000    0.000    0.000 
#
# Total GULP energy -83762.708088 kJ/mol
# GULP energy per Si atom -5584.180539 kJ/mol
# Density = 2.509569 g / cm^3
# Si number density = 25.152943 Si / 1000 Ang^3
#
#
#
# Elastic Constant Matrix: (Units=GPa)
#
#
# Indices 1 2 3 4 5 6 
#
# 1 75.1114 -0.2053 32.4809 -11.9465 10.0316 -10.7300
# 2 -0.2053 67.9322 8.1199 -38.4086 1.8853 2.5169
# 3 32.4809 8.1199 109.1529 -26.5658 13.6348 -13.2984
# 4 -11.9465 -38.4086 -26.5658 36.5694 -7.4125 11.1085
# 5 10.0316 1.8853 13.6348 -7.4125 39.2754 -14.1874
# 6 -10.7300 2.5169 -13.2984 11.1085 -14.1874 30.2808
#
#
#
# Elastic Compliance Matrix: (Units=1/GPa)
#
#
# Indices 1 2 3 4 5 6 
#
# 1 0.016130 0.004665 -0.003063 0.007463 -0.001712 0.000443
# 2 0.004665 0.060948 0.010726 0.081855 -0.003335 -0.030293
# 3 -0.003063 0.010726 0.014239 0.021574 -0.002309 -0.004720
# 4 0.007463 0.081855 0.021574 0.145830 -0.003860 -0.049991
# 5 -0.001712 -0.003335 -0.002309 -0.003860 0.031487 0.014825
# 6 0.000443 -0.030293 -0.004720 -0.049991 0.014825 0.058911
#
#
# Mechanical properties :
#
#
# Convention : Reuss Voigt Hill
#
# Bulk Modulus (GPa) = 8.62266 36.99862 22.81064
# Shear Modulus (GPa) = 14.63930 35.34520 24.99225
#
# Velocity S-wave (km/s) = 2.41511 3.75268 3.15558
# Velocity P-wave (km/s) = 3.34851 5.78949 4.72920
#
# Compressibility (1/GPa) = 0.11597356
#
# Stress axis : x y z
#
# Youngs Moduli (GPa) = 61.99774 16.40741 70.22916
#
# Poissons Ratio (x) = -0.07655 0.21509
# Poissons Ratio (y) = -0.28925 -0.75325
# Poissons Ratio (z) = 0.18988 -0.17598
#
# Static dielectric constant tensor:
#      x y z
#    x 1.874800 0.134110 0.168680 
#    y 0.134110 1.337590 -0.533150 
#    z 0.168680 -0.533150 1.440010 
# 
# From -- ./inp_files/76141.got.cif
#   From: 2010.05.17/outbox.cif.g08.bks.cpg/sg2_39_cif.got.tgz:76141.got - 2010.06.03 11:33:40.
