data_PCOD9031035
_publ_section_title
;
Structure prediction by ZEFSAII (Michael W. Deem and Ramdas Pophale) SiO2 
 PCOD9031035
Probable space group: P -1
;
_chemical_formula_sum "Si O2"
_cell_formula_units_Z 16
_cell_length_a 12.250050
_cell_length_b 5.390915
_cell_length_c 12.119733
_cell_angle_alpha 60.647297
_cell_angle_beta 116.174076
_cell_angle_gamma 107.808063
_cell_volume 621.964650
_symmetry_space_group_name_H-M "P -1"
_symmetry_group_IT_number 2
_symmetry_cell_setting 'triclinic'
loop_
_space_group_symop_operation_xyz
x,y,z
-x,-y,-z
loop_
_atom_site_type_symbol
_atom_site_label
_atom_site_fract_x
_atom_site_fract_y
_atom_site_fract_z
Si Si1 0.138293 0.757727 0.387347
Si Si2 0.719348 0.529895 0.864395
Si Si3 0.173266 0.208727 0.957951
Si Si4 0.608102 0.044180 0.448764
Si Si5 0.084317 0.137183 0.605332
Si Si6 0.925219 0.372886 0.859027
Si Si7 0.297026 0.008911 0.860932
Si Si8 0.463045 0.343345 0.709927
O O1 0.257537 0.955750 0.439092
O O2 0.129344 0.459425 0.516827
O O3 0.138641 0.688584 0.273763
O O4 0.009544 0.872995 0.332337
O O5 0.846614 0.584330 0.842940
O O6 0.606122 0.458549 0.749068
O O7 0.725291 0.781748 0.901468
O O8 0.706248 0.263199 0.002651
O O9 0.242797 0.239046 0.867428
O O10 0.069576 0.420092 0.887621
O O11 0.097463 0.899258 0.009462
O O12 0.601339 0.378525 0.343498
O O13 0.500000 0.000000 0.500000
O O14 0.579845 0.812342 0.389507
O O15 0.200298 0.979463 0.723482
O O16 0.000000 0.000000 0.500000
O O17 0.425174 0.113905 0.839124
#
# Coordination Sequence:
#
# PCOD9031035 Si02
#       8
#     2   2   2   2   2   2   2   2
#     4  11  24  42  72 100 140 190 232 306 366 438
#     4  11  26  41  72  98 139 194 238 303 359 435
#     4  10  23  42  68  98 141 178 235 300 360 432
#     4  12  28  50  74 108 151 198 251 302 361 443
#     4  11  24  42  68 105 139 183 240 296 374 436
#     4  10  22  43  64 104 136 179 237 293 370 429
#     4  11  24  45  67 106 139 187 240 303 358 443
#     4  12  28  49  74 106 147 194 252 301 365 430
#
# _framework density 25.724933
#
# number of rings (size 3 to 8) (size 9 to 14) (size 15 to 20)
#    0.000    1.000    2.500    2.625    8.750    1.500 
#    0.000    0.000    0.000    0.000    0.000    0.000 
#    0.000    0.000    0.000    0.000    0.000    0.000 
#
# Total GULP energy -89512.945492 kJ/mol
# GULP energy per Si atom -5594.559093 kJ/mol
# Density = 2.566638 g / cm^3
# Si number density = 25.724933 Si / 1000 Ang^3
#
#
#
# Elastic Constant Matrix: (Units=GPa)
#
#
# Indices 1 2 3 4 5 6 
#
# 1 92.3496 27.1521 17.9294 13.1249 -17.7461 30.1193
# 2 27.1521 82.1035 29.7861 22.7086 8.8853 19.4136
# 3 17.9294 29.7861 97.7634 20.9039 -2.1239 9.5487
# 4 13.1249 22.7086 20.9039 63.9296 5.9150 2.5616
# 5 -17.7461 8.8853 -2.1239 5.9150 47.9915 1.1508
# 6 30.1193 19.4136 9.5487 2.5616 1.1508 36.7848
#
#
#
# Elastic Compliance Matrix: (Units=1/GPa)
#
#
# Indices 1 2 3 4 5 6 
#
# 1 0.017879 -0.002735 -0.000404 -0.002758 0.007755 -0.013142
# 2 -0.002735 0.017092 -0.003431 -0.003822 -0.003725 -0.005507
# 3 -0.000404 -0.003431 0.012044 -0.002730 0.001376 -0.000838
# 4 -0.002758 -0.003822 -0.002730 0.018568 -0.002812 0.003779
# 5 0.007755 -0.003725 0.001376 -0.002812 0.024929 -0.005325
# 6 -0.013142 -0.005507 -0.000838 0.003779 -0.005325 0.040973
#
#
# Mechanical properties :
#
#
# Convention : Reuss Voigt Hill
#
# Bulk Modulus (GPa) = 29.52176 46.88352 38.20264
# Shear Modulus (GPa) = 32.06838 42.89778 37.48308
#
# Velocity S-wave (km/s) = 3.53454 4.08800 3.82130
# Velocity P-wave (km/s) = 5.30642 6.36764 5.86110
#
# Compressibility (1/GPa) = 0.03387332
#
# Stress axis : x y z
#
# Youngs Moduli (GPa) = 55.93076 58.50790 83.03059
#
# Poissons Ratio (x) = 0.16004 0.03353
# Poissons Ratio (y) = 0.15299 0.28492
# Poissons Ratio (z) = 0.02259 0.20077
#
# Static dielectric constant tensor:
#      x y z
#    x 2.049500 -0.080020 0.034890 
#    y -0.080020 2.111030 -0.015600 
#    z 0.034890 -0.015600 2.046990 
# 
# From -- ./inp_files/78623.got.cif
#   From: 2010.05.17/outbox.cif.g08.bks.cpg/sg2_40_cif.got.tgz:78623.got - 2010.06.03 11:33:40.
