data_PCOD9031327
_publ_section_title
;
Structure prediction by ZEFSAII (Michael W. Deem and Ramdas Pophale) SiO2 
 PCOD9031327
Probable space group: P -1
;
_chemical_formula_sum "Si O2"
_cell_formula_units_Z 14
_cell_length_a 12.952025
_cell_length_b 12.251971
_cell_length_c 8.586416
_cell_angle_alpha 36.251073
_cell_angle_beta 79.361052
_cell_angle_gamma 62.850127
_cell_volume 671.991753
_symmetry_space_group_name_H-M "P -1"
_symmetry_group_IT_number 2
_symmetry_cell_setting 'triclinic'
loop_
_space_group_symop_operation_xyz
x,y,z
-x,-y,-z
loop_
_atom_site_type_symbol
_atom_site_label
_atom_site_fract_x
_atom_site_fract_y
_atom_site_fract_z
Si Si1 0.260246 0.506062 0.778714
Si Si2 0.371943 0.218448 0.781610
Si Si3 0.359137 0.689047 0.776059
Si Si4 0.646565 0.905131 0.575576
Si Si5 0.259846 0.637143 0.177439
Si Si6 0.229486 0.073201 0.800697
Si Si7 0.046831 0.752339 0.312783
O O1 0.344857 0.345047 0.804270
O O2 0.316774 0.636553 0.688324
O O3 0.129152 0.660383 0.552116
O O4 0.273054 0.337866 0.100629
O O5 0.367811 0.390009 0.461943
O O6 0.276101 0.144117 0.853765
O O7 0.500000 0.000000 0.000000
O O8 0.343649 0.922405 0.518587
O O9 0.500000 0.500000 0.000000
O O10 0.269676 0.693255 0.933536
O O11 0.698954 0.907825 0.388577
O O12 0.500000 0.000000 0.500000
O O13 0.140858 0.633971 0.278102
O O14 0.262597 0.822808 0.066960
O O15 0.081443 0.235181 0.646728
O O16 0.000000 0.000000 0.000000
#
# Coordination Sequence:
#
# PCOD9031327 Si02
#       7
#     2   2   2   2   2   2   2
#     4  11  24  40  63 101 126 167 215 265 316 379
#     4  11  24  38  62  95 128 161 219 265 314 384
#     4  11  23  40  67  91 131 171 200 259 331 378
#     4  11  22  40  65  97 132 164 213 260 320 387
#     4   9  22  42  63  92 123 170 207 265 316 372
#     4  10  22  43  66  87 124 179 204 263 323 363
#     4   9  21  46  66  88 131 167 223 263 305 380
#
# _framework density 20.833587000000001
#
# number of rings (size 3 to 8) (size 9 to 14) (size 15 to 20)
#    0.000    1.714    1.429    1.714    4.000    6.857 
#    0.000    9.286    0.000    0.000    0.000    0.000 
#    0.000    0.000    0.000    0.000    0.000    0.000 
#
# Total GULP energy -78112.534917 kJ/mol
# GULP energy per Si atom -5579.466780 kJ/mol
# Density = 2.078617 g / cm^3
# Si number density = 20.833587 Si / 1000 Ang^3
#
#
#
# Elastic Constant Matrix: (Units=GPa)
#
#
# Indices 1 2 3 4 5 6 
#
# 1 146.0054 64.4787 46.2247 3.2997 13.7230 2.2737
# 2 64.4787 105.6860 10.3391 -7.8996 -0.8848 23.2410
# 3 46.2247 10.3391 105.4543 -23.3332 8.4575 -0.1332
# 4 3.2997 -7.8996 -23.3332 25.7428 0.8677 -8.4178
# 5 13.7230 -0.8848 8.4575 0.8677 33.4948 -3.2654
# 6 2.2737 23.2410 -0.1332 -8.4178 -3.2654 44.3773
#
#
#
# Elastic Compliance Matrix: (Units=1/GPa)
#
#
# Indices 1 2 3 4 5 6 
#
# 1 0.013398 -0.008636 -0.006955 -0.010011 -0.003540 0.001656
# 2 -0.008636 0.016387 0.003569 0.007133 0.002240 -0.006611
# 3 -0.006955 0.003569 0.016097 0.017177 -0.001401 0.001691
# 4 -0.010011 0.007133 0.017177 0.060617 -0.000812 0.008267
# 5 -0.003540 0.002240 -0.001401 -0.000812 0.031856 0.001194
# 6 0.001656 -0.006611 0.001691 0.008267 0.001194 0.027573
#
#
# Mechanical properties :
#
#
# Convention : Reuss Voigt Hill
#
# Bulk Modulus (GPa) = 45.79156 66.58118 56.18637
# Shear Modulus (GPa) = 25.34843 36.46319 30.90581
#
# Velocity S-wave (km/s) = 3.49192 4.18809 3.85575
# Velocity P-wave (km/s) = 6.18752 7.44411 6.84471
#
# Compressibility (1/GPa) = 0.02183809
#
# Stress axis : x y z
#
# Youngs Moduli (GPa) = 74.63871 61.02327 62.12499
#
# Poissons Ratio (x) = 0.52697 0.43208
# Poissons Ratio (y) = 0.64455 -0.22172
# Poissons Ratio (z) = 0.51912 -0.21779
#
# Static dielectric constant tensor:
#      x y z
#    x 1.792100 -0.018400 -0.014200 
#    y -0.018400 1.743700 0.065320 
#    z -0.014200 0.065320 1.672230 
# 
# From -- ./inp_files/255873.got.cif
#   From: 2010.05.17/outbox.cif.g08.bks.cpg/sg2_128_cif.got.tgz:255873.got - 2010.06.03 11:33:40.
