data_PCOD9031650
_publ_section_title
;
Structure prediction by ZEFSAII (Michael W. Deem and Ramdas Pophale) SiO2 
 PCOD9031650
Probable space group: P -1
;
_chemical_formula_sum "Si O2"
_cell_formula_units_Z 13
_cell_length_a 12.951934
_cell_length_b 9.720295
_cell_length_c 15.623295
_cell_angle_alpha 154.187040
_cell_angle_beta 139.813944
_cell_angle_gamma 49.538000
_cell_volume 547.363011
_symmetry_space_group_name_H-M "P -1"
_symmetry_group_IT_number 2
_symmetry_cell_setting 'triclinic'
loop_
_space_group_symop_operation_xyz
x,y,z
-x,-y,-z
loop_
_atom_site_type_symbol
_atom_site_label
_atom_site_fract_x
_atom_site_fract_y
_atom_site_fract_z
Si Si1 0.018202 0.853570 0.836619
Si Si2 0.135772 0.310246 0.019147
Si Si3 0.524754 0.422726 0.651972
Si Si4 0.775079 0.244625 0.360488
Si Si5 0.548344 0.282436 0.785310
Si Si6 0.000000 0.000000 0.500000
Si Si7 0.247765 0.360897 0.737285
O O1 0.172194 0.667109 0.829436
O O2 0.871243 0.575401 0.570316
O O3 0.047341 0.136275 0.946732
O O4 0.000000 0.000000 0.000000
O O5 0.191334 0.040523 0.840430
O O6 0.309312 0.519732 0.264040
O O7 0.000000 0.500000 0.000000
O O8 0.410221 0.692291 0.716436
O O9 0.576509 0.391100 0.766753
O O10 0.419958 0.076487 0.376381
O O11 0.850509 0.168633 0.457037
O O12 0.360685 0.265169 0.680941
O O13 0.648430 0.526492 0.049488
O O14 0.893956 0.896570 0.461736
#
# Coordination Sequence:
#
# PCOD9031650 Si02
#       7
#     2   2   2   2   2   1   2
#     4  11  26  44  72 101 142 187 233 291 358 422
#     4  12  29  44  74 106 142 186 242 296 350 423
#     4  11  25  43  72  98 142 180 244 280 357 417
#     4  11  25  47  72 100 146 185 235 291 360 418
#     4  10  23  42  67 102 136 189 224 296 345 431
#     4  10  24  40  74 104 136 188 236 294 342 418
#     4  10  22  43  67  97 145 181 235 281 364 406
#
# _framework density 23.750232
#
# number of rings (size 3 to 8) (size 9 to 14) (size 15 to 20)
#    0.000    1.231    0.000    3.692   15.077    2.462 
#    0.000    2.308    0.000    0.000    0.000    0.000 
#    0.000    0.000    0.000    0.000    0.000    0.000 
#
# Total GULP energy -72505.258508 kJ/mol
# GULP energy per Si atom -5577.327578 kJ/mol
# Density = 2.369618 g / cm^3
# Si number density = 23.750232 Si / 1000 Ang^3
#
#
#
# Elastic Constant Matrix: (Units=GPa)
#
#
# Indices 1 2 3 4 5 6 
#
# 1 82.6910 57.7306 22.8048 19.3191 14.6807 -3.9826
# 2 57.7306 161.5073 5.8199 13.1261 19.3443 -8.0237
# 3 22.8048 5.8199 58.5184 8.9005 14.9222 -0.8966
# 4 19.3191 13.1261 8.9005 23.9889 -6.7145 7.0153
# 5 14.6807 19.3443 14.9222 -6.7145 36.5117 10.7052
# 6 -3.9826 -8.0237 -0.8966 7.0153 10.7052 57.2228
#
#
#
# Elastic Compliance Matrix: (Units=1/GPa)
#
#
# Indices 1 2 3 4 5 6 
#
# 1 0.022951 -0.005045 -0.002796 -0.019109 -0.010434 0.005141
# 2 -0.005045 0.009039 0.003212 -0.004400 -0.005633 0.002560
# 3 -0.002796 0.003212 0.023647 -0.013712 -0.014219 0.004967
# 4 -0.019109 -0.004400 -0.013712 0.080057 0.035817 -0.018677
# 5 -0.010434 -0.005633 -0.014219 0.035817 0.051593 -0.015782
# 6 0.005141 0.002560 0.004967 -0.018677 -0.015782 0.023512
#
#
# Mechanical properties :
#
#
# Convention : Reuss Voigt Hill
#
# Bulk Modulus (GPa) = 21.56247 52.82527 37.19387
# Shear Modulus (GPa) = 21.22991 37.96876 29.59934
#
# Velocity S-wave (km/s) = 2.99303 4.00267 3.53409
# Velocity P-wave (km/s) = 4.58725 6.60698 5.68749
#
# Compressibility (1/GPa) = 0.04637687
#
# Stress axis : x y z
#
# Youngs Moduli (GPa) = 43.57125 110.63677 42.28941
#
# Poissons Ratio (x) = 0.55815 0.11826
# Poissons Ratio (y) = 0.21981 -0.13582
# Poissons Ratio (z) = 0.12185 -0.35534
#
# Static dielectric constant tensor:
#      x y z
#    x 1.848180 -0.047650 0.000900 
#    y -0.047650 1.882050 0.007640 
#    z 0.000900 0.007640 2.029550 
# 
# From -- ./inp_files/153502.got.cif
#   From: 2010.05.17/outbox.cif.g08.bks.cpg/sg2_77_cif.got.tgz:153502.got - 2010.06.03 11:33:40.
