data_PCOD9031274
_publ_section_title
;
Structure prediction by ZEFSAII (Michael W. Deem and Ramdas Pophale) SiO2 
 PCOD9031274
Probable space group: P -1
;
_chemical_formula_sum "Si O2"
_cell_formula_units_Z 16
_cell_length_a 25.072405
_cell_length_b 11.897100
_cell_length_c 5.381314
_cell_angle_alpha 57.440996
_cell_angle_beta 125.779460
_cell_angle_gamma 151.941492
_cell_volume 611.501703
_symmetry_space_group_name_H-M "P -1"
_symmetry_group_IT_number 2
_symmetry_cell_setting 'triclinic'
loop_
_space_group_symop_operation_xyz
x,y,z
-x,-y,-z
loop_
_atom_site_type_symbol
_atom_site_label
_atom_site_fract_x
_atom_site_fract_y
_atom_site_fract_z
Si Si1 0.794143 0.078387 0.507250
Si Si2 0.101726 0.222055 0.695485
Si Si3 0.644085 0.929147 0.654911
Si Si4 0.378465 0.418198 0.556385
Si Si5 0.215578 0.656781 0.068443
Si Si6 0.660150 0.483938 0.185865
Si Si7 0.011384 0.814770 0.158749
Si Si8 0.434700 0.981789 0.040173
O O1 0.823227 0.277166 0.271316
O O2 0.903291 0.166592 0.650877
O O3 0.745791 0.001666 0.748686
O O4 0.684274 0.830086 0.351487
O O5 0.231963 0.431874 0.686783
O O6 0.062256 0.283657 0.672786
O O7 0.000000 0.000000 0.500000
O O8 0.094004 0.083368 0.034052
O O9 0.519282 0.652908 0.711001
O O10 0.605672 0.950987 0.284437
O O11 0.705287 0.140931 0.745566
O O12 0.320270 0.395051 0.660132
O O13 0.358838 0.460853 0.185566
O O14 0.091700 0.375900 0.102620
O O15 0.310068 0.721255 0.110720
O O16 0.538388 0.199752 0.247886
O O17 0.500000 0.000000 0.000000
#
# Coordination Sequence:
#
# PCOD9031274 Si02
#       8
#     2   2   2   2   2   2   2   2
#     4  11  24  42  68  96 143 187 234 291 353 419
#     4  11  25  44  72  99 136 184 242 294 353 415
#     4  10  24  42  63 104 135 186 232 290 356 418
#     4  11  23  44  72 103 143 180 241 294 356 420
#     4  11  24  43  67  99 141 180 233 289 355 432
#     4  11  23  43  72 104 139 182 235 299 355 417
#     4  11  25  45  66 103 136 184 238 290 353 427
#     4  10  22  43  65  98 136 182 231 289 359 424
#
# _framework density 26.165095000000001
#
# number of rings (size 3 to 8) (size 9 to 14) (size 15 to 20)
#    0.000    1.250    2.500    2.250    3.500    5.500 
#    0.000    0.000    0.000    0.000    0.000    0.000 
#    0.000    0.000    0.000    0.000    0.000    0.000 
#
# Total GULP energy -89536.760062 kJ/mol
# GULP energy per Si atom -5596.047504 kJ/mol
# Density = 2.610554 g / cm^3
# Si number density = 26.165095 Si / 1000 Ang^3
#
#
#
# Elastic Constant Matrix: (Units=GPa)
#
#
# Indices 1 2 3 4 5 6 
#
# 1 194.7324 47.9232 26.1272 10.4272 1.0552 20.7304
# 2 47.9232 162.0464 16.5949 17.5559 8.8071 17.6439
# 3 26.1272 16.5949 74.2463 10.2542 4.7779 13.3766
# 4 10.4272 17.5559 10.2542 41.6596 -3.4330 0.0589
# 5 1.0552 8.8071 4.7779 -3.4330 42.6168 7.9232
# 6 20.7304 17.6439 13.3766 0.0589 7.9232 45.9459
#
#
#
# Elastic Compliance Matrix: (Units=1/GPa)
#
#
# Indices 1 2 3 4 5 6 
#
# 1 0.005879 -0.001376 -0.001404 -0.000495 0.000594 -0.001817
# 2 -0.001376 0.007172 -0.000337 -0.002699 -0.001291 -0.001809
# 3 -0.001404 -0.000337 0.015200 -0.003344 -0.001228 -0.003446
# 4 -0.000495 -0.002699 -0.003344 0.026312 0.002744 0.001726
# 5 0.000594 -0.001291 -0.001228 0.002744 0.024761 -0.003688
# 6 -0.001817 -0.001809 -0.003446 0.001726 -0.003688 0.024917
#
#
# Mechanical properties :
#
#
# Convention : Reuss Voigt Hill
#
# Bulk Modulus (GPa) = 45.41825 68.03508 56.72667
# Shear Modulus (GPa) = 42.44005 48.73644 45.58824
#
# Velocity S-wave (km/s) = 4.03179 4.32053 4.17865
# Velocity P-wave (km/s) = 6.25058 7.13778 6.70886
#
# Compressibility (1/GPa) = 0.02201758
#
# Stress axis : x y z
#
# Youngs Moduli (GPa) = 170.10036 139.43111 65.79003
#
# Poissons Ratio (x) = 0.19181 0.09236
# Poissons Ratio (y) = 0.23400 0.02218
# Poissons Ratio (z) = 0.23878 0.04701
#
# Static dielectric constant tensor:
#      x y z
#    x 2.048140 0.050200 -0.063740 
#    y 0.050200 2.137440 -0.153110 
#    z -0.063740 -0.153110 2.241290 
# 
# From -- ./inp_files/69915.got.cif
#   From: 2010.05.17/outbox.cif.g08.bks.cpg/sg2_35_cif.got.tgz:69915.got - 2010.06.03 11:33:40.
