data_PCOD9031321
_publ_section_title
;
Structure prediction by ZEFSAII (Michael W. Deem and Ramdas Pophale) SiO2 
 PCOD9031321
Probable space group: P -1
;
_chemical_formula_sum "Si O2"
_cell_formula_units_Z 12
_cell_length_a 5.722828
_cell_length_b 13.042966
_cell_length_c 14.913327
_cell_angle_alpha 39.363386
_cell_angle_beta 124.662514
_cell_angle_gamma 102.218867
_cell_volume 522.269986
_symmetry_space_group_name_H-M "P -1"
_symmetry_group_IT_number 2
_symmetry_cell_setting 'triclinic'
loop_
_space_group_symop_operation_xyz
x,y,z
-x,-y,-z
loop_
_atom_site_type_symbol
_atom_site_label
_atom_site_fract_x
_atom_site_fract_y
_atom_site_fract_z
Si Si1 0.710422 0.351515 0.892534
Si Si2 0.825517 0.873763 0.552084
Si Si3 0.141750 0.017878 0.920707
Si Si4 0.354971 0.557251 0.830910
Si Si5 0.728685 0.778202 0.784383
Si Si6 0.725587 0.430176 0.507540
O O1 0.473875 0.396820 0.895126
O O2 0.516707 0.493796 0.679264
O O3 0.027495 0.351050 0.003162
O O4 0.828838 0.153099 0.014047
O O5 0.894826 0.806087 0.714761
O O6 0.986743 0.693519 0.652228
O O7 0.471127 0.019855 0.359151
O O8 0.000000 0.000000 0.500000
O O9 0.910443 0.215034 0.700643
O O10 0.500000 0.000000 0.000000
O O11 0.000000 0.000000 0.000000
O O12 0.517283 0.690118 0.754695
O O13 0.500000 0.500000 0.000000
O O14 0.500000 0.500000 0.500000
O O15 0.000000 0.500000 0.500000
#
# Coordination Sequence:
#
# PCOD9031321 Si02
#       6
#     2   2   2   2   2   2
#     4  12  26  45  78 107 145 203 245 298 401 434
#     4   9  20  41  66  92 151 185 239 295 349 421
#     4  12  26  53  78 108 150 193 257 326 377 447
#     4  11  23  42  66 106 150 187 239 296 357 455
#     4  10  22  43  66 104 147 187 239 298 353 452
#     4  12  26  53  79 110 148 195 258 326 377 446
#
# _framework density 22.976621000000002
#
# number of rings (size 3 to 8) (size 9 to 14) (size 15 to 20)
#    0.000    1.000    5.000    0.500    0.000    6.667 
#    6.000    0.000    0.000    0.000    0.000    0.000 
#    0.000    0.000    0.000    0.000    0.000    0.000 
#
# Total GULP energy -66904.418866 kJ/mol
# GULP energy per Si atom -5575.368239 kJ/mol
# Density = 2.292433 g / cm^3
# Si number density = 22.976621 Si / 1000 Ang^3
#
#
#
# Elastic Constant Matrix: (Units=GPa)
#
#
# Indices 1 2 3 4 5 6 
#
# 1 109.2817 47.2005 45.4412 -3.8157 0.3740 -16.6034
# 2 47.2005 111.1303 52.9476 -32.9338 9.2901 -35.0323
# 3 45.4412 52.9476 197.6051 -20.1097 15.3438 -19.0652
# 4 -3.8157 -32.9338 -20.1097 49.7062 -7.7413 12.1477
# 5 0.3740 9.2901 15.3438 -7.7413 50.9679 -10.3864
# 6 -16.6034 -35.0323 -19.0652 12.1477 -10.3864 51.4460
#
#
#
# Elastic Compliance Matrix: (Units=1/GPa)
#
#
# Indices 1 2 3 4 5 6 
#
# 1 0.012072 -0.005089 -0.001744 -0.003171 0.001034 0.000742
# 2 -0.005089 0.016691 -0.001792 0.008230 0.000245 0.007165
# 3 -0.001744 -0.001792 0.006144 0.000953 -0.001367 -0.000007
# 4 -0.003171 0.008230 0.000953 0.026240 0.002049 -0.000848
# 5 0.001034 0.000245 -0.001367 0.002049 0.021057 0.003761
# 6 0.000742 0.007165 -0.000007 -0.000848 0.003761 0.025513
#
#
# Mechanical properties :
#
#
# Convention : Reuss Voigt Hill
#
# Bulk Modulus (GPa) = 56.63226 78.79952 67.71589
# Shear Modulus (GPa) = 38.21057 48.58588 43.39823
#
# Velocity S-wave (km/s) = 4.08244 4.60344 4.35075
# Velocity P-wave (km/s) = 6.85004 7.91363 7.40097
#
# Compressibility (1/GPa) = 0.01765778
#
# Stress axis : x y z
#
# Youngs Moduli (GPa) = 82.83484 59.91234 162.75205
#
# Poissons Ratio (x) = 0.30488 0.28383
# Poissons Ratio (y) = 0.42152 0.29169
# Poissons Ratio (z) = 0.14446 0.10738
#
# Static dielectric constant tensor:
#      x y z
#    x 2.042170 -0.016610 0.019170 
#    y -0.016610 1.888960 -0.045330 
#    z 0.019170 -0.045330 1.868440 
# 
# From -- ./inp_files/363767.got.cif
#   From: 2010.05.17/outbox.cif.g08.bks.cpg/sg2_182_cif.got.tgz:363767.got - 2010.06.03 11:33:40.
