data_PCOD9031497
_publ_section_title
;
Structure prediction by ZEFSAII (Michael W. Deem and Ramdas Pophale) SiO2 
 PCOD9031497
Probable space group: P -1
;
_chemical_formula_sum "Si O2"
_cell_formula_units_Z 14
_cell_length_a 15.009441
_cell_length_b 8.148486
_cell_length_c 14.874280
_cell_angle_alpha 53.856070
_cell_angle_beta 29.441720
_cell_angle_gamma 72.002986
_cell_volume 618.697769
_symmetry_space_group_name_H-M "P -1"
_symmetry_group_IT_number 2
_symmetry_cell_setting 'triclinic'
loop_
_space_group_symop_operation_xyz
x,y,z
-x,-y,-z
loop_
_atom_site_type_symbol
_atom_site_label
_atom_site_fract_x
_atom_site_fract_y
_atom_site_fract_z
Si Si1 0.062772 0.854157 0.059466
Si Si2 0.953530 0.425580 0.168674
Si Si3 0.406713 0.351781 0.038330
Si Si4 0.839063 0.517996 0.523808
Si Si5 0.013505 0.814319 0.456833
Si Si6 0.723488 0.691171 0.005475
Si Si7 0.478830 0.281959 0.646775
O O1 0.067733 0.662298 0.052296
O O2 0.887554 0.693513 0.340737
O O3 0.280150 0.040411 0.859522
O O4 0.000000 0.000000 0.000000
O O5 0.701312 0.292199 0.446975
O O6 0.068724 0.285532 0.141060
O O7 0.000000 0.500000 0.000000
O O8 0.602550 0.342220 0.825652
O O9 0.500000 0.500000 0.000000
O O10 0.364491 0.480186 0.948662
O O11 0.177308 0.163681 0.342185
O O12 0.939583 0.355681 0.469166
O O13 0.950229 0.686942 0.456759
O O14 0.213995 0.065829 0.178037
O O15 0.569179 0.663142 0.229353
O O16 0.500000 0.500000 0.500000
#
# Coordination Sequence:
#
# PCOD9031497 Si02
#       7
#     2   2   2   2   2   2   2
#     4  12  24  45  78 105 147 196 240 305 371 432
#     4  12  27  47  70 109 150 188 246 302 360 443
#     4  10  23  41  68 102 140 183 239 293 364 428
#     4  10  22  43  67 101 139 183 237 291 359 436
#     4  10  22  43  68  98 143 181 236 299 351 431
#     4  12  24  46  73 104 149 188 240 312 362 434
#     4  12  25  49  74 106 149 196 244 299 371 440
#
# _framework density 22.628170999999998
#
# number of rings (size 3 to 8) (size 9 to 14) (size 15 to 20)
#    0.000    0.857    4.286    2.143    0.000    2.286 
#   10.286    0.000    0.000    0.000    0.000    0.000 
#    0.000    0.000    0.000    0.000    0.000    0.000 
#
# Total GULP energy -78079.619838 kJ/mol
# GULP energy per Si atom -5577.115703 kJ/mol
# Density = 2.257667 g / cm^3
# Si number density = 22.628171 Si / 1000 Ang^3
#
#
#
# Elastic Constant Matrix: (Units=GPa)
#
#
# Indices 1 2 3 4 5 6 
#
# 1 139.0984 26.7941 52.3558 15.4497 9.9674 16.0880
# 2 26.7941 61.2295 43.8349 11.9443 4.9782 4.1366
# 3 52.3558 43.8349 134.5206 20.0045 4.5208 15.4497
# 4 15.4497 11.9443 20.0045 41.1323 5.2648 -0.4146
# 5 9.9674 4.9782 4.5208 5.2648 59.3797 0.6874
# 6 16.0880 4.1366 15.4497 -0.4146 0.6874 37.1321
#
#
#
# Elastic Compliance Matrix: (Units=1/GPa)
#
#
# Indices 1 2 3 4 5 6 
#
# 1 0.008964 -0.001646 -0.002363 -0.001638 -0.001010 -0.002717
# 2 -0.001646 0.022028 -0.006211 -0.002638 -0.000873 0.000830
# 3 -0.002363 -0.006211 0.011119 -0.002791 0.000352 -0.002948
# 4 -0.001638 -0.002638 -0.002791 0.027299 -0.001741 0.002502
# 5 -0.001010 -0.000873 0.000352 -0.001741 0.017210 0.000050
# 6 -0.002717 0.000830 -0.002948 0.002502 0.000050 0.029269
#
#
# Mechanical properties :
#
#
# Convention : Reuss Voigt Hill
#
# Bulk Modulus (GPa) = 46.14332 64.53532 55.33932
# Shear Modulus (GPa) = 34.82992 41.65307 38.24149
#
# Velocity S-wave (km/s) = 3.92756 4.29506 4.11541
# Velocity P-wave (km/s) = 6.40342 7.29236 6.86230
#
# Compressibility (1/GPa) = 0.02167161
#
# Stress axis : x y z
#
# Youngs Moduli (GPa) = 111.55543 45.39577 89.93259
#
# Poissons Ratio (x) = 0.07471 0.21251
# Poissons Ratio (y) = 0.18360 0.55861
# Poissons Ratio (z) = 0.26361 0.28197
#
# Static dielectric constant tensor:
#      x y z
#    x 2.064400 0.158610 -0.101150 
#    y 0.158610 2.055620 0.021540 
#    z -0.101150 0.021540 1.883850 
# 
# From -- ./inp_files/315689.got.cif
#   From: 2010.05.17/outbox.cif.g08.bks.cpg/sg2_158_cif.got.tgz:315689.got - 2010.06.03 11:33:40.
