data_PCOD9031940
_publ_section_title
;
Structure prediction by ZEFSAII (Michael W. Deem and Ramdas Pophale) SiO2 
 PCOD9031940
Probable space group: P -1
;
_chemical_formula_sum "Si O2"
_cell_formula_units_Z 16
_cell_length_a 8.233048
_cell_length_b 11.593494
_cell_length_c 14.865578
_cell_angle_alpha 127.235983
_cell_angle_beta 140.283079
_cell_angle_gamma 51.069459
_cell_volume 683.832904
_symmetry_space_group_name_H-M "P -1"
_symmetry_group_IT_number 2
_symmetry_cell_setting 'triclinic'
loop_
_space_group_symop_operation_xyz
x,y,z
-x,-y,-z
loop_
_atom_site_type_symbol
_atom_site_label
_atom_site_fract_x
_atom_site_fract_y
_atom_site_fract_z
Si Si1 0.844203 0.049152 0.247912
Si Si2 0.066184 0.280662 0.104393
Si Si3 0.184372 0.603170 0.120421
Si Si4 0.685138 0.045243 0.977866
Si Si5 0.837766 0.599089 0.558878
Si Si6 0.717545 0.211540 0.589662
Si Si7 0.669715 0.378605 0.114640
Si Si8 0.371010 0.670244 0.594264
O O1 0.589266 0.993388 0.138084
O O2 0.095028 0.945810 0.363485
O O3 0.780140 0.220263 0.337756
O O4 0.844160 0.047403 0.139493
O O5 0.319585 0.337732 0.259035
O O6 0.789324 0.403691 0.080506
O O7 0.153411 0.100745 0.084433
O O8 0.990233 0.269811 0.962646
O O9 0.210503 0.665207 0.258691
O O10 0.464905 0.503167 0.148645
O O11 0.000000 0.500000 0.000000
O O12 0.599288 0.222797 0.995786
O O13 0.595560 0.749811 0.502782
O O14 0.701500 0.486231 0.500506
O O15 0.000000 0.500000 0.500000
O O16 0.045177 0.652896 0.729619
O O17 0.730327 0.243693 0.503689
#
# Coordination Sequence:
#
# PCOD9031940 Si02
#       8
#     2   2   2   2   2   2   2   2
#     4  10  22  43  71  97 132 176 234 276 333 400
#     4  11  24  46  70 101 133 178 229 281 333 401
#     4  12  26  42  71 102 136 176 228 280 337 399
#     4  10  22  43  69 100 132 179 225 282 338 393
#     4  12  25  44  67 100 139 181 222 273 346 408
#     4  12  23  44  67 101 134 175 229 275 335 405
#     4  12  25  43  68 100 141 175 225 280 338 400
#     4  11  25  44  73  98 135 182 227 273 339 407
#
# _framework density 23.397528000000001
#
# number of rings (size 3 to 8) (size 9 to 14) (size 15 to 20)
#    0.000    0.750    3.750    3.750    5.250    0.000 
#    2.250    3.750    0.000    0.000    0.000    0.000 
#    0.000    0.000    0.000    0.000    0.000    0.000 
#
# Total GULP energy -89258.516617 kJ/mol
# GULP energy per Si atom -5578.657289 kJ/mol
# Density = 2.334427 g / cm^3
# Si number density = 23.397528 Si / 1000 Ang^3
#
#
#
# Elastic Constant Matrix: (Units=GPa)
#
#
# Indices 1 2 3 4 5 6 
#
# 1 62.1091 12.0580 7.2385 -1.9259 -1.4850 -11.7656
# 2 12.0580 77.0672 7.7569 4.9678 11.0851 -13.7306
# 3 7.2385 7.7569 106.2162 -1.7851 0.7087 -3.8955
# 4 -1.9259 4.9678 -1.7851 46.0760 -0.2613 -4.9472
# 5 -1.4850 11.0851 0.7087 -0.2613 41.1360 7.1016
# 6 -11.7656 -13.7306 -3.8955 -4.9472 7.1016 33.1286
#
#
#
# Elastic Compliance Matrix: (Units=1/GPa)
#
#
# Indices 1 2 3 4 5 6 
#
# 1 0.017663 -0.001801 -0.000842 0.001504 0.000178 0.005614
# 2 -0.001801 0.015348 -0.000738 -0.001078 -0.005338 0.006618
# 3 -0.000842 -0.000738 0.009557 0.000480 -0.000099 0.000612
# 4 0.001504 -0.001078 0.000480 0.022276 -0.000126 0.003497
# 5 0.000178 -0.005338 -0.000099 -0.000126 0.027136 -0.007996
# 6 0.005614 0.006618 0.000612 0.003497 -0.007996 0.037230
#
#
# Mechanical properties :
#
#
# Convention : Reuss Voigt Hill
#
# Bulk Modulus (GPa) = 27.92848 33.27769 30.60308
# Shear Modulus (GPa) = 33.80490 38.62407 36.21448
#
# Velocity S-wave (km/s) = 3.80518 4.06738 3.93847
# Velocity P-wave (km/s) = 5.59181 6.02592 5.81292
#
# Compressibility (1/GPa) = 0.03580574
#
# Stress axis : x y z
#
# Youngs Moduli (GPa) = 56.61597 65.15472 104.63322
#
# Poissons Ratio (x) = 0.11735 0.08812
# Poissons Ratio (y) = 0.10197 0.07721
# Poissons Ratio (z) = 0.04768 0.04808
#
# Static dielectric constant tensor:
#      x y z
#    x 2.011510 -0.069570 -0.049430 
#    y -0.069570 1.771150 0.091520 
#    z -0.049430 0.091520 1.824860 
# 
# From -- ./inp_files/500906.got.cif
#   From: 2010.05.17/outbox.cif.g08.bks.cpg/sg2_251_cif.got.tgz:500906.got - 2010.06.03 11:33:40.
