data_PCOD9031909
_publ_section_title
;
Structure prediction by ZEFSAII (Michael W. Deem and Ramdas Pophale) SiO2 
 PCOD9031909
Probable space group: P -1
;
_chemical_formula_sum "Si O2"
_cell_formula_units_Z 16
_cell_length_a 26.450218
_cell_length_b 17.637560
_cell_length_c 14.539388
_cell_angle_alpha 28.530064
_cell_angle_beta 20.014564
_cell_angle_gamma 18.724942
_cell_volume 741.304093
_symmetry_space_group_name_H-M "P -1"
_symmetry_group_IT_number 2
_symmetry_cell_setting 'triclinic'
loop_
_space_group_symop_operation_xyz
x,y,z
-x,-y,-z
loop_
_atom_site_type_symbol
_atom_site_label
_atom_site_fract_x
_atom_site_fract_y
_atom_site_fract_z
Si Si1 0.873772 0.534728 0.470340
Si Si2 0.742155 0.193789 0.709189
Si Si3 0.359295 0.153349 0.988148
Si Si4 0.574811 0.725340 0.956915
Si Si5 0.721425 0.349868 0.224945
Si Si6 0.474636 0.827921 0.734491
Si Si7 0.172788 0.055635 0.843693
Si Si8 0.530078 0.305967 0.435036
O O1 0.745765 0.586543 0.727225
O O2 0.726247 0.584378 0.585861
O O3 0.875172 0.725161 0.277400
O O4 0.118421 0.292425 0.283627
O O5 0.617189 0.463878 0.625688
O O6 0.645405 0.198526 0.774493
O O7 0.652623 0.138239 0.995720
O O8 0.000000 0.000000 0.500000
O O9 0.373371 0.323837 0.748389
O O10 0.500000 0.000000 0.000000
O O11 0.469776 0.971033 0.909275
O O12 0.710397 0.539736 0.006374
O O13 0.500000 0.500000 0.500000
O O14 0.689142 0.275531 0.265596
O O15 0.942700 0.149489 0.118694
O O16 0.500000 0.000000 0.500000
O O17 0.341314 0.864406 0.838362
O O18 0.309116 0.927812 0.653303
#
# Coordination Sequence:
#
# PCOD9031909 Si02
#       8
#     2   2   2   2   2   2   2   2
#     4  10  22  43  68  98 138 177 225 290 335 408
#     4  10  24  44  69  97 143 181 226 290 347 410
#     4  12  25  42  72 105 135 181 238 279 346 421
#     4  10  23  45  66  99 135 178 233 281 347 411
#     4  11  24  42  64  96 137 181 225 289 353 408
#     4   9  22  42  69  98 129 184 232 273 349 408
#     4  11  22  41  70  92 140 179 221 288 339 415
#     4  11  25  43  65 107 135 180 234 280 356 408
#
# _framework density 21.583584999999999
#
# number of rings (size 3 to 8) (size 9 to 14) (size 15 to 20)
#    0.000    1.500    1.250    2.625    8.750    2.500 
#    9.000    1.250    0.000    0.000    0.000    0.000 
#    0.000    0.000    0.000    0.000    0.000    0.000 
#
# Total GULP energy -89113.753054 kJ/mol
# GULP energy per Si atom -5569.609566 kJ/mol
# Density = 2.153446 g / cm^3
# Si number density = 21.583585 Si / 1000 Ang^3
#
#
#
# Elastic Constant Matrix: (Units=GPa)
#
#
# Indices 1 2 3 4 5 6 
#
# 1 103.4074 38.3112 38.7245 25.3213 -14.4728 -23.2657
# 2 38.3112 64.2140 48.5698 19.6509 -5.0965 -11.5728
# 3 38.7245 48.5698 124.1510 28.7644 -1.6815 -27.8928
# 4 25.3213 19.6509 28.7644 41.1892 -11.6281 -10.7822
# 5 -14.4728 -5.0965 -1.6815 -11.6281 34.2242 10.5330
# 6 -23.2657 -11.5728 -27.8928 -10.7822 10.5330 32.8389
#
#
#
# Elastic Compliance Matrix: (Units=1/GPa)
#
#
# Indices 1 2 3 4 5 6 
#
# 1 0.014620 -0.006480 0.000365 -0.003914 0.001909 0.006487
# 2 -0.006480 0.026105 -0.008207 -0.003522 0.000699 -0.003743
# 3 0.000365 -0.008207 0.014466 -0.005359 -0.005112 0.009533
# 4 -0.003914 -0.003522 -0.005359 0.034714 0.009409 -0.000185
# 5 0.001909 0.000699 -0.005112 0.009409 0.036581 -0.011387
# 6 0.006487 -0.003743 0.009533 -0.000185 -0.011387 0.045417
#
#
# Mechanical properties :
#
#
# Convention : Reuss Voigt Hill
#
# Bulk Modulus (GPa) = 37.66965 60.33150 49.00057
# Shear Modulus (GPa) = 23.87819 32.72825 28.30322
#
# Velocity S-wave (km/s) = 3.32974 3.89826 3.62516
# Velocity P-wave (km/s) = 5.68099 6.94803 6.34621
#
# Compressibility (1/GPa) = 0.02654657
#
# Stress axis : x y z
#
# Youngs Moduli (GPa) = 68.40116 38.30620 69.12901
#
# Poissons Ratio (x) = 0.24823 -0.02524
# Poissons Ratio (y) = 0.44325 0.56734
# Poissons Ratio (z) = -0.02497 0.31438
#
# Static dielectric constant tensor:
#      x y z
#    x 1.808380 -0.021100 -0.023740 
#    y -0.021100 1.834080 -0.084610 
#    z -0.023740 -0.084610 1.784760 
# 
# From -- ./inp_files/544319.got.cif
#   From: 2010.05.17/outbox.cif.g08.bks.cpg/sg2_273_cif.got.tgz:544319.got - 2010.06.03 11:33:40.
