data_PCOD9031766
_publ_section_title
;
Structure prediction by ZEFSAII (Michael W. Deem and Ramdas Pophale) SiO2 
 PCOD9031766
Probable space group: P -1
;
_chemical_formula_sum "Si O2"
_cell_formula_units_Z 15
_cell_length_a 13.562259
_cell_length_b 12.144683
_cell_length_c 9.149429
_cell_angle_alpha 48.676172
_cell_angle_beta 143.641112
_cell_angle_gamma 121.728304
_cell_volume 670.882899
_symmetry_space_group_name_H-M "P -1"
_symmetry_group_IT_number 2
_symmetry_cell_setting 'triclinic'
loop_
_space_group_symop_operation_xyz
x,y,z
-x,-y,-z
loop_
_atom_site_type_symbol
_atom_site_label
_atom_site_fract_x
_atom_site_fract_y
_atom_site_fract_z
Si Si1 0.620597 0.223210 0.228443
Si Si2 0.550405 0.660839 0.370374
Si Si3 0.908460 0.061672 0.196730
Si Si4 0.477040 0.938047 0.192821
Si Si5 0.160258 0.419896 0.835164
Si Si6 0.500000 0.500000 0.000000
Si Si7 0.002982 0.141715 0.780626
Si Si8 0.911241 0.628682 0.872644
O O1 0.819747 0.215987 0.488300
O O2 0.564507 0.053228 0.301787
O O3 0.564314 0.288134 0.945881
O O4 0.527035 0.321855 0.151135
O O5 0.500000 0.500000 0.500000
O O6 0.542459 0.772466 0.399316
O O7 0.742745 0.664737 0.550577
O O8 0.982951 0.222895 0.109097
O O9 0.714059 0.074776 0.982804
O O10 0.000000 0.000000 0.500000
O O11 0.942080 0.929733 0.241597
O O12 0.500000 0.000000 0.000000
O O13 0.332578 0.471666 0.926306
O O14 0.000000 0.500000 0.500000
O O15 0.132625 0.252753 0.903826
O O16 0.141357 0.431148 0.978028
O O17 0.000000 0.000000 0.000000
O O18 0.000000 0.500000 0.000000
#
# Coordination Sequence:
#
# PCOD9031766 Si02
#       8
#     2   2   2   2   2   1   2   2
#     4  11  24  46  73 106 150 200 254 316 388 463
#     4  11  23  43  72 107 149 192 253 322 385 460
#     4  12  24  44  77 106 146 202 251 317 392 459
#     4  10  22  43  68 104 144 191 251 312 376 457
#     4  12  28  52  79 112 162 209 264 327 397 477
#     4  12  26  48  80 112 154 218 262 312 410 466
#     4  12  26  51  77 112 156 202 260 326 394 470
#     4  12  28  47  74 114 152 200 263 327 390 469
#
# _framework density 22.358599000000002
#
# number of rings (size 3 to 8) (size 9 to 14) (size 15 to 20)
#    0.000    0.533    2.667    6.400    3.733    1.067 
#    7.200    1.333    0.000    0.000    0.000    0.000 
#    0.000    0.000    0.000    0.000    0.000    0.000 
#
# Total GULP energy -83619.504042 kJ/mol
# GULP energy per Si atom -5574.633603 kJ/mol
# Density = 2.230771 g / cm^3
# Si number density = 22.358599 Si / 1000 Ang^3
#
#
#
# Elastic Constant Matrix: (Units=GPa)
#
#
# Indices 1 2 3 4 5 6 
#
# 1 148.3993 53.6471 41.9478 -0.2777 29.3406 -8.9460
# 2 53.6471 165.5183 15.2181 -11.4200 21.8710 -5.2634
# 3 41.9478 15.2181 85.0151 -2.7743 15.2166 -1.1599
# 4 -0.2777 -11.4200 -2.7743 36.2357 -2.2683 15.1631
# 5 29.3406 21.8710 15.2166 -2.2683 43.5017 -6.6794
# 6 -8.9460 -5.2634 -1.1599 15.1631 -6.6794 58.6589
#
#
#
# Elastic Compliance Matrix: (Units=1/GPa)
#
#
# Indices 1 2 3 4 5 6 
#
# 1 0.009405 -0.002287 -0.003580 -0.001643 -0.003851 0.001144
# 2 -0.002287 0.007183 0.000294 0.002367 -0.002133 -0.000553
# 3 -0.003580 0.000294 0.013990 0.001343 -0.002695 -0.000897
# 4 -0.001643 0.002367 0.001343 0.031885 -0.000159 -0.008272
# 5 -0.003851 -0.002133 -0.002695 -0.000159 0.027959 0.002393
# 6 0.001144 -0.000553 -0.000897 -0.008272 0.002393 0.019566
#
#
# Mechanical properties :
#
#
# Convention : Reuss Voigt Hill
#
# Bulk Modulus (GPa) = 51.45894 68.95095 60.20494
# Shear Modulus (GPa) = 39.18167 46.88725 43.03446
#
# Velocity S-wave (km/s) = 4.19073 4.58433 4.39194
# Velocity P-wave (km/s) = 6.81774 7.67640 7.25977
#
# Compressibility (1/GPa) = 0.01943297
#
# Stress axis : x y z
#
# Youngs Moduli (GPa) = 106.33141 139.20815 71.47881
#
# Poissons Ratio (x) = 0.31839 0.25587
# Poissons Ratio (y) = 0.24319 -0.02103
# Poissons Ratio (z) = 0.38063 -0.04095
#
# Static dielectric constant tensor:
#      x y z
#    x 1.759720 -0.021200 -0.068980 
#    y -0.021200 1.903140 -0.130110 
#    z -0.068980 -0.130110 1.280410 
# 
# From -- ./inp_files/261868.got.cif
#   From: 2010.05.17/outbox.cif.g08.bks.cpg/sg2_131_cif.got.tgz:261868.got - 2010.06.03 11:33:40.
