data_PCOD9031061
_publ_section_title
;
Structure prediction by ZEFSAII (Michael W. Deem and Ramdas Pophale) SiO2 
 PCOD9031061
Probable space group: P -1
;
_chemical_formula_sum "Si O2"
_cell_formula_units_Z 14
_cell_length_a 7.108318
_cell_length_b 7.044425
_cell_length_c 17.349281
_cell_angle_alpha 64.051194
_cell_angle_beta 48.901038
_cell_angle_gamma 60.407077
_cell_volume 560.750506
_symmetry_space_group_name_H-M "P -1"
_symmetry_group_IT_number 2
_symmetry_cell_setting 'triclinic'
loop_
_space_group_symop_operation_xyz
x,y,z
-x,-y,-z
loop_
_atom_site_type_symbol
_atom_site_label
_atom_site_fract_x
_atom_site_fract_y
_atom_site_fract_z
Si Si1 0.478442 0.007421 0.652053
Si Si2 0.415513 0.943941 0.859765
Si Si3 0.927873 0.361552 0.938841
Si Si4 0.283613 0.467128 0.345745
Si Si5 0.769255 0.862390 0.911683
Si Si6 0.930663 0.265894 0.781731
Si Si7 0.745256 0.345580 0.510607
O O1 0.497806 0.767495 0.656471
O O2 0.478245 0.969148 0.750281
O O3 0.710355 0.104625 0.547956
O O4 0.207776 0.199620 0.675240
O O5 0.208441 0.174516 0.904384
O O6 0.687933 0.888900 0.840149
O O7 0.283388 0.752574 0.951609
O O8 0.882567 0.604200 0.943164
O O9 0.900805 0.394039 0.847358
O O10 0.291043 0.608194 0.241667
O O11 0.284228 0.606374 0.397654
O O12 0.022739 0.390444 0.413807
O O13 0.942490 0.020222 0.851659
O O14 0.500000 0.000000 0.000000
O O15 0.500000 0.500000 0.500000
#
# Coordination Sequence:
#
# PCOD9031061 Si02
#       7
#     2   2   2   2   2   2   2
#     4  11  24  44  70 100 133 178 227 280 340 406
#     4  10  22  43  64  92 135 181 224 279 339 389
#     4  10  23  43  62  92 138 180 223 284 328 393
#     4  11  25  45  75  99 137 178 221 281 345 413
#     4  12  24  37  63  95 131 182 232 275 330 395
#     4  11  24  43  64 102 135 176 232 273 337 404
#     4  11  24  49  71 103 137 170 223 284 347 413
#
# _framework density 24.966539000000001
#
# number of rings (size 3 to 8) (size 9 to 14) (size 15 to 20)
#    0.000    1.143    2.857    2.571    2.000    4.571 
#    5.143    0.000    0.000    0.000    0.000    0.000 
#    0.000    0.000    0.000    0.000    0.000    0.000 
#
# Total GULP energy -78223.774262 kJ/mol
# GULP energy per Si atom -5587.412447 kJ/mol
# Density = 2.490971 g / cm^3
# Si number density = 24.966539 Si / 1000 Ang^3
#
#
#
# Elastic Constant Matrix: (Units=GPa)
#
#
# Indices 1 2 3 4 5 6 
#
# 1 66.6760 -2.7772 -1.8624 -7.8482 15.4337 -11.6684
# 2 -2.7772 162.5369 20.0232 -28.2852 10.7736 4.0913
# 3 -1.8624 20.0232 39.5042 -14.7255 -7.4771 -6.6034
# 4 -7.8482 -28.2852 -14.7255 24.7001 -3.6848 -2.5640
# 5 15.4337 10.7736 -7.4771 -3.6848 35.8107 -12.3055
# 6 -11.6684 4.0913 -6.6034 -2.5640 -12.3055 23.2111
#
#
#
# Elastic Compliance Matrix: (Units=1/GPa)
#
#
# Indices 1 2 3 4 5 6 
#
# 1 0.019214 0.001603 0.006185 0.012454 -0.002312 0.011286
# 2 0.001603 0.008085 -0.002237 0.007656 -0.003599 -0.002318
# 3 0.006185 -0.002237 0.051175 0.037245 0.024633 0.035236
# 4 0.012454 0.007656 0.037245 0.082216 0.020805 0.035619
# 5 -0.002312 -0.003599 0.024633 0.020805 0.049282 0.034906
# 6 0.011286 -0.002318 0.035236 0.035619 0.034906 0.081630
#
#
# Mechanical properties :
#
#
# Convention : Reuss Voigt Hill
#
# Bulk Modulus (GPa) = 11.16385 33.27602 22.21993
# Shear Modulus (GPa) = 16.11042 33.63326 24.87184
#
# Velocity S-wave (km/s) = 2.54299 3.67431 3.15970
# Velocity P-wave (km/s) = 3.61990 5.59982 4.71496
#
# Compressibility (1/GPa) = 0.08957485
#
# Stress axis : x y z
#
# Youngs Moduli (GPa) = 52.04656 123.69092 19.54080
#
# Poissons Ratio (x) = -0.19826 -0.12086
# Poissons Ratio (y) = -0.08342 0.04371
# Poissons Ratio (z) = -0.32190 0.27668
#
# Static dielectric constant tensor:
#      x y z
#    x 2.281090 -0.201410 -0.402680 
#    y -0.201410 2.108290 0.234130 
#    z -0.402680 0.234130 2.453700 
# 
# From -- ./inp_files/585518.got.cif
#   From: 2010.05.17/outbox.cif.g08.bks.cpg/sg2_293_cif.got.tgz:585518.got - 2010.06.03 11:33:40.
