data_PCOD9031577
_publ_section_title
;
Structure prediction by ZEFSAII (Michael W. Deem and Ramdas Pophale) SiO2 
 PCOD9031577
Probable space group: P -1
;
_chemical_formula_sum "Si O2"
_cell_formula_units_Z 14
_cell_length_a 6.344178
_cell_length_b 8.998941
_cell_length_c 17.702608
_cell_angle_alpha 119.827776
_cell_angle_beta 83.481965
_cell_angle_gamma 129.984928
_cell_volume 638.684041
_symmetry_space_group_name_H-M "P -1"
_symmetry_group_IT_number 2
_symmetry_cell_setting 'triclinic'
loop_
_space_group_symop_operation_xyz
x,y,z
-x,-y,-z
loop_
_atom_site_type_symbol
_atom_site_label
_atom_site_fract_x
_atom_site_fract_y
_atom_site_fract_z
Si Si1 0.521761 0.495666 0.307113
Si Si2 0.907704 0.564822 0.189135
Si Si3 0.540881 0.889889 0.193866
Si Si4 0.452565 0.455631 0.078773
Si Si5 0.378745 0.752642 0.469544
Si Si6 0.984205 0.221830 0.145980
Si Si7 0.701132 0.316106 0.372673
O O1 0.802179 0.633951 0.276607
O O2 0.504279 0.665382 0.393679
O O3 0.239979 0.322977 0.221169
O O4 0.536451 0.347917 0.328641
O O5 0.658499 0.430828 0.102566
O O6 0.207969 0.763433 0.184730
O O7 0.932134 0.395754 0.186098
O O8 0.546383 0.694805 0.168500
O O9 0.705300 0.121147 0.295527
O O10 0.690278 0.980805 0.128703
O O11 0.123630 0.249107 0.066834
O O12 0.500000 0.500000 0.000000
O O13 0.434423 0.753172 0.556133
O O14 0.031537 0.560574 0.425230
O O15 0.500000 0.000000 0.500000
#
# Coordination Sequence:
#
# PCOD9031577 Si02
#       7
#     2   2   2   2   2   2   2
#     4  11  21  44  65  90 132 171 221 267 321 387
#     4  10  23  40  68  95 127 172 214 271 322 383
#     4  11  23  41  69  96 129 172 218 268 323 385
#     4  10  25  44  67 101 134 168 213 265 331 394
#     4  11  26  43  63  93 138 171 217 276 322 378
#     4  10  22  43  67  94 130 168 219 270 314 391
#     4  11  25  42  64  97 130 171 224 268 323 383
#
# _framework density 21.920072000000001
#
# number of rings (size 3 to 8) (size 9 to 14) (size 15 to 20)
#    0.000    1.429    2.857    0.429   10.000    3.429 
#    2.571    1.429    0.000    0.000    0.000    0.000 
#    0.000    0.000    0.000    0.000    0.000    0.000 
#
# Total GULP energy -78228.927234 kJ/mol
# GULP energy per Si atom -5587.780517 kJ/mol
# Density = 2.187018 g / cm^3
# Si number density = 21.920072 Si / 1000 Ang^3
#
#
#
# Elastic Constant Matrix: (Units=GPa)
#
#
# Indices 1 2 3 4 5 6 
#
# 1 106.9523 55.2417 35.6559 -24.9148 -1.9379 -2.7780
# 2 55.2417 152.5000 34.7727 -20.0924 -16.1923 15.5189
# 3 35.6559 34.7727 68.4295 -20.5264 -7.2521 -11.7378
# 4 -24.9148 -20.0924 -20.5264 48.6197 -4.4942 -10.3425
# 5 -1.9379 -16.1923 -7.2521 -4.4942 22.0908 -9.7847
# 6 -2.7780 15.5189 -11.7378 -10.3425 -9.7847 42.1060
#
#
#
# Elastic Compliance Matrix: (Units=1/GPa)
#
#
# Indices 1 2 3 4 5 6 
#
# 1 0.013554 -0.003864 -0.003594 0.004182 -0.001041 0.002101
# 2 -0.003864 0.009449 -0.002814 0.000394 0.004217 -0.003445
# 3 -0.003594 -0.002814 0.025662 0.012283 0.014943 0.014443
# 4 0.004182 0.000394 0.012283 0.033178 0.018529 0.016010
# 5 -0.001041 0.004217 0.014943 0.018529 0.066979 0.022658
# 6 0.002101 -0.003445 0.014443 0.016010 0.022658 0.038382
#
#
# Mechanical properties :
#
#
# Convention : Reuss Voigt Hill
#
# Bulk Modulus (GPa) = 35.56164 64.35804 49.95984
# Shear Modulus (GPa) = 23.02861 36.04406 29.53634
#
# Velocity S-wave (km/s) = 3.24477 4.05945 3.67475
# Velocity P-wave (km/s) = 5.50423 7.16911 6.39112
#
# Compressibility (1/GPa) = 0.02812019
#
# Stress axis : x y z
#
# Youngs Moduli (GPa) = 73.78002 105.83285 38.96814
#
# Poissons Ratio (x) = 0.40889 0.14007
# Poissons Ratio (y) = 0.28505 0.10967
# Poissons Ratio (z) = 0.26520 0.29784
#
# Static dielectric constant tensor:
#      x y z
#    x 1.777870 0.037730 -0.014910 
#    y 0.037730 1.813300 -0.007350 
#    z -0.014910 -0.007350 1.852010 
# 
# From -- ./inp_files/38303.got.cif
#   From: 2010.05.17/outbox.cif.g08.bks.cpg/sg2_20_cif.got.tgz:38303.got - 2010.06.03 11:33:40.
