data_PCOD9031510
_publ_section_title
;
Structure prediction by ZEFSAII (Michael W. Deem and Ramdas Pophale) SiO2 
 PCOD9031510
Probable space group: P -1
;
_chemical_formula_sum "Si O2"
_cell_formula_units_Z 14
_cell_length_a 10.762479
_cell_length_b 12.127678
_cell_length_c 4.960823
_cell_angle_alpha 61.197463
_cell_angle_beta 78.613037
_cell_angle_gamma 96.049502
_cell_volume 540.866927
_symmetry_space_group_name_H-M "P -1"
_symmetry_group_IT_number 2
_symmetry_cell_setting 'triclinic'
loop_
_space_group_symop_operation_xyz
x,y,z
-x,-y,-z
loop_
_atom_site_type_symbol
_atom_site_label
_atom_site_fract_x
_atom_site_fract_y
_atom_site_fract_z
Si Si1 0.443840 0.197788 0.717857
Si Si2 0.026606 0.138303 0.479487
Si Si3 0.362890 0.599111 0.927105
Si Si4 0.102663 0.774528 0.060075
Si Si5 0.726079 0.665004 0.000397
Si Si6 0.383922 0.939638 0.826756
Si Si7 0.798619 0.434070 0.455136
O O1 0.515817 0.288993 0.342140
O O2 0.368921 0.278679 0.837711
O O3 0.347169 0.065575 0.820540
O O4 0.553174 0.140987 0.891579
O O5 0.964061 0.145548 0.790295
O O6 0.958526 0.220576 0.208862
O O7 0.000000 0.000000 0.500000
O O8 0.177667 0.217139 0.330251
O O9 0.357880 0.452420 0.005671
O O10 0.244263 0.620601 0.758923
O O11 0.326253 0.597009 0.255131
O O12 0.100689 0.636087 0.364806
O O13 0.254152 0.848317 0.879326
O O14 0.815597 0.587331 0.227039
O O15 0.500000 0.000000 0.500000
#
# Coordination Sequence:
#
# PCOD9031510 Si02
#       7
#     2   2   2   2   2   2   2
#     4  11  23  43  68 104 143 181 228 296 344 420
#     4  12  29  48  72 101 142 189 232 283 341 416
#     4  10  22  43  67 102 141 171 235 280 351 408
#     4  12  26  48  74 100 144 180 237 288 338 414
#     4  10  26  44  70 102 142 184 235 280 353 409
#     4  11  25  40  73 105 137 187 232 283 357 406
#     4  10  23  43  70 101 137 179 231 280 352 397
#
# _framework density 25.884371999999999
#
# number of rings (size 3 to 8) (size 9 to 14) (size 15 to 20)
#    0.857    0.286    1.429    3.429    8.000    2.857 
#    0.000    0.000    0.000    0.000    0.000    0.000 
#    0.000    0.000    0.000    0.000    0.000    0.000 
#
# Total GULP energy -78359.161965 kJ/mol
# GULP energy per Si atom -5597.082998 kJ/mol
# Density = 2.582546 g / cm^3
# Si number density = 25.884372 Si / 1000 Ang^3
#
#
#
# Elastic Constant Matrix: (Units=GPa)
#
#
# Indices 1 2 3 4 5 6 
#
# 1 62.3645 8.5921 23.8093 -19.1464 9.9350 -5.5877
# 2 8.5921 160.5689 20.8859 -18.0864 -15.3966 -8.3564
# 3 23.8093 20.8859 116.8647 -5.7359 -11.8385 3.2739
# 4 -19.1464 -18.0864 -5.7359 49.1848 0.4592 -0.1631
# 5 9.9350 -15.3966 -11.8385 0.4592 53.4749 -8.8573
# 6 -5.5877 -8.3564 3.2739 -0.1631 -8.8573 38.7870
#
#
#
# Elastic Compliance Matrix: (Units=1/GPa)
#
#
# Indices 1 2 3 4 5 6 
#
# 1 0.021041 0.000010 -0.004438 0.007727 -0.004558 0.002400
# 2 0.000010 0.006936 -0.000967 0.002429 0.002103 0.002068
# 3 -0.004438 -0.000967 0.009877 -0.000959 0.002559 -0.001101
# 4 0.007727 0.002429 -0.000959 0.024134 -0.000888 0.001616
# 5 -0.004558 0.002103 0.002559 -0.000888 0.021469 0.004479
# 6 0.002400 0.002068 -0.001101 0.001616 0.004479 0.027696
#
#
# Mechanical properties :
#
#
# Convention : Reuss Voigt Hill
#
# Bulk Modulus (GPa) = 36.95161 49.59698 43.27430
# Shear Modulus (GPa) = 38.17808 47.39007 42.78407
#
# Velocity S-wave (km/s) = 3.84467 4.28347 4.06999
# Velocity P-wave (km/s) = 5.83226 6.60808 6.23226
#
# Compressibility (1/GPa) = 0.02706242
#
# Stress axis : x y z
#
# Youngs Moduli (GPa) = 47.52569 144.17622 101.24597
#
# Poissons Ratio (x) = -0.00138 0.44935
# Poissons Ratio (y) = -0.00046 0.09793
# Poissons Ratio (z) = 0.21093 0.13946
#
# Static dielectric constant tensor:
#      x y z
#    x 2.096610 -0.004010 0.028190 
#    y -0.004010 2.077640 -0.051890 
#    z 0.028190 -0.051890 1.974550 
# 
# From -- ./inp_files/68312.got.cif
#   From: 2010.05.17/outbox.cif.g08.bks.cpg/sg2_35_cif.got.tgz:68312.got - 2010.06.03 11:33:40.
