data_PCOD9031355
_publ_section_title
;
Structure prediction by ZEFSAII (Michael W. Deem and Ramdas Pophale) SiO2 
 PCOD9031355
Probable space group: P -1
;
_chemical_formula_sum "Si O2"
_cell_formula_units_Z 16
_cell_length_a 12.137125
_cell_length_b 16.436426
_cell_length_c 9.516401
_cell_angle_alpha 60.441229
_cell_angle_beta 102.357841
_cell_angle_gamma 51.295628
_cell_volume 822.698090
_symmetry_space_group_name_H-M "P -1"
_symmetry_group_IT_number 2
_symmetry_cell_setting 'triclinic'
loop_
_space_group_symop_operation_xyz
x,y,z
-x,-y,-z
loop_
_atom_site_type_symbol
_atom_site_label
_atom_site_fract_x
_atom_site_fract_y
_atom_site_fract_z
Si Si1 0.006483 0.255992 0.852721
Si Si2 0.526425 0.572253 0.346380
Si Si3 0.930983 0.462142 0.110004
Si Si4 0.918571 0.529236 0.604535
Si Si5 0.416471 0.826228 0.277453
Si Si6 0.966422 0.805022 0.773277
Si Si7 0.423859 0.792952 0.635195
Si Si8 0.667265 0.317718 0.112865
O O1 0.791458 0.403017 0.568759
O O2 0.039845 0.342485 0.820028
O O3 0.942862 0.263758 0.983704
O O4 0.216041 0.045237 0.035870
O O5 0.500000 0.500000 0.500000
O O6 0.399413 0.750496 0.232066
O O7 0.434504 0.626326 0.117849
O O8 0.011112 0.437015 0.304138
O O9 0.023705 0.300205 0.211779
O O10 0.670433 0.631942 0.890863
O O11 0.000000 0.500000 0.000000
O O12 0.656291 0.699625 0.413729
O O13 0.000000 0.500000 0.500000
O O14 0.426383 0.777472 0.480538
O O15 0.110393 0.781015 0.756761
O O16 0.715716 0.015108 0.539925
O O17 0.314120 0.788829 0.698651
O O18 0.500000 0.500000 0.000000
#
# Coordination Sequence:
#
# PCOD9031355 Si02
#       8
#     2   2   2   2   2   2   2   2
#     4  10  22  43  66  92 127 167 212 262 318 385
#     4  11  22  41  64  92 128 168 211 252 313 381
#     4  12  22  42  67  94 125 171 216 260 322 382
#     4  11  25  42  64  91 129 166 211 267 321 377
#     4  10  23  44  65  92 127 169 211 260 323 383
#     4  11  23  43  66  97 130 169 216 263 320 379
#     4  11  24  42  66  97 132 166 215 268 318 378
#     4  12  24  43  67  95 135 172 211 268 318 373
#
# _framework density 19.448202999999999
#
# number of rings (size 3 to 8) (size 9 to 14) (size 15 to 20)
#    0.000    1.000    5.000    1.875    3.500    2.500 
#    6.750    0.000    0.000    0.000    0.000    0.000 
#    0.000    0.000    0.000    0.000    0.000    0.000 
#
# Total GULP energy -89300.362905 kJ/mol
# GULP energy per Si atom -5581.272682 kJ/mol
# Density = 1.940394 g / cm^3
# Si number density = 19.448203 Si / 1000 Ang^3
#
#
#
# Elastic Constant Matrix: (Units=GPa)
#
#
# Indices 1 2 3 4 5 6 
#
# 1 77.2608 67.3070 -1.8709 2.0178 -41.1980 11.2543
# 2 67.3070 174.7730 74.1913 -0.6033 21.8413 8.8738
# 3 -1.8709 74.1913 20.6026 -5.3551 -36.6367 24.6982
# 4 2.0178 -0.6033 -5.3551 34.7173 5.8134 -7.2243
# 5 -41.1980 21.8413 -36.6367 5.8134 -30.8599 29.3325
# 6 11.2543 8.8738 24.6982 -7.2243 29.3325 31.2619
#
#
#
# Elastic Compliance Matrix: (Units=1/GPa)
#
#
# Indices 1 2 3 4 5 6 
#
# 1 0.011301 -0.001388 -0.006478 -0.000036 -0.003711 0.004918
# 2 -0.001388 0.008306 -0.006905 -0.003690 0.009432 -0.006105
# 3 -0.006478 -0.006905 0.028256 0.009570 -0.022738 0.005515
# 4 -0.000036 -0.003690 0.009570 0.031763 -0.003777 0.004383
# 5 -0.003711 0.009432 -0.022738 -0.003777 0.010825 0.005593
# 6 0.004918 -0.006105 0.005515 0.004383 0.005593 0.023358
#
#
# Mechanical properties :
#
#
# Convention : Reuss Voigt Hill
#
# Bulk Modulus (GPa) = 54.58564 61.32125 57.95345
# Shear Modulus (GPa) = 33.45390 15.89111 24.67250
#
# Velocity S-wave (km/s) = 4.15197 2.86160 3.56564
# Velocity P-wave (km/s) = 7.14936 6.52053 6.84217
#
# Compressibility (1/GPa) = 0.01831984
#
# Stress axis : x y z
#
# Youngs Moduli (GPa) = 88.48479 120.39322 35.39062
#
# Poissons Ratio (x) = 0.16713 0.22928
# Poissons Ratio (y) = 0.12283 0.24438
# Poissons Ratio (z) = 0.57325 0.83134
#
# Static dielectric constant tensor:
#      x y z
#    x 1.730100 -0.028250 -0.051790 
#    y -0.028250 1.632120 0.009290 
#    z -0.051790 0.009290 1.717590 
# 
# From -- ./inp_files/272588.got.cif
#   From: 2010.05.17/outbox.cif.g08.bks.cpg/sg2_137_cif.got.tgz:272588.got - 2010.06.03 11:33:40.
