data_PCOD9031293
_publ_section_title
;
Structure prediction by ZEFSAII (Michael W. Deem and Ramdas Pophale) SiO2 
 PCOD9031293
Probable space group: P -1
;
_chemical_formula_sum "Si O2"
_cell_formula_units_Z 16
_cell_length_a 5.458713
_cell_length_b 12.475741
_cell_length_c 11.587665
_cell_angle_alpha 113.318481
_cell_angle_beta 112.331445
_cell_angle_gamma 72.963718
_cell_volume 660.820314
_symmetry_space_group_name_H-M "P -1"
_symmetry_group_IT_number 2
_symmetry_cell_setting 'triclinic'
loop_
_space_group_symop_operation_xyz
x,y,z
-x,-y,-z
loop_
_atom_site_type_symbol
_atom_site_label
_atom_site_fract_x
_atom_site_fract_y
_atom_site_fract_z
Si Si1 0.266068 0.595879 0.838702
Si Si2 0.933191 0.593135 0.132423
Si Si3 0.736448 0.436910 0.433747
Si Si4 0.466818 0.869065 0.403486
Si Si5 0.391977 0.214212 0.974707
Si Si6 0.918777 0.262352 0.579816
Si Si7 0.847113 0.820248 0.867905
Si Si8 0.222142 0.948613 0.158438
O O1 0.260934 0.476160 0.855544
O O2 0.368078 0.569148 0.717094
O O3 0.982765 0.685513 0.812524
O O4 0.431708 0.682628 0.971285
O O5 0.870813 0.716555 0.103357
O O6 0.110422 0.630805 0.285559
O O7 0.000000 0.500000 0.000000
O O8 0.500000 0.500000 0.500000
O O9 0.838153 0.312152 0.460279
O O10 0.000000 0.500000 0.500000
O O11 0.296446 0.815864 0.448173
O O12 0.278905 0.889093 0.265569
O O13 0.763782 0.796376 0.394165
O O14 0.500000 0.000000 0.500000
O O15 0.502329 0.093405 0.880313
O O16 0.407744 0.190400 0.103597
O O17 0.830440 0.909241 0.796181
O O18 0.009456 0.888824 0.020650
#
# Coordination Sequence:
#
# PCOD9031293 Si02
#       8
#     2   2   2   2   2   2   2   2
#     4  11  26  41  68 105 139 190 241 293 371 448
#     4  12  24  42  73 105 151 186 238 300 372 454
#     4  12  28  49  73 103 149 195 247 298 360 447
#     4  12  28  50  75 107 143 195 257 309 373 436
#     4  11  22  40  66 102 136 183 234 299 369 437
#     4  12  28  51  77 106 150 198 249 309 376 439
#     4  10  22  43  66 100 141 185 238 301 373 439
#     4  10  23  42  68  97 142 183 244 306 370 431
#
# _framework density 24.212330000000001
#
# number of rings (size 3 to 8) (size 9 to 14) (size 15 to 20)
#    0.000    0.750    3.750    2.625    7.000    1.000 
#    0.000    0.000    0.000    0.000    0.000    0.000 
#    0.000    0.000    0.000    0.000    0.000    0.000 
#
# Total GULP energy -89272.411982 kJ/mol
# GULP energy per Si atom -5579.525749 kJ/mol
# Density = 2.415722 g / cm^3
# Si number density = 24.212330 Si / 1000 Ang^3
#
#
#
# Elastic Constant Matrix: (Units=GPa)
#
#
# Indices 1 2 3 4 5 6 
#
# 1 84.5986 62.4471 18.2051 -2.6306 -8.6262 24.0345
# 2 62.4471 118.4650 28.1743 -15.5507 1.5671 22.7853
# 3 18.2051 28.1743 70.1797 -2.0264 -15.6347 4.3950
# 4 -2.6306 -15.5507 -2.0264 40.6772 8.7707 -4.2619
# 5 -8.6262 1.5671 -15.6347 8.7707 31.3143 -2.3449
# 6 24.0345 22.7853 4.3950 -4.2619 -2.3449 40.2285
#
#
#
# Elastic Compliance Matrix: (Units=1/GPa)
#
#
# Indices 1 2 3 4 5 6 
#
# 1 0.023135 -0.011857 0.000938 -0.005577 0.008449 -0.007307
# 2 -0.011857 0.017514 -0.005667 0.007424 -0.009199 -0.001966
# 3 0.000938 -0.005667 0.018537 -0.003422 0.010823 0.000893
# 4 -0.005577 0.007424 -0.003422 0.029633 -0.011770 0.001955
# 5 0.008449 -0.009199 0.010823 -0.011770 0.043442 0.000265
# 6 -0.007307 -0.001966 0.000893 0.001955 0.000265 0.030462
#
#
# Mechanical properties :
#
#
# Convention : Reuss Voigt Hill
#
# Bulk Modulus (GPa) = 38.44151 54.54402 46.49276
# Shear Modulus (GPa) = 24.44179 33.40511 28.92345
#
# Velocity S-wave (km/s) = 3.18067 3.71843 3.46001
# Velocity P-wave (km/s) = 5.42220 6.40405 5.93347
#
# Compressibility (1/GPa) = 0.02601355
#
# Stress axis : x y z
#
# Youngs Moduli (GPa) = 43.22459 57.09862 53.94503
#
# Poissons Ratio (x) = 0.67700 -0.05058
# Poissons Ratio (y) = 0.51250 0.30571
# Poissons Ratio (z) = -0.04053 0.32358
#
# Static dielectric constant tensor:
#      x y z
#    x 2.340860 -0.143490 0.166970 
#    y -0.143490 2.018560 -0.110160 
#    z 0.166970 -0.110160 2.030130 
# 
# From -- ./inp_files/78799.got.cif
#   From: 2010.05.17/outbox.cif.g08.bks.cpg/sg2_40_cif.got.tgz:78799.got - 2010.06.03 11:33:40.
