data_PCOD9031720
_publ_section_title
;
Structure prediction by ZEFSAII (Michael W. Deem and Ramdas Pophale) SiO2 
 PCOD9031720
Probable space group: P -1
;
_chemical_formula_sum "Si O2"
_cell_formula_units_Z 14
_cell_length_a 8.669449
_cell_length_b 9.591780
_cell_length_c 11.532455
_cell_angle_alpha 47.490784
_cell_angle_beta 99.757313
_cell_angle_gamma 107.419267
_cell_volume 673.780445
_symmetry_space_group_name_H-M "P -1"
_symmetry_group_IT_number 2
_symmetry_cell_setting 'triclinic'
loop_
_space_group_symop_operation_xyz
x,y,z
-x,-y,-z
loop_
_atom_site_type_symbol
_atom_site_label
_atom_site_fract_x
_atom_site_fract_y
_atom_site_fract_z
Si Si1 0.122793 0.716689 0.878157
Si Si2 0.211751 0.128937 0.522513
Si Si3 0.858385 0.605187 0.456390
Si Si4 0.407098 0.678066 0.545903
Si Si5 0.028428 0.987812 0.875870
Si Si6 0.742493 0.968074 0.673009
Si Si7 0.573145 0.363223 0.165887
O O1 0.271100 0.659149 0.868532
O O2 0.116219 0.820241 0.944071
O O3 0.132684 0.918323 0.689578
O O4 0.000000 0.500000 0.000000
O O5 0.134288 0.296959 0.470456
O O6 0.407653 0.206068 0.523885
O O7 0.195669 0.104342 0.397094
O O8 0.683114 0.464527 0.485885
O O9 0.000000 0.500000 0.500000
O O10 0.875125 0.796625 0.272086
O O11 0.404531 0.578394 0.728524
O O12 0.286760 0.819646 0.466969
O O13 0.860275 0.949079 0.803281
O O14 0.000000 0.000000 0.000000
O O15 0.561505 0.839789 0.738062
O O16 0.500000 0.500000 0.000000
#
# Coordination Sequence:
#
# PCOD9031720 Si02
#       7
#     2   2   2   2   2   2   2
#     4  11  23  42  67  98 135 172 213 274 330 392
#     4  10  22  43  68 101 129 168 231 268 327 388
#     4  11  24  41  66  98 134 176 216 272 329 391
#     4  11  21  43  70  96 133 170 218 280 319 396
#     4  11  27  45  61  98 140 176 215 270 337 388
#     4  11  21  44  73  93 129 176 218 281 318 395
#     4  11  23  41  67 101 128 172 226 268 331 385
#
# _framework density 20.778282999999998
#
# number of rings (size 3 to 8) (size 9 to 14) (size 15 to 20)
#    0.000    1.143    4.286    2.143    4.000    3.429 
#    5.143    0.714    0.000    0.000    0.000    0.000 
#    0.000    0.000    0.000    0.000    0.000    0.000 
#
# Total GULP energy -78002.877636 kJ/mol
# GULP energy per Si atom -5571.634117 kJ/mol
# Density = 2.073099 g / cm^3
# Si number density = 20.778283 Si / 1000 Ang^3
#
#
#
# Elastic Constant Matrix: (Units=GPa)
#
#
# Indices 1 2 3 4 5 6 
#
# 1 111.0850 47.6081 23.6135 -7.8460 -23.2850 -5.4866
# 2 47.6081 127.5798 56.3426 -1.7677 -11.8607 -6.0276
# 3 23.6135 56.3426 72.9911 0.2738 -20.0932 -5.8350
# 4 -7.8460 -1.7677 0.2738 37.3915 -4.0255 -0.5752
# 5 -23.2850 -11.8607 -20.0932 -4.0255 32.2676 -1.7208
# 6 -5.4866 -6.0276 -5.8350 -0.5752 -1.7208 44.6883
#
#
#
# Elastic Compliance Matrix: (Units=1/GPa)
#
#
# Indices 1 2 3 4 5 6 
#
# 1 0.012895 -0.004804 0.002263 0.003507 0.009473 0.001640
# 2 -0.004804 0.013765 -0.010485 -0.000830 -0.005056 -0.000308
# 3 0.002263 -0.010485 0.025035 0.001309 0.013674 0.002676
# 4 0.003507 -0.000830 0.001309 0.028160 0.006613 0.001107
# 5 0.009473 -0.005056 0.013674 0.006613 0.045527 0.004105
# 6 0.001640 -0.000308 0.002676 0.001107 0.004105 0.023059
#
#
# Mechanical properties :
#
#
# Convention : Reuss Voigt Hill
#
# Bulk Modulus (GPa) = 38.99817 62.97603 50.98710
# Shear Modulus (GPa) = 27.31640 35.14227 31.22934
#
# Velocity S-wave (km/s) = 3.62976 4.11700 3.88103
# Velocity P-wave (km/s) = 6.03128 7.27832 6.68395
#
# Compressibility (1/GPa) = 0.02564223
#
# Stress axis : x y z
#
# Youngs Moduli (GPa) = 77.55228 72.64707 39.94458
#
# Poissons Ratio (x) = 0.34901 -0.09038
# Poissons Ratio (y) = 0.37258 0.41880
# Poissons Ratio (z) = -0.17547 0.76167
#
# Static dielectric constant tensor:
#      x y z
#    x 1.778890 -0.029960 0.020630 
#    y -0.029960 1.837390 -0.063530 
#    z 0.020630 -0.063530 1.799930 
# 
# From -- ./inp_files/154320.got.cif
#   From: 2010.05.17/outbox.cif.g08.bks.cpg/sg2_78_cif.got.tgz:154320.got - 2010.06.03 11:33:40.
