data_PCOD9031887
_publ_section_title
;
Structure prediction by ZEFSAII (Michael W. Deem and Ramdas Pophale) SiO2 
 PCOD9031887
Probable space group: P -1
;
_chemical_formula_sum "Si O2"
_cell_formula_units_Z 16
_cell_length_a 5.226357
_cell_length_b 8.962694
_cell_length_c 18.286841
_cell_angle_alpha 46.339505
_cell_angle_beta 79.509338
_cell_angle_gamma 91.143245
_cell_volume 596.430385
_symmetry_space_group_name_H-M "P -1"
_symmetry_group_IT_number 2
_symmetry_cell_setting 'triclinic'
loop_
_space_group_symop_operation_xyz
x,y,z
-x,-y,-z
loop_
_atom_site_type_symbol
_atom_site_label
_atom_site_fract_x
_atom_site_fract_y
_atom_site_fract_z
Si Si1 0.356127 0.841625 0.240290
Si Si2 0.973365 0.432552 0.387605
Si Si3 0.929876 0.209169 0.965028
Si Si4 0.604492 0.524876 0.868584
Si Si5 0.819705 0.730467 0.924038
Si Si6 0.255218 0.103288 0.499872
Si Si7 0.386108 0.483852 0.752559
Si Si8 0.514751 0.253784 0.575559
O O1 0.516507 0.718735 0.218736
O O2 0.481213 0.849546 0.311420
O O3 0.070450 0.677046 0.318665
O O4 0.309923 0.064107 0.141407
O O5 0.790649 0.419708 0.330211
O O6 0.798018 0.290305 0.506030
O O7 0.250149 0.347953 0.397094
O O8 0.937037 0.205073 0.054333
O O9 0.159357 0.381125 0.857730
O O10 0.672116 0.295583 0.926117
O O11 0.000000 0.000000 0.000000
O O12 0.830901 0.659665 0.863477
O O13 0.574150 0.623205 0.757846
O O14 0.355688 0.468137 0.955823
O O15 0.289912 0.122791 0.578915
O O16 0.500000 0.000000 0.500000
O O17 0.000000 0.000000 0.500000
O O18 0.500000 0.500000 0.500000
#
# Coordination Sequence:
#
# PCOD9031887 Si02
#       8
#     2   2   2   2   2   2   2   2
#     4  12  25  43  71 105 143 192 261 313 374 457
#     4  12  24  45  75 103 150 194 260 316 381 449
#     4  11  21  39  67  97 133 184 239 299 377 447
#     4  10  22  43  68  97 148 186 235 308 384 459
#     4  10  23  42  66 100 140 186 240 305 384 453
#     4  12  27  50  78 109 147 201 254 315 392 456
#     4  11  23  40  67 101 137 187 238 308 371 451
#     4  12  25  48  77 106 150 201 253 323 382 447
#
# _framework density 26.826263999999998
#
# number of rings (size 3 to 8) (size 9 to 14) (size 15 to 20)
#    0.000    0.750    3.750    3.750    0.000    3.000 
#    2.250    0.000    0.000    0.000    0.000    0.000 
#    0.000    0.000    0.000    0.000    0.000    0.000 
#
# Total GULP energy -89385.952369 kJ/mol
# GULP energy per Si atom -5586.622023 kJ/mol
# Density = 2.676521 g / cm^3
# Si number density = 26.826264 Si / 1000 Ang^3
#
#
#
# Elastic Constant Matrix: (Units=GPa)
#
#
# Indices 1 2 3 4 5 6 
#
# 1 108.4818 51.7831 28.3300 18.5287 47.9220 6.9384
# 2 51.7831 142.4742 46.2822 27.6834 25.7724 10.9161
# 3 28.3300 46.2822 111.3289 33.6109 37.3177 8.2874
# 4 18.5287 27.6834 33.6109 62.6157 11.7427 16.9493
# 5 47.9220 25.7724 37.3177 11.7427 47.8668 2.6822
# 6 6.9384 10.9161 8.2874 16.9493 2.6822 49.0521
#
#
#
# Elastic Compliance Matrix: (Units=1/GPa)
#
#
# Indices 1 2 3 4 5 6 
#
# 1 0.019311 -0.004348 0.004202 -0.002179 -0.019697 -0.000644
# 2 -0.004348 0.009568 -0.003025 -0.001531 0.001968 -0.000582
# 3 0.004202 -0.003025 0.015265 -0.005694 -0.013092 0.000183
# 4 -0.002179 -0.001531 -0.005694 0.021490 0.002507 -0.005951
# 5 -0.019697 0.001968 -0.013092 0.002507 0.049087 0.001010
# 6 -0.000644 -0.000582 0.000183 -0.005951 0.001010 0.022577
#
#
# Mechanical properties :
#
#
# Convention : Reuss Voigt Hill
#
# Bulk Modulus (GPa) = 26.45426 68.34172 47.39799
# Shear Modulus (GPa) = 32.00207 47.63291 39.81749
#
# Velocity S-wave (km/s) = 3.45764 4.21837 3.85681
# Velocity P-wave (km/s) = 5.08164 7.01834 6.12700
#
# Compressibility (1/GPa) = 0.03780110
#
# Stress axis : x y z
#
# Youngs Moduli (GPa) = 51.78405 104.51623 65.51081
#
# Poissons Ratio (x) = 0.45441 -0.27527
# Poissons Ratio (y) = 0.22515 0.19819
# Poissons Ratio (z) = -0.21759 0.31620
#
# Static dielectric constant tensor:
#      x y z
#    x 2.592000 -0.055030 -0.439590 
#    y -0.055030 2.164320 0.074390 
#    z -0.439590 0.074390 2.727850 
# 
# From -- ./inp_files/547763.got.cif
#   From: 2010.05.17/outbox.cif.g08.bks.cpg/sg2_274_cif.got.tgz:547763.got - 2010.06.03 11:33:40.
