data_PCOD9031603
_publ_section_title
;
Structure prediction by ZEFSAII (Michael W. Deem and Ramdas Pophale) SiO2 
 PCOD9031603
Probable space group: P -1
;
_chemical_formula_sum "Si O2"
_cell_formula_units_Z 14
_cell_length_a 15.011866
_cell_length_b 13.518465
_cell_length_c 8.828034
_cell_angle_alpha 116.963792
_cell_angle_beta 83.433696
_cell_angle_gamma 150.191867
_cell_volume 616.491844
_symmetry_space_group_name_H-M "P -1"
_symmetry_group_IT_number 2
_symmetry_cell_setting 'triclinic'
loop_
_space_group_symop_operation_xyz
x,y,z
-x,-y,-z
loop_
_atom_site_type_symbol
_atom_site_label
_atom_site_fract_x
_atom_site_fract_y
_atom_site_fract_z
Si Si1 0.046253 0.417095 0.798237
Si Si2 0.715559 0.868484 0.661605
Si Si3 0.996092 0.796030 0.577562
Si Si4 0.251373 0.704540 0.264832
Si Si5 0.681377 0.590214 0.359768
Si Si6 0.516479 0.386521 0.920008
Si Si7 0.098291 0.292818 0.118277
O O1 0.909530 0.370777 0.741586
O O2 0.135871 0.450690 0.659981
O O3 0.860787 0.125511 0.719913
O O4 0.239796 0.666586 0.059437
O O5 0.657500 0.695527 0.451106
O O6 0.488224 0.649916 0.641899
O O7 0.878387 0.009258 0.863600
O O8 0.936103 0.837945 0.523247
O O9 0.939076 0.761046 0.735361
O O10 0.258017 0.052963 0.708923
O O11 0.139394 0.469253 0.199992
O O12 0.500000 0.000000 0.500000
O O13 0.606426 0.459842 0.120980
O O14 0.687437 0.532005 0.864421
O O15 0.500000 0.500000 0.000000
#
# Coordination Sequence:
#
# PCOD9031603 Si02
#       7
#     2   2   2   2   2   2   2
#     4  10  23  43  66  97 132 171 221 279 328 394
#     4  10  22  43  67  95 138 177 222 270 331 395
#     4  12  26  42  67 102 137 175 223 270 337 398
#     4  10  22  43  73  94 126 175 224 275 338 388
#     4  11  24  40  66 100 135 179 221 267 329 401
#     4  12  26  43  68  99 138 183 223 271 329 395
#     4  11  25  45  69  97 138 177 221 284 329 393
#
# _framework density 22.709143000000001
#
# number of rings (size 3 to 8) (size 9 to 14) (size 15 to 20)
#    0.000    1.143    1.429    4.286    8.000    3.429 
#    0.000    0.714    0.000    0.000    0.000    0.000 
#    0.000    0.000    0.000    0.000    0.000    0.000 
#
# Total GULP energy -78337.580179 kJ/mol
# GULP energy per Si atom -5595.541441 kJ/mol
# Density = 2.265746 g / cm^3
# Si number density = 22.709143 Si / 1000 Ang^3
#
#
#
# Elastic Constant Matrix: (Units=GPa)
#
#
# Indices 1 2 3 4 5 6 
#
# 1 96.5241 15.0123 29.4960 -10.6716 4.6505 5.6717
# 2 15.0123 86.1705 37.0008 -16.9541 6.1540 30.2795
# 3 29.4960 37.0008 152.7434 -14.6178 17.8394 13.8261
# 4 -10.6716 -16.9541 -14.6178 37.7202 4.6007 -5.8157
# 5 4.6505 6.1540 17.8394 4.6007 43.1999 -2.6756
# 6 5.6717 30.2795 13.8261 -5.8157 -2.6756 29.6328
#
#
#
# Elastic Compliance Matrix: (Units=1/GPa)
#
#
# Indices 1 2 3 4 5 6 
#
# 1 0.011281 -0.000612 -0.001698 0.002288 -0.000692 -0.000355
# 2 -0.000612 0.020893 -0.002178 0.005848 -0.003836 -0.019415
# 3 -0.001698 -0.002178 0.008043 0.001863 -0.003096 -0.001116
# 4 0.002288 0.005848 0.001863 0.030887 -0.005243 -0.001695
# 5 -0.000692 -0.003836 -0.003096 -0.005243 0.026028 0.006818
# 6 -0.000355 -0.019415 -0.001116 -0.001695 0.006818 0.054456
#
#
# Mechanical properties :
#
#
# Convention : Reuss Voigt Hill
#
# Bulk Modulus (GPa) = 32.00825 55.38403 43.69614
# Shear Modulus (GPa) = 29.24307 39.03919 34.14113
#
# Velocity S-wave (km/s) = 3.59238 4.15070 3.88159
# Velocity P-wave (km/s) = 5.59753 6.88567 6.27474
#
# Compressibility (1/GPa) = 0.03124194
#
# Stress axis : x y z
#
# Youngs Moduli (GPa) = 88.64124 47.86188 124.32489
#
# Poissons Ratio (x) = 0.02928 0.21116
# Poissons Ratio (y) = 0.05423 0.27078
# Poissons Ratio (z) = 0.15055 0.10424
#
# Static dielectric constant tensor:
#      x y z
#    x 1.834210 -0.013790 0.001690 
#    y -0.013790 1.889970 0.039780 
#    z 0.001690 0.039780 1.898600 
# 
# From -- ./inp_files/179536.got.cif
#   From: 2010.05.17/outbox.cif.g08.bks.cpg/sg2_90_cif.got.tgz:179536.got - 2010.06.03 11:33:40.
