data_PCOD9031521
_publ_section_title
;
Structure prediction by ZEFSAII (Michael W. Deem and Ramdas Pophale) SiO2 
 PCOD9031521
Probable space group: P -1
;
_chemical_formula_sum "Si O2"
_cell_formula_units_Z 16
_cell_length_a 7.779936
_cell_length_b 10.593488
_cell_length_c 19.300091
_cell_angle_alpha 57.617104
_cell_angle_beta 148.961874
_cell_angle_gamma 126.926661
_cell_volume 654.798242
_symmetry_space_group_name_H-M "P -1"
_symmetry_group_IT_number 2
_symmetry_cell_setting 'triclinic'
loop_
_space_group_symop_operation_xyz
x,y,z
-x,-y,-z
loop_
_atom_site_type_symbol
_atom_site_label
_atom_site_fract_x
_atom_site_fract_y
_atom_site_fract_z
Si Si1 0.106141 0.115143 0.861331
Si Si2 0.575901 0.333935 0.069260
Si Si3 0.664804 0.284703 0.586488
Si Si4 0.049715 0.421520 0.322528
Si Si5 0.550759 0.327921 0.732818
Si Si6 0.241370 0.385760 0.183278
Si Si7 0.214540 0.796770 0.029969
Si Si8 0.178067 0.688654 0.521346
O O1 0.412748 0.167705 0.892488
O O2 0.770432 0.159038 0.705886
O O3 0.259294 0.214895 0.953466
O O4 0.068068 0.937072 0.917686
O O5 0.700841 0.312560 0.196356
O O6 0.903270 0.332858 0.133361
O O7 0.500000 0.500000 0.000000
O O8 0.302625 0.323070 0.460269
O O9 0.959651 0.456816 0.655917
O O10 0.671056 0.241865 0.521137
O O11 0.245903 0.550542 0.292111
O O12 0.568650 0.437777 0.775251
O O13 0.714809 0.209653 0.862119
O O14 0.150573 0.254202 0.591595
O O15 0.508917 0.291203 0.322615
O O16 0.083532 0.355391 0.061114
O O17 0.000000 0.500000 0.500000
#
# Coordination Sequence:
#
# PCOD9031521 Si02
#       8
#     2   2   2   2   2   2   2   2
#     4  10  21  32  54  78 109 144 177 212 270 320
#     4  10  17  33  51  77 110 133 176 221 259 319
#     4  11  18  34  53  79 108 138 173 222 265 314
#     4  10  21  32  54  85 106 134 179 221 271 309
#     4  10  18  34  55  79 106 139 177 225 263 308
#     4   9  19  32  52  82 107 132 184 223 261 312
#     4  10  20  35  50  79 112 142 174 218 266 318
#     4  10  17  32  53  80 106 134 177 221 266 306
#
# _framework density 24.435006999999999
#
# number of rings (size 3 to 8) (size 9 to 14) (size 15 to 20)
#    0.000    2.000    6.250    0.375    0.000    0.000 
#    0.000    2.500    0.000    0.000    0.000    2.625 
#    0.000    0.000    0.000    0.000    0.000    0.000 
#
# Total GULP energy -89335.223368 kJ/mol
# GULP energy per Si atom -5583.451460 kJ/mol
# Density = 2.437939 g / cm^3
# Si number density = 24.435007 Si / 1000 Ang^3
#
#
#
# Elastic Constant Matrix: (Units=GPa)
#
#
# Indices 1 2 3 4 5 6 
#
# 1 99.1056 8.5089 40.3206 -5.5497 2.1285 0.6113
# 2 8.5089 43.6442 20.4624 -18.4554 -2.4558 -2.8136
# 3 40.3206 20.4624 202.8777 -23.9024 -10.2603 2.4565
# 4 -5.5497 -18.4554 -23.9024 32.1880 -6.1509 -3.8738
# 5 2.1285 -2.4558 -10.2603 -6.1509 26.6368 -1.1872
# 6 0.6113 -2.8136 2.4565 -3.8738 -1.1872 13.7733
#
#
#
# Elastic Compliance Matrix: (Units=1/GPa)
#
#
# Indices 1 2 3 4 5 6 
#
# 1 0.011167 -0.001918 -0.002304 -0.001464 -0.002343 -0.001091
# 2 -0.001918 0.034425 -0.000113 0.022806 0.009189 0.014344
# 3 -0.002304 -0.000113 0.006155 0.004898 0.003706 0.000679
# 4 -0.001464 0.022806 0.004898 0.053284 0.017317 0.020329
# 5 -0.002343 0.009189 0.003706 0.017317 0.044449 0.010022
# 6 -0.001091 0.014344 0.000679 0.020329 0.010022 0.082043
#
#
# Mechanical properties :
#
#
# Convention : Reuss Voigt Hill
#
# Bulk Modulus (GPa) = 23.21452 53.80124 38.50788
# Shear Modulus (GPa) = 19.64234 32.94199 26.29216
#
# Velocity S-wave (km/s) = 2.83832 3.67570 3.28381
# Velocity P-wave (km/s) = 4.50139 6.33089 5.49285
#
# Compressibility (1/GPa) = 0.04307650
#
# Stress axis : x y z
#
# Youngs Moduli (GPa) = 89.54723 29.04877 162.47980
#
# Poissons Ratio (x) = 0.05573 0.37431
# Poissons Ratio (y) = 0.17179 0.01834
# Poissons Ratio (z) = 0.20630 0.00328
#
# Static dielectric constant tensor:
#      x y z
#    x 2.072330 -0.018340 0.043720 
#    y -0.018340 1.976750 -0.042340 
#    z 0.043720 -0.042340 2.050640 
# 
# From -- ./inp_files/589038.got.cif
#   From: 2010.05.17/outbox.cif.g08.bks.cpg/sg2_295_cif.got.tgz:589038.got - 2010.06.03 11:33:40.
