data_PCOD9031003
_publ_section_title
;
Structure prediction by ZEFSAII (Michael W. Deem and Ramdas Pophale) SiO2 
 PCOD9031003
Probable space group: P -1
;
_chemical_formula_sum "Si O2"
_cell_formula_units_Z 14
_cell_length_a 8.543744
_cell_length_b 6.994543
_cell_length_c 13.907351
_cell_angle_alpha 85.257958
_cell_angle_beta 124.764730
_cell_angle_gamma 89.047474
_cell_volume 678.343069
_symmetry_space_group_name_H-M "P -1"
_symmetry_group_IT_number 2
_symmetry_cell_setting 'triclinic'
loop_
_space_group_symop_operation_xyz
x,y,z
-x,-y,-z
loop_
_atom_site_type_symbol
_atom_site_label
_atom_site_fract_x
_atom_site_fract_y
_atom_site_fract_z
Si Si1 0.103337 0.785509 0.118012
Si Si2 0.943860 0.820865 0.425521
Si Si3 0.308552 0.422484 0.310925
Si Si4 0.260655 0.163801 0.134765
Si Si5 0.259356 0.474373 0.510927
Si Si6 0.494584 0.720428 0.960206
Si Si7 0.806147 0.953097 0.163060
O O1 0.197193 0.590653 0.202849
O O2 0.979036 0.898339 0.153398
O O3 0.256163 0.933422 0.132931
O O4 0.948516 0.758034 0.981692
O O5 0.791389 0.701416 0.432835
O O6 0.867899 0.899668 0.293871
O O7 0.121752 0.663774 0.477825
O O8 0.000000 0.000000 0.500000
O O9 0.295028 0.230726 0.251914
O O10 0.229120 0.417833 0.391336
O O11 0.525683 0.474640 0.397394
O O12 0.416872 0.245553 0.115725
O O13 0.284444 0.828842 0.886599
O O14 0.500000 0.500000 0.000000
O O15 0.635511 0.824671 0.076223
#
# Coordination Sequence:
#
# PCOD9031003 Si02
#       7
#     2   2   2   2   2   2   2
#     4  10  22  43  63  96 130 162 213 255 317 385
#     4  11  25  44  68  90 129 170 215 262 317 364
#     4  11  23  42  66  92 133 165 209 265 311 371
#     4  10  24  39  67  95 124 170 206 256 327 375
#     4  10  26  43  63  99 123 170 220 259 308 375
#     4  10  24  41  66  97 124 161 209 262 325 375
#     4  10  23  42  64  93 128 163 209 266 311 377
#
# _framework density 20.638525000000001
#
# number of rings (size 3 to 8) (size 9 to 14) (size 15 to 20)
#    0.000    1.714    1.429    0.429    8.000    6.857 
#    0.000    2.857    0.000    0.000    0.000    0.000 
#    0.000    0.000    0.000    0.000    0.000    0.000 
#
# Total GULP energy -78296.563941 kJ/mol
# GULP energy per Si atom -5592.611710 kJ/mol
# Density = 2.059155 g / cm^3
# Si number density = 20.638525 Si / 1000 Ang^3
#
#
#
# Elastic Constant Matrix: (Units=GPa)
#
#
# Indices 1 2 3 4 5 6 
#
# 1 65.5754 17.7721 6.1469 10.6521 -11.5177 6.4061
# 2 17.7721 79.6607 10.4797 -0.2918 -4.7484 -0.8536
# 3 6.1469 10.4797 87.0221 12.3277 -24.8770 -4.5102
# 4 10.6521 -0.2918 12.3277 33.9385 -8.9437 -8.7858
# 5 -11.5177 -4.7484 -24.8770 -8.9437 27.3239 -1.8823
# 6 6.4061 -0.8536 -4.5102 -8.7858 -1.8823 19.2321
#
#
#
# Elastic Compliance Matrix: (Units=1/GPa)
#
#
# Indices 1 2 3 4 5 6 
#
# 1 0.019387 -0.004296 0.001314 -0.007538 0.005518 -0.009244
# 2 -0.004296 0.013775 -0.001500 0.002901 0.000377 0.003053
# 3 0.001314 -0.001500 0.016255 -0.001309 0.014952 0.004173
# 4 -0.007538 0.002901 -0.001309 0.040981 0.011073 0.022138
# 5 0.005518 0.000377 0.014952 0.011073 0.057076 0.012330
# 6 -0.009244 0.003053 0.004173 0.022138 0.012330 0.067510
#
#
# Mechanical properties :
#
#
# Convention : Reuss Voigt Hill
#
# Bulk Modulus (GPa) = 24.72011 33.45061 29.08536
# Shear Modulus (GPa) = 21.05863 29.28953 25.17408
#
# Velocity S-wave (km/s) = 3.19777 3.77127 3.49630
# Velocity P-wave (km/s) = 5.06339 5.93349 5.51563
#
# Compressibility (1/GPa) = 0.04045289
#
# Stress axis : x y z
#
# Youngs Moduli (GPa) = 51.57979 72.59609 61.51883
#
# Poissons Ratio (x) = 0.31187 -0.08084
# Poissons Ratio (y) = 0.22158 0.09231
# Poissons Ratio (z) = -0.06778 0.10893
#
# Static dielectric constant tensor:
#      x y z
#    x 1.762390 -0.003870 -0.005810 
#    y -0.003870 1.710140 0.003090 
#    z -0.005810 0.003090 1.699940 
# 
# From -- ./inp_files/52739.got.cif
#   From: 2010.05.17/outbox.cif.g08.bks.cpg/sg2_27_cif.got.tgz:52739.got - 2010.06.03 11:33:40.
