data_PCOD9031253
_publ_section_title
;
Structure prediction by ZEFSAII (Michael W. Deem and Ramdas Pophale) SiO2 
 PCOD9031253
Probable space group: P -1
;
_chemical_formula_sum "Si O2"
_cell_formula_units_Z 16
_cell_length_a 8.779849
_cell_length_b 17.635078
_cell_length_c 6.929253
_cell_angle_alpha 113.823170
_cell_angle_beta 101.429860
_cell_angle_gamma 46.653385
_cell_volume 708.675292
_symmetry_space_group_name_H-M "P -1"
_symmetry_group_IT_number 2
_symmetry_cell_setting 'triclinic'
loop_
_space_group_symop_operation_xyz
x,y,z
-x,-y,-z
loop_
_atom_site_type_symbol
_atom_site_label
_atom_site_fract_x
_atom_site_fract_y
_atom_site_fract_z
Si Si1 0.735709 0.942684 0.369906
Si Si2 0.723065 0.372202 0.918048
Si Si3 0.731254 0.871253 0.673022
Si Si4 0.941685 0.165549 0.006561
Si Si5 0.364797 0.863367 0.190675
Si Si6 0.498627 0.688445 0.377945
Si Si7 0.346065 0.256755 0.213555
Si Si8 0.058391 0.541180 0.886724
O O1 0.777792 0.852947 0.437438
O O2 0.915057 0.889464 0.205626
O O3 0.514747 0.013065 0.274272
O O4 0.712285 0.030794 0.595257
O O5 0.781292 0.299175 0.051562
O O6 0.680110 0.317422 0.690313
O O7 0.500000 0.500000 0.000000
O O8 0.891436 0.384152 0.947474
O O9 0.729427 0.786864 0.703510
O O10 0.900331 0.868867 0.817401
O O11 0.820335 0.122873 0.942433
O O12 0.462466 0.764855 0.270951
O O13 0.533724 0.821115 0.023209
O O14 0.498834 0.738744 0.626508
O O15 0.729920 0.565923 0.276919
O O16 0.141398 0.379871 0.220369
O O17 0.000000 0.500000 0.000000
#
# Coordination Sequence:
#
# PCOD9031253 Si02
#       8
#     2   2   2   2   2   2   2   2
#     4  11  26  44  69  99 133 181 229 281 340 391
#     4   9  21  41  69  93 133 174 214 272 336 394
#     4  11  26  42  70  98 135 174 231 280 335 399
#     4  11  24  45  70  97 137 179 226 278 338 407
#     4  11  25  43  67  97 140 178 223 281 333 402
#     4  10  22  43  65  96 138 179 220 274 339 399
#     4  12  24  42  68  99 138 179 227 277 338 402
#     4  11  21  40  71 100 132 176 225 280 335 399
#
# _framework density 22.577334
#
# number of rings (size 3 to 8) (size 9 to 14) (size 15 to 20)
#    0.000    1.250    3.750    1.125    5.250    3.500 
#    0.000    0.625    0.000    0.000    0.000    0.000 
#    0.000    0.000    0.000    0.000    0.000    0.000 
#
# Total GULP energy -89470.670493 kJ/mol
# GULP energy per Si atom -5591.916906 kJ/mol
# Density = 2.252595 g / cm^3
# Si number density = 22.577334 Si / 1000 Ang^3
#
#
#
# Elastic Constant Matrix: (Units=GPa)
#
#
# Indices 1 2 3 4 5 6 
#
# 1 63.6167 9.6065 18.7362 -18.3693 25.9136 4.7691
# 2 9.6065 93.6120 42.4170 -23.6415 7.9607 1.2324
# 3 18.7362 42.4170 95.9404 -16.5032 23.9500 -1.6179
# 4 -18.3693 -23.6415 -16.5032 37.0211 -7.5370 -0.5388
# 5 25.9136 7.9607 23.9500 -7.5370 48.0615 -1.5078
# 6 4.7691 1.2324 -1.6179 -0.5388 -1.5078 39.3863
#
#
#
# Elastic Compliance Matrix: (Units=1/GPa)
#
#
# Indices 1 2 3 4 5 6 
#
# 1 0.023275 0.001433 -0.000811 0.009829 -0.010941 -0.003181
# 2 0.001433 0.015113 -0.005821 0.007929 0.000845 -0.000745
# 3 -0.000811 -0.005821 0.014834 0.001330 -0.005760 0.000687
# 4 0.009829 0.007929 0.001330 0.037233 -0.001466 -0.000930
# 5 -0.010941 0.000845 -0.005760 -0.001466 0.029274 0.002162
# 6 -0.003181 -0.000745 0.000687 -0.000930 0.002162 0.025896
#
#
# Mechanical properties :
#
#
# Convention : Reuss Voigt Hill
#
# Bulk Modulus (GPa) = 23.35134 43.85428 33.60281
# Shear Modulus (GPa) = 29.36046 37.05443 33.20745
#
# Velocity S-wave (km/s) = 3.61007 4.05560 3.83930
# Velocity P-wave (km/s) = 5.26708 6.43402 5.87957
#
# Compressibility (1/GPa) = 0.04282409
#
# Stress axis : x y z
#
# Youngs Moduli (GPa) = 42.96520 66.16637 67.41463
#
# Poissons Ratio (x) = -0.09484 0.05466
# Poissons Ratio (y) = -0.06159 0.39245
# Poissons Ratio (z) = 0.03483 0.38518
#
# Static dielectric constant tensor:
#      x y z
#    x 1.853680 0.016400 0.038320 
#    y 0.016400 1.852460 0.010370 
#    z 0.038320 0.010370 1.812700 
# 
# From -- ./inp_files/48355.got.cif
#   From: 2010.05.17/outbox.cif.g08.bks.cpg/sg2_25_cif.got.tgz:48355.got - 2010.06.03 11:33:40.
