data_PCOD9031175
_publ_section_title
;
Structure prediction by ZEFSAII (Michael W. Deem and Ramdas Pophale) SiO2 
 PCOD9031175
Probable space group: P -1
;
_chemical_formula_sum "Si O2"
_cell_formula_units_Z 16
_cell_length_a 17.637146
_cell_length_b 8.168502
_cell_length_c 6.577169
_cell_angle_alpha 95.146527
_cell_angle_beta 99.234570
_cell_angle_gamma 49.730809
_cell_volume 713.514233
_symmetry_space_group_name_H-M "P -1"
_symmetry_group_IT_number 2
_symmetry_cell_setting 'triclinic'
loop_
_space_group_symop_operation_xyz
x,y,z
-x,-y,-z
loop_
_atom_site_type_symbol
_atom_site_label
_atom_site_fract_x
_atom_site_fract_y
_atom_site_fract_z
Si Si1 0.410521 0.410162 0.418580
Si Si2 0.717185 0.605659 0.351252
Si Si3 0.915893 0.698897 0.629891
Si Si4 0.769815 0.898713 0.256673
Si Si5 0.562088 0.348962 0.203318
Si Si6 0.247670 0.635427 0.045950
Si Si7 0.083096 0.134088 0.951232
Si Si8 0.125130 0.596062 0.285853
O O1 0.368612 0.306014 0.504698
O O2 0.506168 0.279084 0.296306
O O3 0.429115 0.516493 0.614869
O O4 0.323996 0.589877 0.246561
O O5 0.735608 0.763174 0.291537
O O6 0.820291 0.411394 0.489818
O O7 0.698259 0.511427 0.144173
O O8 0.827283 0.896512 0.477475
O O9 0.954961 0.764119 0.829299
O O10 0.868406 0.607420 0.709898
O O11 0.000000 0.500000 0.500000
O O12 0.672479 0.132936 0.173123
O O13 0.857706 0.794734 0.116824
O O14 0.500000 0.500000 0.000000
O O15 0.186955 0.571919 0.118306
O O16 0.166004 0.881384 0.980569
O O17 0.990876 0.205672 0.780012
#
# Coordination Sequence:
#
# PCOD9031175 Si02
#       8
#     2   2   2   2   2   2   2   2
#     4  10  22  43  65  92 126 161 206 267 316 373
#     4  10  23  41  62  91 131 169 208 261 313 369
#     4  11  23  41  62  88 130 167 214 263 306 367
#     4  11  24  40  65  95 123 172 212 256 318 377
#     4  11  23  43  71  95 124 160 210 266 319 376
#     4  11  23  41  62  92 131 168 210 263 313 374
#     4  12  23  37  63  92 126 172 219 256 313 370
#     4  10  23  38  59  89 126 172 211 260 305 371
#
# _framework density 22.424220999999999
#
# number of rings (size 3 to 8) (size 9 to 14) (size 15 to 20)
#    0.000    1.250    1.250    4.500    3.500    3.000 
#    0.000    2.500    0.000    0.000    0.000    0.000 
#    0.000    0.000    0.000    0.000    0.000    0.000 
#
# Total GULP energy -89337.492617 kJ/mol
# GULP energy per Si atom -5583.593289 kJ/mol
# Density = 2.237318 g / cm^3
# Si number density = 22.424221 Si / 1000 Ang^3
#
#
#
# Elastic Constant Matrix: (Units=GPa)
#
#
# Indices 1 2 3 4 5 6 
#
# 1 98.6860 3.7302 43.7047 0.1857 -18.4333 -17.8584
# 2 3.7302 41.2111 37.6975 -12.8937 3.5727 -19.9894
# 3 43.7047 37.6975 135.5546 -15.9110 6.0984 -8.4019
# 4 0.1857 -12.8937 -15.9110 29.1524 -9.0675 3.0131
# 5 -18.4333 3.5727 6.0984 -9.0675 44.6309 -3.4882
# 6 -17.8584 -19.9894 -8.4019 3.0131 -3.4882 30.0421
#
#
#
# Elastic Compliance Matrix: (Units=1/GPa)
#
#
# Indices 1 2 3 4 5 6 
#
# 1 0.019999 0.018572 -0.010305 0.003468 0.010625 0.022250
# 2 0.018572 0.072436 -0.021216 0.018833 0.012731 0.052893
# 3 -0.010305 -0.021216 0.015747 -0.000947 -0.006188 -0.016462
# 4 0.003468 0.018833 -0.000947 0.044017 0.009861 0.011057
# 5 0.010625 0.012731 -0.006188 0.009861 0.029838 0.015532
# 6 0.022250 0.052893 -0.016462 0.011057 0.015532 0.077797
#
#
# Mechanical properties :
#
#
# Convention : Reuss Voigt Hill
#
# Bulk Modulus (GPa) = 12.15304 49.52406 30.83855
# Shear Modulus (GPa) = 15.96633 33.45305 24.70969
#
# Velocity S-wave (km/s) = 2.67125 3.86661 3.32312
# Velocity P-wave (km/s) = 3.86594 6.48593 5.33913
#
# Compressibility (1/GPa) = 0.08228396
#
# Stress axis : x y z
#
# Youngs Moduli (GPa) = 50.00200 13.80538 63.50607
#
# Poissons Ratio (x) = -0.25639 0.65442
# Poissons Ratio (y) = -0.92864 1.34734
# Poissons Ratio (z) = 0.51526 0.29289
#
# Static dielectric constant tensor:
#      x y z
#    x 1.904100 -0.007510 -0.026680 
#    y -0.007510 1.776680 -0.013140 
#    z -0.026680 -0.013140 1.856550 
# 
# From -- ./inp_files/46296.got.cif
#   From: 2010.05.17/outbox.cif.g08.bks.cpg/sg2_24_cif.got.tgz:46296.got - 2010.06.03 11:33:40.
