data_PCOD9031249
_publ_section_title
;
Structure prediction by ZEFSAII (Michael W. Deem and Ramdas Pophale) SiO2 
 PCOD9031249
Probable space group: P -1
;
_chemical_formula_sum "Si O2"
_cell_formula_units_Z 14
_cell_length_a 14.845315
_cell_length_b 20.371885
_cell_length_c 9.021488
_cell_angle_alpha 126.878247
_cell_angle_beta 146.895298
_cell_angle_gamma 29.964887
_cell_volume 660.716852
_symmetry_space_group_name_H-M "P -1"
_symmetry_group_IT_number 2
_symmetry_cell_setting 'triclinic'
loop_
_space_group_symop_operation_xyz
x,y,z
-x,-y,-z
loop_
_atom_site_type_symbol
_atom_site_label
_atom_site_fract_x
_atom_site_fract_y
_atom_site_fract_z
Si Si1 0.702206 0.965132 0.618595
Si Si2 0.352129 0.841097 0.302993
Si Si3 0.830547 0.867100 0.338516
Si Si4 0.657551 0.618390 0.167779
Si Si5 0.822410 0.146524 0.380689
Si Si6 0.419410 0.542429 0.620377
Si Si7 0.303162 0.739562 0.324495
O O1 0.803975 0.875587 0.490156
O O2 0.500000 0.000000 0.500000
O O3 0.534174 0.116322 0.530597
O O4 0.994278 0.862753 0.978258
O O5 0.485190 0.716025 0.210873
O O6 0.426257 0.775099 0.478294
O O7 0.000000 0.000000 0.000000
O O8 0.975035 0.892884 0.516218
O O9 0.069251 0.703770 0.383229
O O10 0.500000 0.000000 0.000000
O O11 0.000000 0.500000 0.500000
O O12 0.489747 0.742179 0.978278
O O13 0.589161 0.552508 0.936143
O O14 0.755823 0.231787 0.543630
O O15 0.000000 0.000000 0.500000
O O16 0.500000 0.500000 0.500000
O O17 0.513110 0.419266 0.662510
#
# Coordination Sequence:
#
# PCOD9031249 Si02
#       7
#     2   2   2   2   2   2   2
#     4  11  24  40  68 103 136 178 233 290 348 420
#     4  10  22  43  65  96 134 177 232 282 346 417
#     4  11  24  43  68 101 137 181 236 290 342 422
#     4  11  25  42  67 100 143 184 231 296 353 416
#     4  11  21  43  71  98 138 185 234 287 354 421
#     4  11  23  45  70 100 145 185 232 287 356 419
#     4  11  21  41  71  96 135 186 226 288 355 409
#
# _framework density 21.189108000000001
#
# number of rings (size 3 to 8) (size 9 to 14) (size 15 to 20)
#    0.000    1.143    2.857    6.857    2.000    2.286 
#    2.571    0.714    0.000    0.000    0.000    0.000 
#    0.000    0.000    0.000    0.000    0.000    0.000 
#
# Total GULP energy -78123.808094 kJ/mol
# GULP energy per Si atom -5580.272007 kJ/mol
# Density = 2.114088 g / cm^3
# Si number density = 21.189108 Si / 1000 Ang^3
#
#
#
# Elastic Constant Matrix: (Units=GPa)
#
#
# Indices 1 2 3 4 5 6 
#
# 1 144.7113 55.0062 27.1809 -9.7603 0.8953 -1.6982
# 2 55.0062 140.2138 31.4413 -7.5149 13.6834 6.8568
# 3 27.1809 31.4413 103.9819 -28.6088 -1.8980 -13.1962
# 4 -9.7603 -7.5149 -28.6088 29.7636 -1.6165 -12.7357
# 5 0.8953 13.6834 -1.8980 -1.6165 28.1677 7.6752
# 6 -1.6982 6.8568 -13.1962 -12.7357 7.6752 56.2980
#
#
#
# Elastic Compliance Matrix: (Units=1/GPa)
#
#
# Indices 1 2 3 4 5 6 
#
# 1 0.008359 -0.003191 -0.000646 0.001682 0.001143 0.000714
# 2 -0.003191 0.009454 -0.003115 -0.002748 -0.004311 -0.002012
# 3 -0.000646 -0.003115 0.017106 0.019163 0.001469 0.008504
# 4 0.001682 -0.002748 0.019163 0.059741 0.001028 0.018252
# 5 0.001143 -0.004311 0.001469 0.001028 0.038851 -0.004160
# 6 0.000714 -0.002012 0.008504 0.018252 -0.004160 0.024719
#
#
# Mechanical properties :
#
#
# Convention : Reuss Voigt Hill
#
# Bulk Modulus (GPa) = 47.58143 68.46264 58.02204
# Shear Modulus (GPa) = 27.91146 41.19778 34.55462
#
# Velocity S-wave (km/s) = 3.63334 4.41419 4.04266
# Velocity P-wave (km/s) = 6.33292 7.63941 7.01664
#
# Compressibility (1/GPa) = 0.02101660
#
# Stress axis : x y z
#
# Youngs Moduli (GPa) = 119.62769 105.77667 58.45874
#
# Poissons Ratio (x) = 0.33751 0.03776
# Poissons Ratio (y) = 0.38171 0.18207
# Poissons Ratio (z) = 0.07727 0.32945
#
# Static dielectric constant tensor:
#      x y z
#    x 1.804680 0.059540 0.004330 
#    y 0.059540 1.844750 0.050160 
#    z 0.004330 0.050160 1.768340 
# 
# From -- ./inp_files/319504.got.cif
#   From: 2010.05.17/outbox.cif.g08.bks.cpg/sg2_160_cif.got.tgz:319504.got - 2010.06.03 11:33:40.
