data_PCOD9031562
_publ_section_title
;
Structure prediction by ZEFSAII (Michael W. Deem and Ramdas Pophale) SiO2 
 PCOD9031562
Probable space group: P -1
;
_chemical_formula_sum "Si O2"
_cell_formula_units_Z 16
_cell_length_a 20.224002
_cell_length_b 9.929942
_cell_length_c 20.109301
_cell_angle_alpha 33.366616
_cell_angle_beta 22.558006
_cell_angle_gamma 28.494299
_cell_volume 732.942262
_symmetry_space_group_name_H-M "P -1"
_symmetry_group_IT_number 2
_symmetry_cell_setting 'triclinic'
loop_
_space_group_symop_operation_xyz
x,y,z
-x,-y,-z
loop_
_atom_site_type_symbol
_atom_site_label
_atom_site_fract_x
_atom_site_fract_y
_atom_site_fract_z
Si Si1 0.516346 0.717414 0.571225
Si Si2 0.327931 0.246893 0.102612
Si Si3 0.966739 0.808950 0.404201
Si Si4 0.967453 0.741761 0.981675
Si Si5 0.665832 0.329498 0.973231
Si Si6 0.652990 0.218199 0.436582
Si Si7 0.137180 0.671478 0.989745
Si Si8 0.131375 0.919729 0.478042
O O1 0.465952 0.802033 0.506187
O O2 0.350339 0.643803 0.784164
O O3 0.724429 0.420126 0.509727
O O4 0.500000 0.000000 0.500000
O O5 0.378428 0.440989 0.022540
O O6 0.253672 0.083563 0.286231
O O7 0.167986 0.468051 0.106895
O O8 0.500000 0.000000 0.000000
O O9 0.134129 0.777430 0.211233
O O10 0.000000 0.500000 0.500000
O O11 0.747290 0.991562 0.500875
O O12 0.981728 0.944951 0.403323
O O13 0.153367 0.789611 0.772531
O O14 0.024101 0.625316 0.052220
O O15 0.745453 0.022669 0.063118
O O16 0.000000 0.500000 0.000000
O O17 0.500000 0.500000 0.000000
O O18 0.500000 0.500000 0.500000
O O19 0.000000 0.000000 0.000000
O O20 0.000000 0.000000 0.500000
#
# Coordination Sequence:
#
# PCOD9031562 Si02
#       8
#     2   2   2   2   2   2   2   2
#     4  11  26  45  67 103 137 177 231 283 344 408
#     4  12  26  47  69 100 142 185 232 279 345 414
#     4  11  24  45  69  96 134 180 223 282 342 400
#     4  10  24  41  67  99 130 173 224 273 336 401
#     4  11  26  44  69 102 136 177 230 281 343 412
#     4  10  22  43  67  93 130 172 222 273 335 399
#     4  11  24  45  70  95 139 184 225 282 341 402
#     4  12  28  44  70 104 140 183 231 285 348 410
#
# _framework density 21.829822
#
# number of rings (size 3 to 8) (size 9 to 14) (size 15 to 20)
#    0.000    1.000    5.000    0.000    7.000    3.000 
#    0.000    0.000    0.000    0.000    0.000    0.000 
#    0.000    0.000    0.000    0.000    0.000    0.000 
#
# Total GULP energy -89240.371309 kJ/mol
# GULP energy per Si atom -5577.523207 kJ/mol
# Density = 2.178014 g / cm^3
# Si number density = 21.829822 Si / 1000 Ang^3
#
#
#
# Elastic Constant Matrix: (Units=GPa)
#
#
# Indices 1 2 3 4 5 6 
#
# 1 215.6964 98.7751 -6.7340 4.5551 -0.0028 1.7003
# 2 98.7751 190.2328 3.6156 9.9967 -7.2306 -8.0628
# 3 -6.7340 3.6156 24.2244 5.6371 10.1608 -4.1229
# 4 4.5551 9.9967 5.6371 33.7445 1.8284 2.7091
# 5 -0.0028 -7.2306 10.1608 1.8284 26.4808 5.3744
# 6 1.7003 -8.0628 -4.1229 2.7091 5.3744 52.1115
#
#
#
# Elastic Compliance Matrix: (Units=1/GPa)
#
#
# Indices 1 2 3 4 5 6 
#
# 1 0.006302 -0.003409 0.003137 -0.000232 -0.002065 -0.000260
# 2 -0.003409 0.007305 -0.002834 -0.001457 0.003024 0.000781
# 3 0.003137 -0.002834 0.055094 -0.008086 -0.022690 0.006578
# 4 -0.000232 -0.001457 -0.008086 0.031601 0.001052 -0.002609
# 5 -0.002065 0.003024 -0.022690 0.001052 0.048504 -0.006317
# 6 -0.000260 0.000781 0.006578 -0.002609 -0.006317 0.020627
#
#
# Mechanical properties :
#
#
# Convention : Reuss Voigt Hill
#
# Bulk Modulus (GPa) = 16.00315 69.05190 42.52753
# Shear Modulus (GPa) = 25.44828 44.76715 35.10771
#
# Velocity S-wave (km/s) = 3.41802 4.53342 4.01464
# Velocity P-wave (km/s) = 4.78790 7.68785 6.40418
#
# Compressibility (1/GPa) = 0.06248769
#
# Stress axis : x y z
#
# Youngs Moduli (GPa) = 158.67470 136.88518 18.15072
#
# Poissons Ratio (x) = 0.46667 -0.05693
# Poissons Ratio (y) = 0.54096 0.05145
# Poissons Ratio (z) = -0.49771 0.38800
#
# Static dielectric constant tensor:
#      x y z
#    x 1.823340 -0.106290 0.044540 
#    y -0.106290 1.753050 -0.072720 
#    z 0.044540 -0.072720 1.903730 
# 
# From -- ./inp_files/208788.got.cif
#   From: 2010.05.17/outbox.cif.g08.bks.cpg/sg2_105_cif.got.tgz:208788.got - 2010.06.03 11:33:40.
