data_PCOD9031582
_publ_section_title
;
Structure prediction by ZEFSAII (Michael W. Deem and Ramdas Pophale) SiO2 
 PCOD9031582
Probable space group: P -1
;
_chemical_formula_sum "Si O2"
_cell_formula_units_Z 16
_cell_length_a 25.735178
_cell_length_b 12.524820
_cell_length_c 8.699086
_cell_angle_alpha 142.273278
_cell_angle_beta 136.494558
_cell_angle_gamma 21.434268
_cell_volume 626.237811
_symmetry_space_group_name_H-M "P -1"
_symmetry_group_IT_number 2
_symmetry_cell_setting 'triclinic'
loop_
_space_group_symop_operation_xyz
x,y,z
-x,-y,-z
loop_
_atom_site_type_symbol
_atom_site_label
_atom_site_fract_x
_atom_site_fract_y
_atom_site_fract_z
Si Si1 0.850801 0.217387 0.271753
Si Si2 0.051419 0.397836 0.821731
Si Si3 0.640434 0.151338 0.086356
Si Si4 0.577879 0.669737 0.646573
Si Si5 0.123488 0.863310 0.404924
Si Si6 0.384720 0.497291 0.123296
Si Si7 0.149897 0.214632 0.405784
Si Si8 0.304772 0.154496 0.443047
O O1 0.861598 0.137719 0.380565
O O2 0.791589 0.533851 0.513183
O O3 0.733658 0.369186 0.079083
O O4 0.005454 0.947524 0.222479
O O5 0.918309 0.744709 0.844361
O O6 0.203051 0.192478 0.899510
O O7 0.078049 0.139013 0.546495
O O8 0.000000 0.500000 0.000000
O O9 0.612439 0.408896 0.355637
O O10 0.514137 0.295649 0.061795
O O11 0.648185 0.091389 0.853118
O O12 0.721883 0.493505 0.729198
O O13 0.556750 0.696003 0.813317
O O14 0.441358 0.985748 0.613396
O O15 0.285102 0.859324 0.368890
O O16 0.000000 0.500000 0.500000
O O17 0.216982 0.254105 0.514331
#
# Coordination Sequence:
#
# PCOD9031582 Si02
#       8
#     2   2   2   2   2   2   2   2
#     4  11  25  45  69 102 139 180 231 275 348 412
#     4  11  20  39  69 102 130 170 229 284 332 394
#     4  11  23  42  72 103 136 175 233 291 338 396
#     4  11  25  43  69  99 138 181 231 285 341 399
#     4  10  22  43  67  94 134 179 224 279 334 405
#     4  12  27  44  69 104 142 186 220 284 353 409
#     4  12  25  43  68 103 135 179 229 282 341 402
#     4  12  25  44  71 102 137 181 232 284 336 411
#
# _framework density 25.549401
#
# number of rings (size 3 to 8) (size 9 to 14) (size 15 to 20)
#    0.000    0.750    3.750    3.750    3.500    4.000 
#    0.000    0.000    0.000    0.000    0.000    0.000 
#    0.000    0.000    0.000    0.000    0.000    0.000 
#
# Total GULP energy -89449.493911 kJ/mol
# GULP energy per Si atom -5590.593369 kJ/mol
# Density = 2.549125 g / cm^3
# Si number density = 25.549401 Si / 1000 Ang^3
#
#
#
# Elastic Constant Matrix: (Units=GPa)
#
#
# Indices 1 2 3 4 5 6 
#
# 1 91.7807 50.8519 10.1994 -0.7333 -12.2454 -18.3140
# 2 50.8519 168.8012 5.8378 -27.9887 -2.7928 -25.0921
# 3 10.1994 5.8378 46.3064 -10.1140 -2.6205 -11.6557
# 4 -0.7333 -27.9887 -10.1140 40.0835 -7.2538 0.3433
# 5 -12.2454 -2.7928 -2.6205 -7.2538 29.4685 -2.0240
# 6 -18.3140 -25.0921 -11.6557 0.3433 -2.0240 69.0182
#
#
#
# Elastic Compliance Matrix: (Units=1/GPa)
#
#
# Indices 1 2 3 4 5 6 
#
# 1 0.014628 -0.004350 -0.002422 -0.002498 0.004977 0.002049
# 2 -0.004350 0.008617 0.001943 0.006581 0.000960 0.002302
# 3 -0.002422 0.001943 0.024994 0.008257 0.003732 0.004353
# 4 -0.002498 0.006581 0.008257 0.033127 0.008695 0.003215
# 5 0.004977 0.000960 0.003732 0.008695 0.038799 0.003394
# 6 0.002049 0.002302 0.004353 0.003215 0.003394 0.016688
#
#
# Mechanical properties :
#
#
# Convention : Reuss Voigt Hill
#
# Bulk Modulus (GPa) = 25.91922 48.96295 37.44109
# Shear Modulus (GPa) = 31.37335 43.71399 37.54367
#
# Velocity S-wave (km/s) = 3.50801 4.14086 3.83750
# Velocity P-wave (km/s) = 5.15509 6.48598 5.85845
#
# Compressibility (1/GPa) = 0.03858141
#
# Stress axis : x y z
#
# Youngs Moduli (GPa) = 68.36274 116.05321 40.00947
#
# Poissons Ratio (x) = 0.50485 0.09689
# Poissons Ratio (y) = 0.29739 -0.07774
# Poissons Ratio (z) = 0.16554 -0.22550
#
# Static dielectric constant tensor:
#      x y z
#    x 2.092670 0.048890 0.052630 
#    y 0.048890 2.045700 0.060950 
#    z 0.052630 0.060950 2.210030 
# 
# From -- ./inp_files/357346.got.cif
#   From: 2010.05.17/outbox.cif.g08.bks.cpg/sg2_179_cif.got.tgz:357346.got - 2010.06.03 11:33:40.
