data_PCOD9031585
_publ_section_title
;
Structure prediction by ZEFSAII (Michael W. Deem and Ramdas Pophale) SiO2 
 PCOD9031585
Probable space group: P -1
;
_chemical_formula_sum "Si O2"
_cell_formula_units_Z 14
_cell_length_a 15.007329
_cell_length_b 12.030419
_cell_length_c 9.098476
_cell_angle_alpha 48.844512
_cell_angle_beta 147.953610
_cell_angle_gamma 117.873892
_cell_volume 639.280358
_symmetry_space_group_name_H-M "P -1"
_symmetry_group_IT_number 2
_symmetry_cell_setting 'triclinic'
loop_
_space_group_symop_operation_xyz
x,y,z
-x,-y,-z
loop_
_atom_site_type_symbol
_atom_site_label
_atom_site_fract_x
_atom_site_fract_y
_atom_site_fract_z
Si Si1 0.016766 0.643696 0.043364
Si Si2 0.824103 0.545531 0.313025
Si Si3 0.369894 0.954321 0.741715
Si Si4 0.989811 0.031581 0.132914
Si Si5 0.402812 0.613622 0.051875
Si Si6 0.676041 0.901455 0.766061
Si Si7 0.757443 0.462300 0.809669
O O1 0.120735 0.499479 0.405107
O O2 0.094925 0.639669 0.994224
O O3 0.040419 0.791262 0.031734
O O4 0.823713 0.616899 0.795249
O O5 0.000000 0.500000 0.500000
O O6 0.695770 0.443284 0.168903
O O7 0.727856 0.720246 0.010962
O O8 0.176082 0.964166 0.522758
O O9 0.340063 0.060627 0.463788
O O10 0.432310 0.780988 0.927930
O O11 0.500000 0.000000 0.000000
O O12 0.000000 0.000000 0.000000
O O13 0.829630 0.960940 0.010210
O O14 0.582390 0.500030 0.439369
O O15 0.283835 0.607081 0.034614
O O16 0.500000 0.000000 0.500000
#
# Coordination Sequence:
#
# PCOD9031585 Si02
#       7
#     2   2   2   2   2   2   2
#     4  11  23  44  70  96 133 170 227 277 331 393
#     4  12  23  42  72  96 131 181 229 269 334 409
#     4  11  24  43  69  96 135 176 219 270 349 405
#     4  10  22  43  67  94 136 178 218 270 341 404
#     4  11  24  42  69  94 133 176 224 268 342 399
#     4  11  27  44  65 101 138 172 227 285 334 399
#     4  10  25  41  68  99 131 165 227 283 329 389
#
# _framework density 21.899626000000001
#
# number of rings (size 3 to 8) (size 9 to 14) (size 15 to 20)
#    0.000    1.143    1.429    5.143    8.000    0.571 
#    0.000    1.429    0.000    0.000    0.000    0.000 
#    0.000    0.000    0.000    0.000    0.000    0.000 
#
# Total GULP energy -78245.157662 kJ/mol
# GULP energy per Si atom -5588.939833 kJ/mol
# Density = 2.184978 g / cm^3
# Si number density = 21.899626 Si / 1000 Ang^3
#
#
#
# Elastic Constant Matrix: (Units=GPa)
#
#
# Indices 1 2 3 4 5 6 
#
# 1 55.2312 9.2450 10.9159 6.3122 11.1670 -8.5072
# 2 9.2450 148.5488 43.0474 19.3169 11.5010 -17.4262
# 3 10.9159 43.0474 107.9422 26.9860 10.9224 -4.7212
# 4 6.3122 19.3169 26.9860 55.3621 -2.1117 4.6407
# 5 11.1670 11.5010 10.9224 -2.1117 25.2395 3.7137
# 6 -8.5072 -17.4262 -4.7212 4.6407 3.7137 18.6786
#
#
#
# Elastic Compliance Matrix: (Units=1/GPa)
#
#
# Indices 1 2 3 4 5 6 
#
# 1 0.024051 0.002390 0.000354 -0.005803 -0.014972 0.017691
# 2 0.002390 0.009539 -0.001872 -0.003933 -0.006662 0.011816
# 3 0.000354 -0.001872 0.012202 -0.005895 -0.005680 0.004094
# 4 -0.005803 -0.003933 -0.005895 0.024763 0.011368 -0.016215
# 5 -0.014972 -0.006662 -0.005680 0.011368 0.056899 -0.028607
# 6 0.017691 0.011816 0.004094 -0.016215 -0.028607 0.083369
#
#
# Mechanical properties :
#
#
# Convention : Reuss Voigt Hill
#
# Bulk Modulus (GPa) = 21.03627 48.68207 34.85917
# Shear Modulus (GPa) = 22.22971 36.42365 29.32668
#
# Velocity S-wave (km/s) = 3.18948 4.08267 3.66340
# Velocity P-wave (km/s) = 4.81563 6.67099 5.81775
#
# Compressibility (1/GPa) = 0.04753695
#
# Stress axis : x y z
#
# Youngs Moduli (GPa) = 41.57825 104.83527 81.95120
#
# Poissons Ratio (x) = -0.25052 -0.02904
# Poissons Ratio (y) = -0.09936 0.15338
# Poissons Ratio (z) = -0.01473 0.19621
#
# Static dielectric constant tensor:
#      x y z
#    x 1.841240 0.018520 0.043870 
#    y 0.018520 1.811730 -0.019060 
#    z 0.043870 -0.019060 1.787330 
# 
# From -- ./inp_files/156764.got.cif
#   From: 2010.05.17/outbox.cif.g08.bks.cpg/sg2_79_cif.got.tgz:156764.got - 2010.06.03 11:33:40.
