data_PCOD9031533
_publ_section_title
;
Structure prediction by ZEFSAII (Michael W. Deem and Ramdas Pophale) SiO2 
 PCOD9031533
Probable space group: P -1
;
_chemical_formula_sum "Si O2"
_cell_formula_units_Z 15
_cell_length_a 18.676328
_cell_length_b 13.675889
_cell_length_c 9.161602
_cell_angle_alpha 123.033185
_cell_angle_beta 131.531574
_cell_angle_gamma 20.401686
_cell_volume 583.949411
_symmetry_space_group_name_H-M "P -1"
_symmetry_group_IT_number 2
_symmetry_cell_setting 'triclinic'
loop_
_space_group_symop_operation_xyz
x,y,z
-x,-y,-z
loop_
_atom_site_type_symbol
_atom_site_label
_atom_site_fract_x
_atom_site_fract_y
_atom_site_fract_z
Si Si1 0.878794 0.296966 0.762030
Si Si2 0.823177 0.469573 0.386084
Si Si3 0.943422 0.999490 0.777511
Si Si4 0.742246 0.795298 0.977124
Si Si5 0.055571 0.577200 0.803240
Si Si6 0.498761 0.863588 0.530458
Si Si7 0.500000 0.500000 0.500000
Si Si8 0.733356 0.061357 0.231650
O O1 0.830393 0.217938 0.684078
O O2 0.658641 0.586091 0.602092
O O3 0.120102 0.038187 0.781100
O O4 0.913119 0.342883 0.985846
O O5 0.862071 0.488109 0.301212
O O6 0.609925 0.748346 0.425964
O O7 0.056920 0.216896 0.600803
O O8 0.832896 0.320194 0.241488
O O9 0.700945 0.198472 0.625554
O O10 0.000000 0.000000 0.000000
O O11 0.798618 0.685187 0.126254
O O12 0.638627 0.041954 0.033838
O O13 0.573264 0.891004 0.749320
O O14 0.000000 0.500000 0.000000
O O15 0.220382 0.151391 0.365965
O O16 0.444094 0.654556 0.693477
#
# Coordination Sequence:
#
# PCOD9031533 Si02
#       8
#     2   2   2   2   2   2   1   2
#     4  10  22  43  67  98 148 183 232 303 353 423
#     4  10  22  43  67 107 146 175 244 307 339 426
#     4  11  23  42  66 101 142 181 236 301 351 417
#     4  11  21  48  69  99 151 183 235 300 350 426
#     4  11  23  43  73 105 141 191 237 291 363 428
#     4  10  24  43  71 102 140 193 237 288 369 425
#     4  10  26  42  72 100 134 186 232 284 366 422
#     4  10  22  47  69  99 145 182 230 303 348 424
#
# _framework density 25.687155000000001
#
# number of rings (size 3 to 8) (size 9 to 14) (size 15 to 20)
#    0.000    1.600    5.333    0.000    3.733    6.933 
#    0.000    7.333    5.867    0.000    0.000    0.000 
#    0.000    0.000    0.000    0.000    0.000    0.000 
#
# Total GULP energy -83861.120911 kJ/mol
# GULP energy per Si atom -5590.741394 kJ/mol
# Density = 2.562869 g / cm^3
# Si number density = 25.687155 Si / 1000 Ang^3
#
#
#
# Elastic Constant Matrix: (Units=GPa)
#
#
# Indices 1 2 3 4 5 6 
#
# 1 129.8069 59.4766 46.3239 13.0739 -24.1774 -5.3047
# 2 59.4766 145.1852 38.4982 13.6999 -6.9381 -13.3686
# 3 46.3239 38.4982 131.6027 5.5599 -14.7425 -17.3211
# 4 13.0739 13.6999 5.5599 57.7871 6.7953 0.5732
# 5 -24.1774 -6.9381 -14.7425 6.7953 50.3008 2.1424
# 6 -5.3047 -13.3686 -17.3211 0.5732 2.1424 47.3152
#
#
#
# Elastic Compliance Matrix: (Units=1/GPa)
#
#
# Indices 1 2 3 4 5 6 
#
# 1 0.011232 -0.003638 -0.002413 -0.001966 0.004491 -0.000831
# 2 -0.003638 0.008907 -0.001136 -0.001105 -0.000778 0.001741
# 3 -0.002413 -0.001136 0.009303 -0.000263 0.001328 0.002757
# 4 -0.001966 -0.001105 -0.000263 0.018472 -0.003641 -0.000688
# 5 0.004491 -0.000778 0.001328 -0.003641 0.022822 -0.000219
# 6 -0.000831 0.001741 0.002757 -0.000688 -0.000219 0.022561
#
#
# Mechanical properties :
#
#
# Convention : Reuss Voigt Hill
#
# Bulk Modulus (GPa) = 66.36505 77.24359 71.80432
# Shear Modulus (GPa) = 44.36774 48.56703 46.46739
#
# Velocity S-wave (km/s) = 4.16051 4.35295 4.25782
# Velocity P-wave (km/s) = 6.99798 7.44315 7.22399
#
# Compressibility (1/GPa) = 0.01506817
#
# Stress axis : x y z
#
# Youngs Moduli (GPa) = 89.02936 112.27342 107.49084
#
# Poissons Ratio (x) = 0.40845 0.25935
# Poissons Ratio (y) = 0.32389 0.12214
# Poissons Ratio (z) = 0.21481 0.12757
#
# Static dielectric constant tensor:
#      x y z
#    x 1.791830 0.240350 -0.062040 
#    y 0.240350 1.876780 0.083380 
#    z -0.062040 0.083380 2.006950 
# 
# From -- ./inp_files/319047.got.cif
#   From: 2010.05.17/outbox.cif.g08.bks.cpg/sg2_160_cif.got.tgz:319047.got - 2010.06.03 11:33:40.
