data_PCOD9031620
_publ_section_title
;
Structure prediction by ZEFSAII (Michael W. Deem and Ramdas Pophale) SiO2 
 PCOD9031620
Probable space group: P -1
;
_chemical_formula_sum "Si O2"
_cell_formula_units_Z 16
_cell_length_a 10.206822
_cell_length_b 24.270927
_cell_length_c 5.254443
_cell_angle_alpha 72.328878
_cell_angle_beta 74.738768
_cell_angle_gamma 29.999350
_cell_volume 620.116599
_symmetry_space_group_name_H-M "P -1"
_symmetry_group_IT_number 2
_symmetry_cell_setting 'triclinic'
loop_
_space_group_symop_operation_xyz
x,y,z
-x,-y,-z
loop_
_atom_site_type_symbol
_atom_site_label
_atom_site_fract_x
_atom_site_fract_y
_atom_site_fract_z
Si Si1 0.299425 0.119209 0.830951
Si Si2 0.676650 0.379937 0.623017
Si Si3 0.201732 0.882687 0.813582
Si Si4 0.151132 0.794200 0.305003
Si Si5 0.932741 0.318797 0.076046
Si Si6 0.712442 0.648326 0.648778
Si Si7 0.036689 0.558816 0.108212
Si Si8 0.765273 0.006351 0.503271
O O1 0.053870 0.168584 0.809613
O O2 0.474666 0.089517 0.578632
O O3 0.203187 0.199503 0.979361
O O4 0.500000 0.000000 0.000000
O O5 0.500000 0.500000 0.500000
O O6 0.730041 0.362673 0.921772
O O7 0.611398 0.338458 0.622310
O O8 0.904941 0.311552 0.393499
O O9 0.428173 0.780123 0.643627
O O10 0.236811 0.938066 0.764127
O O11 0.911211 0.979183 0.713464
O O12 0.237438 0.822960 0.099903
O O13 0.961653 0.882480 0.505932
O O14 0.886495 0.403233 0.948820
O O15 0.833192 0.617181 0.355347
O O16 0.733561 0.572078 0.800825
O O17 0.899586 0.605057 0.837372
#
# Coordination Sequence:
#
# PCOD9031620 Si02
#       8
#     2   2   2   2   2   2   2   2
#     4  11  22  43  68  99 136 186 236 287 343 422
#     4  11  26  44  69 104 138 179 234 291 356 413
#     4  11  25  42  67 104 139 180 234 289 359 411
#     4  11  25  43  70  98 139 186 234 287 354 418
#     4  11  24  43  69 100 134 180 235 287 346 415
#     4  10  23  41  66 100 133 183 226 288 340 422
#     4  10  22  43  67  96 137 177 237 277 352 411
#     4  11  24  44  68 100 141 183 237 288 354 413
#
# _framework density 25.801599
#
# number of rings (size 3 to 8) (size 9 to 14) (size 15 to 20)
#    0.000    1.250    1.250    3.375    5.250    4.000 
#    0.000    0.000    0.000    0.000    0.000    0.000 
#    0.000    0.000    0.000    0.000    0.000    0.000 
#
# Total GULP energy -89434.969640 kJ/mol
# GULP energy per Si atom -5589.685603 kJ/mol
# Density = 2.574287 g / cm^3
# Si number density = 25.801599 Si / 1000 Ang^3
#
#
#
# Elastic Constant Matrix: (Units=GPa)
#
#
# Indices 1 2 3 4 5 6 
#
# 1 90.2884 30.4024 30.5768 -0.4468 -0.4177 16.1880
# 2 30.4024 143.6717 17.3913 -5.0439 -3.4314 34.5654
# 3 30.5768 17.3913 79.7783 -4.2828 -14.4120 14.1737
# 4 -0.4468 -5.0439 -4.2828 35.9502 6.6226 -0.6001
# 5 -0.4177 -3.4314 -14.4120 6.6226 37.2315 -10.8363
# 6 16.1880 34.5654 14.1737 -0.6001 -10.8363 40.4171
#
#
#
# Elastic Compliance Matrix: (Units=1/GPa)
#
#
# Indices 1 2 3 4 5 6 
#
# 1 0.013842 -0.001648 -0.004896 -0.000183 -0.002781 -0.003167
# 2 -0.001648 0.009159 -0.000263 0.001424 -0.001718 -0.007520
# 3 -0.004896 -0.000263 0.015816 0.000769 0.005349 -0.001915
# 4 -0.000183 0.001424 0.000769 0.029070 -0.005456 -0.002446
# 5 -0.002781 -0.001718 0.005349 -0.005456 0.032423 0.009319
# 6 -0.003167 -0.007520 -0.001915 -0.002446 0.009319 0.035576
#
#
# Mechanical properties :
#
#
# Convention : Reuss Voigt Hill
#
# Bulk Modulus (GPa) = 39.67470 52.27549 45.97509
# Shear Modulus (GPa) = 31.66550 38.41095 35.03823
#
# Velocity S-wave (km/s) = 3.50704 3.86256 3.68908
# Velocity P-wave (km/s) = 5.63998 6.34011 6.00026
#
# Compressibility (1/GPa) = 0.02520498
#
# Stress axis : x y z
#
# Youngs Moduli (GPa) = 72.24193 109.18146 63.22568
#
# Poissons Ratio (x) = 0.17988 0.30954
# Poissons Ratio (y) = 0.11902 0.01663
# Poissons Ratio (z) = 0.35368 0.02872
#
# Static dielectric constant tensor:
#      x y z
#    x 2.026120 -0.035640 0.014310 
#    y -0.035640 2.222110 -0.023840 
#    z 0.014310 -0.023840 2.064680 
# 
# From -- ./inp_files/81587.got.cif
#   From: 2010.05.17/outbox.cif.g08.bks.cpg/sg2_41_cif.got.tgz:81587.got - 2010.06.03 11:33:40.
