data_PCOD9031987
_publ_section_title
;
Structure prediction by ZEFSAII (Michael W. Deem and Ramdas Pophale) SiO2 
 PCOD9031987
Probable space group: P -1
;
_chemical_formula_sum "Si O2"
_cell_formula_units_Z 14
_cell_length_a 9.723682
_cell_length_b 16.886039
_cell_length_c 11.677055
_cell_angle_alpha 150.317247
_cell_angle_beta 123.739100
_cell_angle_gamma 40.151082
_cell_volume 575.684393
_symmetry_space_group_name_H-M "P -1"
_symmetry_group_IT_number 2
_symmetry_cell_setting 'triclinic'
loop_
_space_group_symop_operation_xyz
x,y,z
-x,-y,-z
loop_
_atom_site_type_symbol
_atom_site_label
_atom_site_fract_x
_atom_site_fract_y
_atom_site_fract_z
Si Si1 0.871409 0.211408 0.629231
Si Si2 0.887226 0.843026 0.968950
Si Si3 0.531511 0.722216 0.975030
Si Si4 0.057307 0.375232 0.062966
Si Si5 0.414464 0.567992 0.916195
Si Si6 0.230945 0.722311 0.579523
Si Si7 0.884019 0.774475 0.632509
O O1 0.934131 0.193513 0.503827
O O2 0.608246 0.329863 0.648334
O O3 0.000000 0.000000 0.500000
O O4 0.914632 0.345608 0.885830
O O5 0.806873 0.808232 0.003177
O O6 0.889023 0.736858 0.722238
O O7 0.152631 0.704694 0.947347
O O8 0.755654 0.093977 0.189520
O O9 0.767885 0.653710 0.976442
O O10 0.564427 0.539007 0.681231
O O11 0.468278 0.697981 0.040172
O O12 0.338958 0.974927 0.175271
O O13 0.907715 0.603305 0.349112
O O14 0.500000 0.500000 0.000000
O O15 0.094088 0.749203 0.659634
#
# Coordination Sequence:
#
# PCOD9031987 Si02
#       7
#     2   2   2   2   2   2   2
#     4  11  22  44  70 101 140 175 236 288 342 402
#     4  12  23  46  74 100 142 184 233 290 334 418
#     4  10  25  44  68 107 136 186 227 280 357 401
#     4  11  25  47  69 104 143 182 225 296 346 414
#     4  11  22  42  72 103 130 185 237 276 343 406
#     4  10  22  43  69 102 134 180 235 286 333 407
#     4  11  25  46  68 103 146 184 229 279 355 411
#
# _framework density 24.318881000000001
#
# number of rings (size 3 to 8) (size 9 to 14) (size 15 to 20)
#    0.000    1.143    4.286    0.857    0.000    7.429 
#   10.286    3.571    0.000    0.000    0.000    0.000 
#    0.000    0.000    0.000    0.000    0.000    0.000 
#
# Total GULP energy -78174.843505 kJ/mol
# GULP energy per Si atom -5583.917393 kJ/mol
# Density = 2.426353 g / cm^3
# Si number density = 24.318881 Si / 1000 Ang^3
#
#
#
# Elastic Constant Matrix: (Units=GPa)
#
#
# Indices 1 2 3 4 5 6 
#
# 1 88.0678 11.5048 14.8536 -0.8696 0.3215 11.4533
# 2 11.5048 61.3574 29.7932 8.1615 4.6987 8.3536
# 3 14.8536 29.7932 144.5464 12.9583 15.8293 -12.2727
# 4 -0.8696 8.1615 12.9583 55.6933 7.3493 -8.0785
# 5 0.3215 4.6987 15.8293 7.3493 30.7876 6.1922
# 6 11.4533 8.3536 -12.2727 -8.0785 6.1922 39.2745
#
#
#
# Elastic Compliance Matrix: (Units=1/GPa)
#
#
# Indices 1 2 3 4 5 6 
#
# 1 0.012292 -0.001099 -0.001564 -0.000106 0.001699 -0.004129
# 2 -0.001099 0.019723 -0.004324 -0.002921 0.001130 -0.006005
# 3 -0.001564 -0.004324 0.008931 -0.000113 -0.004877 0.004912
# 4 -0.000106 -0.002921 -0.000113 0.019924 -0.005370 0.005562
# 5 0.001699 0.001130 -0.004877 -0.005370 0.037960 -0.009349
# 6 -0.004129 -0.006005 0.004912 0.005562 -0.009349 0.032096
#
#
# Mechanical properties :
#
#
# Convention : Reuss Voigt Hill
#
# Bulk Modulus (GPa) = 37.07446 45.14165 41.10805
# Shear Modulus (GPa) = 32.49046 41.00573 36.74809
#
# Velocity S-wave (km/s) = 3.65912 4.11075 3.89150
# Velocity P-wave (km/s) = 5.75591 6.41356 6.09361
#
# Compressibility (1/GPa) = 0.02697275
#
# Stress axis : x y z
#
# Youngs Moduli (GPa) = 81.35389 50.70151 111.96497
#
# Poissons Ratio (x) = 0.05574 0.17508
# Poissons Ratio (y) = 0.08943 0.48413
# Poissons Ratio (z) = 0.12721 0.21923
#
# Static dielectric constant tensor:
#      x y z
#    x 2.006050 0.016570 -0.050720 
#    y 0.016570 1.990960 -0.004900 
#    z -0.050720 -0.004900 2.019110 
# 
# From -- ./inp_files/307004.got.cif
#   From: 2010.05.17/outbox.cif.g08.bks.cpg/sg2_154_cif.got.tgz:307004.got - 2010.06.03 11:33:40.
