data_PCOD9031958
_publ_section_title
;
Structure prediction by ZEFSAII (Michael W. Deem and Ramdas Pophale) SiO2 
 PCOD9031958
Probable space group: P -1
;
_chemical_formula_sum "Si O2"
_cell_formula_units_Z 15
_cell_length_a 11.240969
_cell_length_b 16.377973
_cell_length_c 13.398937
_cell_angle_alpha 26.892583
_cell_angle_beta 145.327070
_cell_angle_gamma 134.772159
_cell_volume 630.662507
_symmetry_space_group_name_H-M "P -1"
_symmetry_group_IT_number 2
_symmetry_cell_setting 'triclinic'
loop_
_space_group_symop_operation_xyz
x,y,z
-x,-y,-z
loop_
_atom_site_type_symbol
_atom_site_label
_atom_site_fract_x
_atom_site_fract_y
_atom_site_fract_z
Si Si1 0.067019 0.415618 0.033970
Si Si2 0.837317 0.150380 0.057019
Si Si3 0.923695 0.776216 0.422451
Si Si4 0.369071 0.909346 0.593289
Si Si5 0.750530 0.691632 0.186303
Si Si6 0.877538 0.263025 0.743687
Si Si7 0.500000 0.000000 0.000000
Si Si8 0.563545 0.861250 0.422138
O O1 0.310746 0.339485 0.280364
O O2 0.955777 0.233253 0.136774
O O3 0.985143 0.576275 0.726656
O O4 0.000000 0.500000 0.000000
O O5 0.589949 0.203364 0.838816
O O6 0.926685 0.218809 0.941449
O O7 0.812375 0.932274 0.253519
O O8 0.147091 0.848800 0.472179
O O9 0.782900 0.758427 0.248033
O O10 0.500000 0.000000 0.500000
O O11 0.334855 0.041222 0.521510
O O12 0.523590 0.743748 0.925601
O O13 0.808848 0.476697 0.456414
O O14 0.921620 0.780005 0.140274
O O15 0.678105 0.158728 0.694716
O O16 0.570271 0.968486 0.206442
#
# Coordination Sequence:
#
# PCOD9031958 Si02
#       8
#     2   2   2   2   2   2   1   2
#     4  12  27  45  71 103 139 184 237 301 355 417
#     4  11  23  47  68 100 140 176 235 294 352 421
#     4  12  25  45  73 105 143 188 237 288 358 427
#     4  12  26  42  72 109 144 190 239 290 357 429
#     4  11  23  43  71 106 143 192 232 288 356 423
#     4  10  22  43  69 100 144 181 235 290 345 426
#     4  10  24  42  74  96 130 194 228 290 358 408
#     4  11  24  46  68 103 144 185 238 298 352 424
#
# _framework density 23.784510000000001
#
# number of rings (size 3 to 8) (size 9 to 14) (size 15 to 20)
#    0.000    0.800    2.667    4.800    1.867    2.667 
#    2.400    5.333    0.000    0.000    0.000    0.000 
#    0.000    0.000    0.000    0.000    0.000    0.000 
#
# Total GULP energy -83703.182189 kJ/mol
# GULP energy per Si atom -5580.212146 kJ/mol
# Density = 2.373038 g / cm^3
# Si number density = 23.784510 Si / 1000 Ang^3
#
#
#
# Elastic Constant Matrix: (Units=GPa)
#
#
# Indices 1 2 3 4 5 6 
#
# 1 78.2806 -1.6527 16.3697 -11.4490 -17.3848 -12.3600
# 2 -1.6527 53.1987 8.3366 -0.4757 -6.9470 -5.5907
# 3 16.3697 8.3366 119.2488 -8.0902 0.9376 -14.3987
# 4 -11.4490 -0.4757 -8.0902 33.4326 -6.7904 3.3738
# 5 -17.3848 -6.9470 0.9376 -6.7904 35.1519 0.3097
# 6 -12.3600 -5.5907 -14.3987 3.3738 0.3097 34.0501
#
#
#
# Elastic Compliance Matrix: (Units=1/GPa)
#
#
# Indices 1 2 3 4 5 6 
#
# 1 0.017390 0.002779 -0.001533 0.007229 0.010540 0.005308
# 2 0.002779 0.020221 -0.001293 0.001727 0.005708 0.003559
# 3 -0.001533 -0.001293 0.009134 0.001150 -0.001062 0.002989
# 4 0.007229 0.001727 0.001150 0.034862 0.010622 -0.000157
# 5 0.010540 0.005708 -0.001062 0.010622 0.036843 0.002927
# 6 0.005308 0.003559 0.002989 -0.000157 0.002927 0.033133
#
#
# Mechanical properties :
#
#
# Convention : Reuss Voigt Hill
#
# Bulk Modulus (GPa) = 21.43538 32.98170 27.20854
# Shear Modulus (GPa) = 29.89930 35.70521 32.80226
#
# Velocity S-wave (km/s) = 3.54939 3.87873 3.71771
# Velocity P-wave (km/s) = 5.08227 5.82721 5.46744
#
# Compressibility (1/GPa) = 0.04665185
#
# Stress axis : x y z
#
# Youngs Moduli (GPa) = 57.50400 49.45296 109.48146
#
# Poissons Ratio (x) = -0.13745 0.16783
# Poissons Ratio (y) = -0.15983 0.14158
# Poissons Ratio (z) = 0.08815 0.06395
#
# Static dielectric constant tensor:
#      x y z
#    x -0.559860 -0.954620 -1.110810 
#    y -0.954620 1.530290 -0.418430 
#    z -1.110810 -0.418430 1.446730 
# 
# From -- ./inp_files/432398.got.cif
#   From: 2010.05.17/outbox.cif.g08.bks.cpg/sg2_217_cif.got.tgz:432398.got - 2010.06.03 11:33:40.
