data_PCOD9031728
_publ_section_title
;
Structure prediction by ZEFSAII (Michael W. Deem and Ramdas Pophale) SiO2 
 PCOD9031728
Probable space group: P -1
;
_chemical_formula_sum "Si O2"
_cell_formula_units_Z 16
_cell_length_a 7.464913
_cell_length_b 14.005880
_cell_length_c 14.382395
_cell_angle_alpha 24.958032
_cell_angle_beta 108.304384
_cell_angle_gamma 110.074638
_cell_volume 595.936299
_symmetry_space_group_name_H-M "P -1"
_symmetry_group_IT_number 2
_symmetry_cell_setting 'triclinic'
loop_
_space_group_symop_operation_xyz
x,y,z
-x,-y,-z
loop_
_atom_site_type_symbol
_atom_site_label
_atom_site_fract_x
_atom_site_fract_y
_atom_site_fract_z
Si Si1 0.297372 0.163620 0.842795
Si Si2 0.420673 0.999772 0.830650
Si Si3 0.116458 0.704290 0.922453
Si Si4 0.322955 0.212193 0.061340
Si Si5 0.616516 0.628448 0.721919
Si Si6 0.219248 0.088813 0.351677
Si Si7 0.000181 0.288003 0.811420
Si Si8 0.036168 0.355064 0.363008
O O1 0.144807 0.315376 0.723234
O O2 0.371247 0.190299 0.725755
O O3 0.480404 0.167829 0.935541
O O4 0.183064 0.902662 0.066688
O O5 0.227001 0.877758 0.861312
O O6 0.566501 0.995864 0.772311
O O7 0.979304 0.817488 0.734097
O O8 0.273228 0.558531 0.038757
O O9 0.986550 0.529272 0.121753
O O10 0.320842 0.216939 0.166948
O O11 0.418513 0.467517 0.817426
O O12 0.121880 0.171291 0.012377
O O13 0.641784 0.856457 0.586435
O O14 0.749989 0.676279 0.610173
O O15 0.126616 0.855129 0.494425
O O16 0.959176 0.519796 0.648328
#
# Coordination Sequence:
#
# PCOD9031728 Si02
#       8
#     2   2   2   2   2   2   2   2
#     4   9  16  27  59  82 100 140 190 208 266 338
#     4   9  16  31  53  84 103 139 177 222 268 316
#     4   9  19  35  56  76 112 143 177 223 265 319
#     4  10  18  33  56  76 117 138 177 227 268 311
#     4   9  20  36  54  79 111 144 184 222 259 319
#     4  12  20  34  59  80 105 152 180 219 269 316
#     4  10  17  32  53  83 104 144 178 220 271 320
#     4  10  21  36  54  80 113 138 185 222 265 321
#
# _framework density 26.848507999999999
#
# number of rings (size 3 to 8) (size 9 to 14) (size 15 to 20)
#    0.750    1.500    2.500    1.125    0.000    0.000 
#    0.000    3.125    0.000   13.500    0.000    0.000 
#    0.000    0.000    0.000    0.000    0.000    0.000 
#
# Total GULP energy -89252.428257 kJ/mol
# GULP energy per Si atom -5578.276766 kJ/mol
# Density = 2.678740 g / cm^3
# Si number density = 26.848508 Si / 1000 Ang^3
#
#
#
# Elastic Constant Matrix: (Units=GPa)
#
#
# Indices 1 2 3 4 5 6 
#
# 1 100.8836 26.6475 17.7413 1.3124 -3.4565 -21.0993
# 2 26.6475 135.4360 20.5037 -11.8266 -5.0559 -13.1884
# 3 17.7413 20.5037 54.7925 -17.4558 -11.5366 5.7141
# 4 1.3124 -11.8266 -17.4558 36.3352 2.8323 0.4721
# 5 -3.4565 -5.0559 -11.5366 2.8323 29.8285 -7.6274
# 6 -21.0993 -13.1884 5.7141 0.4721 -7.6274 53.8197
#
#
#
# Elastic Compliance Matrix: (Units=1/GPa)
#
#
# Indices 1 2 3 4 5 6 
#
# 1 0.012302 -0.001444 -0.004862 -0.003390 0.000939 0.005148
# 2 -0.001444 0.008341 -0.002166 0.001648 0.000711 0.001794
# 3 -0.004862 -0.002166 0.026259 0.011595 0.007017 -0.004332
# 4 -0.003390 0.001648 0.011595 0.033738 0.000561 -0.002373
# 5 0.000939 0.000711 0.007017 0.000561 0.037729 0.005139
# 6 0.005148 0.001794 -0.004332 -0.002373 0.005139 0.022247
#
#
# Mechanical properties :
#
#
# Convention : Reuss Voigt Hill
#
# Bulk Modulus (GPa) = 33.38172 46.76633 40.07403
# Shear Modulus (GPa) = 29.84270 39.07799 34.46035
#
# Velocity S-wave (km/s) = 3.33757 3.81924 3.58650
# Velocity P-wave (km/s) = 5.22617 6.07497 5.66648
#
# Compressibility (1/GPa) = 0.02995652
#
# Stress axis : x y z
#
# Youngs Moduli (GPa) = 81.28885 119.89368 38.08281
#
# Poissons Ratio (x) = 0.17313 0.18516
# Poissons Ratio (y) = 0.11739 0.08249
# Poissons Ratio (z) = 0.39524 0.25970
#
# Static dielectric constant tensor:
#      x y z
#    x 2.175540 -0.060460 0.097390 
#    y -0.060460 2.072680 -0.051120 
#    z 0.097390 -0.051120 2.204830 
# 
# From -- ./inp_files/560714.got.cif
#   From: 2010.05.17/outbox.cif.g08.bks.cpg/sg2_281_cif.got.tgz:560714.got - 2010.06.03 11:33:40.
