data_PCOD9031944
_publ_section_title
;
Structure prediction by ZEFSAII (Michael W. Deem and Ramdas Pophale) SiO2 
 PCOD9031944
Probable space group: P -1
;
_chemical_formula_sum "Si O2"
_cell_formula_units_Z 16
_cell_length_a 5.404615
_cell_length_b 16.112769
_cell_length_c 11.274958
_cell_angle_alpha 121.344602
_cell_angle_beta 88.889936
_cell_angle_gamma 55.409906
_cell_volume 617.329001
_symmetry_space_group_name_H-M "P -1"
_symmetry_group_IT_number 2
_symmetry_cell_setting 'triclinic'
loop_
_space_group_symop_operation_xyz
x,y,z
-x,-y,-z
loop_
_atom_site_type_symbol
_atom_site_label
_atom_site_fract_x
_atom_site_fract_y
_atom_site_fract_z
Si Si1 0.293472 0.501900 0.403384
Si Si2 0.159456 0.098815 0.868157
Si Si3 0.189556 0.416463 0.133300
Si Si4 0.653206 0.055419 0.483425
Si Si5 0.518603 0.297111 0.629846
Si Si6 0.340388 0.650184 0.104770
Si Si7 0.551067 0.148228 0.037510
Si Si8 0.417379 0.269003 0.365565
O O1 0.500000 0.500000 0.500000
O O2 0.388334 0.449600 0.228873
O O3 0.312639 0.388683 0.374535
O O4 0.944691 0.653645 0.514723
O O5 0.960260 0.235038 0.893748
O O6 0.879645 0.117442 0.963643
O O7 0.452783 0.072367 0.922430
O O8 0.289390 0.988685 0.686821
O O9 0.808768 0.548566 0.251951
O O10 0.342023 0.373711 0.969771
O O11 0.253381 0.297305 0.105078
O O12 0.435917 0.210717 0.610615
O O13 0.500000 0.000000 0.500000
O O14 0.000000 0.000000 0.500000
O O15 0.749024 0.286131 0.717135
O O16 0.642077 0.247180 0.456735
O O17 0.500000 0.500000 0.000000
O O18 0.544766 0.156995 0.186847
#
# Coordination Sequence:
#
# PCOD9031944 Si02
#       8
#     2   2   2   2   2   2   2   2
#     4   9  18  33  59  88 135 176 217 259 332 415
#     4  11  24  44  69  96 131 180 228 271 335 398
#     4   9  21  36  60  97 134 171 215 271 342 398
#     4  12  27  49  72  95 135 186 234 279 334 401
#     4  11  23  43  63  98 139 174 235 276 341 404
#     4  11  23  34  63  99 138 171 219 280 345 401
#     4  10  22  43  69 100 135 173 218 275 340 406
#     4   9  21  37  60  95 131 178 219 276 335 400
#
# _framework density 25.918108
#
# number of rings (size 3 to 8) (size 9 to 14) (size 15 to 20)
#    0.000    1.750    1.250    2.625   10.500    0.000 
#    2.250    1.250    0.000    0.000    0.000    0.000 
#    0.000    0.000    0.000    0.000    0.000    0.000 
#
# Total GULP energy -89338.515560 kJ/mol
# GULP energy per Si atom -5583.657222 kJ/mol
# Density = 2.585912 g / cm^3
# Si number density = 25.918108 Si / 1000 Ang^3
#
#
#
# Elastic Constant Matrix: (Units=GPa)
#
#
# Indices 1 2 3 4 5 6 
#
# 1 101.4799 22.9308 45.6381 -17.8610 32.0842 0.5632
# 2 22.9308 97.9287 33.8632 5.7999 7.3665 4.9892
# 3 45.6381 33.8632 165.1819 -32.1950 40.1819 -4.4681
# 4 -17.8610 5.7999 -32.1950 59.4003 -5.1534 12.7730
# 5 32.0842 7.3665 40.1819 -5.1534 34.0726 -3.2687
# 6 0.5632 4.9892 -4.4681 12.7730 -3.2687 32.2293
#
#
#
# Elastic Compliance Matrix: (Units=1/GPa)
#
#
# Indices 1 2 3 4 5 6 
#
# 1 0.015640 -0.002917 0.000622 0.004735 -0.014408 -0.003073
# 2 -0.002917 0.011947 -0.003098 -0.003314 0.003260 -0.000584
# 3 0.000622 -0.003098 0.010296 0.005382 -0.011377 -0.001391
# 4 0.004735 -0.003314 0.005382 0.022695 -0.007480 -0.008576
# 5 -0.014408 0.003260 -0.011377 -0.007480 0.055143 0.006727
# 6 -0.003073 -0.000584 -0.001391 -0.008576 0.006727 0.035060
#
#
# Mechanical properties :
#
#
# Convention : Reuss Voigt Hill
#
# Bulk Modulus (GPa) = 36.90666 63.27275 50.08970
# Shear Modulus (GPa) = 29.30852 42.61767 35.96310
#
# Velocity S-wave (km/s) = 3.36640 4.05942 3.72905
# Velocity P-wave (km/s) = 5.42041 6.81450 6.15704
#
# Compressibility (1/GPa) = 0.02709538
#
# Stress axis : x y z
#
# Youngs Moduli (GPa) = 63.94064 83.70551 97.12220
#
# Poissons Ratio (x) = 0.24418 -0.06037
# Poissons Ratio (y) = 0.18652 0.30089
# Poissons Ratio (z) = -0.03975 0.25932
#
# Static dielectric constant tensor:
#      x y z
#    x 2.190500 -0.038290 -0.031430 
#    y -0.038290 2.128430 -0.048470 
#    z -0.031430 -0.048470 2.116590 
# 
# From -- ./inp_files/369500.got.cif
#   From: 2010.05.17/outbox.cif.g08.bks.cpg/sg2_185_cif.got.tgz:369500.got - 2010.06.03 11:33:40.
