data_PCOD9031234
_publ_section_title
;
Structure prediction by ZEFSAII (Michael W. Deem and Ramdas Pophale) SiO2 
 PCOD9031234
Probable space group: P -1
;
_chemical_formula_sum "Si O2"
_cell_formula_units_Z 14
_cell_length_a 9.660356
_cell_length_b 13.170388
_cell_length_c 11.429810
_cell_angle_alpha 116.278789
_cell_angle_beta 142.308486
_cell_angle_gamma 90.353104
_cell_volume 605.640668
_symmetry_space_group_name_H-M "P -1"
_symmetry_group_IT_number 2
_symmetry_cell_setting 'triclinic'
loop_
_space_group_symop_operation_xyz
x,y,z
-x,-y,-z
loop_
_atom_site_type_symbol
_atom_site_label
_atom_site_fract_x
_atom_site_fract_y
_atom_site_fract_z
Si Si1 0.050318 0.879912 0.966259
Si Si2 0.872301 0.844000 0.387402
Si Si3 0.928509 0.329247 0.016302
Si Si4 0.829290 0.429480 0.227360
Si Si5 0.181006 0.718447 0.471831
Si Si6 0.709721 0.001214 0.053103
Si Si7 0.375244 0.623622 0.344293
O O1 0.721175 0.727113 0.645855
O O2 0.155591 0.831077 0.116531
O O3 0.256788 0.933614 0.018567
O O4 0.000000 0.000000 0.000000
O O5 0.059316 0.805579 0.429404
O O6 0.973033 0.889601 0.614492
O O7 0.521971 0.708962 0.066844
O O8 0.000000 0.000000 0.500000
O O9 0.957020 0.377735 0.195371
O O10 0.214939 0.455807 0.193118
O O11 0.693002 0.341033 0.807858
O O12 0.000000 0.500000 0.500000
O O13 0.920456 0.573693 0.295743
O O14 0.239994 0.672931 0.368450
O O15 0.508336 0.823785 0.807093
O O16 0.500000 0.000000 0.000000
#
# Coordination Sequence:
#
# PCOD9031234 Si02
#       7
#     2   2   2   2   2   2   2
#     4  12  24  41  71 102 137 184 232 279 358 416
#     4  11  24  39  66  98 133 183 227 283 355 407
#     4  10  25  43  70  98 137 182 229 296 346 416
#     4  11  24  43  67  97 133 181 233 286 346 415
#     4  10  22  43  65  95 137 177 228 286 343 414
#     4  10  23  42  66  95 143 176 227 288 342 414
#     4  10  22  48  66  98 138 177 237 288 346 420
#
# _framework density 23.116018
#
# number of rings (size 3 to 8) (size 9 to 14) (size 15 to 20)
#    0.000    1.429    1.429    2.571    8.000    1.714 
#   12.857    0.000    0.000    0.000    0.000    0.000 
#    0.000    0.000    0.000    0.000    0.000    0.000 
#
# Total GULP energy -78032.704274 kJ/mol
# GULP energy per Si atom -5573.764591 kJ/mol
# Density = 2.306340 g / cm^3
# Si number density = 23.116018 Si / 1000 Ang^3
#
#
#
# Elastic Constant Matrix: (Units=GPa)
#
#
# Indices 1 2 3 4 5 6 
#
# 1 91.0436 58.3351 31.8202 2.5965 2.1976 12.6505
# 2 58.3351 159.0379 28.8919 8.9967 3.7220 1.3701
# 3 31.8202 28.8919 150.0184 18.6409 9.2799 18.1245
# 4 2.5965 8.9967 18.6409 27.2924 10.1622 6.5502
# 5 2.1976 3.7220 9.2799 10.1622 42.0172 8.2795
# 6 12.6505 1.3701 18.1245 6.5502 8.2795 30.3040
#
#
#
# Elastic Compliance Matrix: (Units=1/GPa)
#
#
# Indices 1 2 3 4 5 6 
#
# 1 0.016040 -0.005650 -0.001983 0.002925 0.000584 -0.006046
# 2 -0.005650 0.008571 -0.000465 -0.002546 -0.000314 0.002885
# 3 -0.001983 -0.000465 0.008096 -0.004473 0.000037 -0.003037
# 4 0.002925 -0.002546 -0.004473 0.044862 -0.008654 -0.005763
# 5 0.000584 -0.000314 0.000037 -0.008654 0.027017 -0.005762
# 6 -0.006046 0.002885 -0.003037 -0.005763 -0.005762 0.040029
#
#
# Mechanical properties :
#
#
# Convention : Reuss Voigt Hill
#
# Bulk Modulus (GPa) = 60.56665 70.91046 65.73856
# Shear Modulus (GPa) = 30.06334 38.65956 34.36145
#
# Velocity S-wave (km/s) = 3.61021 4.09395 3.85967
# Velocity P-wave (km/s) = 6.60577 7.28627 6.95435
#
# Compressibility (1/GPa) = 0.01651074
#
# Stress axis : x y z
#
# Youngs Moduli (GPa) = 62.34543 116.66878 123.51088
#
# Poissons Ratio (x) = 0.65919 0.24493
# Poissons Ratio (y) = 0.35226 0.05745
# Poissons Ratio (z) = 0.12364 0.05427
#
# Static dielectric constant tensor:
#      x y z
#    x 1.875100 -0.063550 -0.034600 
#    y -0.063550 1.975830 -0.029890 
#    z -0.034600 -0.029890 2.009450 
# 
# From -- ./inp_files/428500.got.cif
#   From: 2010.05.17/outbox.cif.g08.bks.cpg/sg2_215_cif.got.tgz:428500.got - 2010.06.03 11:33:40.
