data_PCOD9031424
_publ_section_title
;
Structure prediction by ZEFSAII (Michael W. Deem and Ramdas Pophale) SiO2 
 PCOD9031424
Probable space group: P -1
;
_chemical_formula_sum "Si O2"
_cell_formula_units_Z 13
_cell_length_a 11.582254
_cell_length_b 11.224287
_cell_length_c 4.750574
_cell_angle_alpha 63.390462
_cell_angle_beta 96.986929
_cell_angle_gamma 121.235998
_cell_volume 467.158643
_symmetry_space_group_name_H-M "P -1"
_symmetry_group_IT_number 2
_symmetry_cell_setting 'triclinic'
loop_
_space_group_symop_operation_xyz
x,y,z
-x,-y,-z
loop_
_atom_site_type_symbol
_atom_site_label
_atom_site_fract_x
_atom_site_fract_y
_atom_site_fract_z
Si Si1 0.104185 0.796674 0.399163
Si Si2 0.612640 0.808245 0.389567
Si Si3 0.076481 0.354241 0.961528
Si Si4 0.365685 0.897967 0.751071
Si Si5 0.359793 0.610292 0.945038
Si Si6 0.867864 0.904527 0.759716
Si Si7 0.500000 0.500000 0.500000
O O1 0.238723 0.837824 0.565652
O O2 0.054138 0.688458 0.223945
O O3 0.123912 0.966278 0.161751
O O4 0.982475 0.700747 0.686749
O O5 0.473572 0.686249 0.651692
O O6 0.738815 0.852615 0.579389
O O7 0.596384 0.692263 0.260045
O O8 0.627686 0.975502 0.162765
O O9 0.211580 0.521557 0.848885
O O10 0.127430 0.242599 0.976176
O O11 0.367173 0.745398 0.001358
O O12 0.500000 0.000000 0.500000
O O13 0.385232 0.492712 0.255421
O O14 0.000000 0.000000 0.500000
#
# Coordination Sequence:
#
# PCOD9031424 Si02
#       7
#     2   2   2   2   2   2   1
#     4  10  23  43  66  99 137 181 230 283 343 419
#     4  10  22  43  66  96 136 174 236 278 343 415
#     4  11  23  40  68 100 138 178 229 287 347 411
#     4   9  22  50  66  97 137 185 230 279 347 416
#     4  11  25  41  68  99 135 182 226 287 349 408
#     4   9  19  39  61  95 135 180 226 285 346 407
#     4  12  24  40  68 102 134 174 230 296 342 408
#
# _framework density 27.827805000000001
#
# number of rings (size 3 to 8) (size 9 to 14) (size 15 to 20)
#    0.000    1.846    1.538    0.923    2.154    1.846 
#   30.462    0.000    0.000    0.000    0.000    0.000 
#    0.000    0.000    0.000    0.000    0.000    0.000 
#
# Total GULP energy -72645.826778 kJ/mol
# GULP energy per Si atom -5588.140521 kJ/mol
# Density = 2.776447 g / cm^3
# Si number density = 27.827805 Si / 1000 Ang^3
#
#
#
# Elastic Constant Matrix: (Units=GPa)
#
#
# Indices 1 2 3 4 5 6 
#
# 1 94.7065 28.6748 31.3760 -15.1726 -6.2593 20.7931
# 2 28.6748 176.3075 26.7800 -8.1496 12.2348 29.9809
# 3 31.3760 26.7800 101.9393 3.2219 5.9340 -6.1952
# 4 -15.1726 -8.1496 3.2219 42.7993 -5.2422 14.1811
# 5 -6.2593 12.2348 5.9340 -5.2422 44.0578 -10.2292
# 6 20.7931 29.9809 -6.1952 14.1811 -10.2292 45.9698
#
#
#
# Elastic Compliance Matrix: (Units=1/GPa)
#
#
# Indices 1 2 3 4 5 6 
#
# 1 0.017010 0.000657 -0.006573 0.010820 0.001624 -0.011985
# 2 0.000657 0.007632 -0.002620 0.004015 -0.002941 -0.007521
# 3 -0.006573 -0.002620 0.013290 -0.006701 -0.000855 0.008350
# 4 0.010820 0.004015 -0.006701 0.034875 0.001078 -0.018934
# 5 0.001624 -0.002941 -0.000855 0.001078 0.025475 0.006405
# 6 -0.011985 -0.007521 0.008350 -0.018934 0.006405 0.040471
#
#
# Mechanical properties :
#
#
# Convention : Reuss Voigt Hill
#
# Bulk Modulus (GPa) = 47.93819 60.73498 54.33659
# Shear Modulus (GPa) = 30.71689 45.64022 38.17855
#
# Velocity S-wave (km/s) = 3.32598 4.05420 3.70801
# Velocity P-wave (km/s) = 5.65806 6.61725 6.15637
#
# Compressibility (1/GPa) = 0.02086020
#
# Stress axis : x y z
#
# Youngs Moduli (GPa) = 58.79059 131.03516 75.24403
#
# Poissons Ratio (x) = -0.08614 0.49457
# Poissons Ratio (y) = -0.03865 0.19713
# Poissons Ratio (z) = 0.38643 0.34330
#
# Static dielectric constant tensor:
#      x y z
#    x 2.672250 -0.397550 -0.092300 
#    y -0.397550 2.513610 0.083760 
#    z -0.092300 0.083760 2.072400 
# 
# From -- ./inp_files/62372.got.cif
#   From: 2010.05.17/outbox.cif.g08.bks.cpg/sg2_32_cif.got.tgz:62372.got - 2010.06.03 11:33:40.
