data_PCOD9031275
_publ_section_title
;
Structure prediction by ZEFSAII (Michael W. Deem and Ramdas Pophale) SiO2 
 PCOD9031275
Probable space group: P -1
;
_chemical_formula_sum "Si O2"
_cell_formula_units_Z 16
_cell_length_a 7.360597
_cell_length_b 12.096845
_cell_length_c 17.098803
_cell_angle_alpha 38.652330
_cell_angle_beta 131.967703
_cell_angle_gamma 105.988501
_cell_volume 598.941009
_symmetry_space_group_name_H-M "P -1"
_symmetry_group_IT_number 2
_symmetry_cell_setting 'triclinic'
loop_
_space_group_symop_operation_xyz
x,y,z
-x,-y,-z
loop_
_atom_site_type_symbol
_atom_site_label
_atom_site_fract_x
_atom_site_fract_y
_atom_site_fract_z
Si Si1 0.974324 0.426499 0.119309
Si Si2 0.794627 0.402106 0.591008
Si Si3 0.206193 0.872404 0.828714
Si Si4 0.764691 0.233618 0.388841
Si Si5 0.710666 0.847733 0.906565
Si Si6 0.692296 0.892735 0.486734
Si Si7 0.279627 0.476667 0.668343
Si Si8 0.830168 0.075493 0.029870
O O1 0.802200 0.310814 0.117806
O O2 0.263635 0.257176 0.345076
O O3 0.814393 0.630941 0.013105
O O4 0.000000 0.500000 0.000000
O O5 0.500000 0.500000 0.500000
O O6 0.734083 0.404668 0.479844
O O7 0.006188 0.153492 0.988987
O O8 0.024708 0.165593 0.810976
O O9 0.502959 0.863353 0.906785
O O10 0.120649 0.893527 0.882008
O O11 0.968493 0.077719 0.601279
O O12 0.601350 0.455943 0.261756
O O13 0.985939 0.221034 0.394386
O O14 0.619254 0.116769 0.374879
O O15 0.525809 0.041305 0.685252
O O16 0.030837 0.479800 0.419864
O O17 0.489989 0.235543 0.836231
#
# Coordination Sequence:
#
# PCOD9031275 Si02
#       8
#     2   2   2   2   2   2   2   2
#     4  11  22  40  60 101 145 197 244 291 342 409
#     4  11  28  51  77 104 138 181 240 303 369 437
#     4  10  22  43  65  98 147 184 242 292 339 425
#     4   9  19  43  69 101 137 195 235 281 353 413
#     4  11  25  40  68 100 147 196 237 288 348 423
#     4   9  22  38  67 100 146 191 241 281 336 425
#     4  11  26  47  78 105 142 185 234 299 369 426
#     4  12  26  45  71 111 139 182 237 302 362 429
#
# _framework density 26.713816999999999
#
# number of rings (size 3 to 8) (size 9 to 14) (size 15 to 20)
#    0.000    1.500    2.500    1.500    7.000    3.000 
#    0.000    0.000    0.000    0.000    0.000    0.000 
#    0.000    0.000    0.000    0.000    0.000    0.000 
#
# Total GULP energy -89664.912717 kJ/mol
# GULP energy per Si atom -5604.057045 kJ/mol
# Density = 2.665301 g / cm^3
# Si number density = 26.713817 Si / 1000 Ang^3
#
#
#
# Elastic Constant Matrix: (Units=GPa)
#
#
# Indices 1 2 3 4 5 6 
#
# 1 144.1369 23.6550 46.2759 -7.7399 -1.5974 -12.9778
# 2 23.6550 103.9952 41.0828 -3.7852 -8.3795 -11.8740
# 3 46.2759 41.0828 110.6024 -10.5961 -1.4134 -16.7035
# 4 -7.7399 -3.7852 -10.5961 37.6267 -3.2267 4.1719
# 5 -1.5974 -8.3795 -1.4134 -3.2267 30.4504 2.7047
# 6 -12.9778 -11.8740 -16.7035 4.1719 2.7047 22.2029
#
#
#
# Elastic Compliance Matrix: (Units=1/GPa)
#
#
# Indices 1 2 3 4 5 6 
#
# 1 0.008162 -0.000448 -0.002849 0.000582 0.000032 0.002275
# 2 -0.000448 0.011733 -0.003701 -0.000038 0.002772 0.002898
# 3 -0.002849 -0.003701 0.012625 0.001900 -0.000878 0.005603
# 4 0.000582 -0.000038 0.001900 0.027956 0.003419 -0.003919
# 5 0.000032 0.002772 -0.000878 0.003419 0.034280 -0.003978
# 6 0.002275 0.002898 0.005603 -0.003919 -0.003978 0.053355
#
#
# Mechanical properties :
#
#
# Convention : Reuss Voigt Hill
#
# Bulk Modulus (GPa) = 53.98281 64.52910 59.25596
# Shear Modulus (GPa) = 29.71201 34.57072 32.14137
#
# Velocity S-wave (km/s) = 3.33864 3.60128 3.47244
# Velocity P-wave (km/s) = 5.92568 6.44208 6.18927
#
# Compressibility (1/GPa) = 0.01852442
#
# Stress axis : x y z
#
# Youngs Moduli (GPa) = 122.51158 85.23205 79.20533
#
# Poissons Ratio (x) = 0.03815 0.22567
# Poissons Ratio (y) = 0.05483 0.29317
# Poissons Ratio (z) = 0.34906 0.31547
#
# Static dielectric constant tensor:
#      x y z
#    x 2.065860 0.036850 0.020610 
#    y 0.036850 2.062140 -0.003990 
#    z 0.020610 -0.003990 2.124260 
# 
# From -- ./inp_files/503870.got.cif
#   From: 2010.05.17/outbox.cif.g08.bks.cpg/sg2_252_cif.got.tgz:503870.got - 2010.06.03 11:33:40.
