data_PCOD9031818
_publ_section_title
;
Structure prediction by ZEFSAII (Michael W. Deem and Ramdas Pophale) SiO2 
 PCOD9031818
Probable space group: P -1
;
_chemical_formula_sum "Si O2"
_cell_formula_units_Z 16
_cell_length_a 6.900007
_cell_length_b 25.399936
_cell_length_c 12.372015
_cell_angle_alpha 23.756098
_cell_angle_beta 56.074693
_cell_angle_gamma 61.603234
_cell_volume 720.754134
_symmetry_space_group_name_H-M "P -1"
_symmetry_group_IT_number 2
_symmetry_cell_setting 'triclinic'
loop_
_space_group_symop_operation_xyz
x,y,z
-x,-y,-z
loop_
_atom_site_type_symbol
_atom_site_label
_atom_site_fract_x
_atom_site_fract_y
_atom_site_fract_z
Si Si1 0.859304 0.857607 0.821054
Si Si2 0.728005 0.434932 0.081582
Si Si3 0.875218 0.333504 0.432989
Si Si4 0.269248 0.740372 0.797486
Si Si5 0.869397 0.083954 0.798601
Si Si6 0.335703 0.021833 0.153249
Si Si7 0.568333 0.304549 0.777583
Si Si8 0.721502 0.457312 0.655928
O O1 0.033901 0.761986 0.896886
O O2 0.771643 0.864597 0.958601
O O3 0.615814 0.820714 0.903740
O O4 0.000000 0.000000 0.500000
O O5 0.693482 0.382297 0.312657
O O6 0.768320 0.326929 0.181513
O O7 0.500000 0.500000 0.000000
O O8 0.948088 0.545139 0.811534
O O9 0.987734 0.229868 0.515535
O O10 0.755419 0.269598 0.696624
O O11 0.378152 0.890460 0.456895
O O12 0.376831 0.633820 0.041060
O O13 0.851438 0.029667 0.784510
O O14 0.590476 0.077195 0.925872
O O15 0.000000 0.000000 0.000000
O O16 0.685143 0.367683 0.729094
O O17 0.420657 0.416451 0.559210
O O18 0.000000 0.500000 0.500000
#
# Coordination Sequence:
#
# PCOD9031818 Si02
#       8
#     2   2   2   2   2   2   2   2
#     4  10  22  43  68  94 134 182 218 279 335 389
#     4  11  25  43  68 100 133 175 217 281 342 398
#     4  11  24  43  67  98 133 168 228 277 331 407
#     4  11  22  44  68  94 134 175 219 272 339 392
#     4  11  24  43  69  96 128 180 223 273 340 395
#     4  10  23  46  66  92 137 170 224 284 323 394
#     4  11  23  43  67  96 137 173 222 280 335 399
#     4  11  23  40  65  98 131 177 216 271 339 401
#
# _framework density 22.198969999999999
#
# number of rings (size 3 to 8) (size 9 to 14) (size 15 to 20)
#    0.000    1.250    3.750    1.500    3.500    1.000 
#    6.750    1.250    0.000    0.000    0.000    0.000 
#    0.000    0.000    0.000    0.000    0.000    0.000 
#
# Total GULP energy -89217.432803 kJ/mol
# GULP energy per Si atom -5576.089550 kJ/mol
# Density = 2.214844 g / cm^3
# Si number density = 22.198970 Si / 1000 Ang^3
#
#
#
# Elastic Constant Matrix: (Units=GPa)
#
#
# Indices 1 2 3 4 5 6 
#
# 1 76.0855 21.0995 10.2446 -7.1663 2.4135 21.9402
# 2 21.0995 130.8192 -1.1033 -16.9961 -20.6551 19.3938
# 3 10.2446 -1.1033 72.8968 -5.7631 -12.2185 13.1926
# 4 -7.1663 -16.9961 -5.7631 30.5087 7.5399 -4.7603
# 5 2.4135 -20.6551 -12.2185 7.5399 26.6068 -5.1309
# 6 21.9402 19.3938 13.1926 -4.7603 -5.1309 27.1206
#
#
#
# Elastic Compliance Matrix: (Units=1/GPa)
#
#
# Indices 1 2 3 4 5 6 
#
# 1 0.018203 -0.001605 -0.000991 0.002705 -0.006801 -0.013908
# 2 -0.001605 0.010355 0.002900 0.003214 0.007539 -0.005527
# 3 -0.000991 0.002900 0.016762 0.001333 0.008187 -0.007643
# 4 0.002705 0.003214 0.001333 0.037360 -0.007733 -0.000041
# 5 -0.006801 0.007539 0.008187 -0.007733 0.050852 0.004391
# 6 -0.013908 -0.005527 -0.007643 -0.000041 0.004391 0.056617
#
#
# Mechanical properties :
#
#
# Convention : Reuss Voigt Hill
#
# Bulk Modulus (GPa) = 21.77353 37.80923 29.79138
# Shear Modulus (GPa) = 24.40813 33.48459 28.94636
#
# Velocity S-wave (km/s) = 3.31949 3.88801 3.61494
# Velocity P-wave (km/s) = 4.95194 6.10118 5.55635
#
# Compressibility (1/GPa) = 0.04592732
#
# Stress axis : x y z
#
# Youngs Moduli (GPa) = 54.93722 96.57474 59.65833
#
# Poissons Ratio (x) = 0.15498 0.05915
# Poissons Ratio (y) = 0.08816 -0.17302
# Poissons Ratio (z) = 0.05447 -0.28009
#
# Static dielectric constant tensor:
#      x y z
#    x 1.819290 -0.018110 0.033170 
#    y -0.018110 1.840990 -0.014520 
#    z 0.033170 -0.014520 1.900600 
# 
# From -- ./inp_files/67144.got.cif
#   From: 2010.05.17/outbox.cif.g08.bks.cpg/sg2_34_cif.got.tgz:67144.got - 2010.06.03 11:33:40.
