data_PCOD9031579
_publ_section_title
;
Structure prediction by ZEFSAII (Michael W. Deem and Ramdas Pophale) SiO2 
 PCOD9031579
Probable space group: P -1
;
_chemical_formula_sum "Si O2"
_cell_formula_units_Z 10
_cell_length_a 5.074365
_cell_length_b 7.972420
_cell_length_c 12.574261
_cell_angle_alpha 94.874838
_cell_angle_beta 109.336289
_cell_angle_gamma 56.392594
_cell_volume 396.626053
_symmetry_space_group_name_H-M "P -1"
_symmetry_group_IT_number 2
_symmetry_cell_setting 'triclinic'
loop_
_space_group_symop_operation_xyz
x,y,z
-x,-y,-z
loop_
_atom_site_type_symbol
_atom_site_label
_atom_site_fract_x
_atom_site_fract_y
_atom_site_fract_z
Si Si1 0.635897 0.104158 0.174714
Si Si2 0.795294 0.776434 0.490246
Si Si3 0.605962 0.177357 0.948820
Si Si4 0.378299 0.740818 0.266183
Si Si5 0.457963 0.361866 0.368710
O O1 0.464557 0.228694 0.264705
O O2 0.563015 0.937379 0.121385
O O3 0.514255 0.248278 0.061681
O O4 0.037851 0.966292 0.238566
O O5 0.668888 0.753577 0.358775
O O6 0.760536 0.637893 0.564430
O O7 0.158373 0.740399 0.544043
O O8 0.500000 0.000000 0.500000
O O9 0.551856 0.321232 0.851858
O O10 0.000000 0.000000 0.000000
O O11 0.349586 0.577793 0.318309
#
# Coordination Sequence:
#
# PCOD9031579 Si02
#       5
#     2   2   2   2   2
#     4  10  22  43  67  94 132 173 221 267 330 386
#     4  12  25  45  68  98 136 176 215 268 329 391
#     4   9  21  42  67  94 127 175 217 272 328 385
#     4  11  24  41  68  95 136 170 218 272 323 387
#     4  12  27  42  69 102 131 174 220 268 326 393
#
# _framework density 25.212667
#
# number of rings (size 3 to 8) (size 9 to 14) (size 15 to 20)
#    0.000    1.200    2.000    3.000    8.400    0.800 
#    0.000    9.000    0.000    0.000    0.000    0.000 
#    0.000    0.000    0.000    0.000    0.000    0.000 
#
# Total GULP energy -56020.172733 kJ/mol
# GULP energy per Si atom -5602.017273 kJ/mol
# Density = 2.515528 g / cm^3
# Si number density = 25.212667 Si / 1000 Ang^3
#
#
#
# Elastic Constant Matrix: (Units=GPa)
#
#
# Indices 1 2 3 4 5 6 
#
# 1 102.1297 -5.5770 49.5691 3.3449 5.2778 -5.5247
# 2 -5.5770 57.5622 34.8969 -0.0532 1.1639 4.6052
# 3 49.5691 34.8969 187.9206 4.6702 -9.3312 -5.8104
# 4 3.3449 -0.0532 4.6702 31.3939 9.8636 -4.0254
# 5 5.2778 1.1639 -9.3312 9.8636 43.0251 -5.6516
# 6 -5.5247 4.6052 -5.8104 -4.0254 -5.6516 26.9108
#
#
#
# Elastic Compliance Matrix: (Units=1/GPa)
#
#
# Indices 1 2 3 4 5 6 
#
# 1 0.012049 0.003566 -0.003946 0.000128 -0.002390 0.000529
# 2 0.003566 0.021291 -0.005198 0.000763 -0.002911 -0.004531
# 3 -0.003946 -0.005198 0.007568 -0.001339 0.002850 0.002112
# 4 0.000128 0.000763 -0.001339 0.034935 -0.007919 0.003169
# 5 -0.002390 -0.002911 0.002850 -0.007919 0.026711 0.005048
# 6 0.000529 -0.004531 0.002112 0.003169 0.005048 0.040034
#
#
# Mechanical properties :
#
#
# Convention : Reuss Voigt Hill
#
# Bulk Modulus (GPa) = 33.61127 56.15452 44.88289
# Shear Modulus (GPa) = 30.55089 38.18084 34.36587
#
# Velocity S-wave (km/s) = 3.48476 3.89569 3.69594
# Velocity P-wave (km/s) = 5.43613 6.52349 6.00447
#
# Compressibility (1/GPa) = 0.02975193
#
# Stress axis : x y z
#
# Youngs Moduli (GPa) = 82.99210 46.96751 132.14173
#
# Poissons Ratio (x) = -0.16748 0.52144
# Poissons Ratio (y) = -0.29594 0.68687
# Poissons Ratio (z) = 0.32749 0.24414
#
# Static dielectric constant tensor:
#      x y z
#    x 2.066630 0.011990 -0.017680 
#    y 0.011990 2.028470 -0.031640 
#    z -0.017680 -0.031640 2.044630 
# 
# From -- ./inp_files/18050.got.cif
#   From: 2010.05.17/outbox.cif.g08.bks.cpg/sg2_10_cif.got.tgz:18050.got - 2010.06.03 11:33:40.
