data_PCOD9031301
_publ_section_title
;
Structure prediction by ZEFSAII (Michael W. Deem and Ramdas Pophale) SiO2 
 PCOD9031301
Probable space group: P -1
;
_chemical_formula_sum "Si O2"
_cell_formula_units_Z 16
_cell_length_a 12.923514
_cell_length_b 9.245329
_cell_length_c 14.155988
_cell_angle_alpha 102.709042
_cell_angle_beta 56.451265
_cell_angle_gamma 54.817995
_cell_volume 705.733308
_symmetry_space_group_name_H-M "P -1"
_symmetry_group_IT_number 2
_symmetry_cell_setting 'triclinic'
loop_
_space_group_symop_operation_xyz
x,y,z
-x,-y,-z
loop_
_atom_site_type_symbol
_atom_site_label
_atom_site_fract_x
_atom_site_fract_y
_atom_site_fract_z
Si Si1 0.436232 0.213492 0.001198
Si Si2 0.979723 0.670980 0.595747
Si Si3 0.002695 0.633521 0.144041
Si Si4 0.608974 0.396340 0.204659
Si Si5 0.037088 0.173072 0.987507
Si Si6 0.398919 0.748851 0.534205
Si Si7 0.814396 0.544636 0.329407
Si Si8 0.786900 0.340770 0.666558
O O1 0.265196 0.350128 0.018074
O O2 0.278814 0.488567 0.185229
O O3 0.500000 0.000000 0.000000
O O4 0.696534 0.003378 0.801837
O O5 0.000000 0.500000 0.500000
O O6 0.086340 0.542162 0.628150
O O7 0.138842 0.625665 0.451407
O O8 0.842267 0.672590 0.281240
O O9 0.997261 0.651450 0.036296
O O10 0.876792 0.921340 0.270128
O O11 0.852426 0.240641 0.048929
O O12 0.442369 0.671884 0.391286
O O13 0.463050 0.488941 0.203432
O O14 0.695687 0.166131 0.189491
O O15 0.970770 0.276733 0.143876
O O16 0.500000 0.500000 0.500000
O O17 0.558274 0.725349 0.483540
O O18 0.000000 0.000000 0.500000
#
# Coordination Sequence:
#
# PCOD9031301 Si02
#       8
#     2   2   2   2   2   2   2   2
#     4  12  26  51  73 110 153 199 251 309 368 454
#     4  12  26  49  79 105 148 207 245 309 383 440
#     4  12  24  44  71 105 143 190 245 301 370 440
#     4  10  22  43  66 101 141 180 238 296 366 437
#     4  10  23  42  70 101 142 187 230 304 374 429
#     4  11  22  43  67 100 144 186 234 301 374 435
#     4  11  24  44  70 108 140 182 251 298 365 452
#     4  12  27  48  77 112 147 195 258 309 371 446
#
# _framework density 22.671455000000002
#
# number of rings (size 3 to 8) (size 9 to 14) (size 15 to 20)
#    0.000    0.750    3.750    3.000    1.750    0.500 
#    6.750    0.000    0.000    0.000    0.000    0.000 
#    0.000    0.000    0.000    0.000    0.000    0.000 
#
# Total GULP energy -89309.992739 kJ/mol
# GULP energy per Si atom -5581.874546 kJ/mol
# Density = 2.261985 g / cm^3
# Si number density = 22.671455 Si / 1000 Ang^3
#
#
#
# Elastic Constant Matrix: (Units=GPa)
#
#
# Indices 1 2 3 4 5 6 
#
# 1 94.8951 41.2258 21.1556 3.8006 13.8237 -0.9897
# 2 41.2258 90.5909 15.6679 0.0494 10.8772 2.2735
# 3 21.1556 15.6679 100.4159 2.0336 16.0438 -4.1703
# 4 3.8006 0.0494 2.0336 42.3652 -1.1569 0.4421
# 5 13.8237 10.8772 16.0438 -1.1569 22.7099 -4.4623
# 6 -0.9897 2.2735 -4.1703 0.4421 -4.4623 24.2126
#
#
#
# Elastic Compliance Matrix: (Units=1/GPa)
#
#
# Indices 1 2 3 4 5 6 
#
# 1 0.014021 -0.005554 -0.001253 -0.001329 -0.005063 -0.000030
# 2 -0.005554 0.014134 -0.000597 0.000442 -0.003395 -0.002291
# 3 -0.001253 -0.000597 0.011468 -0.000635 -0.006946 0.000712
# 4 -0.001329 0.000442 -0.000635 0.023816 0.002213 -0.000232
# 5 -0.005063 -0.003395 -0.006946 0.002213 0.055552 0.009113
# 6 -0.000030 -0.002291 0.000712 -0.000232 0.009113 0.043321
#
#
# Mechanical properties :
#
#
# Convention : Reuss Voigt Hill
#
# Bulk Modulus (GPa) = 40.29838 49.11119 44.70478
# Shear Modulus (GPa) = 26.96993 31.71437 29.34215
#
# Velocity S-wave (km/s) = 3.45280 3.74420 3.60145
# Velocity P-wave (km/s) = 5.80597 6.35619 6.08730
#
# Compressibility (1/GPa) = 0.02481489
#
# Stress axis : x y z
#
# Youngs Moduli (GPa) = 71.32308 70.74916 87.20105
#
# Poissons Ratio (x) = 0.39298 0.10923
# Poissons Ratio (y) = 0.39616 0.05205
# Poissons Ratio (z) = 0.08934 0.04223
#
# Static dielectric constant tensor:
#      x y z
#    x 1.901330 0.044850 0.056890 
#    y 0.044850 1.898240 -0.010800 
#    z 0.056890 -0.010800 1.915630 
# 
# From -- ./inp_files/515913.got.cif
#   From: 2010.05.17/outbox.cif.g08.bks.cpg/sg2_258_cif.got.tgz:515913.got - 2010.06.03 11:33:40.
