data_PCOD9031502
_publ_section_title
;
Structure prediction by ZEFSAII (Michael W. Deem and Ramdas Pophale) SiO2 
 PCOD9031502
Probable space group: P -1
;
_chemical_formula_sum "Si O2"
_cell_formula_units_Z 16
_cell_length_a 16.770854
_cell_length_b 9.346095
_cell_length_c 11.985539
_cell_angle_alpha 38.880586
_cell_angle_beta 119.614931
_cell_angle_gamma 90.204553
_cell_volume 733.722748
_symmetry_space_group_name_H-M "P -1"
_symmetry_group_IT_number 2
_symmetry_cell_setting 'triclinic'
loop_
_space_group_symop_operation_xyz
x,y,z
-x,-y,-z
loop_
_atom_site_type_symbol
_atom_site_label
_atom_site_fract_x
_atom_site_fract_y
_atom_site_fract_z
Si Si1 0.941640 0.699804 0.721898
Si Si2 0.558659 0.299639 0.779514
Si Si3 0.738268 0.806843 0.360488
Si Si4 0.840657 0.648403 0.096837
Si Si5 0.547151 0.088108 0.572317
Si Si6 0.510768 0.913191 0.877875
Si Si7 0.134957 0.877781 0.195337
Si Si8 0.199095 0.709225 0.586846
O O1 0.853368 0.690950 0.588887
O O2 0.055011 0.575402 0.791544
O O3 0.848366 0.063223 0.479133
O O4 0.000000 0.500000 0.000000
O O5 0.500000 0.500000 0.500000
O O6 0.493364 0.577983 0.655562
O O7 0.525831 0.091851 0.868459
O O8 0.705338 0.017437 0.099617
O O9 0.765448 0.495785 0.537132
O O10 0.607564 0.035665 0.202060
O O11 0.852360 0.457461 0.325315
O O12 0.700082 0.828596 0.844845
O O13 0.843327 0.911701 0.970845
O O14 0.500000 0.000000 0.500000
O O15 0.483374 0.090325 0.636523
O O16 0.648400 0.559102 0.165827
O O17 0.140687 0.909533 0.312090
O O18 0.000000 0.000000 0.000000
#
# Coordination Sequence:
#
# PCOD9031502 Si02
#       8
#     2   2   2   2   2   2   2   2
#     4  12  26  47  69 103 145 195 238 295 355 428
#     4  10  22  43  67 101 144 178 229 298 355 419
#     4  12  25  42  75 104 141 189 238 293 363 425
#     4  11  25  46  73  97 147 190 232 304 351 419
#     4  10  24  42  68 104 137 180 234 289 358 425
#     4  10  23  42  67 102 137 182 229 297 356 414
#     4  12  24  48  72 105 141 189 246 289 357 435
#     4  11  25  46  70  99 146 186 240 295 359 418
#
# _framework density 21.806602000000002
#
# number of rings (size 3 to 8) (size 9 to 14) (size 15 to 20)
#    0.000    1.000    3.750    1.500    7.000    2.000 
#    0.000    0.000    0.000    0.000    0.000    0.000 
#    0.000    0.000    0.000    0.000    0.000    0.000 
#
# Total GULP energy -89202.772626 kJ/mol
# GULP energy per Si atom -5575.173289 kJ/mol
# Density = 2.175697 g / cm^3
# Si number density = 21.806602 Si / 1000 Ang^3
#
#
#
# Elastic Constant Matrix: (Units=GPa)
#
#
# Indices 1 2 3 4 5 6 
#
# 1 96.9862 12.5246 25.8252 -7.3205 3.2575 -7.0807
# 2 12.5246 120.4735 18.3245 -10.2120 3.0630 -1.2877
# 3 25.8252 18.3245 78.7523 -9.9831 -2.0544 -0.8238
# 4 -7.3205 -10.2120 -9.9831 41.3242 -3.0600 8.3565
# 5 3.2575 3.0630 -2.0544 -3.0600 29.8154 -0.9757
# 6 -7.0807 -1.2877 -0.8238 8.3565 -0.9757 25.1239
#
#
#
# Elastic Compliance Matrix: (Units=1/GPa)
#
#
# Indices 1 2 3 4 5 6 
#
# 1 0.011642 -0.000561 -0.003647 0.000344 -0.001333 0.002966
# 2 -0.000561 0.008771 -0.001669 0.001677 -0.000794 -0.000352
# 3 -0.003647 -0.001669 0.014686 0.002936 0.001833 -0.001537
# 4 0.000344 0.001677 0.002936 0.027332 0.002512 -0.008714
# 5 -0.001333 -0.000794 0.001833 0.002512 0.034156 0.000134
# 6 0.002966 -0.000352 -0.001537 -0.008714 0.000134 0.043474
#
#
# Mechanical properties :
#
#
# Convention : Reuss Voigt Hill
#
# Bulk Modulus (GPa) = 42.83472 45.50674 44.17073
# Shear Modulus (GPa) = 31.32906 35.22189 33.27547
#
# Velocity S-wave (km/s) = 3.79447 4.02331 3.91056
# Velocity P-wave (km/s) = 6.23562 6.51892 6.37884
#
# Compressibility (1/GPa) = 0.02334555
#
# Stress axis : x y z
#
# Youngs Moduli (GPa) = 85.89829 114.00784 68.09056
#
# Poissons Ratio (x) = 0.06393 0.24835
# Poissons Ratio (y) = 0.04817 0.11363
# Poissons Ratio (z) = 0.31330 0.19026
#
# Static dielectric constant tensor:
#      x y z
#    x 1.804410 -0.022220 -0.045800 
#    y -0.022220 1.818770 -0.038550 
#    z -0.045800 -0.038550 1.875840 
# 
# From -- ./inp_files/461811.got.cif
#   From: 2010.05.17/outbox.cif.g08.bks.cpg/sg2_231_cif.got.tgz:461811.got - 2010.06.03 11:33:40.
