data_PCOD9031998
_publ_section_title
;
Structure prediction by ZEFSAII (Michael W. Deem and Ramdas Pophale) SiO2 
 PCOD9031998
Probable space group: P -1
;
_chemical_formula_sum "Si O2"
_cell_formula_units_Z 13
_cell_length_a 9.641649
_cell_length_b 9.000356
_cell_length_c 17.469607
_cell_angle_alpha 68.209569
_cell_angle_beta 142.316211
_cell_angle_gamma 133.066526
_cell_volume 626.563649
_symmetry_space_group_name_H-M "P -1"
_symmetry_group_IT_number 2
_symmetry_cell_setting 'triclinic'
loop_
_space_group_symop_operation_xyz
x,y,z
-x,-y,-z
loop_
_atom_site_type_symbol
_atom_site_label
_atom_site_fract_x
_atom_site_fract_y
_atom_site_fract_z
Si Si1 0.704237 0.182617 0.619109
Si Si2 0.774677 0.813465 0.107409
Si Si3 0.327579 0.339666 0.076060
Si Si4 0.232685 0.746368 0.087285
Si Si5 0.843286 0.397695 0.368122
Si Si6 0.500000 0.000000 0.000000
Si Si7 0.312883 0.051297 0.618940
O O1 0.485603 0.151973 0.593976
O O2 0.919731 0.147437 0.756423
O O3 0.925766 0.419560 0.630356
O O4 0.500000 0.000000 0.500000
O O5 0.507261 0.587830 0.080684
O O6 0.684548 0.765692 0.987772
O O7 0.766970 0.987371 0.102820
O O8 0.526806 0.345500 0.226309
O O9 0.989496 0.225608 0.978869
O O10 0.446254 0.784071 0.241336
O O11 0.000000 0.500000 0.000000
O O12 0.447162 0.911049 0.081273
O O13 0.000000 0.500000 0.500000
O O14 0.769527 0.176460 0.366374
O O15 0.000000 0.000000 0.500000
#
# Coordination Sequence:
#
# PCOD9031998 Si02
#       7
#     2   2   2   2   2   1   2
#     4  11  24  46  75 100 140 192 238 287 357 433
#     4  10  22  43  69 103 135 178 237 295 349 422
#     4  10  22  45  71  95 140 183 236 290 354 423
#     4  12  27  46  71 106 144 189 237 299 356 415
#     4  11  25  44  73 106 138 186 237 290 360 430
#     4  12  26  38  70 108 140 174 238 290 360 412
#     4  12  29  48  71 106 147 186 239 300 359 421
#
# _framework density 20.748090000000001
#
# number of rings (size 3 to 8) (size 9 to 14) (size 15 to 20)
#    0.000    0.923    4.615    0.923    6.462    3.077 
#    0.000    0.000    0.000    0.000    0.000    0.000 
#    0.000    0.000    0.000    0.000    0.000    0.000 
#
# Total GULP energy -72447.228281 kJ/mol
# GULP energy per Si atom -5572.863714 kJ/mol
# Density = 2.070087 g / cm^3
# Si number density = 20.748090 Si / 1000 Ang^3
#
#
#
# Elastic Constant Matrix: (Units=GPa)
#
#
# Indices 1 2 3 4 5 6 
#
# 1 142.9877 5.1550 59.9341 -12.2985 9.9485 19.6284
# 2 5.1550 48.3675 12.0318 -2.3488 -3.3131 -2.4641
# 3 59.9341 12.0318 157.4837 0.5963 -4.2362 2.6769
# 4 -12.2985 -2.3488 0.5963 28.1618 -1.3032 -2.6415
# 5 9.9485 -3.3131 -4.2362 -1.3032 40.1275 -1.7484
# 6 19.6284 -2.4641 2.6769 -2.6415 -1.7484 28.5622
#
#
#
# Elastic Compliance Matrix: (Units=1/GPa)
#
#
# Indices 1 2 3 4 5 6 
#
# 1 0.009993 -0.000491 -0.003753 0.003659 -0.003074 -0.006408
# 2 -0.000491 0.021448 -0.001452 0.001940 0.001916 0.002620
# 3 -0.003753 -0.001452 0.007912 -0.001695 0.001663 0.001657
# 4 0.003659 0.001940 -0.001695 0.037442 0.000346 0.001296
# 5 -0.003074 0.001916 0.001663 0.000346 0.026192 0.003758
# 6 -0.006408 0.002620 0.001657 0.001296 0.003758 0.039835
#
#
# Mechanical properties :
#
#
# Convention : Reuss Voigt Hill
#
# Bulk Modulus (GPa) = 35.76499 55.89786 45.83143
# Shear Modulus (GPa) = 30.57477 37.48482 34.02979
#
# Velocity S-wave (km/s) = 3.84294 4.25510 4.05426
# Velocity P-wave (km/s) = 6.07997 7.15128 6.63728
#
# Compressibility (1/GPa) = 0.02796030
#
# Stress axis : x y z
#
# Youngs Moduli (GPa) = 100.07354 46.62540 126.38848
#
# Poissons Ratio (x) = 0.02288 0.47435
# Poissons Ratio (y) = 0.04911 0.18354
# Poissons Ratio (z) = 0.37558 0.06771
#
# Static dielectric constant tensor:
#      x y z
#    x 1.711250 -0.004560 0.007280 
#    y -0.004560 1.774070 0.021650 
#    z 0.007280 0.021650 1.718440 
# 
# From -- ./inp_files/169054.got.cif
#   From: 2010.05.17/outbox.cif.g08.bks.cpg/sg2_85_cif.got.tgz:169054.got - 2010.06.03 11:33:40.
