data_PCOD9031949
_publ_section_title
;
Structure prediction by ZEFSAII (Michael W. Deem and Ramdas Pophale) SiO2 
 PCOD9031949
Probable space group: P -1
;
_chemical_formula_sum "Si O2"
_cell_formula_units_Z 12
_cell_length_a 14.004434
_cell_length_b 8.784239
_cell_length_c 5.199499
_cell_angle_alpha 124.248149
_cell_angle_beta 111.231144
_cell_angle_gamma 65.285265
_cell_volume 473.394011
_symmetry_space_group_name_H-M "P -1"
_symmetry_group_IT_number 2
_symmetry_cell_setting 'triclinic'
loop_
_space_group_symop_operation_xyz
x,y,z
-x,-y,-z
loop_
_atom_site_type_symbol
_atom_site_label
_atom_site_fract_x
_atom_site_fract_y
_atom_site_fract_z
Si Si1 0.760858 0.369566 0.130420
Si Si2 0.072885 0.954581 0.778841
Si Si3 0.072886 0.472529 0.794036
Si Si4 0.226068 0.136971 0.863052
Si Si5 0.621175 0.635373 0.890286
Si Si6 0.378834 0.756556 0.769161
O O1 0.849090 0.262666 0.329729
O O2 0.849099 0.388230 0.019368
O O3 0.675765 0.252439 0.014540
O O4 0.675772 0.571791 0.161198
O O5 0.148497 0.096253 0.966001
O O6 0.000000 0.000000 0.500000
O O7 0.000000 0.000000 0.000000
O O8 0.148504 0.255251 0.682511
O O9 0.000000 0.500000 0.500000
O O10 0.000000 0.500000 0.000000
O O11 0.304847 0.928337 0.694289
O O12 0.304837 0.266841 0.110617
O O13 0.500006 0.761057 0.916724
O O14 0.621413 0.439287 0.560687
#
# Coordination Sequence:
#
# PCOD9031949 Si02
#       6
#     2   2   2   2   2   2
#     4  10  23  38  66  90 138 176 225 280 352 410
#     4  11  24  42  67 102 140 182 231 290 344 419
#     4  11  24  42  67 102 140 182 231 290 344 419
#     4  10  23  42  70 102 136 184 233 286 350 428
#     4  10  22  43  69 100 137 180 233 295 354 415
#     4  10  22  43  69 100 137 180 233 295 354 415
#
# _framework density 25.348866000000001
#
# number of rings (size 3 to 8) (size 9 to 14) (size 15 to 20)
#    0.000    1.667    0.000    3.000    9.333    0.000 
#    6.000    0.000    0.000   10.000    0.000    0.000 
#    0.000    0.000    0.000    0.000    0.000    0.000 
#
# Total GULP energy -66855.638721 kJ/mol
# GULP energy per Si atom -5571.303227 kJ/mol
# Density = 2.529117 g / cm^3
# Si number density = 25.348866 Si / 1000 Ang^3
#
#
#
# Elastic Constant Matrix: (Units=GPa)
#
#
# Indices 1 2 3 4 5 6 
#
# 1 184.5789 115.0692 89.9725 -49.7793 39.6166 -10.2152
# 2 115.0692 171.1727 39.6811 -18.7009 -7.9354 -3.6885
# 3 89.9725 39.6811 85.4066 -19.0930 -17.2070 5.5789
# 4 -49.7793 -18.7009 -19.0930 23.8495 15.6692 1.8653
# 5 39.6166 -7.9354 -17.2070 15.6692 21.5120 4.0768
# 6 -10.2152 -3.6885 5.5789 1.8653 4.0768 47.4915
#
#
#
# Elastic Compliance Matrix: (Units=1/GPa)
#
#
# Indices 1 2 3 4 5 6 
#
# 1 -0.001973 0.000163 0.002434 -0.011152 0.014042 -0.001465
# 2 0.000163 0.006952 -0.003031 0.006754 -0.005292 0.001120
# 3 0.002434 -0.003031 0.013134 0.019060 -0.008741 -0.001253
# 4 -0.011152 0.006754 0.019060 0.026351 0.020388 -0.006898
# 5 0.014042 -0.005292 -0.008741 0.020388 -0.003766 0.003159
# 6 -0.001465 0.001120 -0.001253 -0.006898 0.003159 0.020975
#
#
# Mechanical properties :
#
#
# Convention : Reuss Voigt Hill
#
# Bulk Modulus (GPa) = 57.98627 103.40044 80.69336
# Shear Modulus (GPa) = 73.21798 31.66630 52.44214
#
# Velocity S-wave (km/s) = 5.38023 3.53826 4.55336
# Velocity P-wave (km/s) = 7.84351 7.58762 7.71663
#
# Compressibility (1/GPa) = 0.01724546
#
# Stress axis : x y z
#
# Youngs Moduli (GPa) = -506.84792 143.84667 76.13655
#
# Poissons Ratio (x) = -0.02344 -0.18534
# Poissons Ratio (y) = 0.08261 0.23078
# Poissons Ratio (z) = 1.23380 0.43601
#
# Static dielectric constant tensor:
#      x y z
#    x 2.001680 -0.031660 -0.046360 
#    y -0.031660 2.131900 0.303080 
#    z -0.046360 0.303080 2.625710 
# 
# From -- ./inp_files/29274.got.cif
#   From: 2010.05.17/outbox.cif.g08.bks.cpg/sg2_15_cif.got.tgz:29274.got - 2010.06.03 11:33:40.
