data_PCOD9031189
_publ_section_title
;
Structure prediction by ZEFSAII (Michael W. Deem and Ramdas Pophale) SiO2 
 PCOD9031189
Probable space group: P -1
;
_chemical_formula_sum "Si O2"
_cell_formula_units_Z 14
_cell_length_a 18.995828
_cell_length_b 8.329343
_cell_length_c 8.768788
_cell_angle_alpha 71.277534
_cell_angle_beta 146.504830
_cell_angle_gamma 119.977427
_cell_volume 649.816576
_symmetry_space_group_name_H-M "P -1"
_symmetry_group_IT_number 2
_symmetry_cell_setting 'triclinic'
loop_
_space_group_symop_operation_xyz
x,y,z
-x,-y,-z
loop_
_atom_site_type_symbol
_atom_site_label
_atom_site_fract_x
_atom_site_fract_y
_atom_site_fract_z
Si Si1 0.668058 0.911883 0.831360
Si Si2 0.535343 0.069100 0.782538
Si Si3 0.675293 0.256628 0.297442
Si Si4 0.987662 0.047460 0.245358
Si Si5 0.748249 0.639924 0.197262
Si Si6 0.076430 0.380145 0.745906
Si Si7 0.987475 0.332732 0.916493
O O1 0.642978 0.051167 0.860302
O O2 0.561155 0.860894 0.512002
O O3 0.643249 0.728391 0.940712
O O4 0.829014 0.997614 0.033304
O O5 0.424061 0.865063 0.709087
O O6 0.607127 0.177017 0.033588
O O7 0.698321 0.470899 0.276633
O O8 0.827809 0.254605 0.584881
O O9 0.106492 0.192036 0.528136
O O10 0.001404 0.851483 0.322191
O O11 0.006522 0.166419 0.088200
O O12 0.788896 0.572788 0.132362
O O13 0.000000 0.500000 0.500000
O O14 0.096832 0.423937 0.947915
O O15 0.000000 0.500000 0.000000
#
# Coordination Sequence:
#
# PCOD9031189 Si02
#       7
#     2   2   2   2   2   2   2
#     4  10  22  43  65  93 123 164 219 264 314 379
#     4  10  24  43  67  86 122 182 216 255 309 375
#     4  11  23  42  63  92 128 170 219 256 310 381
#     4  11  23  41  66 101 131 162 209 268 332 382
#     4  11  24  40  67  99 129 159 210 276 325 377
#     4  11  22  39  62  98 128 168 201 258 336 376
#     4  12  23  40  64  97 136 165 210 264 327 383
#
# _framework density 21.544540000000001
#
# number of rings (size 3 to 8) (size 9 to 14) (size 15 to 20)
#    0.000    1.143    4.286    2.143    4.000    2.286 
#    0.000    0.000    0.000    0.000    0.000    0.000 
#    0.000    0.000    0.000    0.000    0.000    0.000 
#
# Total GULP energy -78203.071233 kJ/mol
# GULP energy per Si atom -5585.933659 kJ/mol
# Density = 2.149550 g / cm^3
# Si number density = 21.544540 Si / 1000 Ang^3
#
#
#
# Elastic Constant Matrix: (Units=GPa)
#
#
# Indices 1 2 3 4 5 6 
#
# 1 59.5601 10.0344 28.4837 -3.3021 -4.5410 -5.8894
# 2 10.0344 108.0867 32.6288 -32.4326 5.9157 8.0213
# 3 28.4837 32.6288 116.2900 -29.6086 -8.8204 -5.0629
# 4 -3.3021 -32.4326 -29.6086 38.4339 6.6813 -8.4092
# 5 -4.5410 5.9157 -8.8204 6.6813 24.6573 -6.0112
# 6 -5.8894 8.0213 -5.0629 -8.4092 -6.0112 29.2307
#
#
#
# Elastic Compliance Matrix: (Units=1/GPa)
#
#
# Indices 1 2 3 4 5 6 
#
# 1 0.019875 -0.001990 -0.004742 -0.003587 0.004286 0.003578
# 2 -0.001990 0.013843 -0.001232 0.011323 -0.007873 -0.002774
# 3 -0.004742 -0.001232 0.012807 0.008984 0.002726 0.004746
# 4 -0.003587 0.011323 0.008984 0.045929 -0.010466 0.008787
# 5 0.004286 -0.007873 0.002726 -0.010466 0.049653 0.010696
# 6 0.003578 -0.002774 0.004746 0.008787 0.010696 0.041242
#
#
# Mechanical properties :
#
#
# Convention : Reuss Voigt Hill
#
# Bulk Modulus (GPa) = 32.68271 47.35893 40.02082
# Shear Modulus (GPa) = 23.86929 32.65039 28.25984
#
# Velocity S-wave (km/s) = 3.33213 3.89714 3.62566
# Velocity P-wave (km/s) = 5.47785 6.50230 6.01194
#
# Compressibility (1/GPa) = 0.03059722
#
# Stress axis : x y z
#
# Youngs Moduli (GPa) = 50.31555 72.24018 78.08167
#
# Poissons Ratio (x) = 0.14376 0.37027
# Poissons Ratio (y) = 0.10013 0.09616
# Poissons Ratio (z) = 0.23860 0.08897
#
# Static dielectric constant tensor:
#      x y z
#    x 1.788820 0.013560 -0.013640 
#    y 0.013560 1.834350 0.006490 
#    z -0.013640 0.006490 1.771710 
# 
# From -- ./inp_files/342650.got.cif
#   From: 2010.05.17/outbox.cif.g08.bks.cpg/sg2_172_cif.got.tgz:342650.got - 2010.06.03 11:33:40.
