data_PCOD9031802
_publ_section_title
;
Structure prediction by ZEFSAII (Michael W. Deem and Ramdas Pophale) SiO2 
 PCOD9031802
Probable space group: P -1
;
_chemical_formula_sum "Si O2"
_cell_formula_units_Z 16
_cell_length_a 17.163419
_cell_length_b 6.667555
_cell_length_c 15.026220
_cell_angle_alpha 76.667315
_cell_angle_beta 154.666039
_cell_angle_gamma 111.296408
_cell_volume 664.662680
_symmetry_space_group_name_H-M "P -1"
_symmetry_group_IT_number 2
_symmetry_cell_setting 'triclinic'
loop_
_space_group_symop_operation_xyz
x,y,z
-x,-y,-z
loop_
_atom_site_type_symbol
_atom_site_label
_atom_site_fract_x
_atom_site_fract_y
_atom_site_fract_z
Si Si1 0.204171 0.024422 0.519389
Si Si2 0.801711 0.076883 0.160513
Si Si3 0.369979 0.311937 0.487516
Si Si4 0.895331 0.436035 0.801978
Si Si5 0.741630 0.193495 0.910575
Si Si6 0.052940 0.510211 0.450058
Si Si7 0.361601 0.290058 0.819309
Si Si8 0.287779 0.019128 0.279402
O O1 0.261199 0.139523 0.470933
O O2 0.373277 0.158160 0.753225
O O3 0.996844 0.036209 0.335302
O O4 0.150958 0.760156 0.491466
O O5 0.859376 0.332530 0.223720
O O6 0.714903 0.909806 0.168447
O O7 0.673421 0.044776 0.942670
O O8 0.306696 0.520106 0.417290
O O9 0.587418 0.308086 0.716157
O O10 0.299090 0.235943 0.321038
O O11 0.845983 0.176972 0.773749
O O12 0.000000 0.500000 0.000000
O O13 0.051261 0.605006 0.880816
O O14 0.774918 0.043774 0.880256
O O15 0.208758 0.394631 0.616748
O O16 0.000000 0.500000 0.500000
O O17 0.500000 0.500000 0.000000
O O18 0.500000 0.000000 0.500000
#
# Coordination Sequence:
#
# PCOD9031802 Si02
#       8
#     2   2   2   2   2   2   2   2
#     4  11  23  43  65  95 130 176 226 270 336 401
#     4  11  22  44  63  95 140 170 225 279 325 399
#     4  11  24  43  68  97 133 174 219 278 336 393
#     4  10  22  43  68  93 132 170 220 272 334 393
#     4  10  23  42  64  99 133 172 223 277 325 402
#     4  11  21  41  68  88 125 183 221 265 335 398
#     4  11  25  41  65  96 139 170 217 286 328 389
#     4   9  22  43  66  94 132 172 218 273 329 395
#
# _framework density 24.072362999999999
#
# number of rings (size 3 to 8) (size 9 to 14) (size 15 to 20)
#    0.000    1.500    3.750    0.750    3.500    8.000 
#    2.250    1.250    0.000    0.000    0.000    0.000 
#    0.000    0.000    0.000    0.000    0.000    0.000 
#
# Total GULP energy -89257.674699 kJ/mol
# GULP energy per Si atom -5578.604669 kJ/mol
# Density = 2.401757 g / cm^3
# Si number density = 24.072363 Si / 1000 Ang^3
#
#
#
# Elastic Constant Matrix: (Units=GPa)
#
#
# Indices 1 2 3 4 5 6 
#
# 1 102.4553 29.6664 14.0152 5.4020 -24.3826 12.7631
# 2 29.6664 113.8314 28.9488 0.2153 -16.8609 8.0486
# 3 14.0152 28.9488 70.8416 0.8967 -9.8168 -4.6420
# 4 5.4020 0.2153 0.8967 36.2563 -2.8885 -1.8509
# 5 -24.3826 -16.8609 -9.8168 -2.8885 37.0932 -6.2290
# 6 12.7631 8.0486 -4.6420 -1.8509 -6.2290 34.1291
#
#
#
# Elastic Compliance Matrix: (Units=1/GPa)
#
#
# Indices 1 2 3 4 5 6 
#
# 1 0.012434 -0.001792 -0.001034 -0.001472 0.006420 -0.003276
# 2 -0.001792 0.010713 -0.003823 0.000390 0.002388 -0.001919
# 3 -0.001034 -0.003823 0.016510 0.000185 0.002643 0.004026
# 4 -0.001472 0.000390 0.000185 0.028060 0.001837 0.002341
# 5 0.006420 0.002388 0.002643 0.001837 0.033720 0.003649
# 6 -0.003276 -0.001919 0.004026 0.002341 0.003649 0.032319
#
#
# Mechanical properties :
#
#
# Convention : Reuss Voigt Hill
#
# Bulk Modulus (GPa) = 37.93701 48.04323 42.99012
# Shear Modulus (GPa) = 32.08397 35.79560 33.93978
#
# Velocity S-wave (km/s) = 3.65473 3.86035 3.75895
# Velocity P-wave (km/s) = 5.79683 6.31434 6.06111
#
# Compressibility (1/GPa) = 0.02635948
#
# Stress axis : x y z
#
# Youngs Moduli (GPa) = 80.42189 93.34554 60.56776
#
# Poissons Ratio (x) = 0.16730 0.06262
# Poissons Ratio (y) = 0.14414 0.23155
# Poissons Ratio (z) = 0.08315 0.35685
#
# Static dielectric constant tensor:
#      x y z
#    x 1.927650 -0.007640 -0.023820 
#    y -0.007640 1.927740 0.081970 
#    z -0.023820 0.081970 2.000230 
# 
# From -- ./inp_files/536327.got.cif
#   From: 2010.05.17/outbox.cif.g08.bks.cpg/sg2_269_cif.got.tgz:536327.got - 2010.06.03 11:33:40.
