data_PCOD9031573
_publ_section_title
;
Structure prediction by ZEFSAII (Michael W. Deem and Ramdas Pophale) SiO2 
 PCOD9031573
Probable space group: P -1
;
_chemical_formula_sum "Si O2"
_cell_formula_units_Z 14
_cell_length_a 12.858976
_cell_length_b 12.392235
_cell_length_c 16.082861
_cell_angle_alpha 37.848858
_cell_angle_beta 153.245854
_cell_angle_gamma 146.840619
_cell_volume 621.741328
_symmetry_space_group_name_H-M "P -1"
_symmetry_group_IT_number 2
_symmetry_cell_setting 'triclinic'
loop_
_space_group_symop_operation_xyz
x,y,z
-x,-y,-z
loop_
_atom_site_type_symbol
_atom_site_label
_atom_site_fract_x
_atom_site_fract_y
_atom_site_fract_z
Si Si1 0.945170 0.503257 0.102896
Si Si2 0.532759 0.472385 0.325999
Si Si3 0.413662 0.688040 0.890658
Si Si4 0.825303 0.909588 0.308918
Si Si5 0.370243 0.924698 0.082255
Si Si6 0.292966 0.556704 0.702190
Si Si7 0.278620 0.303956 0.412984
O O1 0.169034 0.724412 0.107365
O O2 0.038853 0.353653 0.223383
O O3 0.850933 0.464341 0.154915
O O4 0.688475 0.464336 0.892355
O O5 0.782034 0.686532 0.395977
O O6 0.555858 0.366196 0.324164
O O7 0.422770 0.330925 0.412025
O O8 0.374094 0.686746 0.764723
O O9 0.501457 0.897927 0.868535
O O10 0.633198 0.617988 0.112149
O O11 0.588730 0.887651 0.213447
O O12 0.112937 0.065179 0.453766
O O13 0.778567 0.004946 0.133351
O O14 0.000000 0.500000 0.500000
O O15 0.500000 0.500000 0.500000
#
# Coordination Sequence:
#
# PCOD9031573 Si02
#       7
#     2   2   2   2   2   2   2
#     4  11  20  39  64  94 124 163 207 258 320 386
#     4  11  22  41  66  90 124 170 210 257 321 379
#     4  10  22  43  67  94 125 172 219 260 319 376
#     4  11  20  36  63  94 128 161 206 253 324 391
#     4  11  19  35  68  96 122 163 210 262 314 390
#     4  10  23  43  67  89 126 176 220 266 310 370
#     4  12  25  37  58  97 137 162 199 261 327 391
#
# _framework density 22.517403000000002
#
# number of rings (size 3 to 8) (size 9 to 14) (size 15 to 20)
#    0.000    1.143    7.143    1.286    2.000    0.571 
#    2.571    7.857    0.000    8.571    0.000    0.000 
#    0.000    0.000    0.000    0.000    0.000    0.000 
#
# Total GULP energy -78188.280136 kJ/mol
# GULP energy per Si atom -5584.877153 kJ/mol
# Density = 2.246615 g / cm^3
# Si number density = 22.517403 Si / 1000 Ang^3
#
#
#
# Elastic Constant Matrix: (Units=GPa)
#
#
# Indices 1 2 3 4 5 6 
#
# 1 167.2663 68.0186 41.1282 21.9589 -22.9334 -8.9840
# 2 68.0186 110.1353 12.6358 26.9470 -7.6538 6.1567
# 3 41.1282 12.6358 94.2267 9.3455 -5.7969 -0.6654
# 4 21.9589 26.9470 9.3455 25.8664 -6.1360 2.4283
# 5 -22.9334 -7.6538 -5.7969 -6.1360 28.7729 4.6753
# 6 -8.9840 6.1567 -0.6654 2.4283 4.6753 34.3441
#
#
#
# Elastic Compliance Matrix: (Units=1/GPa)
#
#
# Indices 1 2 3 4 5 6 
#
# 1 0.009910 -0.005384 -0.003195 -0.000678 0.005218 0.002833
# 2 -0.005384 0.015200 0.001351 -0.011957 -0.002041 -0.002984
# 3 -0.003195 0.001351 0.012109 -0.003089 -0.000312 -0.000583
# 4 -0.000678 -0.011957 -0.003089 0.054962 0.007874 -0.003052
# 5 0.005218 -0.002041 -0.000312 0.007874 0.040698 -0.004372
# 6 0.002833 -0.002984 -0.000583 -0.003052 -0.004372 0.031193
#
#
# Mechanical properties :
#
#
# Convention : Reuss Voigt Hill
#
# Bulk Modulus (GPa) = 43.93057 68.35484 56.14271
# Shear Modulus (GPa) = 26.86491 34.45306 30.65899
#
# Velocity S-wave (km/s) = 3.45784 3.91585 3.69395
# Velocity P-wave (km/s) = 5.95770 7.13214 6.57121
#
# Compressibility (1/GPa) = 0.02276319
#
# Stress axis : x y z
#
# Youngs Moduli (GPa) = 100.90806 65.78912 82.58097
#
# Poissons Ratio (x) = 0.35418 0.26387
# Poissons Ratio (y) = 0.54325 -0.11155
# Poissons Ratio (z) = 0.32243 -0.08887
#
# Static dielectric constant tensor:
#      x y z
#    x 1.867680 0.019060 -0.027230 
#    y 0.019060 1.843050 0.016000 
#    z -0.027230 0.016000 1.952640 
# 
# From -- ./inp_files/294252.got.cif
#   From: 2010.05.17/outbox.cif.g08.bks.cpg/sg2_148_cif.got.tgz:294252.got - 2010.06.03 11:33:40.
