data_PCOD9031208
_publ_section_title
;
Structure prediction by ZEFSAII (Michael W. Deem and Ramdas Pophale) SiO2 
 PCOD9031208
Probable space group: P -1
;
_chemical_formula_sum "Si O2"
_cell_formula_units_Z 14
_cell_length_a 12.266372
_cell_length_b 9.297038
_cell_length_c 8.265501
_cell_angle_alpha 44.043245
_cell_angle_beta 97.344812
_cell_angle_gamma 98.455492
_cell_volume 647.841250
_symmetry_space_group_name_H-M "P -1"
_symmetry_group_IT_number 2
_symmetry_cell_setting 'triclinic'
loop_
_space_group_symop_operation_xyz
x,y,z
-x,-y,-z
loop_
_atom_site_type_symbol
_atom_site_label
_atom_site_fract_x
_atom_site_fract_y
_atom_site_fract_z
Si Si1 0.123042 0.933350 0.065936
Si Si2 0.125250 0.543013 0.545167
Si Si3 0.247945 0.465271 0.953409
Si Si4 0.659303 0.898662 0.905499
Si Si5 0.784079 0.415567 0.802142
Si Si6 0.566824 0.208780 0.411692
Si Si7 0.530257 0.415362 0.747831
O O1 0.139379 0.792501 0.341649
O O2 0.140949 0.777718 0.046973
O O3 0.233855 0.082733 0.973655
O O4 0.000000 0.000000 0.000000
O O5 0.161324 0.469673 0.784915
O O6 0.192738 0.472147 0.457870
O O7 0.000000 0.500000 0.500000
O O8 0.337173 0.665209 0.778449
O O9 0.306784 0.254005 0.108048
O O10 0.195077 0.472207 0.114529
O O11 0.624493 0.116910 0.655022
O O12 0.555180 0.775542 0.068008
O O13 0.654049 0.352643 0.828724
O O14 0.488478 0.389230 0.296862
O O15 0.500000 0.000000 0.500000
O O16 0.500000 0.500000 0.500000
#
# Coordination Sequence:
#
# PCOD9031208 Si02
#       7
#     2   2   2   2   2   2   2
#     4  10  22  43  65  94 130 176 223 276 331 386
#     4  10  22  44  67  90 135 173 219 281 334 382
#     4  11  22  42  68  97 134 175 223 272 333 397
#     4  11  22  40  66  94 141 176 215 278 330 392
#     4  10  23  41  67  98 132 173 229 271 334 406
#     4  11  22  38  62  96 139 173 210 273 334 393
#     4  11  23  40  64 100 137 178 220 271 338 397
#
# _framework density 21.610230999999999
#
# number of rings (size 3 to 8) (size 9 to 14) (size 15 to 20)
#    0.857    0.571    1.429    5.143    0.000    6.286 
#    0.000    3.571    0.000    0.000    0.000    0.000 
#    0.000    0.000    0.000    0.000    0.000    0.000 
#
# Total GULP energy -78020.273191 kJ/mol
# GULP energy per Si atom -5572.876656 kJ/mol
# Density = 2.156105 g / cm^3
# Si number density = 21.610231 Si / 1000 Ang^3
#
#
#
# Elastic Constant Matrix: (Units=GPa)
#
#
# Indices 1 2 3 4 5 6 
#
# 1 149.2756 30.8371 20.2803 10.0314 1.4830 -7.6880
# 2 30.8371 68.7557 17.3485 21.5429 -3.0020 -9.4416
# 3 20.2803 17.3485 73.9008 6.1329 11.8246 -12.8264
# 4 10.0314 21.5429 6.1329 43.0125 5.7156 1.2360
# 5 1.4830 -3.0020 11.8246 5.7156 24.6088 -5.0444
# 6 -7.6880 -9.4416 -12.8264 1.2360 -5.0444 38.7199
#
#
#
# Elastic Compliance Matrix: (Units=1/GPa)
#
#
# Indices 1 2 3 4 5 6 
#
# 1 0.007512 -0.002986 -0.001279 -0.000068 -0.000120 0.000326
# 2 -0.002986 0.021118 -0.003721 -0.010542 0.007955 0.004697
# 3 -0.001279 -0.003721 0.016511 0.000752 -0.007816 0.003266
# 4 -0.000068 -0.010542 0.000752 0.029830 -0.009499 -0.004525
# 5 -0.000120 0.007955 -0.007816 -0.009499 0.048803 0.005988
# 6 0.000326 0.004697 0.003266 -0.004525 0.005988 0.029043
#
#
# Mechanical properties :
#
#
# Convention : Reuss Voigt Hill
#
# Bulk Modulus (GPa) = 34.28258 47.65154 40.96706
# Shear Modulus (GPa) = 28.00947 36.16599 32.08773
#
# Velocity S-wave (km/s) = 3.60407 4.09535 3.85754
# Velocity P-wave (km/s) = 5.76347 6.66790 6.23211
#
# Compressibility (1/GPa) = 0.02916933
#
# Stress axis : x y z
#
# Youngs Moduli (GPa) = 133.11819 47.35395 60.56504
#
# Poissons Ratio (x) = 0.14138 0.07748
# Poissons Ratio (y) = 0.39744 0.22536
# Poissons Ratio (z) = 0.17029 0.17620
#
# Static dielectric constant tensor:
#      x y z
#    x 1.835490 0.059790 -0.022150 
#    y 0.059790 1.859490 -0.022890 
#    z -0.022150 -0.022890 1.838500 
# 
# From -- ./inp_files/242085.got.cif
#   From: 2010.05.17/outbox.cif.g08.bks.cpg/sg2_122_cif.got.tgz:242085.got - 2010.06.03 11:33:40.
