data_PCOD9031337
_publ_section_title
;
Structure prediction by ZEFSAII (Michael W. Deem and Ramdas Pophale) SiO2 
 PCOD9031337
Probable space group: P -1
;
_chemical_formula_sum "Si O2"
_cell_formula_units_Z 14
_cell_length_a 8.343936
_cell_length_b 21.581538
_cell_length_c 11.264523
_cell_angle_alpha 146.223478
_cell_angle_beta 40.536419
_cell_angle_gamma 141.633024
_cell_volume 664.626075
_symmetry_space_group_name_H-M "P -1"
_symmetry_group_IT_number 2
_symmetry_cell_setting 'triclinic'
loop_
_space_group_symop_operation_xyz
x,y,z
-x,-y,-z
loop_
_atom_site_type_symbol
_atom_site_label
_atom_site_fract_x
_atom_site_fract_y
_atom_site_fract_z
Si Si1 0.074383 0.852370 0.975106
Si Si2 0.951913 0.377211 0.264595
Si Si3 0.977464 0.322935 0.651590
Si Si4 0.042330 0.582174 0.935898
Si Si5 0.412756 0.091629 0.623043
Si Si6 0.560857 0.756231 0.801991
Si Si7 0.540589 0.009491 0.802375
O O1 0.242441 0.925240 0.112501
O O2 0.833625 0.891885 0.150500
O O3 0.957078 0.709881 0.847932
O O4 0.291705 0.893187 0.812698
O O5 0.073291 0.402382 0.102550
O O6 0.629413 0.301437 0.298992
O O7 0.000000 0.500000 0.500000
O O8 0.671349 0.220308 0.665493
O O9 0.002421 0.443342 0.757668
O O10 0.168415 0.262772 0.395547
O O11 0.060854 0.371208 0.817032
O O12 0.364541 0.671270 0.880475
O O13 0.500000 0.000000 0.500000
O O14 0.329170 0.030547 0.443522
O O15 0.576414 0.892556 0.017738
#
# Coordination Sequence:
#
# PCOD9031337 Si02
#       7
#     2   2   2   2   2   2   2
#     4  10  23  44  63  90 127 163 204 262 307 361
#     4   9  21  41  65  88 120 163 209 254 301 362
#     4  11  22  39  61  93 123 165 201 250 323 361
#     4   9  22  40  60  90 126 158 204 256 306 365
#     4  12  26  39  64  95 127 160 212 255 302 377
#     4   9  20  39  63  87 123 159 199 259 303 359
#     4  10  22  43  66  90 121 168 207 251 315 360
#
# _framework density 21.064475999999999
#
# number of rings (size 3 to 8) (size 9 to 14) (size 15 to 20)
#    0.857    1.143    0.000    2.571    2.000    5.714 
#    7.714    1.429    0.000    0.000    0.000    0.000 
#    0.000    0.000    0.000    0.000    0.000    0.000 
#
# Total GULP energy -78165.150431 kJ/mol
# GULP energy per Si atom -5583.225031 kJ/mol
# Density = 2.101653 g / cm^3
# Si number density = 21.064476 Si / 1000 Ang^3
#
#
#
# Elastic Constant Matrix: (Units=GPa)
#
#
# Indices 1 2 3 4 5 6 
#
# 1 35.4776 15.8802 11.7320 11.7881 -6.8449 -5.2733
# 2 15.8802 78.5020 10.2065 11.2304 -12.8144 -25.8952
# 3 11.7320 10.2065 55.5770 8.2828 -9.1540 -4.9645
# 4 11.7881 11.2304 8.2828 31.6113 1.6395 -7.6047
# 5 -6.8449 -12.8144 -9.1540 1.6395 35.9583 -1.2929
# 6 -5.2733 -25.8952 -4.9645 -7.6047 -1.2929 18.0867
#
#
#
# Elastic Compliance Matrix: (Units=1/GPa)
#
#
# Indices 1 2 3 4 5 6 
#
# 1 0.036248 -0.005350 -0.004530 -0.011321 0.004256 -0.002790
# 2 -0.005350 0.029046 0.001215 0.000759 0.011099 0.041473
# 3 -0.004530 0.001215 0.020493 -0.003154 0.005114 0.005082
# 4 -0.011321 0.000759 -0.003154 0.039841 -0.004023 0.013384
# 5 0.004256 0.011099 0.005114 -0.004023 0.034756 0.019328
# 6 -0.002790 0.041473 0.005082 0.013384 0.019328 0.122258
#
#
# Mechanical properties :
#
#
# Convention : Reuss Voigt Hill
#
# Bulk Modulus (GPa) = 14.60785 27.24377 20.92581
# Shear Modulus (GPa) = 15.48992 25.91380 20.70186
#
# Velocity S-wave (km/s) = 2.71469 3.51124 3.13834
# Velocity P-wave (km/s) = 4.09584 5.42218 4.80500
#
# Compressibility (1/GPa) = 0.06845635
#
# Stress axis : x y z
#
# Youngs Moduli (GPa) = 27.58810 34.42760 48.79792
#
# Poissons Ratio (x) = 0.18417 0.22106
# Poissons Ratio (y) = 0.14759 -0.05927
# Poissons Ratio (z) = 0.12498 -0.04182
#
# Static dielectric constant tensor:
#      x y z
#    x 1.792020 -0.010700 0.030360 
#    y -0.010700 1.737310 0.008260 
#    z 0.030360 0.008260 1.718400 
# 
# From -- ./inp_files/65696.got.cif
#   From: 2010.05.17/outbox.cif.g08.bks.cpg/sg2_33_cif.got.tgz:65696.got - 2010.06.03 11:33:40.
