data_PCOD9031429
_publ_section_title
;
Structure prediction by ZEFSAII (Michael W. Deem and Ramdas Pophale) SiO2 
 PCOD9031429
Probable space group: P -1
;
_chemical_formula_sum "Si O2"
_cell_formula_units_Z 16
_cell_length_a 9.962937
_cell_length_b 9.277155
_cell_length_c 27.593666
_cell_angle_alpha 46.746353
_cell_angle_beta 153.646151
_cell_angle_gamma 122.660562
_cell_volume 802.486668
_symmetry_space_group_name_H-M "P -1"
_symmetry_group_IT_number 2
_symmetry_cell_setting 'triclinic'
loop_
_space_group_symop_operation_xyz
x,y,z
-x,-y,-z
loop_
_atom_site_type_symbol
_atom_site_label
_atom_site_fract_x
_atom_site_fract_y
_atom_site_fract_z
Si Si1 0.286582 0.213190 0.260585
Si Si2 0.316707 0.826316 0.300192
Si Si3 0.559280 0.317862 0.022772
Si Si4 0.894773 0.502955 0.520492
Si Si5 0.320123 0.963692 0.000421
Si Si6 0.416615 0.491160 0.770426
Si Si7 0.940757 0.491965 0.259921
Si Si8 0.457027 0.230971 0.420941
O O1 0.359924 0.370207 0.208439
O O2 0.436240 0.254069 0.350852
O O3 0.920646 0.250934 0.143266
O O4 0.392394 0.982741 0.328084
O O5 0.626306 0.702226 0.402205
O O6 0.139801 0.656256 0.302375
O O7 0.047061 0.959129 0.147582
O O8 0.427744 0.117977 0.037611
O O9 0.500000 0.500000 0.000000
O O10 0.363357 0.405051 0.892168
O O11 0.728791 0.316751 0.512916
O O12 0.000000 0.500000 0.500000
O O13 0.188280 0.472089 0.657126
O O14 0.415946 0.732943 0.103791
O O15 0.500000 0.000000 0.000000
O O16 0.184599 0.600507 0.712522
O O17 0.148998 0.349676 0.321033
O O18 0.500000 0.000000 0.500000
#
# Coordination Sequence:
#
# PCOD9031429 Si02
#       8
#     2   2   2   2   2   2   2   2
#     4  12  24  41  67 102 132 170 225 279 329 391
#     4  10  23  43  72  91 134 178 227 265 330 406
#     4  11  21  40  70  94 136 171 219 274 326 396
#     4  11  26  48  65  94 143 178 217 284 342 390
#     4  11  21  44  68  97 133 174 222 268 334 403
#     4  12  25  41  72  98 136 176 222 280 337 387
#     4  10  22  43  66  97 128 178 219 268 335 401
#     4  11  26  41  67  95 133 171 231 268 328 402
#
# _framework density 19.938025
#
# number of rings (size 3 to 8) (size 9 to 14) (size 15 to 20)
#    0.000    1.000    6.250    0.000    5.250    4.500 
#    0.000    2.500    0.000    0.000    0.000    0.000 
#    0.000    0.000    0.000    0.000    0.000    0.000 
#
# Total GULP energy -89298.898082 kJ/mol
# GULP energy per Si atom -5581.181130 kJ/mol
# Density = 1.989265 g / cm^3
# Si number density = 19.938025 Si / 1000 Ang^3
#
#
#
# Elastic Constant Matrix: (Units=GPa)
#
#
# Indices 1 2 3 4 5 6 
#
# 1 75.4404 31.9774 -5.4996 -17.2295 -5.8078 -9.7341
# 2 31.9774 110.3010 13.6118 -10.6268 0.8525 -24.9635
# 3 -5.4996 13.6118 42.0843 -5.9810 5.6241 6.1497
# 4 -17.2295 -10.6268 -5.9810 28.8546 -0.3753 -0.7018
# 5 -5.8078 0.8525 5.6241 -0.3753 24.7613 -4.5338
# 6 -9.7341 -24.9635 6.1497 -0.7018 -4.5338 27.8189
#
#
#
# Elastic Compliance Matrix: (Units=1/GPa)
#
#
# Indices 1 2 3 4 5 6 
#
# 1 0.018439 -0.004343 0.004382 0.010433 0.004098 0.002517
# 2 -0.004343 0.014419 -0.007338 0.001559 0.002649 0.013512
# 3 0.004382 -0.007338 0.030483 0.005815 -0.007924 -0.012935
# 4 0.010433 0.001559 0.005815 0.042829 0.002689 0.005283
# 5 0.004098 0.002649 -0.007924 0.002689 0.045484 0.013044
# 6 0.002517 0.013512 -0.012935 0.005283 0.013044 0.054071
#
#
# Mechanical properties :
#
#
# Convention : Reuss Voigt Hill
#
# Bulk Modulus (GPa) = 20.51630 34.22276 27.36953
# Shear Modulus (GPa) = 21.13512 28.80268 24.96890
#
# Velocity S-wave (km/s) = 3.25936 3.80493 3.54266
# Velocity P-wave (km/s) = 4.94742 6.04195 5.52187
#
# Compressibility (1/GPa) = 0.04874173
#
# Stress axis : x y z
#
# Youngs Moduli (GPa) = 54.23266 69.35470 32.80475
#
# Poissons Ratio (x) = 0.30122 -0.14374
# Poissons Ratio (y) = 0.23554 0.24073
# Poissons Ratio (z) = -0.23763 0.50894
#
# Static dielectric constant tensor:
#      x y z
#    x 1.697070 -0.035300 -0.011960 
#    y -0.035300 1.750500 -0.001130 
#    z -0.011960 -0.001130 1.698550 
# 
# From -- ./inp_files/279947.got.cif
#   From: 2010.05.17/outbox.cif.g08.bks.cpg/sg2_140_cif.got.tgz:279947.got - 2010.06.03 11:33:40.
