data_PCOD9031568
_publ_section_title
;
Structure prediction by ZEFSAII (Michael W. Deem and Ramdas Pophale) SiO2 
 PCOD9031568
Probable space group: P -1
;
_chemical_formula_sum "Si O2"
_cell_formula_units_Z 16
_cell_length_a 11.137867
_cell_length_b 14.704166
_cell_length_c 14.486463
_cell_angle_alpha 141.204771
_cell_angle_beta 150.889040
_cell_angle_gamma 37.729575
_cell_volume 674.460893
_symmetry_space_group_name_H-M "P -1"
_symmetry_group_IT_number 2
_symmetry_cell_setting 'triclinic'
loop_
_space_group_symop_operation_xyz
x,y,z
-x,-y,-z
loop_
_atom_site_type_symbol
_atom_site_label
_atom_site_fract_x
_atom_site_fract_y
_atom_site_fract_z
Si Si1 0.357842 0.423436 0.914845
Si Si2 0.310625 0.133864 0.414735
Si Si3 0.047803 0.327649 0.864318
Si Si4 0.936300 0.412308 0.477945
Si Si5 0.375711 0.931741 0.131998
Si Si6 0.026348 0.118763 0.533244
Si Si7 0.619057 0.359167 0.737683
Si Si8 0.373302 0.902655 0.902078
O O1 0.553324 0.250092 0.937537
O O2 0.110610 0.415408 0.685573
O O3 0.500000 0.500000 0.000000
O O4 0.286196 0.545717 0.046806
O O5 0.483371 0.240775 0.590082
O O6 0.051863 0.237414 0.379388
O O7 0.500000 0.000000 0.500000
O O8 0.228863 0.056693 0.210003
O O9 0.967493 0.284130 0.675874
O O10 0.866395 0.274178 0.771078
O O11 0.000000 0.500000 0.000000
O O12 0.361755 0.242114 0.011404
O O13 0.630217 0.502666 0.365893
O O14 0.000000 0.500000 0.500000
O O15 0.668685 0.941770 0.337741
O O16 0.271307 0.973257 0.990238
O O17 0.838320 0.130916 0.330597
O O18 0.000000 0.000000 0.500000
O O19 0.500000 0.000000 0.000000
#
# Coordination Sequence:
#
# PCOD9031568 Si02
#       8
#     2   2   2   2   2   2   2   2
#     4  12  22  44  67  94 144 181 226 293 340 418
#     4  11  21  43  68 103 135 174 236 289 335 419
#     4  11  25  45  69 108 139 176 242 292 341 431
#     4  10  22  43  67  93 136 183 231 278 350 409
#     4  11  24  41  72 105 137 187 233 285 360 413
#     4  11  22  46  73  99 146 185 229 299 352 420
#     4  11  24  42  70  95 136 184 226 278 362 404
#     4  11  24  46  73 103 145 184 236 291 360 424
#
# _framework density 23.722650000000002
#
# number of rings (size 3 to 8) (size 9 to 14) (size 15 to 20)
#    0.000    1.000    6.250    2.250    0.000    3.500 
#    2.250    1.875    0.000    0.000    0.000    0.000 
#    0.000    0.000    0.000    0.000    0.000    0.000 
#
# Total GULP energy -89526.593954 kJ/mol
# GULP energy per Si atom -5595.412122 kJ/mol
# Density = 2.366866 g / cm^3
# Si number density = 23.722650 Si / 1000 Ang^3
#
#
#
# Elastic Constant Matrix: (Units=GPa)
#
#
# Indices 1 2 3 4 5 6 
#
# 1 84.7542 29.0944 60.0789 5.8757 -26.2309 7.5587
# 2 29.0944 85.6261 41.8032 15.0414 -19.1742 5.9761
# 3 60.0789 41.8032 201.9484 -3.3114 -46.6264 1.1358
# 4 5.8757 15.0414 -3.3114 42.7263 2.1988 -0.3753
# 5 -26.2309 -19.1742 -46.6264 2.1988 62.8366 9.9357
# 6 7.5587 5.9761 1.1358 -0.3753 9.9357 41.0867
#
#
#
# Elastic Compliance Matrix: (Units=1/GPa)
#
#
# Indices 1 2 3 4 5 6 
#
# 1 0.016979 -0.002444 -0.003548 -0.002007 0.004372 -0.003746
# 2 -0.002444 0.015132 -0.001830 -0.005299 0.002809 -0.002428
# 3 -0.003548 -0.001830 0.007156 0.001520 0.003224 -0.000045
# 4 -0.002007 -0.005299 0.001520 0.025812 -0.002538 0.001947
# 5 0.004372 0.002809 0.003224 -0.002538 0.022133 -0.006677
# 6 -0.003746 -0.002428 -0.000045 0.001947 -0.006677 0.027015
#
#
# Mechanical properties :
#
#
# Convention : Reuss Voigt Hill
#
# Bulk Modulus (GPa) = 42.33199 70.47573 56.40386
# Shear Modulus (GPa) = 36.29929 45.42009 40.85969
#
# Velocity S-wave (km/s) = 3.91596 4.38040 4.15467
# Velocity P-wave (km/s) = 6.19109 7.44020 6.84420
#
# Compressibility (1/GPa) = 0.02362280
#
# Stress axis : x y z
#
# Youngs Moduli (GPa) = 58.89639 66.08654 139.75177
#
# Poissons Ratio (x) = 0.16152 0.49579
# Poissons Ratio (y) = 0.14395 0.25573
# Poissons Ratio (z) = 0.20894 0.12093
#
# Static dielectric constant tensor:
#      x y z
#    x 2.056900 0.031020 0.021290 
#    y 0.031020 1.919670 0.049000 
#    z 0.021290 0.049000 1.917380 
# 
# From -- ./inp_files/521810.got.cif
#   From: 2010.05.17/outbox.cif.g08.bks.cpg/sg2_261_cif.got.tgz:521810.got - 2010.06.03 11:33:40.
