data_PCOD9031979
_publ_section_title
;
Structure prediction by ZEFSAII (Michael W. Deem and Ramdas Pophale) SiO2 
 PCOD9031979
Probable space group: P -1
;
_chemical_formula_sum "Si O2"
_cell_formula_units_Z 16
_cell_length_a 9.103707
_cell_length_b 11.502304
_cell_length_c 16.772489
_cell_angle_alpha 29.252565
_cell_angle_beta 131.889001
_cell_angle_gamma 121.212651
_cell_volume 628.838379
_symmetry_space_group_name_H-M "P -1"
_symmetry_group_IT_number 2
_symmetry_cell_setting 'triclinic'
loop_
_space_group_symop_operation_xyz
x,y,z
-x,-y,-z
loop_
_atom_site_type_symbol
_atom_site_label
_atom_site_fract_x
_atom_site_fract_y
_atom_site_fract_z
Si Si1 0.726803 0.846705 0.567588
Si Si2 0.683418 0.191411 0.777355
Si Si3 0.672159 0.686467 0.124318
Si Si4 0.066829 0.186213 0.167041
Si Si5 0.976894 0.308227 0.539400
Si Si6 0.763277 0.687957 0.503054
Si Si7 0.444494 0.372762 0.135499
Si Si8 0.380887 0.649424 0.158625
O O1 0.875475 0.820865 0.713461
O O2 0.831072 0.772390 0.563367
O O3 0.587570 0.643976 0.653361
O O4 0.592226 0.114119 0.355656
O O5 0.806407 0.398788 0.673118
O O6 0.477167 0.238028 0.625995
O O7 0.644505 0.264572 0.811222
O O8 0.746541 0.902148 0.975940
O O9 0.836988 0.451152 0.335647
O O10 0.484953 0.581029 0.085202
O O11 0.573692 0.752279 0.135127
O O12 0.220113 0.325981 0.093379
O O13 0.110336 0.907193 0.323749
O O14 0.838026 0.277782 0.004910
O O15 0.000000 0.500000 0.500000
O O16 0.166394 0.195043 0.621503
O O17 0.500000 0.500000 0.000000
#
# Coordination Sequence:
#
# PCOD9031979 Si02
#       8
#     2   2   2   2   2   2   2   2
#     4  11  23  47  70 101 146 190 236 293 355 435
#     4  10  22  43  69 101 142 184 238 300 357 422
#     4  12  23  42  66 101 142 186 238 290 359 421
#     4  12  25  47  72 107 145 192 242 291 363 434
#     4  12  26  44  72 105 142 186 243 299 362 425
#     4  10  24  45  70 105 138 195 240 296 363 424
#     4  12  27  45  70 107 145 191 234 297 362 427
#     4  11  23  42  74 103 141 191 244 296 354 426
#
# _framework density 25.443739000000001
#
# number of rings (size 3 to 8) (size 9 to 14) (size 15 to 20)
#    0.000    0.750    2.500    4.875    0.000    6.000 
#    0.000    0.000    0.000    0.000    0.000    0.000 
#    0.000    0.000    0.000    0.000    0.000    0.000 
#
# Total GULP energy -89405.295336 kJ/mol
# GULP energy per Si atom -5587.830959 kJ/mol
# Density = 2.538583 g / cm^3
# Si number density = 25.443739 Si / 1000 Ang^3
#
#
#
# Elastic Constant Matrix: (Units=GPa)
#
#
# Indices 1 2 3 4 5 6 
#
# 1 77.1479 12.2287 12.6598 18.9232 -8.4666 3.9893
# 2 12.2287 97.2451 20.2092 -6.9143 -2.6274 -5.7094
# 3 12.6598 20.2092 142.1941 -12.9624 -5.2945 15.7264
# 4 18.9232 -6.9143 -12.9624 52.9761 3.6322 -7.4454
# 5 -8.4666 -2.6274 -5.2945 3.6322 28.8675 0.8134
# 6 3.9893 -5.7094 15.7264 -7.4454 0.8134 29.0045
#
#
#
# Elastic Compliance Matrix: (Units=1/GPa)
#
#
# Indices 1 2 3 4 5 6 
#
# 1 0.016110 -0.002412 -0.001102 -0.007283 0.005335 -0.004112
# 2 -0.002412 0.011338 -0.001635 0.002548 -0.000412 0.004116
# 3 -0.001102 -0.001635 0.007992 0.001490 0.000923 -0.004147
# 4 -0.007283 0.002548 0.001490 0.023465 -0.004776 0.006853
# 5 0.005335 -0.000412 0.000923 -0.004776 0.037040 -0.003580
# 6 -0.004112 0.004116 -0.004147 0.006853 -0.003580 0.039961
#
#
# Mechanical properties :
#
#
# Convention : Reuss Voigt Hill
#
# Bulk Modulus (GPa) = 39.77376 45.19807 42.48592
# Shear Modulus (GPa) = 32.34485 40.26891 36.30688
#
# Velocity S-wave (km/s) = 3.56930 3.98259 3.78159
# Velocity P-wave (km/s) = 5.71424 6.24103 5.98344
#
# Compressibility (1/GPa) = 0.02514220
#
# Stress axis : x y z
#
# Youngs Moduli (GPa) = 62.07436 88.19874 125.12620
#
# Poissons Ratio (x) = 0.21273 0.13788
# Poissons Ratio (y) = 0.14972 0.20457
# Poissons Ratio (z) = 0.06840 0.14420
#
# Static dielectric constant tensor:
#      x y z
#    x 5.963110 -3.136240 -1.243360 
#    y -3.136240 4.521200 0.949540 
#    z -1.243360 0.949540 2.439520 
# 
# From -- ./inp_files/559579.got.cif
#   From: 2010.05.17/outbox.cif.g08.bks.cpg/sg2_280_cif.got.tgz:559579.got - 2010.06.03 11:33:40.
