data_PCOD9031498
_publ_section_title
;
Structure prediction by ZEFSAII (Michael W. Deem and Ramdas Pophale) SiO2 
 PCOD9031498
Probable space group: P -1
;
_chemical_formula_sum "Si O2"
_cell_formula_units_Z 16
_cell_length_a 8.403451
_cell_length_b 5.548038
_cell_length_c 18.970959
_cell_angle_alpha 108.093997
_cell_angle_beta 53.205028
_cell_angle_gamma 122.017912
_cell_volume 600.501932
_symmetry_space_group_name_H-M "P -1"
_symmetry_group_IT_number 2
_symmetry_cell_setting 'triclinic'
loop_
_space_group_symop_operation_xyz
x,y,z
-x,-y,-z
loop_
_atom_site_type_symbol
_atom_site_label
_atom_site_fract_x
_atom_site_fract_y
_atom_site_fract_z
Si Si1 0.400170 0.682949 0.291469
Si Si2 0.083787 0.745234 0.289945
Si Si3 0.304738 0.521555 0.889215
Si Si4 0.442158 0.869696 0.091450
Si Si5 0.787816 0.943801 0.457240
Si Si6 0.850252 0.715259 0.955381
Si Si7 0.656074 0.436078 0.549985
Si Si8 0.214958 0.732974 0.781691
O O1 0.154910 0.620194 0.326766
O O2 0.521341 0.591242 0.190562
O O3 0.406393 0.543836 0.351084
O O4 0.557598 0.021892 0.286293
O O5 0.312661 0.876385 0.197706
O O6 0.993932 0.962878 0.357983
O O7 0.897269 0.503120 0.269690
O O8 0.235791 0.609649 0.841479
O O9 0.452044 0.798263 0.923396
O O10 0.108141 0.318023 0.975700
O O11 0.251011 0.599628 0.080140
O O12 0.656024 0.810050 0.023057
O O13 0.771192 0.741814 0.509740
O O14 0.566650 0.754423 0.452785
O O15 0.784681 0.239590 0.500938
O O16 0.049182 0.870292 0.860761
#
# Coordination Sequence:
#
# PCOD9031498 Si02
#       8
#     2   2   2   2   2   2   2   2
#     4  12  27  46  71 107 148 189 242 309 365 445
#     4  11  24  48  71 107 143 196 241 298 379 433
#     4  12  22  42  69 102 138 195 241 306 365 435
#     4  10  22  43  67 101 145 182 242 308 354 446
#     4  10  24  47  79 111 149 196 244 306 375 451
#     4  10  22  43  67 101 140 192 243 300 371 430
#     4  10  25  47  78 111 152 192 246 309 371 450
#     4  11  26  44  70 101 147 190 247 301 366 444
#
# _framework density 26.644378
#
# number of rings (size 3 to 8) (size 9 to 14) (size 15 to 20)
#    0.000    1.250    2.500    1.500    7.000    5.000 
#    4.500    0.000    0.000    0.000    0.000    0.000 
#    0.000    0.000    0.000    0.000    0.000    0.000 
#
# Total GULP energy -89531.567425 kJ/mol
# GULP energy per Si atom -5595.722964 kJ/mol
# Density = 2.658373 g / cm^3
# Si number density = 26.644378 Si / 1000 Ang^3
#
#
#
# Elastic Constant Matrix: (Units=GPa)
#
#
# Indices 1 2 3 4 5 6 
#
# 1 84.1415 39.9743 29.0856 -3.8691 -4.4909 -6.9745
# 2 39.9743 96.0676 41.4756 6.0426 -3.6706 3.3098
# 3 29.0856 41.4756 149.1034 5.4111 -13.5567 -25.3877
# 4 -3.8691 6.0426 5.4111 33.1679 -13.0623 4.1346
# 5 -4.4909 -3.6706 -13.5567 -13.0623 32.2791 4.0472
# 6 -6.9745 3.3098 -25.3877 4.1346 4.0472 42.2632
#
#
#
# Elastic Compliance Matrix: (Units=1/GPa)
#
#
# Indices 1 2 3 4 5 6 
#
# 1 0.015676 -0.006361 -0.000877 0.003830 0.002394 0.001954
# 2 -0.006361 0.014873 -0.003589 -0.002920 -0.001387 -0.003952
# 3 -0.000877 -0.003589 0.009032 -0.000688 0.002307 0.005408
# 4 0.003830 -0.002920 -0.000688 0.038117 0.015940 -0.004808
# 5 0.002394 -0.001387 0.002307 0.015940 0.039001 -0.003405
# 6 0.001954 -0.003952 0.005408 -0.004808 -0.003405 0.028338
#
#
# Mechanical properties :
#
#
# Convention : Reuss Voigt Hill
#
# Bulk Modulus (GPa) = 55.78611 61.15373 58.46992
# Shear Modulus (GPa) = 28.95761 36.12719 32.54240
#
# Velocity S-wave (km/s) = 3.30027 3.68625 3.49859
# Velocity P-wave (km/s) = 5.95862 6.41246 6.18970
#
# Compressibility (1/GPa) = 0.01792561
#
# Stress axis : x y z
#
# Youngs Moduli (GPa) = 63.79299 67.23798 110.71991
#
# Poissons Ratio (x) = 0.42769 0.09711
# Poissons Ratio (y) = 0.40578 0.39741
# Poissons Ratio (z) = 0.05595 0.24134
#
# Static dielectric constant tensor:
#      x y z
#    x 2.123340 -0.043900 0.001780 
#    y -0.043900 2.101310 -0.024780 
#    z 0.001780 -0.024780 2.058410 
# 
# From -- ./inp_files/585772.got.cif
#   From: 2010.05.17/outbox.cif.g08.bks.cpg/sg2_293_cif.got.tgz:585772.got - 2010.06.03 11:33:40.
