data_PCOD9031519
_publ_section_title
;
Structure prediction by ZEFSAII (Michael W. Deem and Ramdas Pophale) SiO2 
 PCOD9031519
Probable space group: P -1
;
_chemical_formula_sum "Si O2"
_cell_formula_units_Z 16
_cell_length_a 8.537642
_cell_length_b 16.580065
_cell_length_c 5.849570
_cell_angle_alpha 128.896453
_cell_angle_beta 97.371487
_cell_angle_gamma 81.850284
_cell_volume 637.105609
_symmetry_space_group_name_H-M "P -1"
_symmetry_group_IT_number 2
_symmetry_cell_setting 'triclinic'
loop_
_space_group_symop_operation_xyz
x,y,z
-x,-y,-z
loop_
_atom_site_type_symbol
_atom_site_label
_atom_site_fract_x
_atom_site_fract_y
_atom_site_fract_z
Si Si1 0.963744 0.709449 0.929950
Si Si2 0.846642 0.541236 0.894708
Si Si3 0.335827 0.717203 0.094205
Si Si4 0.583689 0.378323 0.548430
Si Si5 0.638412 0.910261 0.906700
Si Si6 0.774610 0.061965 0.485484
Si Si7 0.710793 0.684581 0.491095
Si Si8 0.090895 0.085826 0.414973
O O1 0.917729 0.595892 0.790845
O O2 0.875945 0.716223 0.683595
O O3 0.900828 0.808546 0.246620
O O4 0.150484 0.709641 0.988565
O O5 0.717937 0.458987 0.690334
O O6 0.752352 0.639952 0.174076
O O7 0.000000 0.500000 0.000000
O O8 0.374706 0.666899 0.262811
O O9 0.350635 0.841157 0.336910
O O10 0.414310 0.676867 0.800271
O O11 0.393367 0.404553 0.583309
O O12 0.600214 0.791371 0.692509
O O13 0.780118 0.911065 0.751808
O O14 0.500000 0.000000 0.000000
O O15 0.702492 0.953984 0.231244
O O16 0.899146 0.087664 0.355588
O O17 0.873516 0.029808 0.672544
#
# Coordination Sequence:
#
# PCOD9031519 Si02
#       8
#     2   2   2   2   2   2   2   2
#     4  11  24  46  77 108 148 195 257 318 373 451
#     4  12  26  50  80 106 146 199 259 319 381 441
#     4  11  27  48  77 113 151 198 258 313 371 457
#     4  12  29  50  74 113 153 198 251 316 386 448
#     4  12  25  42  69 106 150 196 237 303 378 458
#     4  10  23  42  70 100 141 192 242 304 364 436
#     4  12  28  46  74 111 154 199 250 315 380 457
#     4  10  22  43  67 104 137 189 249 302 361 437
#
# _framework density 25.113576999999999
#
# number of rings (size 3 to 8) (size 9 to 14) (size 15 to 20)
#    0.000    0.750    3.750    2.250    7.000    3.000 
#    0.000    0.000    0.000    0.000    0.000    0.000 
#    0.000    0.000    0.000    0.000    0.000    0.000 
#
# Total GULP energy -89153.047433 kJ/mol
# GULP energy per Si atom -5572.065465 kJ/mol
# Density = 2.505642 g / cm^3
# Si number density = 25.113577 Si / 1000 Ang^3
#
#
#
# Elastic Constant Matrix: (Units=GPa)
#
#
# Indices 1 2 3 4 5 6 
#
# 1 67.6581 2.0327 10.1341 -4.8163 21.2428 7.9534
# 2 2.0327 86.9513 21.9612 -2.8742 -0.6065 6.7358
# 3 10.1341 21.9612 122.2987 9.2010 2.7533 0.7791
# 4 -4.8163 -2.8742 9.2010 29.2396 8.0372 7.1577
# 5 21.2428 -0.6065 2.7533 8.0372 32.7587 -1.6608
# 6 7.9534 6.7358 0.7791 7.1577 -1.6608 32.5293
#
#
#
# Elastic Compliance Matrix: (Units=1/GPa)
#
#
# Indices 1 2 3 4 5 6 
#
# 1 0.022625 0.001077 -0.002494 0.011758 -0.017793 -0.009191
# 2 0.001077 0.012502 -0.002541 0.003443 -0.001282 -0.003614
# 3 -0.002494 -0.002541 0.009126 -0.004588 0.002032 0.002031
# 4 0.011758 0.003443 -0.004588 0.046878 -0.019426 -0.014785
# 5 -0.017793 -0.001282 0.002032 -0.019426 0.047207 0.011252
# 6 -0.009191 -0.003614 0.002031 -0.014785 0.011252 0.037516
#
#
# Mechanical properties :
#
#
# Convention : Reuss Voigt Hill
#
# Bulk Modulus (GPa) = 27.51926 38.35157 32.93542
# Shear Modulus (GPa) = 25.52545 35.09085 30.30815
#
# Velocity S-wave (km/s) = 3.19156 3.74208 3.47773
# Velocity P-wave (km/s) = 4.95612 5.82884 5.41010
#
# Compressibility (1/GPa) = 0.03633818
#
# Stress axis : x y z
#
# Youngs Moduli (GPa) = 44.19828 79.98545 109.57445
#
# Poissons Ratio (x) = -0.08618 0.27326
# Poissons Ratio (y) = -0.04762 0.27848
# Poissons Ratio (z) = 0.11022 0.20328
#
# Static dielectric constant tensor:
#      x y z
#    x 2.118590 -0.111430 0.084140 
#    y -0.111430 2.129750 -0.040190 
#    z 0.084140 -0.040190 2.048740 
# 
# From -- ./inp_files/49323.got.cif
#   From: 2010.05.17/outbox.cif.g08.bks.cpg/sg2_25_cif.got.tgz:49323.got - 2010.06.03 11:33:40.
