data_PCOD9031146
_publ_section_title
;
Structure prediction by ZEFSAII (Michael W. Deem and Ramdas Pophale) SiO2 
 PCOD9031146
Probable space group: P -1
;
_chemical_formula_sum "Si O2"
_cell_formula_units_Z 14
_cell_length_a 22.565902
_cell_length_b 8.302594
_cell_length_c 12.206913
_cell_angle_alpha 34.162955
_cell_angle_beta 152.726902
_cell_angle_gamma 137.648704
_cell_volume 588.441796
_symmetry_space_group_name_H-M "P -1"
_symmetry_group_IT_number 2
_symmetry_cell_setting 'triclinic'
loop_
_space_group_symop_operation_xyz
x,y,z
-x,-y,-z
loop_
_atom_site_type_symbol
_atom_site_label
_atom_site_fract_x
_atom_site_fract_y
_atom_site_fract_z
Si Si1 0.344327 0.027449 0.716582
Si Si2 0.252435 0.212712 0.232260
Si Si3 0.875931 0.304533 0.370197
Si Si4 0.479268 0.914357 0.637494
Si Si5 0.028780 0.836461 0.755096
Si Si6 0.122081 0.717184 0.194651
Si Si7 0.348009 0.321060 0.782287
O O1 0.239379 0.762572 0.694277
O O2 0.312273 0.192470 0.461051
O O3 0.309870 0.189306 0.679146
O O4 0.500000 0.000000 0.000000
O O5 0.364305 0.096016 0.400208
O O6 0.133657 0.991592 0.136094
O O7 0.200266 0.521805 0.945090
O O8 0.000000 0.500000 0.500000
O O9 0.936379 0.016688 0.583038
O O10 0.450498 0.572634 0.780870
O O11 0.500000 0.000000 0.500000
O O12 0.600100 0.920779 0.915409
O O13 0.999398 0.498905 0.877415
O O14 0.000000 0.000000 0.500000
O O15 0.146120 0.813277 0.051927
O O16 0.231679 0.500568 0.538239
#
# Coordination Sequence:
#
# PCOD9031146 Si02
#       7
#     2   2   2   2   2   2   2
#     4  12  27  48  74 105 156 192 242 308 373 440
#     4  11  26  43  74 107 148 196 246 303 373 432
#     4  12  28  49  72 111 145 191 252 304 368 437
#     4  10  23  42  70 100 144 189 243 299 360 439
#     4  11  25  44  71 102 144 191 248 300 363 439
#     4  10  23  45  66 102 142 189 245 295 367 434
#     4  10  22  43  65 103 138 191 238 293 369 433
#
# _framework density 23.791647000000001
#
# number of rings (size 3 to 8) (size 9 to 14) (size 15 to 20)
#    0.000    1.143    4.286    0.000    6.000    4.571 
#    0.000    0.000    0.000    0.000    0.000    0.000 
#    0.000    0.000    0.000    0.000    0.000    0.000 
#
# Total GULP energy -78007.365736 kJ/mol
# GULP energy per Si atom -5571.954695 kJ/mol
# Density = 2.373750 g / cm^3
# Si number density = 23.791647 Si / 1000 Ang^3
#
#
#
# Elastic Constant Matrix: (Units=GPa)
#
#
# Indices 1 2 3 4 5 6 
#
# 1 60.8923 19.3524 37.5160 10.2547 -16.7059 6.8173
# 2 19.3524 47.2812 28.2215 8.9923 0.2018 -0.3047
# 3 37.5160 28.2215 168.5428 7.5230 -28.0819 9.0264
# 4 10.2547 8.9923 7.5230 32.2073 -10.0677 0.6006
# 5 -16.7059 0.2018 -28.0819 -10.0677 47.2768 3.7566
# 6 6.8173 -0.3047 9.0264 0.6006 3.7566 30.1153
#
#
#
# Elastic Compliance Matrix: (Units=1/GPa)
#
#
# Indices 1 2 3 4 5 6 
#
# 1 0.023181 -0.007674 -0.002353 -0.002485 0.006727 -0.005409
# 2 -0.007674 0.028068 -0.004091 -0.006714 -0.007030 0.004258
# 3 -0.002353 -0.004091 0.007944 0.001461 0.004412 -0.002469
# 4 -0.002485 -0.006714 0.001461 0.035835 0.007779 -0.001628
# 5 0.006727 -0.007030 0.004412 0.007779 0.028361 -0.006609
# 6 -0.005409 0.004258 -0.002469 -0.001628 -0.006609 0.036070
#
#
# Mechanical properties :
#
#
# Convention : Reuss Voigt Hill
#
# Bulk Modulus (GPa) = 32.30505 49.65512 40.98008
# Shear Modulus (GPa) = 25.25047 34.69498 29.97272
#
# Velocity S-wave (km/s) = 3.26132 3.82289 3.55322
# Velocity P-wave (km/s) = 5.27157 6.35627 5.83916
#
# Compressibility (1/GPa) = 0.03095491
#
# Stress axis : x y z
#
# Youngs Moduli (GPa) = 43.13880 35.62833 125.87753
#
# Poissons Ratio (x) = 0.27342 0.29624
# Poissons Ratio (y) = 0.33106 0.51498
# Poissons Ratio (z) = 0.10152 0.14576
#
# Static dielectric constant tensor:
#      x y z
#    x 1.916430 0.117010 0.013230 
#    y 0.117010 2.056530 0.132630 
#    z 0.013230 0.132630 2.239430 
# 
# From -- ./inp_files/229844.got.cif
#   From: 2010.05.17/outbox.cif.g08.bks.cpg/sg2_115_cif.got.tgz:229844.got - 2010.06.03 11:33:40.
