data_PCOD9031303
_publ_section_title
;
Structure prediction by ZEFSAII (Michael W. Deem and Ramdas Pophale) SiO2 
 PCOD9031303
Probable space group: P -1
;
_chemical_formula_sum "Si O2"
_cell_formula_units_Z 16
_cell_length_a 9.183356
_cell_length_b 11.433673
_cell_length_c 11.059415
_cell_angle_alpha 60.873713
_cell_angle_beta 88.838140
_cell_angle_gamma 48.919049
_cell_volume 680.917179
_symmetry_space_group_name_H-M "P -1"
_symmetry_group_IT_number 2
_symmetry_cell_setting 'triclinic'
loop_
_space_group_symop_operation_xyz
x,y,z
-x,-y,-z
loop_
_atom_site_type_symbol
_atom_site_label
_atom_site_fract_x
_atom_site_fract_y
_atom_site_fract_z
Si Si1 0.740030 0.887349 0.050860
Si Si2 0.516870 0.629222 0.746621
Si Si3 0.070628 0.795175 0.625875
Si Si4 0.660981 0.960075 0.418441
Si Si5 0.668521 0.492258 0.549404
Si Si6 0.058818 0.035722 0.855436
Si Si7 0.071160 0.746088 0.914819
Si Si8 0.777096 0.680904 0.350206
O O1 0.849059 0.689208 0.216384
O O2 0.744723 0.009776 0.079601
O O3 0.867758 0.839031 0.953234
O O4 0.500000 0.000000 0.000000
O O5 0.331963 0.642879 0.712368
O O6 0.607385 0.596859 0.627013
O O7 0.426579 0.828977 0.701128
O O8 0.710502 0.448522 0.922101
O O9 0.026117 0.747292 0.776354
O O10 0.913825 0.816527 0.527431
O O11 0.000000 0.000000 0.500000
O O12 0.659293 0.869450 0.343881
O O13 0.500000 0.000000 0.500000
O O14 0.500000 0.500000 0.500000
O O15 0.883263 0.259055 0.693713
O O16 0.661648 0.616689 0.389600
O O17 0.089602 0.894870 0.835244
O O18 0.000000 0.000000 0.000000
O O19 0.000000 0.500000 0.500000
#
# Coordination Sequence:
#
# PCOD9031303 Si02
#       8
#     2   2   2   2   2   2   2   2
#     4  11  26  42  70 103 144 194 239 293 369 426
#     4  11  23  47  69 108 143 195 244 294 368 431
#     4  10  26  43  74 103 137 189 243 293 362 440
#     4  11  26  46  72 102 153 193 236 301 371 425
#     4  12  26  41  75 109 143 188 245 303 360 432
#     4  10  22  43  66 101 144 186 231 301 357 411
#     4  11  24  49  71 103 150 188 245 306 359 430
#     4  12  26  48  72 106 148 190 246 304 358 439
#
# _framework density 23.497717999999999
#
# number of rings (size 3 to 8) (size 9 to 14) (size 15 to 20)
#    0.000    1.000    5.000    0.375   14.000    0.000 
#    0.000    0.625    0.000    0.000    0.000    0.000 
#    0.000    0.000    0.000    0.000    0.000    0.000 
#
# Total GULP energy -89219.735808 kJ/mol
# GULP energy per Si atom -5576.233488 kJ/mol
# Density = 2.344424 g / cm^3
# Si number density = 23.497718 Si / 1000 Ang^3
#
#
#
# Elastic Constant Matrix: (Units=GPa)
#
#
# Indices 1 2 3 4 5 6 
#
# 1 178.7740 23.8772 31.2563 -1.9702 -4.0569 -3.8321
# 2 23.8772 70.8190 20.8704 -6.1678 -10.7759 -1.4568
# 3 31.2563 20.8704 80.1509 9.0942 -5.9997 -12.5673
# 4 -1.9702 -6.1678 9.0942 28.3785 -13.0026 -8.8653
# 5 -4.0569 -10.7759 -5.9997 -13.0026 50.6204 2.3878
# 6 -3.8321 -1.4568 -12.5673 -8.8653 2.3878 35.5065
#
#
#
# Elastic Compliance Matrix: (Units=1/GPa)
#
#
# Indices 1 2 3 4 5 6 
#
# 1 0.006162 -0.001336 -0.002135 0.000933 0.000192 0.000075
# 2 -0.001336 0.017279 -0.004371 0.007509 0.004955 0.000559
# 3 -0.002135 -0.004371 0.015588 -0.005250 -0.000784 0.003849
# 4 0.000933 0.007509 -0.005250 0.047458 0.012791 0.009540
# 5 0.000192 0.004955 -0.000784 0.012791 0.023946 0.001530
# 6 0.000075 0.000559 0.003849 0.009540 0.001530 0.031836
#
#
# Mechanical properties :
#
#
# Convention : Reuss Voigt Hill
#
# Bulk Modulus (GPa) = 42.83871 53.52798 48.18334
# Shear Modulus (GPa) = 30.16889 39.81709 34.99299
#
# Velocity S-wave (km/s) = 3.58705 4.12091 3.86321
# Velocity P-wave (km/s) = 5.95202 6.74330 6.35997
#
# Compressibility (1/GPa) = 0.02334337
#
# Stress axis : x y z
#
# Youngs Moduli (GPa) = 162.29586 57.87456 64.15305
#
# Poissons Ratio (x) = 0.07734 0.13694
# Poissons Ratio (y) = 0.21687 0.28044
# Poissons Ratio (z) = 0.34644 0.25300
#
# Static dielectric constant tensor:
#      x y z
#    x 2.382900 -0.301200 -0.018770 
#    y -0.301200 2.144340 -0.006500 
#    z -0.018770 -0.006500 1.776250 
# 
# From -- ./inp_files/392346.got.cif
#   From: 2010.05.17/outbox.cif.g08.bks.cpg/sg2_197_cif.got.tgz:392346.got - 2010.06.03 11:33:40.
