data_PCOD9031677
_publ_section_title
;
Structure prediction by ZEFSAII (Michael W. Deem and Ramdas Pophale) SiO2 
 PCOD9031677
Probable space group: P -1
;
_chemical_formula_sum "Si O2"
_cell_formula_units_Z 13
_cell_length_a 11.433152
_cell_length_b 9.840690
_cell_length_c 6.978538
_cell_angle_alpha 96.482501
_cell_angle_beta 77.204166
_cell_angle_gamma 140.685847
_cell_volume 482.922902
_symmetry_space_group_name_H-M "P -1"
_symmetry_group_IT_number 2
_symmetry_cell_setting 'triclinic'
loop_
_space_group_symop_operation_xyz
x,y,z
-x,-y,-z
loop_
_atom_site_type_symbol
_atom_site_label
_atom_site_fract_x
_atom_site_fract_y
_atom_site_fract_z
Si Si1 0.952667 0.774808 0.872525
Si Si2 0.648518 0.949579 0.221327
Si Si3 0.806454 0.579529 0.290947
Si Si4 0.787979 0.791487 0.615000
Si Si5 0.052350 0.569384 0.769560
Si Si6 0.431022 0.128278 0.210072
Si Si7 0.500000 0.000000 0.500000
O O1 0.808032 0.741633 0.809425
O O2 0.178157 0.998128 0.792239
O O3 0.933860 0.601269 0.775379
O O4 0.928893 0.758171 0.106469
O O5 0.733251 0.177104 0.297916
O O6 0.477856 0.813253 0.404729
O O7 0.613978 0.929490 0.007475
O O8 0.718764 0.615253 0.465597
O O9 0.936692 0.574029 0.336669
O O10 0.648199 0.363237 0.190061
O O11 0.685551 0.843957 0.672147
O O12 0.000000 0.000000 0.500000
O O13 0.000000 0.500000 0.000000
O O14 0.395862 0.964700 0.324494
#
# Coordination Sequence:
#
# PCOD9031677 Si02
#       7
#     2   2   2   2   2   2   1
#     4   9  22  45  67  97 127 181 212 274 331 379
#     4  10  22  43  67  99 131 168 217 271 330 385
#     4  11  23  44  66  97 136 174 224 270 321 394
#     4  12  27  43  67  98 133 179 224 269 324 399
#     4   8  18  41  68  96 126 165 218 272 320 386
#     4  12  26  44  67  98 139 173 217 275 330 396
#     4  12  24  40  68 104 130 172 214 276 330 390
#
# _framework density 26.919409999999999
#
# number of rings (size 3 to 8) (size 9 to 14) (size 15 to 20)
#    0.923    0.615    1.538    2.769    0.000    6.154 
#    2.769    0.000    0.000    0.000    0.000    0.000 
#    0.000    0.000    0.000    0.000    0.000    0.000 
#
# Total GULP energy -72486.029810 kJ/mol
# GULP energy per Si atom -5575.848447 kJ/mol
# Density = 2.685814 g / cm^3
# Si number density = 26.919410 Si / 1000 Ang^3
#
#
#
# Elastic Constant Matrix: (Units=GPa)
#
#
# Indices 1 2 3 4 5 6 
#
# 1 179.3497 9.0313 29.5998 1.6791 -15.7514 -19.5794
# 2 9.0313 43.6490 25.7151 -9.9952 -3.7421 1.7448
# 3 29.5998 25.7151 146.7384 22.8161 -15.6388 -9.5363
# 4 1.6791 -9.9952 22.8161 19.2672 -0.2876 -1.8895
# 5 -15.7514 -3.7421 -15.6388 -0.2876 49.9627 0.1954
# 6 -19.5794 1.7448 -9.5363 -1.8895 0.1954 35.5295
#
#
#
# Elastic Compliance Matrix: (Units=1/GPa)
#
#
# Indices 1 2 3 4 5 6 
#
# 1 0.006243 -0.000721 -0.000803 0.000378 0.001652 0.003271
# 2 -0.000721 0.037964 -0.012091 0.033697 -0.000960 -0.003710
# 3 -0.000803 -0.012091 0.012828 -0.021112 0.002726 0.002457
# 4 0.000378 0.033697 -0.021112 0.094095 -0.003415 -0.002090
# 5 0.001652 -0.000960 0.002726 -0.003415 0.021292 0.001390
# 6 0.003271 -0.003710 0.002457 -0.002090 0.001390 0.030671
#
#
# Mechanical properties :
#
#
# Convention : Reuss Voigt Hill
#
# Bulk Modulus (GPa) = 33.54948 55.38106 44.46527
# Shear Modulus (GPa) = 20.81086 41.31126 31.06106
#
# Velocity S-wave (km/s) = 2.78345 3.92168 3.40053
# Velocity P-wave (km/s) = 4.77704 6.41278 5.65437
#
# Compressibility (1/GPa) = 0.02980672
#
# Stress axis : x y z
#
# Youngs Moduli (GPa) = 160.17267 26.34042 77.95166
#
# Poissons Ratio (x) = 0.01899 0.06261
# Poissons Ratio (y) = 0.11550 0.94247
# Poissons Ratio (z) = 0.12864 0.31847
#
# Static dielectric constant tensor:
#      x y z
#    x 2.253720 0.114660 -0.148260 
#    y 0.114660 2.362250 -0.133750 
#    z -0.148260 -0.133750 2.350190 
# 
# From -- ./inp_files/62472.got.cif
#   From: 2010.05.17/outbox.cif.g08.bks.cpg/sg2_32_cif.got.tgz:62472.got - 2010.06.03 11:33:40.
