data_PCOD9031469
_publ_section_title
;
Structure prediction by ZEFSAII (Michael W. Deem and Ramdas Pophale) SiO2 
 PCOD9031469
Probable space group: P -1
;
_chemical_formula_sum "Si O2"
_cell_formula_units_Z 14
_cell_length_a 19.074162
_cell_length_b 9.340837
_cell_length_c 13.025352
_cell_angle_alpha 48.147591
_cell_angle_beta 154.574192
_cell_angle_gamma 138.137751
_cell_volume 664.806622
_symmetry_space_group_name_H-M "P -1"
_symmetry_group_IT_number 2
_symmetry_cell_setting 'triclinic'
loop_
_space_group_symop_operation_xyz
x,y,z
-x,-y,-z
loop_
_atom_site_type_symbol
_atom_site_label
_atom_site_fract_x
_atom_site_fract_y
_atom_site_fract_z
Si Si1 0.020989 0.466445 0.162703
Si Si2 0.842363 0.258150 0.400995
Si Si3 0.255827 0.599504 0.990786
Si Si4 0.481639 0.993114 0.774804
Si Si5 0.322869 0.911170 0.380235
Si Si6 0.140859 0.176703 0.907803
Si Si7 0.137320 0.013400 0.765980
O O1 0.215889 0.653461 0.362037
O O2 0.980081 0.220838 0.229498
O O3 0.876417 0.479886 0.047177
O O4 0.000000 0.500000 0.000000
O O5 0.653651 0.191873 0.240962
O O6 0.000000 0.500000 0.500000
O O7 0.928531 0.122689 0.640133
O O8 0.804542 0.252029 0.233129
O O9 0.455031 0.769139 0.208416
O O10 0.237425 0.398818 0.993530
O O11 0.388122 0.981782 0.547671
O O12 0.666880 0.969444 0.014644
O O13 0.500000 0.000000 0.500000
O O14 0.191150 0.006894 0.113527
O O15 0.185091 0.184188 0.840774
O O16 0.000000 0.000000 0.500000
#
# Coordination Sequence:
#
# PCOD9031469 Si02
#       7
#     2   2   2   2   2   2   2
#     4  11  22  45  70  96 141 187 223 289 353 410
#     4  10  22  43  66  98 138 180 227 292 349 404
#     4  10  23  42  69  99 137 177 233 290 350 405
#     4  11  23  43  68  96 143 185 223 296 350 411
#     4  12  23  43  66 100 142 184 237 284 348 420
#     4  11  22  43  68  99 138 179 235 283 347 412
#     4  11  24  47  72 105 137 186 242 286 349 423
#
# _framework density 21.058755000000001
#
# number of rings (size 3 to 8) (size 9 to 14) (size 15 to 20)
#    0.000    1.143    2.857    4.714    0.000    4.000 
#    7.714    3.571    0.000    0.000    0.000    0.000 
#    0.000    0.000    0.000    0.000    0.000    0.000 
#
# Total GULP energy -78003.505305 kJ/mol
# GULP energy per Si atom -5571.678950 kJ/mol
# Density = 2.101082 g / cm^3
# Si number density = 21.058755 Si / 1000 Ang^3
#
#
#
# Elastic Constant Matrix: (Units=GPa)
#
#
# Indices 1 2 3 4 5 6 
#
# 1 131.1110 61.9444 51.6731 12.0824 -29.9623 4.3178
# 2 61.9444 95.1291 29.2326 23.8498 -4.5503 5.1154
# 3 51.6731 29.2326 118.1250 -0.1755 -23.7664 8.2735
# 4 12.0824 23.8498 -0.1755 43.0565 -1.3052 -6.8827
# 5 -29.9623 -4.5503 -23.7664 -1.3052 35.6214 8.7365
# 6 4.3178 5.1154 8.2735 -6.8827 8.7365 49.9795
#
#
#
# Elastic Compliance Matrix: (Units=1/GPa)
#
#
# Indices 1 2 3 4 5 6 
#
# 1 0.014962 -0.008627 -0.002170 0.000602 0.010499 -0.001803
# 2 -0.008627 0.018554 -0.002049 -0.008190 -0.006350 -0.000832
# 3 -0.002170 -0.002049 0.011312 0.001604 0.006087 -0.002318
# 4 0.000602 -0.008190 0.001604 0.028307 0.000505 0.004331
# 5 0.010499 -0.006350 0.006087 0.000505 0.042278 -0.008586
# 6 -0.001803 -0.000832 -0.002318 0.004331 -0.008586 0.022730
#
#
# Mechanical properties :
#
#
# Convention : Reuss Voigt Hill
#
# Bulk Modulus (GPa) = 52.26352 70.00724 61.13538
# Shear Modulus (GPa) = 29.37480 39.16581 34.27031
#
# Velocity S-wave (km/s) = 3.73888 4.31726 4.03844
# Velocity P-wave (km/s) = 6.59627 7.62677 7.13016
#
# Compressibility (1/GPa) = 0.01913380
#
# Stress axis : x y z
#
# Youngs Moduli (GPa) = 66.83740 53.89736 88.40495
#
# Poissons Ratio (x) = 0.46498 0.19188
# Poissons Ratio (y) = 0.57662 0.18114
# Poissons Ratio (z) = 0.14507 0.11044
#
# Static dielectric constant tensor:
#      x y z
#    x 1.829100 -0.107350 -0.065800 
#    y -0.107350 1.816670 0.079750 
#    z -0.065800 0.079750 2.069810 
# 
# From -- ./inp_files/343366.got.cif
#   From: 2010.05.17/outbox.cif.g08.bks.cpg/sg2_172_cif.got.tgz:343366.got - 2010.06.03 11:33:40.
