data_PCOD9031622
_publ_section_title
;
Structure prediction by ZEFSAII (Michael W. Deem and Ramdas Pophale) SiO2 
 PCOD9031622
Probable space group: P -1
;
_chemical_formula_sum "Si O2"
_cell_formula_units_Z 10
_cell_length_a 7.593712
_cell_length_b 8.832729
_cell_length_c 11.656515
_cell_angle_alpha 58.455061
_cell_angle_beta 143.703639
_cell_angle_gamma 127.649880
_cell_volume 365.646126
_symmetry_space_group_name_H-M "P -1"
_symmetry_group_IT_number 2
_symmetry_cell_setting 'triclinic'
loop_
_space_group_symop_operation_xyz
x,y,z
-x,-y,-z
loop_
_atom_site_type_symbol
_atom_site_label
_atom_site_fract_x
_atom_site_fract_y
_atom_site_fract_z
Si Si1 0.552947 0.459937 0.886224
Si Si2 0.227307 0.148363 0.231242
Si Si3 0.841711 0.268887 0.660012
Si Si4 0.553195 0.738361 0.331123
Si Si5 0.823528 0.160099 0.240591
O O1 0.770119 0.683459 0.918540
O O2 0.553312 0.402260 0.775741
O O3 0.810402 0.587029 0.248848
O O4 0.674818 0.316708 0.075416
O O5 0.593314 0.221837 0.441734
O O6 0.008921 0.137487 0.232213
O O7 0.140187 0.937295 0.221760
O O8 0.669527 0.332317 0.647638
O O9 0.916461 0.778001 0.545565
O O10 0.568800 0.948889 0.218831
#
# Coordination Sequence:
#
# PCOD9031622 Si02
#       5
#     2   2   2   2   2
#     4  12  23  44  72  95 130 178 221 267 328 394
#     4  10  22  43  67  96 138 170 213 282 325 380
#     4  10  23  43  66  98 135 172 217 273 331 386
#     4  10  23  44  70  93 136 176 214 272 334 385
#     4  10  22  43  67  99 131 174 218 272 327 390
#
# _framework density 27.348849000000001
#
# number of rings (size 3 to 8) (size 9 to 14) (size 15 to 20)
#    0.000    1.600    2.000    1.800    2.800    4.000 
#    3.600    1.000    0.000    0.000    0.000    0.000 
#    0.000    0.000    0.000    0.000    0.000    0.000 
#
# Total GULP energy -56271.440851 kJ/mol
# GULP energy per Si atom -5627.144085 kJ/mol
# Density = 2.728660 g / cm^3
# Si number density = 27.348849 Si / 1000 Ang^3
#
#
#
# Elastic Constant Matrix: (Units=GPa)
#
#
# Indices 1 2 3 4 5 6 
#
# 1 128.4915 31.6239 3.7648 7.9570 -9.0692 2.8462
# 2 31.6239 162.4648 23.9968 -12.7829 -17.8054 7.4079
# 3 3.7648 23.9968 100.0314 2.9142 -6.5462 -12.4778
# 4 7.9570 -12.7829 2.9142 47.0631 -1.6170 -7.7178
# 5 -9.0692 -17.8054 -6.5462 -1.6170 30.0837 4.4973
# 6 2.8462 7.4079 -12.4778 -7.7178 4.4973 40.3533
#
#
#
# Elastic Compliance Matrix: (Units=1/GPa)
#
#
# Indices 1 2 3 4 5 6 
#
# 1 0.008426 -0.001595 0.000128 -0.001943 0.001642 -0.000817
# 2 -0.001595 0.007411 -0.001751 0.002230 0.003913 -0.001799
# 3 0.000128 -0.001751 0.010918 -0.000573 0.000826 0.003487
# 4 -0.001943 0.002230 -0.000573 0.022882 0.001274 0.003785
# 5 0.001642 0.003913 0.000826 0.001274 0.036966 -0.004455
# 6 -0.000817 -0.001799 0.003487 0.003785 -0.004455 0.027467
#
#
# Mechanical properties :
#
#
# Convention : Reuss Voigt Hill
#
# Bulk Modulus (GPa) = 49.21775 56.63988 52.92881
# Shear Modulus (GPa) = 39.28405 45.60683 42.44544
#
# Velocity S-wave (km/s) = 3.79411 4.08805 3.94382
# Velocity P-wave (km/s) = 6.10156 6.56033 6.33510
#
# Compressibility (1/GPa) = 0.02031787
#
# Stress axis : x y z
#
# Youngs Moduli (GPa) = 118.68546 134.94231 91.59372
#
# Poissons Ratio (x) = 0.21518 -0.01169
# Poissons Ratio (y) = 0.18926 0.16038
# Poissons Ratio (z) = -0.01514 0.23629
#
# Static dielectric constant tensor:
#      x y z
#    x 2.042920 -0.021280 -0.003280 
#    y -0.021280 2.056700 -0.025460 
#    z -0.003280 -0.025460 2.181280 
# 
# From -- ./inp_files/160620.got.cif
#   From: 2010.05.17/outbox.cif.g08.bks.cpg/sg2_81_cif.got.tgz:160620.got - 2010.06.03 11:33:40.
