data_PCOD9031740
_publ_section_title
;
Structure prediction by ZEFSAII (Michael W. Deem and Ramdas Pophale) SiO2 
 PCOD9031740
Probable space group: P -1
;
_chemical_formula_sum "Si O2"
_cell_formula_units_Z 14
_cell_length_a 12.031867
_cell_length_b 9.209405
_cell_length_c 13.968090
_cell_angle_alpha 149.833878
_cell_angle_beta 55.666601
_cell_angle_gamma 112.608774
_cell_volume 622.075517
_symmetry_space_group_name_H-M "P -1"
_symmetry_group_IT_number 2
_symmetry_cell_setting 'triclinic'
loop_
_space_group_symop_operation_xyz
x,y,z
-x,-y,-z
loop_
_atom_site_type_symbol
_atom_site_label
_atom_site_fract_x
_atom_site_fract_y
_atom_site_fract_z
Si Si1 0.469489 0.681719 0.860098
Si Si2 0.139300 0.385278 0.159912
Si Si3 0.777739 0.517055 0.618706
Si Si4 0.091881 0.131495 0.852493
Si Si5 0.846861 0.849011 0.590079
Si Si6 0.641348 0.301397 0.861590
Si Si7 0.811098 0.414111 0.061321
O O1 0.622839 0.464019 0.662053
O O2 0.336435 0.601854 0.829289
O O3 0.409892 0.689546 0.999527
O O4 0.500000 0.000000 0.000000
O O5 0.190872 0.318971 0.206380
O O6 0.250279 0.531700 0.138891
O O7 0.992869 0.631188 0.368864
O O8 0.129350 0.124543 0.942719
O O9 0.788946 0.691822 0.616353
O O10 0.889878 0.203121 0.382497
O O11 0.187529 0.284355 0.825107
O O12 0.936660 0.332727 0.028594
O O13 0.735485 0.955811 0.619072
O O14 0.862716 0.155633 0.807165
O O15 0.500000 0.500000 0.000000
#
# Coordination Sequence:
#
# PCOD9031740 Si02
#       7
#     2   2   2   2   2   2   2
#     4  11  21  43  73  98 138 188 228 286 352 413
#     4  12  24  43  72 102 143 179 237 286 340 417
#     4  12  25  43  74 102 140 188 227 283 361 405
#     4  11  25  43  67 108 141 177 238 289 336 421
#     4  11  23  44  70 100 136 187 231 278 355 408
#     4  11  22  39  70 107 127 181 241 278 340 415
#     4  10  22  43  68 102 140 182 234 279 351 407
#
# _framework density 22.505306999999998
#
# number of rings (size 3 to 8) (size 9 to 14) (size 15 to 20)
#    0.000    0.857    8.571    0.857    0.000    1.143 
#    0.000    0.000    0.000    2.571    0.000    0.000 
#    0.000    0.000    0.000    0.000    0.000    0.000 
#
# Total GULP energy -77980.759931 kJ/mol
# GULP energy per Si atom -5570.054281 kJ/mol
# Density = 2.245408 g / cm^3
# Si number density = 22.505307 Si / 1000 Ang^3
#
#
#
# Elastic Constant Matrix: (Units=GPa)
#
#
# Indices 1 2 3 4 5 6 
#
# 1 114.2401 43.5103 24.7259 -14.1328 -28.5365 2.4673
# 2 43.5103 87.3481 7.5367 -10.0499 -11.4421 8.0306
# 3 24.7259 7.5367 29.1928 -5.8853 -11.7238 -5.9591
# 4 -14.1328 -10.0499 -5.8853 35.9608 6.6109 -16.0103
# 5 -28.5365 -11.4421 -11.7238 6.6109 46.0165 -6.0745
# 6 2.4673 8.0306 -5.9591 -16.0103 -6.0745 29.4008
#
#
#
# Elastic Compliance Matrix: (Units=1/GPa)
#
#
# Indices 1 2 3 4 5 6 
#
# 1 0.014081 -0.005502 -0.007752 0.002235 0.005206 0.001042
# 2 -0.005502 0.014490 0.000288 0.000562 -0.000236 -0.003181
# 3 -0.007752 0.000288 0.050831 0.012365 0.009008 0.019469
# 4 0.002235 0.000562 0.012365 0.041773 0.002018 0.025330
# 5 0.005206 -0.000236 0.009008 0.002018 0.028007 0.008339
# 6 0.001042 -0.003181 0.019469 0.025330 0.008339 0.054257
#
#
# Mechanical properties :
#
#
# Convention : Reuss Voigt Hill
#
# Bulk Modulus (GPa) = 18.70164 42.48076 30.59120
# Shear Modulus (GPa) = 20.22692 32.60949 26.41820
#
# Velocity S-wave (km/s) = 3.00119 3.81066 3.42989
# Velocity P-wave (km/s) = 4.50970 6.18695 5.41368
#
# Compressibility (1/GPa) = 0.05347126
#
# Stress axis : x y z
#
# Youngs Moduli (GPa) = 71.01645 69.01102 19.67286
#
# Poissons Ratio (x) = 0.37971 0.15251
# Poissons Ratio (y) = 0.39074 -0.00567
# Poissons Ratio (z) = 0.55054 -0.01991
#
# Static dielectric constant tensor:
#      x y z
#    x 2.419790 -0.038300 -0.662190 
#    y -0.038300 1.828200 0.090340 
#    z -0.662190 0.090340 3.161170 
# 
# From -- ./inp_files/516446.got.cif
#   From: 2010.05.17/outbox.cif.g08.bks.cpg/sg2_259_cif.got.tgz:516446.got - 2010.06.03 11:33:40.
