data_PCOD9031915
_publ_section_title
;
Structure prediction by ZEFSAII (Michael W. Deem and Ramdas Pophale) SiO2 
 PCOD9031915
Probable space group: P -1
;
_chemical_formula_sum "Si O2"
_cell_formula_units_Z 16
_cell_length_a 11.534959
_cell_length_b 11.527849
_cell_length_c 9.078024
_cell_angle_alpha 129.655879
_cell_angle_beta 132.886426
_cell_angle_gamma 66.552810
_cell_volume 679.528068
_symmetry_space_group_name_H-M "P -1"
_symmetry_group_IT_number 2
_symmetry_cell_setting 'triclinic'
loop_
_space_group_symop_operation_xyz
x,y,z
-x,-y,-z
loop_
_atom_site_type_symbol
_atom_site_label
_atom_site_fract_x
_atom_site_fract_y
_atom_site_fract_z
Si Si1 0.380651 0.965540 0.644566
Si Si2 0.317865 0.732263 0.154907
Si Si3 0.300041 0.859139 0.804458
Si Si4 0.232889 0.323420 0.406319
Si Si5 0.155413 0.984090 0.026389
Si Si6 0.555541 0.408692 0.144567
Si Si7 0.036665 0.513247 0.869955
Si Si8 0.786894 0.733649 0.314112
O O1 0.405143 0.844597 0.440050
O O2 0.304260 0.885876 0.657607
O O3 0.261731 0.092976 0.594140
O O4 0.546896 0.046926 0.910866
O O5 0.243711 0.858193 0.089022
O O6 0.398081 0.631036 0.016620
O O7 0.187454 0.626421 0.044045
O O8 0.334038 0.690791 0.740391
O O9 0.147273 0.918497 0.801521
O O10 0.233440 0.152609 0.216115
O O11 0.398181 0.422443 0.626726
O O12 0.190158 0.310733 0.532046
O O13 0.105353 0.413046 0.279893
O O14 0.000000 0.000000 0.000000
O O15 0.374682 0.350820 0.958724
O O16 0.074909 0.345028 0.715129
O O17 0.000000 0.500000 0.000000
#
# Coordination Sequence:
#
# PCOD9031915 Si02
#       8
#     2   2   2   2   2   2   2   2
#     4  10  22  43  68  99 130 176 209 286 326 388
#     4  11  23  43  67  95 134 164 230 272 322 388
#     4   9  23  42  66  96 138 166 220 267 345 385
#     4  12  24  44  69  96 133 179 217 277 330 385
#     4  11  23  41  65  96 123 171 225 265 319 396
#     4  10  24  43  71 103 127 175 224 278 323 392
#     4  12  29  45  63  96 140 177 217 272 337 401
#     4  11  24  44  70  97 131 173 231 267 328 394
#
# _framework density 23.545753000000001
#
# number of rings (size 3 to 8) (size 9 to 14) (size 15 to 20)
#    0.000    1.250    3.750    0.750    5.250    1.500 
#    0.000    1.875    0.000    0.000    0.000    0.000 
#    0.000    0.000    0.000    0.000    0.000    0.000 
#
# Total GULP energy -89449.600147 kJ/mol
# GULP energy per Si atom -5590.600009 kJ/mol
# Density = 2.349216 g / cm^3
# Si number density = 23.545753 Si / 1000 Ang^3
#
#
#
# Elastic Constant Matrix: (Units=GPa)
#
#
# Indices 1 2 3 4 5 6 
#
# 1 73.4896 51.8734 6.4167 -0.6571 -17.8858 -2.1129
# 2 51.8734 150.6535 57.0305 12.7779 -14.2009 -11.7546
# 3 6.4167 57.0305 79.8779 23.8012 1.0965 -5.5690
# 4 -0.6571 12.7779 23.8012 50.6286 0.9994 -5.6615
# 5 -17.8858 -14.2009 1.0965 0.9994 30.0575 3.1636
# 6 -2.1129 -11.7546 -5.5690 -5.6615 3.1636 42.5212
#
#
#
# Elastic Compliance Matrix: (Units=1/GPa)
#
#
# Indices 1 2 3 4 5 6 
#
# 1 0.020956 -0.007908 0.003688 0.000218 0.008727 -0.001282
# 2 -0.007908 0.012876 -0.008717 0.000946 0.001450 0.002043
# 3 0.003688 -0.008717 0.020680 -0.007464 -0.002395 -0.000334
# 4 0.000218 0.000946 -0.007464 0.023298 -0.000179 0.002410
# 5 0.008727 0.001450 -0.002395 -0.000179 0.039498 -0.002442
# 6 -0.001282 0.002043 -0.000334 0.002410 -0.002442 0.024478
#
#
# Mechanical properties :
#
#
# Convention : Reuss Voigt Hill
#
# Bulk Modulus (GPa) = 34.91691 59.40690 47.16190
# Shear Modulus (GPa) = 28.21563 37.22148 32.71856
#
# Velocity S-wave (km/s) = 3.46545 3.98026 3.73174
# Velocity P-wave (km/s) = 5.55644 6.81238 6.21621
#
# Compressibility (1/GPa) = 0.02863942
#
# Stress axis : x y z
#
# Youngs Moduli (GPa) = 47.71852 77.66134 48.35477
#
# Poissons Ratio (x) = 0.61413 -0.17835
# Poissons Ratio (y) = 0.37735 0.42153
# Poissons Ratio (z) = -0.17600 0.67700
#
# Static dielectric constant tensor:
#      x y z
#    x 1.903500 -0.025720 0.075240 
#    y -0.025720 1.883760 0.015740 
#    z 0.075240 0.015740 1.951520 
# 
# From -- ./inp_files/263639.got.cif
#   From: 2010.05.17/outbox.cif.g08.bks.cpg/sg2_132_cif.got.tgz:263639.got - 2010.06.03 11:33:40.
