data_PCOD9031221
_publ_section_title
;
Structure prediction by ZEFSAII (Michael W. Deem and Ramdas Pophale) SiO2 
 PCOD9031221
Probable space group: P -1
;
_chemical_formula_sum "Si O2"
_cell_formula_units_Z 15
_cell_length_a 12.554702
_cell_length_b 9.214913
_cell_length_c 9.281567
_cell_angle_alpha 70.101313
_cell_angle_beta 76.538493
_cell_angle_gamma 125.995398
_cell_volume 671.797214
_symmetry_space_group_name_H-M "P -1"
_symmetry_group_IT_number 2
_symmetry_cell_setting 'triclinic'
loop_
_space_group_symop_operation_xyz
x,y,z
-x,-y,-z
loop_
_atom_site_type_symbol
_atom_site_label
_atom_site_fract_x
_atom_site_fract_y
_atom_site_fract_z
Si Si1 0.037482 0.859953 0.871360
Si Si2 0.576053 0.745594 0.384705
Si Si3 0.902351 0.299919 0.856701
Si Si4 0.443037 0.991241 0.863012
Si Si5 0.565343 0.855730 0.662229
Si Si6 0.866044 0.970877 0.789252
Si Si7 0.500000 0.500000 0.000000
Si Si8 0.948444 0.237383 0.419202
O O1 0.999203 0.763499 0.754731
O O2 0.952022 0.936906 0.877472
O O3 0.231179 0.073575 0.747328
O O4 0.992943 0.684827 0.063088
O O5 0.500000 0.500000 0.500000
O O6 0.530832 0.795114 0.525213
O O7 0.516198 0.787736 0.255928
O O8 0.984509 0.521431 0.668880
O O9 0.836957 0.100348 0.839423
O O10 0.748789 0.213998 0.012400
O O11 0.509699 0.949622 0.732629
O O12 0.500000 0.000000 0.000000
O O13 0.491125 0.635000 0.844020
O O14 0.757234 0.051423 0.543461
O O15 0.697255 0.730670 0.872911
O O16 0.982296 0.145447 0.562812
#
# Coordination Sequence:
#
# PCOD9031221 Si02
#       8
#     2   2   2   2   2   2   1   2
#     4  10  23  42  64  99 130 174 218 270 339 393
#     4  10  24  42  66  97 141 172 227 279 326 408
#     4  11  24  42  67  97 134 165 226 274 328 399
#     4  11  24  42  64  99 131 176 223 270 337 393
#     4  10  23  43  67  93 137 175 222 271 343 391
#     4  11  23  43  68  96 131 174 222 273 334 393
#     4  10  24  40  70  96 132 172 226 274 332 398
#     4  10  22  43  65  95 129 170 218 273 324 408
#
# _framework density 22.328166
#
# number of rings (size 3 to 8) (size 9 to 14) (size 15 to 20)
#    0.000    1.600    0.000    3.600    7.467    2.133 
#    2.400    0.000    0.000    0.000    0.000    0.000 
#    0.000    0.000    0.000    0.000    0.000    0.000 
#
# Total GULP energy -83564.554863 kJ/mol
# GULP energy per Si atom -5570.970324 kJ/mol
# Density = 2.227735 g / cm^3
# Si number density = 22.328166 Si / 1000 Ang^3
#
#
#
# Elastic Constant Matrix: (Units=GPa)
#
#
# Indices 1 2 3 4 5 6 
#
# 1 93.4376 29.9557 30.3194 -10.0110 42.3153 -1.6298
# 2 29.9557 51.9317 32.1422 -8.7879 4.4137 -11.4946
# 3 30.3194 32.1422 74.6712 -28.2365 29.6827 -9.9912
# 4 -10.0110 -8.7879 -28.2365 37.7670 -11.2485 9.1425
# 5 42.3153 4.4137 29.6827 -11.2485 41.4786 4.6444
# 6 -1.6298 -11.4946 -9.9912 9.1425 4.6444 18.1954
#
#
#
# Elastic Compliance Matrix: (Units=1/GPa)
#
#
# Indices 1 2 3 4 5 6 
#
# 1 0.031721 -0.021590 0.013276 -0.000452 -0.040476 0.007050
# 2 -0.021590 0.044904 -0.024687 -0.005887 0.032472 0.007547
# 3 0.013276 -0.024687 0.039936 0.014368 -0.036681 0.009666
# 4 -0.000452 -0.005887 0.014368 0.041149 0.003930 -0.017549
# 5 -0.040476 0.032472 -0.036681 0.003930 0.092490 -0.028836
# 6 0.007050 0.007547 0.009666 -0.017549 -0.028836 0.081844
#
#
# Mechanical properties :
#
#
# Convention : Reuss Voigt Hill
#
# Bulk Modulus (GPa) = 19.77935 44.98611 32.38273
# Shear Modulus (GPa) = 12.05111 27.99640 20.02375
#
# Velocity S-wave (km/s) = 2.32572 3.54483 2.99790
# Velocity P-wave (km/s) = 4.01119 6.07831 5.14954
#
# Compressibility (1/GPa) = 0.05055778
#
# Stress axis : x y z
#
# Youngs Moduli (GPa) = 31.52454 22.26982 25.04029
#
# Poissons Ratio (x) = 0.48081 -0.33243
# Poissons Ratio (y) = 0.68063 0.61817
# Poissons Ratio (z) = -0.41851 0.54977
#
# Static dielectric constant tensor:
#      x y z
#    x 1.830980 -0.009170 0.044410 
#    y -0.009170 1.847160 0.062970 
#    z 0.044410 0.062970 1.868180 
# 
# From -- ./inp_files/242978.got.cif
#   From: 2010.05.17/outbox.cif.g08.bks.cpg/sg2_122_cif.got.tgz:242978.got - 2010.06.03 11:33:40.
