data_PCOD9031448
_publ_section_title
;
Structure prediction by ZEFSAII (Michael W. Deem and Ramdas Pophale) SiO2 
 PCOD9031448
Probable space group: P -1
;
_chemical_formula_sum "Si O2"
_cell_formula_units_Z 16
_cell_length_a 20.113311
_cell_length_b 9.063618
_cell_length_c 14.087176
_cell_angle_alpha 112.133007
_cell_angle_beta 160.159612
_cell_angle_gamma 58.650034
_cell_volume 685.870730
_symmetry_space_group_name_H-M "P -1"
_symmetry_group_IT_number 2
_symmetry_cell_setting 'triclinic'
loop_
_space_group_symop_operation_xyz
x,y,z
-x,-y,-z
loop_
_atom_site_type_symbol
_atom_site_label
_atom_site_fract_x
_atom_site_fract_y
_atom_site_fract_z
Si Si1 0.916108 0.888618 0.460268
Si Si2 0.287619 0.016613 0.159733
Si Si3 0.364621 0.720675 0.897217
Si Si4 0.509802 0.401782 0.389108
Si Si5 0.916092 0.239675 0.145714
Si Si6 0.873141 0.413921 0.755978
Si Si7 0.744917 0.798630 0.022939
Si Si8 0.176934 0.385190 0.442164
O O1 0.179861 0.774624 0.747016
O O2 0.923573 0.827613 0.562946
O O3 0.803281 0.114135 0.361513
O O4 0.777407 0.844760 0.185265
O O5 0.310406 0.029107 0.079662
O O6 0.500000 0.000000 0.500000
O O7 0.071758 0.222273 0.934752
O O8 0.204965 0.880354 0.052828
O O9 0.500000 0.500000 0.000000
O O10 0.587891 0.734811 0.214621
O O11 0.500000 0.500000 0.500000
O O12 0.732209 0.364964 0.625081
O O13 0.460774 0.236135 0.287289
O O14 0.300311 0.552873 0.079452
O O15 0.049261 0.268443 0.244268
O O16 0.741599 0.564576 0.533099
O O17 0.000000 0.500000 0.000000
O O18 0.982493 0.594360 0.271137
#
# Coordination Sequence:
#
# PCOD9031448 Si02
#       8
#     2   2   2   2   2   2   2   2
#     4  11  24  41  68 102 136 185 232 284 354 409
#     4  11  23  41  68  96 136 178 228 291 343 409
#     4  11  22  41  66  95 137 180 231 283 343 413
#     4  11  23  45  71 100 137 180 228 286 347 415
#     4  11  24  43  65 101 139 176 231 286 341 413
#     4  11  23  41  67  97 128 178 227 276 352 413
#     4  10  22  43  66  97 138 180 231 284 346 417
#     4  10  23  42  65  95 136 180 223 282 345 407
#
# _framework density 23.328009000000002
#
# number of rings (size 3 to 8) (size 9 to 14) (size 15 to 20)
#    0.000    1.250    1.250    6.000    1.750    4.500 
#    2.250    4.375    0.000    0.000    0.000    0.000 
#    0.000    0.000    0.000    0.000    0.000    0.000 
#
# Total GULP energy -89250.225284 kJ/mol
# GULP energy per Si atom -5578.139080 kJ/mol
# Density = 2.327491 g / cm^3
# Si number density = 23.328009 Si / 1000 Ang^3
#
#
#
# Elastic Constant Matrix: (Units=GPa)
#
#
# Indices 1 2 3 4 5 6 
#
# 1 74.7370 29.4103 40.0236 3.8676 -8.8492 7.0608
# 2 29.4103 121.8490 35.4746 8.2994 7.5027 10.4605
# 3 40.0236 35.4746 116.1188 11.4306 6.2070 8.3630
# 4 3.8676 8.2994 11.4306 54.0788 4.6468 -2.8853
# 5 -8.8492 7.5027 6.2070 4.6468 35.3428 2.7222
# 6 7.0608 10.4605 8.3630 -2.8853 2.7222 23.0020
#
#
#
# Elastic Compliance Matrix: (Units=1/GPa)
#
#
# Indices 1 2 3 4 5 6 
#
# 1 0.018652 -0.002976 -0.005602 -0.000428 0.006586 -0.003169
# 2 -0.002976 0.009823 -0.001561 -0.000926 -0.002216 -0.002840
# 3 -0.005602 -0.001561 0.011443 -0.001629 -0.002743 -0.001610
# 4 -0.000428 -0.000926 -0.001629 0.019428 -0.002477 0.003875
# 5 0.006586 -0.002216 -0.002743 -0.002477 0.031534 -0.004060
# 6 -0.003169 -0.002840 -0.001610 0.003875 -0.004060 0.047291
#
#
# Mechanical properties :
#
#
# Convention : Reuss Voigt Hill
#
# Bulk Modulus (GPa) = 50.91405 58.05798 54.48602
# Shear Modulus (GPa) = 30.30407 36.33780 33.32094
#
# Velocity S-wave (km/s) = 3.60813 3.95104 3.78347
# Velocity P-wave (km/s) = 6.26345 6.76432 6.51870
#
# Compressibility (1/GPa) = 0.01964094
#
# Stress axis : x y z
#
# Youngs Moduli (GPa) = 53.61237 101.80304 87.39334
#
# Poissons Ratio (x) = 0.30292 0.48955
# Poissons Ratio (y) = 0.15952 0.13644
# Poissons Ratio (z) = 0.30032 0.15894
#
# Static dielectric constant tensor:
#      x y z
#    x 1.883820 -0.121530 0.153840 
#    y -0.121530 1.840710 0.159950 
#    z 0.153840 0.159950 1.730010 
# 
# From -- ./inp_files/540527.got.cif
#   From: 2010.05.17/outbox.cif.g08.bks.cpg/sg2_271_cif.got.tgz:540527.got - 2010.06.03 11:33:40.
