data_PCOD9031751
_publ_section_title
;
Structure prediction by ZEFSAII (Michael W. Deem and Ramdas Pophale) SiO2 
 PCOD9031751
Probable space group: P -1
;
_chemical_formula_sum "Si O2"
_cell_formula_units_Z 14
_cell_length_a 12.783032
_cell_length_b 10.294010
_cell_length_c 15.576660
_cell_angle_alpha 26.037478
_cell_angle_beta 134.169990
_cell_angle_gamma 132.210654
_cell_volume 638.500424
_symmetry_space_group_name_H-M "P -1"
_symmetry_group_IT_number 2
_symmetry_cell_setting 'triclinic'
loop_
_space_group_symop_operation_xyz
x,y,z
-x,-y,-z
loop_
_atom_site_type_symbol
_atom_site_label
_atom_site_fract_x
_atom_site_fract_y
_atom_site_fract_z
Si Si1 0.867365 0.643424 0.802241
Si Si2 0.176158 0.706420 0.641352
Si Si3 0.471943 0.801696 0.851084
Si Si4 0.385022 0.561389 0.512022
Si Si5 0.910501 0.674307 0.614397
Si Si6 0.662031 0.640463 0.202461
Si Si7 0.624821 0.215745 0.893535
O O1 0.859430 0.557831 0.747643
O O2 0.716088 0.466636 0.855885
O O3 0.874425 0.996860 0.605153
O O4 0.000000 0.500000 0.000000
O O5 0.304923 0.825240 0.713530
O O6 0.243248 0.518146 0.717605
O O7 0.036261 0.539253 0.712669
O O8 0.576652 0.097035 0.701087
O O9 0.500000 0.500000 0.000000
O O10 0.518870 0.724396 0.019372
O O11 0.236991 0.375694 0.497630
O O12 0.367783 0.545411 0.616071
O O13 0.526633 0.397272 0.668738
O O14 0.000000 0.000000 0.500000
O O15 0.730968 0.978790 0.065770
O O16 0.500000 0.000000 0.000000
#
# Coordination Sequence:
#
# PCOD9031751 Si02
#       7
#     2   2   2   2   2   2   2
#     4  11  24  44  68 100 135 183 233 281 354 417
#     4  10  23  46  65 100 144 179 225 293 344 416
#     4  10  22  43  68 103 138 179 232 285 351 413
#     4  11  23  45  69 103 142 185 235 295 345 413
#     4  10  25  42  68  95 138 183 231 285 354 412
#     4  10  24  41  72 103 139 178 232 283 360 411
#     4  10  23  40  69 102 131 177 236 282 342 418
#
# _framework density 21.926373999999999
#
# number of rings (size 3 to 8) (size 9 to 14) (size 15 to 20)
#    0.000    1.714    1.429    0.857   12.000    5.143 
#    5.143    3.571    0.000    0.000    0.000    0.000 
#    0.000    0.000    0.000    0.000    0.000    0.000 
#
# Total GULP energy -77968.749791 kJ/mol
# GULP energy per Si atom -5569.196414 kJ/mol
# Density = 2.187647 g / cm^3
# Si number density = 21.926374 Si / 1000 Ang^3
#
#
#
# Elastic Constant Matrix: (Units=GPa)
#
#
# Indices 1 2 3 4 5 6 
#
# 1 119.1257 32.6015 45.7689 -2.2642 9.3977 -13.8566
# 2 32.6015 95.6176 44.4008 13.0468 -3.3384 11.4807
# 3 45.7689 44.4008 127.2625 3.0634 6.4790 -5.0860
# 4 -2.2642 13.0468 3.0634 46.8763 1.5792 2.0306
# 5 9.3977 -3.3384 6.4790 1.5792 36.1593 2.5791
# 6 -13.8566 11.4807 -5.0860 2.0306 2.5791 43.6465
#
#
#
# Elastic Compliance Matrix: (Units=1/GPa)
#
#
# Indices 1 2 3 4 5 6 
#
# 1 0.011063 -0.003452 -0.002484 0.001579 -0.003121 0.004242
# 2 -0.003452 0.014957 -0.004288 -0.003930 0.003615 -0.005561
# 3 -0.002484 -0.004288 0.010392 0.000382 -0.001746 0.001636
# 4 0.001579 -0.003930 0.000382 0.022513 -0.001871 0.000643
# 5 -0.003121 0.003615 -0.001746 -0.001871 0.029466 -0.003799
# 6 0.004242 -0.005561 0.001636 0.000643 -0.003799 0.026106
#
#
# Mechanical properties :
#
#
# Convention : Reuss Voigt Hill
#
# Bulk Modulus (GPa) = 62.64427 65.28313 63.96370
# Shear Modulus (GPa) = 35.64615 39.95207 37.79911
#
# Velocity S-wave (km/s) = 4.03640 4.27324 4.15650
# Velocity P-wave (km/s) = 7.09617 7.36110 7.22985
#
# Compressibility (1/GPa) = 0.01596315
#
# Stress axis : x y z
#
# Youngs Moduli (GPa) = 90.38933 66.85861 96.22480
#
# Poissons Ratio (x) = 0.23082 0.23901
# Poissons Ratio (y) = 0.31206 0.41265
# Poissons Ratio (z) = 0.22452 0.28672
#
# Static dielectric constant tensor:
#      x y z
#    x 1.974920 0.023720 -0.071560 
#    y 0.023720 2.071800 -0.116600 
#    z -0.071560 -0.116600 1.990290 
# 
# From -- ./inp_files/573327.got.cif
#   From: 2010.05.17/outbox.cif.g08.bks.cpg/sg2_287_cif.got.tgz:573327.got - 2010.06.03 11:33:40.
