data_PCOD9031021
_publ_section_title
;
Structure prediction by ZEFSAII (Michael W. Deem and Ramdas Pophale) SiO2 
 PCOD9031021
Probable space group: P -1
;
_chemical_formula_sum "Si O2"
_cell_formula_units_Z 14
_cell_length_a 8.032557
_cell_length_b 16.219963
_cell_length_c 5.558704
_cell_angle_alpha 75.560019
_cell_angle_beta 121.753380
_cell_angle_gamma 110.946502
_cell_volume 573.419806
_symmetry_space_group_name_H-M "P -1"
_symmetry_group_IT_number 2
_symmetry_cell_setting 'triclinic'
loop_
_space_group_symop_operation_xyz
x,y,z
-x,-y,-z
loop_
_atom_site_type_symbol
_atom_site_label
_atom_site_fract_x
_atom_site_fract_y
_atom_site_fract_z
Si Si1 0.844003 0.672360 0.808674
Si Si2 0.781789 0.100786 0.546912
Si Si3 0.715961 0.555669 0.409601
Si Si4 0.548216 0.371802 0.151385
Si Si5 0.857823 0.858288 0.498256
Si Si6 0.696284 0.918885 0.833996
Si Si7 0.895556 0.299447 0.614553
O O1 0.766116 0.574498 0.711032
O O2 0.667758 0.675359 0.859479
O O3 0.845859 0.754014 0.578837
O O4 0.065358 0.685288 0.082069
O O5 0.546654 0.095233 0.335548
O O6 0.893760 0.198077 0.658136
O O7 0.904034 0.091025 0.404275
O O8 0.792676 0.024326 0.796492
O O9 0.663204 0.459257 0.327471
O O10 0.921271 0.620518 0.406128
O O11 0.524719 0.594534 0.175858
O O12 0.694475 0.309761 0.326828
O O13 0.762515 0.880989 0.659573
O O14 0.755263 0.880818 0.157406
#
# Coordination Sequence:
#
# PCOD9031021 Si02
#       7
#     2   2   2   2   2   2   2
#     4  11  24  39  66  97 136 173 236 283 352 424
#     4  11  25  46  71 104 146 182 249 295 356 431
#     4  10  22  43  63  99 129 177 226 290 344 436
#     4  10  23  41  69  92 137 175 229 284 359 417
#     4  12  25  47  74 103 147 191 240 296 367 421
#     4  11  28  46  73 106 141 197 241 297 363 431
#     4  11  23  41  64  98 134 180 226 296 349 422
#
# _framework density 24.414921
#
# number of rings (size 3 to 8) (size 9 to 14) (size 15 to 20)
#    0.000    1.143    1.429    3.429    4.000    8.571 
#    0.000    0.000    0.000    0.000    0.000    0.000 
#    0.000    0.000    0.000    0.000    0.000    0.000 
#
# Total GULP energy -78184.801910 kJ/mol
# GULP energy per Si atom -5584.628708 kJ/mol
# Density = 2.435935 g / cm^3
# Si number density = 24.414921 Si / 1000 Ang^3
#
#
#
# Elastic Constant Matrix: (Units=GPa)
#
#
# Indices 1 2 3 4 5 6 
#
# 1 98.0558 -14.1375 33.1785 8.0377 2.8820 14.6740
# 2 -14.1375 61.0521 -0.9362 -4.1064 -8.5406 10.5580
# 3 33.1785 -0.9362 69.7039 2.5491 -4.5762 -9.2059
# 4 8.0377 -4.1064 2.5491 27.2787 -1.1652 -6.7675
# 5 2.8820 -8.5406 -4.5762 -1.1652 32.6966 -2.4165
# 6 14.6740 10.5580 -9.2059 -6.7675 -2.4165 37.4086
#
#
#
# Elastic Compliance Matrix: (Units=1/GPa)
#
#
# Indices 1 2 3 4 5 6 
#
# 1 0.016209 0.004794 -0.009072 -0.006093 -0.002492 -0.011207
# 2 0.004794 0.019302 -0.002811 -0.000020 0.003650 -0.007788
# 3 -0.009072 -0.002811 0.020093 0.003034 0.003731 0.010086
# 4 -0.006093 -0.000020 0.003034 0.040975 0.003212 0.010763
# 5 -0.002492 0.003650 0.003731 0.003212 0.032657 0.003556
# 6 -0.011207 -0.007788 0.010086 0.010763 0.003556 0.037985
#
#
# Mechanical properties :
#
#
# Convention : Reuss Voigt Hill
#
# Bulk Modulus (GPa) = 24.13893 29.44682 26.79288
# Shear Modulus (GPa) = 25.61395 33.52392 29.56893
#
# Velocity S-wave (km/s) = 3.24251 3.70954 3.48386
# Velocity P-wave (km/s) = 4.89152 5.51677 5.21353
#
# Compressibility (1/GPa) = 0.04142685
#
# Stress axis : x y z
#
# Youngs Moduli (GPa) = 61.69508 51.80692 49.76904
#
# Poissons Ratio (x) = -0.24836 0.45149
# Poissons Ratio (y) = -0.29576 0.13989
# Poissons Ratio (z) = 0.55968 0.14562
#
# Static dielectric constant tensor:
#      x y z
#    x 2.016660 -0.011370 -0.082680 
#    y -0.011370 1.931150 0.005410 
#    z -0.082680 0.005410 2.027310 
# 
# From -- ./inp_files/43958.got.cif
#   From: 2010.05.17/outbox.cif.g08.bks.cpg/sg2_22_cif.got.tgz:43958.got - 2010.06.03 11:33:40.
