data_PCOD9031870
_publ_section_title
;
Structure prediction by ZEFSAII (Michael W. Deem and Ramdas Pophale) SiO2 
 PCOD9031870
Probable space group: P -1
;
_chemical_formula_sum "Si O2"
_cell_formula_units_Z 16
_cell_length_a 9.813675
_cell_length_b 14.094426
_cell_length_c 14.205583
_cell_angle_alpha 32.222385
_cell_angle_beta 137.276419
_cell_angle_gamma 118.142457
_cell_volume 646.992472
_symmetry_space_group_name_H-M "P -1"
_symmetry_group_IT_number 2
_symmetry_cell_setting 'triclinic'
loop_
_space_group_symop_operation_xyz
x,y,z
-x,-y,-z
loop_
_atom_site_type_symbol
_atom_site_label
_atom_site_fract_x
_atom_site_fract_y
_atom_site_fract_z
Si Si1 0.978994 0.869845 0.242906
Si Si2 0.119146 0.074971 0.368150
Si Si3 0.696570 0.054367 0.130351
Si Si4 0.397444 0.685407 0.724472
Si Si5 0.544296 0.499677 0.411451
Si Si6 0.269055 0.258580 0.460685
Si Si7 0.943704 0.773570 0.109186
Si Si8 0.856950 0.625788 0.004972
O O1 0.201743 0.702071 0.540642
O O2 0.870827 0.808339 0.151281
O O3 0.815065 0.962946 0.168429
O O4 0.058991 0.028631 0.104877
O O5 0.221979 0.154882 0.434352
O O6 0.897669 0.051276 0.300652
O O7 0.289137 0.876960 0.573700
O O8 0.045341 0.238069 0.111525
O O9 0.615450 0.904567 0.264412
O O10 0.533618 0.279082 0.848060
O O11 0.500000 0.500000 0.000000
O O12 0.618517 0.679073 0.794419
O O13 0.500000 0.500000 0.500000
O O14 0.408175 0.381946 0.401206
O O15 0.801836 0.377886 0.629469
O O16 0.034371 0.407563 0.260501
O O17 0.829563 0.685653 0.050275
#
# Coordination Sequence:
#
# PCOD9031870 Si02
#       8
#     2   2   2   2   2   2   2   2
#     4  10  22  43  68  97 132 182 221 283 348 397
#     4  11  23  43  67 104 138 179 233 282 346 419
#     4  11  23  46  67  99 141 173 231 291 339 411
#     4  11  25  44  67 100 144 179 229 291 342 411
#     4  12  23  46  65  97 139 181 234 281 345 408
#     4  12  26  41  72 101 138 187 225 286 352 406
#     4  11  23  41  70  97 136 178 231 286 334 414
#     4  12  22  44  69  99 136 184 230 280 348 408
#
# _framework density 24.729807999999998
#
# number of rings (size 3 to 8) (size 9 to 14) (size 15 to 20)
#    0.000    0.750    6.250    2.625    1.750    2.500 
#    0.000    2.500    0.000    0.000    0.000    0.000 
#    0.000    0.000    0.000    0.000    0.000    0.000 
#
# Total GULP energy -89639.048640 kJ/mol
# GULP energy per Si atom -5602.440540 kJ/mol
# Density = 2.467352 g / cm^3
# Si number density = 24.729808 Si / 1000 Ang^3
#
#
#
# Elastic Constant Matrix: (Units=GPa)
#
#
# Indices 1 2 3 4 5 6 
#
# 1 27.7301 47.5366 46.3615 -0.6981 1.6892 -15.2387
# 2 47.5366 65.4555 9.4605 16.9965 -40.9324 -5.6458
# 3 46.3615 9.4605 171.4180 -18.4896 -14.0066 5.9682
# 4 -0.6981 16.9965 -18.4896 41.8811 4.0685 -5.7302
# 5 1.6892 -40.9324 -14.0066 4.0685 24.4932 22.3547
# 6 -15.2387 -5.6458 5.9682 -5.7302 22.3547 25.6860
#
#
#
# Elastic Compliance Matrix: (Units=1/GPa)
#
#
# Indices 1 2 3 4 5 6 
#
# 1 0.014289 0.008878 -0.002487 -0.009407 0.028504 -0.015899
# 2 0.008878 0.004354 -0.004077 -0.000192 -0.010412 0.016190
# 3 -0.002487 -0.004077 0.006759 0.005500 -0.005894 0.002415
# 4 -0.009407 -0.000192 0.005500 0.025843 0.001053 -0.002052
# 5 0.028504 -0.010412 -0.005894 0.001053 0.015103 0.003082
# 6 -0.015899 0.016190 0.002415 -0.002052 0.003082 0.029356
#
#
# Mechanical properties :
#
#
# Convention : Reuss Voigt Hill
#
# Bulk Modulus (GPa) = 33.29808 52.36897 42.83353
# Shear Modulus (GPa) = 49.46406 29.16174 39.31290
#
# Velocity S-wave (km/s) = 4.47719 3.43769 3.99143
# Velocity P-wave (km/s) = 6.34200 6.08107 6.21290
#
# Compressibility (1/GPa) = 0.03003176
#
# Stress axis : x y z
#
# Youngs Moduli (GPa) = 69.98593 229.66849 147.95695
#
# Poissons Ratio (x) = -2.03910 0.36790
# Poissons Ratio (y) = -0.62137 0.60318
# Poissons Ratio (z) = 0.17402 0.93630
#
# Static dielectric constant tensor:
#      x y z
#    x 2.138630 0.136630 -0.017290 
#    y 0.136630 2.091920 0.024920 
#    z -0.017290 0.024920 1.930610 
# 
# From -- ./inp_files/522198.got.cif
#   From: 2010.05.17/outbox.cif.g08.bks.cpg/sg2_262_cif.got.tgz:522198.got - 2010.06.03 11:33:40.
