data_PCOD9031927
_publ_section_title
;
Structure prediction by ZEFSAII (Michael W. Deem and Ramdas Pophale) SiO2 
 PCOD9031927
Probable space group: P -1
;
_chemical_formula_sum "Si O2"
_cell_formula_units_Z 14
_cell_length_a 8.114169
_cell_length_b 5.120824
_cell_length_c 13.404100
_cell_angle_alpha 95.590142
_cell_angle_beta 107.139342
_cell_angle_gamma 84.144196
_cell_volume 528.115358
_symmetry_space_group_name_H-M "P -1"
_symmetry_group_IT_number 2
_symmetry_cell_setting 'triclinic'
loop_
_space_group_symop_operation_xyz
x,y,z
-x,-y,-z
loop_
_atom_site_type_symbol
_atom_site_label
_atom_site_fract_x
_atom_site_fract_y
_atom_site_fract_z
Si Si1 0.420741 0.195183 0.075904
Si Si2 0.595064 0.738406 0.411328
Si Si3 0.854991 0.443668 0.056815
Si Si4 0.315794 0.798309 0.697696
Si Si5 0.859964 0.921358 0.832101
Si Si6 0.250089 0.450710 0.374204
Si Si7 0.962897 0.771395 0.268325
O O1 0.565265 0.237660 0.184819
O O2 0.270555 0.049654 0.099971
O O3 0.324703 0.462097 0.024017
O O4 0.500000 0.000000 0.000000
O O5 0.690172 0.490251 0.359820
O O6 0.406347 0.638720 0.396218
O O7 0.693690 0.747758 0.534102
O O8 0.599471 0.003651 0.358182
O O9 0.849967 0.611799 0.165874
O O10 0.944673 0.167353 0.101272
O O11 0.000000 0.500000 0.000000
O O12 0.138306 0.963836 0.701602
O O13 0.785663 0.706248 0.738722
O O14 0.881375 0.167237 0.776375
O O15 0.066287 0.611594 0.367226
#
# Coordination Sequence:
#
# PCOD9031927 Si02
#       7
#     2   2   2   2   2   2   2
#     4  11  21  43  67  99 139 184 234 289 348 402
#     4  11  27  48  73 104 139 186 234 292 346 414
#     4   9  21  40  62  93 136 180 234 278 340 409
#     4  12  27  46  69 108 146 178 238 291 344 413
#     4  10  22  43  68  99 138 180 236 280 346 428
#     4  10  24  45  75  97 140 184 232 283 357 414
#     4  11  24  42  68 101 142 186 227 292 346 424
#
# _framework density 26.509356
#
# number of rings (size 3 to 8) (size 9 to 14) (size 15 to 20)
#    0.000    1.429    2.857    0.857    6.000    4.571 
#    2.571    1.429    0.000    0.000    0.000    0.000 
#    0.000    0.000    0.000    0.000    0.000    0.000 
#
# Total GULP energy -78447.524464 kJ/mol
# GULP energy per Si atom -5603.394605 kJ/mol
# Density = 2.644902 g / cm^3
# Si number density = 26.509356 Si / 1000 Ang^3
#
#
#
# Elastic Constant Matrix: (Units=GPa)
#
#
# Indices 1 2 3 4 5 6 
#
# 1 119.5386 39.2705 57.4982 -6.1634 8.4613 -26.3521
# 2 39.2705 103.6907 51.5724 -2.5720 8.3918 -19.5624
# 3 57.4982 51.5724 140.2092 -10.2587 23.6905 -26.5717
# 4 -6.1634 -2.5720 -10.2587 49.0976 -17.1412 -7.7607
# 5 8.4613 8.3918 23.6905 -17.1412 41.9831 -9.2609
# 6 -26.3521 -19.5624 -26.5717 -7.7607 -9.2609 49.8921
#
#
#
# Elastic Compliance Matrix: (Units=1/GPa)
#
#
# Indices 1 2 3 4 5 6 
#
# 1 0.011522 -0.002010 -0.003347 0.001862 0.001635 0.004108
# 2 -0.002010 0.012475 -0.003417 0.000146 0.000362 0.002100
# 3 -0.003347 -0.003417 0.010878 0.000556 -0.004110 0.002009
# 4 0.001862 0.000146 0.000556 0.025937 0.011529 0.007511
# 5 0.001635 0.000362 -0.004110 0.011529 0.031884 0.006528
# 6 0.004108 0.002100 0.002009 0.007511 0.006528 0.026486
#
#
# Mechanical properties :
#
#
# Convention : Reuss Voigt Hill
#
# Bulk Modulus (GPa) = 57.71552 73.34674 65.53113
# Shear Modulus (GPa) = 35.08639 42.53437 38.81038
#
# Velocity S-wave (km/s) = 3.64201 4.00997 3.83041
# Velocity P-wave (km/s) = 6.28527 7.01200 6.65856
#
# Compressibility (1/GPa) = 0.01732636
#
# Stress axis : x y z
#
# Youngs Moduli (GPa) = 86.79355 80.15850 91.93193
#
# Poissons Ratio (x) = 0.16112 0.30770
# Poissons Ratio (y) = 0.17445 0.31414
# Poissons Ratio (z) = 0.29050 0.27391
#
# Static dielectric constant tensor:
#      x y z
#    x 2.134610 0.011150 -0.022700 
#    y 0.011150 2.092400 0.005670 
#    z -0.022700 0.005670 2.080340 
# 
# From -- ./inp_files/40191.got.cif
#   From: 2010.05.17/outbox.cif.g08.bks.cpg/sg2_21_cif.got.tgz:40191.got - 2010.06.03 11:33:40.
