data_PCOD9031614
_publ_section_title
;
Structure prediction by ZEFSAII (Michael W. Deem and Ramdas Pophale) SiO2 
 PCOD9031614
Probable space group: P -1
;
_chemical_formula_sum "Si O2"
_cell_formula_units_Z 15
_cell_length_a 5.189097
_cell_length_b 15.295317
_cell_length_c 12.068184
_cell_angle_alpha 45.674790
_cell_angle_beta 67.726777
_cell_angle_gamma 80.994979
_cell_volume 625.551996
_symmetry_space_group_name_H-M "P -1"
_symmetry_group_IT_number 2
_symmetry_cell_setting 'triclinic'
loop_
_space_group_symop_operation_xyz
x,y,z
-x,-y,-z
loop_
_atom_site_type_symbol
_atom_site_label
_atom_site_fract_x
_atom_site_fract_y
_atom_site_fract_z
Si Si1 0.960774 0.516734 0.203820
Si Si2 0.540159 0.692071 0.472855
Si Si3 0.245427 0.048794 0.758480
Si Si4 0.220431 0.060961 0.499544
Si Si5 0.000000 0.500000 0.000000
Si Si6 0.624553 0.656261 0.740454
Si Si7 0.712738 0.111750 0.920548
Si Si8 0.040734 0.630801 0.315891
O O1 0.172939 0.440701 0.164229
O O2 0.734284 0.411445 0.390196
O O3 0.084726 0.605684 0.201821
O O4 0.853088 0.576075 0.060096
O O5 0.499001 0.834623 0.370830
O O6 0.688709 0.665124 0.589591
O O7 0.742690 0.673724 0.354850
O O8 0.136363 0.037718 0.662043
O O9 0.004735 0.092365 0.834018
O O10 0.301016 0.923280 0.916376
O O11 0.284055 0.209007 0.343771
O O12 0.500000 0.000000 0.500000
O O13 0.000000 0.000000 0.500000
O O14 0.294085 0.611151 0.846709
O O15 0.719567 0.258508 0.778062
O O16 0.500000 0.000000 0.000000
O O17 0.000000 0.500000 0.500000
#
# Coordination Sequence:
#
# PCOD9031614 Si02
#       8
#     2   2   2   2   1   2   2   2
#     4  11  22  40  68  94 132 178 229 285 352 419
#     4   9  20  38  68  94 130 173 225 290 349 416
#     4   9  22  43  65  97 133 182 237 284 367 423
#     4  11  27  45  73 107 138 187 249 303 355 430
#     4  10  24  42  62  92 136 182 224 284 358 424
#     4  10  22  43  67  96 131 184 230 292 360 419
#     4  10  23  42  67  96 139 185 224 297 364 421
#     4  11  22  40  64 104 132 172 237 286 349 428
#
# _framework density 23.978823999999999
#
# number of rings (size 3 to 8) (size 9 to 14) (size 15 to 20)
#    0.000    1.867    1.333    0.800    9.333    1.067 
#    2.400    0.000    0.000    0.000    0.000    0.000 
#    0.000    0.000    0.000    0.000    0.000    0.000 
#
# Total GULP energy -83543.777674 kJ/mol
# GULP energy per Si atom -5569.585178 kJ/mol
# Density = 2.392425 g / cm^3
# Si number density = 23.978824 Si / 1000 Ang^3
#
#
#
# Elastic Constant Matrix: (Units=GPa)
#
#
# Indices 1 2 3 4 5 6 
#
# 1 89.2799 49.4669 30.7637 -14.4339 -12.2848 18.1882
# 2 49.4669 151.5169 64.6438 -11.9306 -1.6417 33.0446
# 3 30.7637 64.6438 108.9785 -1.9167 2.9342 14.8462
# 4 -14.4339 -11.9306 -1.9167 43.0530 5.6924 -4.1989
# 5 -12.2848 -1.6417 2.9342 5.6924 34.2443 -3.4976
# 6 18.1882 33.0446 14.8462 -4.1989 -3.4976 37.0976
#
#
#
# Elastic Compliance Matrix: (Units=1/GPa)
#
#
# Indices 1 2 3 4 5 6 
#
# 1 0.015509 -0.003155 -0.002152 0.003300 0.004730 -0.003112
# 2 -0.003155 0.011181 -0.004813 0.001339 -0.001063 -0.006435
# 3 -0.002152 -0.004813 0.012674 -0.001246 -0.001886 -0.000049
# 4 0.003300 0.001339 -0.001246 0.025042 -0.002781 0.000260
# 5 0.004730 -0.001063 -0.001886 -0.002781 0.031682 0.002055
# 6 -0.003112 -0.006435 -0.000049 0.000260 0.002055 0.034457
#
#
# Mechanical properties :
#
#
# Convention : Reuss Voigt Hill
#
# Bulk Modulus (GPa) = 52.28985 71.05823 61.67404
# Shear Modulus (GPa) = 31.81510 36.53905 34.17708
#
# Velocity S-wave (km/s) = 3.64648 3.90783 3.77941
# Velocity P-wave (km/s) = 6.29151 7.07528 6.69487
#
# Compressibility (1/GPa) = 0.01912417
#
# Stress axis : x y z
#
# Youngs Moduli (GPa) = 64.47892 89.44005 78.90293
#
# Poissons Ratio (x) = 0.28222 0.16977
# Poissons Ratio (y) = 0.20346 0.37973
# Poissons Ratio (z) = 0.13873 0.43044
#
# Static dielectric constant tensor:
#      x y z
#    x 1.428240 0.326120 -0.135660 
#    y 0.326120 2.197280 0.267370 
#    z -0.135660 0.267370 2.074820 
# 
# From -- ./inp_files/70339.got.cif
#   From: 2010.05.17/outbox.cif.g08.bks.cpg/sg2_36_cif.got.tgz:70339.got - 2010.06.03 11:33:40.
