data_PCOD9031806
_publ_section_title
;
Structure prediction by ZEFSAII (Michael W. Deem and Ramdas Pophale) SiO2 
 PCOD9031806
Probable space group: P -1
;
_chemical_formula_sum "Si O2"
_cell_formula_units_Z 16
_cell_length_a 13.820367
_cell_length_b 9.468141
_cell_length_c 8.089383
_cell_angle_alpha 103.293247
_cell_angle_beta 107.288157
_cell_angle_gamma 123.911088
_cell_volume 726.697579
_symmetry_space_group_name_H-M "P -1"
_symmetry_group_IT_number 2
_symmetry_cell_setting 'triclinic'
loop_
_space_group_symop_operation_xyz
x,y,z
-x,-y,-z
loop_
_atom_site_type_symbol
_atom_site_label
_atom_site_fract_x
_atom_site_fract_y
_atom_site_fract_z
Si Si1 0.721489 0.566756 0.402171
Si Si2 0.634489 0.580199 0.689043
Si Si3 0.978814 0.137524 0.448430
Si Si4 0.540771 0.187848 0.988096
Si Si5 0.209105 0.694892 0.044072
Si Si6 0.077574 0.754270 0.234938
Si Si7 0.564233 0.673495 0.208954
Si Si8 0.839380 0.036003 0.998960
O O1 0.720315 0.569411 0.600282
O O2 0.866896 0.654251 0.436145
O O3 0.686066 0.698857 0.361390
O O4 0.605783 0.354574 0.206491
O O5 0.500000 0.500000 0.500000
O O6 0.562544 0.426251 0.757800
O O7 0.720631 0.802669 0.849961
O O8 0.900800 0.155566 0.551702
O O9 0.916531 0.069848 0.215496
O O10 0.000000 0.000000 0.500000
O O11 0.659560 0.265531 0.936435
O O12 0.417842 0.158592 0.831141
O O13 0.500000 0.000000 0.000000
O O14 0.193351 0.750320 0.234563
O O15 0.206454 0.840428 0.972913
O O16 0.069752 0.467636 0.894920
O O17 0.079866 0.871981 0.113092
O O18 0.500000 0.500000 0.000000
#
# Coordination Sequence:
#
# PCOD9031806 Si02
#       8
#     2   2   2   2   2   2   2   2
#     4  10  23  42  64 100 137 173 225 294 341 408
#     4  10  22  43  68  93 137 175 230 287 349 409
#     4  12  25  39  67 104 139 178 237 282 347 421
#     4  11  23  41  72  98 134 182 236 283 346 421
#     4   9  21  43  66  96 144 180 230 294 342 415
#     4   9  21  45  64  97 145 180 230 288 346 413
#     4   9  22  40  66  93 131 177 223 279 353 386
#     4  10  24  41  70  99 135 185 228 278 359 407
#
# _framework density 22.017412
#
# number of rings (size 3 to 8) (size 9 to 14) (size 15 to 20)
#    0.750    1.250    1.250    0.750    8.750    3.500 
#    0.000    0.625    5.500    0.000    0.000    0.000 
#    0.000    0.000    0.000    0.000    0.000    0.000 
#
# Total GULP energy -89189.848239 kJ/mol
# GULP energy per Si atom -5574.365515 kJ/mol
# Density = 2.196730 g / cm^3
# Si number density = 22.017412 Si / 1000 Ang^3
#
#
#
# Elastic Constant Matrix: (Units=GPa)
#
#
# Indices 1 2 3 4 5 6 
#
# 1 66.8478 28.0769 39.7492 -9.7144 -7.3042 -1.5046
# 2 28.0769 110.8884 50.4021 2.6666 11.7974 -12.8074
# 3 39.7492 50.4021 115.5082 -9.8928 -2.9310 5.3603
# 4 -9.7144 2.6666 -9.8928 30.1709 8.5891 0.2637
# 5 -7.3042 11.7974 -2.9310 8.5891 28.8937 -5.5261
# 6 -1.5046 -12.8074 5.3603 0.2637 -5.5261 25.8989
#
#
#
# Elastic Compliance Matrix: (Units=1/GPa)
#
#
# Indices 1 2 3 4 5 6 
#
# 1 0.020634 -0.003250 -0.005317 0.003678 0.005250 0.001775
# 2 -0.003250 0.013722 -0.005541 -0.002744 -0.004883 0.006730
# 3 -0.005317 -0.005541 0.013452 0.003175 0.000226 -0.005817
# 4 0.003678 -0.002744 0.003175 0.038464 -0.009884 -0.004301
# 5 0.005250 -0.004883 0.000226 -0.009884 0.042222 0.006953
# 6 0.001775 0.006730 -0.005817 -0.004301 0.006953 0.044774
#
#
# Mechanical properties :
#
#
# Convention : Reuss Voigt Hill
#
# Bulk Modulus (GPa) = 51.03629 58.85565 54.94597
# Shear Modulus (GPa) = 24.03694 28.66044 26.34869
#
# Velocity S-wave (km/s) = 3.30771 3.61185 3.46312
# Velocity P-wave (km/s) = 6.14965 6.64706 6.40319
#
# Compressibility (1/GPa) = 0.01959390
#
# Stress axis : x y z
#
# Youngs Moduli (GPa) = 48.46415 72.87511 74.33694
#
# Poissons Ratio (x) = 0.23684 0.39523
# Poissons Ratio (y) = 0.15750 0.41187
# Poissons Ratio (z) = 0.25767 0.40377
#
# Static dielectric constant tensor:
#      x y z
#    x 1.820840 0.018350 -0.033150 
#    y 0.018350 1.847730 -0.040220 
#    z -0.033150 -0.040220 1.819960 
# 
# From -- ./inp_files/296114.got.cif
#   From: 2010.05.17/outbox.cif.g08.bks.cpg/sg2_149_cif.got.tgz:296114.got - 2010.06.03 11:33:40.
