data_PCOD9031450
_publ_section_title
;
Structure prediction by ZEFSAII (Michael W. Deem and Ramdas Pophale) SiO2 
 PCOD9031450
Probable space group: P -1
;
_chemical_formula_sum "Si O2"
_cell_formula_units_Z 16
_cell_length_a 10.060634
_cell_length_b 19.244216
_cell_length_c 13.508987
_cell_angle_alpha 146.899844
_cell_angle_beta 36.945025
_cell_angle_gamma 148.708964
_cell_volume 709.092546
_symmetry_space_group_name_H-M "P -1"
_symmetry_group_IT_number 2
_symmetry_cell_setting 'triclinic'
loop_
_space_group_symop_operation_xyz
x,y,z
-x,-y,-z
loop_
_atom_site_type_symbol
_atom_site_label
_atom_site_fract_x
_atom_site_fract_y
_atom_site_fract_z
Si Si1 0.120422 0.701172 0.450389
Si Si2 0.260661 0.361708 0.771087
Si Si3 0.754832 0.017047 0.157964
Si Si4 0.821264 0.169702 0.642871
Si Si5 0.832610 0.130204 0.036852
Si Si6 0.464080 0.366910 0.934464
Si Si7 0.962665 0.936194 0.335091
Si Si8 0.789979 0.412258 0.428500
O O1 0.153316 0.819782 0.654608
O O2 0.080943 0.751931 0.428171
O O3 0.387021 0.703657 0.285745
O O4 0.895396 0.530810 0.416812
O O5 0.185631 0.244218 0.766844
O O6 0.505650 0.370980 0.583145
O O7 0.011778 0.285332 0.753759
O O8 0.368187 0.531164 0.948090
O O9 0.694735 0.022012 0.084297
O O10 0.485113 0.891531 0.226141
O O11 0.000000 0.000000 0.000000
O O12 0.840250 0.021642 0.458551
O O13 0.771930 0.259803 0.226482
O O14 0.158228 0.235503 0.985497
O O15 0.799729 0.037296 0.845602
O O16 0.500000 0.500000 0.000000
O O17 0.000000 0.000000 0.500000
O O18 0.000000 0.500000 0.500000
#
# Coordination Sequence:
#
# PCOD9031450 Si02
#       8
#     2   2   2   2   2   2   2   2
#     4  12  24  43  68 101 137 179 235 284 341 414
#     4  11  23  44  67 100 139 177 230 286 347 410
#     4  12  25  44  68  99 136 178 233 282 334 414
#     4  11  26  44  66  94 143 190 219 277 354 418
#     4  12  22  39  72  99 131 173 237 286 336 393
#     4  12  21  39  73 100 129 178 230 289 346 397
#     4  10  22  43  66  97 138 184 224 275 341 420
#     4  12  22  40  69 107 134 172 231 304 329 392
#
# _framework density 22.564050999999999
#
# number of rings (size 3 to 8) (size 9 to 14) (size 15 to 20)
#    0.000    0.500    5.000    3.375    0.000    1.000 
#    0.000   16.250    0.000    0.000    0.000    0.000 
#    0.000    0.000    0.000    0.000    0.000    0.000 
#
# Total GULP energy -89519.388375 kJ/mol
# GULP energy per Si atom -5594.961773 kJ/mol
# Density = 2.251269 g / cm^3
# Si number density = 22.564051 Si / 1000 Ang^3
#
#
#
# Elastic Constant Matrix: (Units=GPa)
#
#
# Indices 1 2 3 4 5 6 
#
# 1 86.9734 23.1705 26.6805 3.3748 4.3477 -25.7870
# 2 23.1705 68.9700 10.4991 -10.9995 7.3892 -20.9186
# 3 26.6805 10.4991 163.4108 5.3660 -0.0334 -3.6733
# 4 3.3748 -10.9995 5.3660 40.3953 2.6775 12.7597
# 5 4.3477 7.3892 -0.0334 2.6775 38.6022 -4.8484
# 6 -25.7870 -20.9186 -3.6733 12.7597 -4.8484 48.2214
#
#
#
# Elastic Compliance Matrix: (Units=1/GPa)
#
#
# Indices 1 2 3 4 5 6 
#
# 1 0.015477 -0.003218 -0.001997 -0.004415 0.000171 0.007914
# 2 -0.003218 0.018043 -0.000658 0.003959 -0.002773 0.004730
# 3 -0.001997 -0.000658 0.006496 -0.000694 0.000324 -0.000643
# 4 -0.004415 0.003959 -0.000694 0.029296 -0.003397 -0.008790
# 5 0.000171 -0.002773 0.000324 -0.003397 0.026970 0.002524
# 6 0.007914 0.004730 -0.000643 -0.008790 0.002524 0.029552
#
#
# Mechanical properties :
#
#
# Convention : Reuss Voigt Hill
#
# Bulk Modulus (GPa) = 35.37273 48.89492 42.13383
# Shear Modulus (GPa) = 34.01265 42.71070 38.36167
#
# Velocity S-wave (km/s) = 3.88671 4.35543 4.12773
# Velocity P-wave (km/s) = 5.98771 6.85634 6.43670
#
# Compressibility (1/GPa) = 0.02827037
#
# Stress axis : x y z
#
# Youngs Moduli (GPa) = 64.61268 55.42232 153.93265
#
# Poissons Ratio (x) = 0.17832 0.30745
# Poissons Ratio (y) = 0.20789 0.10132
# Poissons Ratio (z) = 0.12905 0.03648
#
# Static dielectric constant tensor:
#      x y z
#    x 1.899610 0.040480 0.049780 
#    y 0.040480 1.841340 0.007550 
#    z 0.049780 0.007550 1.840910 
# 
# From -- ./inp_files/403321.got.cif
#   From: 2010.05.17/outbox.cif.g08.bks.cpg/sg2_202_cif.got.tgz:403321.got - 2010.06.03 11:33:40.
