data_PCOD9031486
_publ_section_title
;
Structure prediction by ZEFSAII (Michael W. Deem and Ramdas Pophale) SiO2 
 PCOD9031486
Probable space group: P -1
;
_chemical_formula_sum "Si O2"
_cell_formula_units_Z 14
_cell_length_a 13.387424
_cell_length_b 15.222710
_cell_length_c 4.863052
_cell_angle_alpha 98.696448
_cell_angle_beta 100.726393
_cell_angle_gamma 32.202702
_cell_volume 518.883732
_symmetry_space_group_name_H-M "P -1"
_symmetry_group_IT_number 2
_symmetry_cell_setting 'triclinic'
loop_
_space_group_symop_operation_xyz
x,y,z
-x,-y,-z
loop_
_atom_site_type_symbol
_atom_site_label
_atom_site_fract_x
_atom_site_fract_y
_atom_site_fract_z
Si Si1 0.429343 0.645702 0.156146
Si Si2 0.916487 0.300463 0.602605
Si Si3 0.175037 0.821105 0.633873
Si Si4 0.393282 0.359510 0.390553
Si Si5 0.714486 0.733371 0.001539
Si Si6 0.680178 0.007800 0.221129
Si Si7 0.167587 0.249554 0.444347
O O1 0.338702 0.695401 0.430651
O O2 0.569265 0.625408 0.280346
O O3 0.500000 0.500000 0.000000
O O4 0.261015 0.798386 0.941274
O O5 0.888799 0.233139 0.379818
O O6 0.720723 0.473552 0.720406
O O7 0.975599 0.339003 0.454078
O O8 0.099847 0.149122 0.817243
O O9 0.000000 0.000000 0.500000
O O10 0.268392 0.369944 0.210100
O O11 0.597931 0.163536 0.345083
O O12 0.488809 0.902124 0.013530
O O13 0.792261 0.750914 0.842759
O O14 0.812690 0.678916 0.314192
O O15 0.687589 0.930372 0.437686
#
# Coordination Sequence:
#
# PCOD9031486 Si02
#       7
#     2   2   2   2   2   2   2
#     4  12  26  50  76 104 150 192 242 303 380 429
#     4  10  23  44  69 106 140 179 242 295 352 428
#     4  12  27  50  77 110 144 195 246 309 367 444
#     4  10  23  44  71 104 137 191 232 298 353 437
#     4  10  22  43  68  97 142 184 235 282 362 421
#     4   8  21  41  65  98 137 181 234 284 354 416
#     4  10  22  43  67 100 139 187 227 297 347 427
#
# _framework density 26.980998
#
# number of rings (size 3 to 8) (size 9 to 14) (size 15 to 20)
#    1.714    0.000    1.429    2.571    0.000    3.429 
#    2.571    0.000    0.000    0.000    0.000    0.000 
#    0.000    0.000    0.000    0.000    0.000    0.000 
#
# Total GULP energy -78106.269978 kJ/mol
# GULP energy per Si atom -5579.019284 kJ/mol
# Density = 2.691959 g / cm^3
# Si number density = 26.980998 Si / 1000 Ang^3
#
#
#
# Elastic Constant Matrix: (Units=GPa)
#
#
# Indices 1 2 3 4 5 6 
#
# 1 75.3851 25.5278 57.7038 3.9873 27.6901 6.4305
# 2 25.5278 175.4143 39.4044 -4.1288 28.2004 -1.7807
# 3 57.7038 39.4044 144.5609 -2.8760 20.7955 -16.9157
# 4 3.9873 -4.1288 -2.8760 42.5789 0.6059 15.0806
# 5 27.6901 28.2004 20.7955 0.6059 50.8372 4.3372
# 6 6.4305 -1.7807 -16.9157 15.0806 4.3372 33.0778
#
#
#
# Elastic Compliance Matrix: (Units=1/GPa)
#
#
# Indices 1 2 3 4 5 6 
#
# 1 0.024467 -0.000121 -0.009489 0.000219 -0.008649 -0.008581
# 2 -0.000121 0.006508 -0.001305 0.000670 -0.003001 -0.000205
# 3 -0.009489 -0.001305 0.011991 -0.001454 0.000277 0.008533
# 4 0.000219 0.000670 -0.001454 0.028297 0.000942 -0.013775
# 5 -0.008649 -0.003001 0.000277 0.000942 0.026109 -0.002192
# 6 -0.008581 -0.000205 0.008533 -0.013775 -0.002192 0.042820
#
#
# Mechanical properties :
#
#
# Convention : Reuss Voigt Hill
#
# Bulk Modulus (GPa) = 47.31231 71.18136 59.24683
# Shear Modulus (GPa) = 29.57445 43.48042 36.52744
#
# Velocity S-wave (km/s) = 3.31436 4.01873 3.68342
# Velocity P-wave (km/s) = 5.67628 6.92625 6.33218
#
# Compressibility (1/GPa) = 0.02113615
#
# Stress axis : x y z
#
# Youngs Moduli (GPa) = 40.87194 153.66789 83.39883
#
# Poissons Ratio (x) = 0.01853 0.79137
# Poissons Ratio (y) = 0.00493 0.10881
# Poissons Ratio (z) = 0.38784 0.20049
#
# Static dielectric constant tensor:
#      x y z
#    x 2.167670 -0.061220 0.022850 
#    y -0.061220 2.235100 0.031880 
#    z 0.022850 0.031880 2.042690 
# 
# From -- ./inp_files/99453.got.cif
#   From: 2010.05.17/outbox.cif.g08.bks.cpg/sg2_50_cif.got.tgz:99453.got - 2010.06.03 11:33:40.
