data_PCOD9031709
_publ_section_title
;
Structure prediction by ZEFSAII (Michael W. Deem and Ramdas Pophale) SiO2 
 PCOD9031709
Probable space group: P -1
;
_chemical_formula_sum "Si O2"
_cell_formula_units_Z 16
_cell_length_a 8.972515
_cell_length_b 7.877969
_cell_length_c 11.926489
_cell_angle_alpha 91.225355
_cell_angle_beta 100.874844
_cell_angle_gamma 54.902519
_cell_volume 673.365452
_symmetry_space_group_name_H-M "P -1"
_symmetry_group_IT_number 2
_symmetry_cell_setting 'triclinic'
loop_
_space_group_symop_operation_xyz
x,y,z
-x,-y,-z
loop_
_atom_site_type_symbol
_atom_site_label
_atom_site_fract_x
_atom_site_fract_y
_atom_site_fract_z
Si Si1 0.832152 0.512879 0.413335
Si Si2 0.526905 0.681310 0.767165
Si Si3 0.518568 0.190341 0.490904
Si Si4 0.065080 0.029550 0.390637
Si Si5 0.664156 0.073454 0.031103
Si Si6 0.831649 0.697740 0.915403
Si Si7 0.389656 0.415666 0.817901
Si Si8 0.947660 0.136653 0.142318
O O1 0.665710 0.600612 0.481368
O O2 0.710859 0.643830 0.287260
O O3 0.000000 0.500000 0.500000
O O4 0.947667 0.280021 0.378690
O O5 0.464484 0.776329 0.636764
O O6 0.729602 0.628191 0.821159
O O7 0.500619 0.496107 0.771778
O O8 0.405771 0.844550 0.852044
O O9 0.500000 0.000000 0.500000
O O10 0.712382 0.109342 0.576479
O O11 0.003353 0.998977 0.261806
O O12 0.000000 0.000000 0.500000
O O13 0.528251 0.242891 0.922448
O O14 0.700647 0.857352 0.997374
O O15 0.860415 0.047419 0.051520
O O16 0.891815 0.829006 0.859328
O O17 0.000000 0.500000 0.000000
O O18 0.229380 0.620915 0.864694
#
# Coordination Sequence:
#
# PCOD9031709 Si02
#       8
#     2   2   2   2   2   2   2   2
#     4  11  25  46  72 106 136 192 236 289 354 412
#     4  11  25  45  68 103 133 177 232 285 348 415
#     4  12  25  46  72 102 145 184 239 291 348 419
#     4  11  24  45  71 104 144 183 235 290 346 419
#     4  11  23  45  71  99 135 186 222 280 360 411
#     4  12  25  42  64 102 138 172 229 281 338 418
#     4  10  23  44  74  95 139 176 228 289 346 418
#     4  10  22  43  68 100 138 177 227 283 346 412
#
# _framework density 23.761244000000001
#
# number of rings (size 3 to 8) (size 9 to 14) (size 15 to 20)
#    0.000    1.000    1.250    6.750    5.250    2.000 
#    6.750    0.000    0.000    0.000    0.000    0.000 
#    0.000    0.000    0.000    0.000    0.000    0.000 
#
# Total GULP energy -89361.062839 kJ/mol
# GULP energy per Si atom -5585.066427 kJ/mol
# Density = 2.370716 g / cm^3
# Si number density = 23.761244 Si / 1000 Ang^3
#
#
#
# Elastic Constant Matrix: (Units=GPa)
#
#
# Indices 1 2 3 4 5 6 
#
# 1 120.8972 10.5340 42.7831 -12.9066 20.8739 -13.5051
# 2 10.5340 73.7969 40.8827 -6.6724 9.4590 -19.0352
# 3 42.7831 40.8827 143.3865 -27.5247 22.7519 -9.3892
# 4 -12.9066 -6.6724 -27.5247 31.7636 -5.8612 3.4404
# 5 20.8739 9.4590 22.7519 -5.8612 51.7769 -5.8216
# 6 -13.5051 -19.0352 -9.3892 3.4404 -5.8216 35.7847
#
#
#
# Elastic Compliance Matrix: (Units=1/GPa)
#
#
# Indices 1 2 3 4 5 6 
#
# 1 0.009991 0.001215 -0.002432 0.001368 -0.002665 0.003214
# 2 0.001215 0.018541 -0.005177 -0.001203 -0.000731 0.008960
# 3 -0.002432 -0.005177 0.010755 0.007040 -0.002215 -0.001887
# 4 0.001368 -0.001203 0.007040 0.038213 0.000694 -0.001838
# 5 -0.002665 -0.000731 -0.002215 0.000694 0.021742 0.001494
# 6 0.003214 0.008960 -0.001887 -0.001838 0.001494 0.033849
#
#
# Mechanical properties :
#
#
# Convention : Reuss Voigt Hill
#
# Bulk Modulus (GPa) = 37.73544 58.49780 48.11662
# Shear Modulus (GPa) = 32.31795 40.12377 36.22086
#
# Velocity S-wave (km/s) = 3.69197 4.11374 3.90855
# Velocity P-wave (km/s) = 5.83864 6.87287 6.37676
#
# Compressibility (1/GPa) = 0.02650029
#
# Stress axis : x y z
#
# Youngs Moduli (GPa) = 100.08618 53.93311 92.97786
#
# Poissons Ratio (x) = -0.06554 0.22610
# Poissons Ratio (y) = -0.12163 0.48139
# Poissons Ratio (z) = 0.24338 0.27924
#
# Static dielectric constant tensor:
#      x y z
#    x 2.046650 -0.030150 -0.031010 
#    y -0.030150 1.878210 0.039860 
#    z -0.031010 0.039860 1.984400 
# 
# From -- ./inp_files/274417.got.cif
#   From: 2010.05.17/outbox.cif.g08.bks.cpg/sg2_138_cif.got.tgz:274417.got - 2010.06.03 11:33:40.
