data_PCOD9031961
_publ_section_title
;
Structure prediction by ZEFSAII (Michael W. Deem and Ramdas Pophale) SiO2 
 PCOD9031961
Probable space group: P -1
;
_chemical_formula_sum "Si O2"
_cell_formula_units_Z 14
_cell_length_a 8.149429
_cell_length_b 5.591705
_cell_length_c 19.702803
_cell_angle_alpha 54.416505
_cell_angle_beta 48.029636
_cell_angle_gamma 67.055534
_cell_volume 542.886044
_symmetry_space_group_name_H-M "P -1"
_symmetry_group_IT_number 2
_symmetry_cell_setting 'triclinic'
loop_
_space_group_symop_operation_xyz
x,y,z
-x,-y,-z
loop_
_atom_site_type_symbol
_atom_site_label
_atom_site_fract_x
_atom_site_fract_y
_atom_site_fract_z
Si Si1 0.308291 0.134364 0.229639
Si Si2 0.570214 0.194320 0.883560
Si Si3 0.119058 0.638946 0.634069
Si Si4 0.913210 0.665874 0.562071
Si Si5 0.920816 0.819755 0.987576
Si Si6 0.483790 0.004981 0.422817
Si Si7 0.274487 0.125825 0.752799
O O1 0.346024 0.488969 0.165434
O O2 0.054555 0.116362 0.330152
O O3 0.320999 0.010081 0.170497
O O4 0.508127 0.981344 0.245645
O O5 0.328807 0.248541 0.911894
O O6 0.500000 0.000000 0.000000
O O7 0.224932 0.471042 0.696056
O O8 0.961856 0.486425 0.646519
O O9 0.317596 0.725452 0.513390
O O10 0.656662 0.718650 0.610261
O O11 0.000000 0.500000 0.500000
O O12 0.000000 0.000000 0.500000
O O13 0.039499 0.005430 0.864017
O O14 0.000000 0.500000 0.000000
O O15 0.000000 0.000000 0.000000
O O16 0.500000 0.000000 0.500000
O O17 0.677830 0.968485 0.322546
#
# Coordination Sequence:
#
# PCOD9031961 Si02
#       7
#     2   2   2   2   2   2   2
#     4  12  27  49  78 116 152 204 255 320 387 460
#     4  12  26  50  78 111 153 199 260 322 387 455
#     4  11  26  49  75 115 154 206 257 315 382 463
#     4  10  22  43  69 100 147 192 246 306 362 434
#     4  12  25  48  76 111 151 197 254 320 383 452
#     4  11  25  46  75 116 156 205 258 315 383 461
#     4  12  25  47  77 111 156 203 260 312 391 456
#
# _framework density 25.788101000000001
#
# number of rings (size 3 to 8) (size 9 to 14) (size 15 to 20)
#    0.000    0.571    4.286    2.571    0.000    9.143 
#    0.000    0.000    0.000    0.000    0.000    0.000 
#    0.000    0.000    0.000    0.000    0.000    0.000 
#
# Total GULP energy -77950.135887 kJ/mol
# GULP energy per Si atom -5567.866849 kJ/mol
# Density = 2.572941 g / cm^3
# Si number density = 25.788101 Si / 1000 Ang^3
#
#
#
# Elastic Constant Matrix: (Units=GPa)
#
#
# Indices 1 2 3 4 5 6 
#
# 1 69.9576 46.5332 4.2249 7.9815 29.9296 -1.2576
# 2 46.5332 172.0314 68.9940 26.6558 10.8217 22.0812
# 3 4.2249 68.9940 151.5128 30.2091 11.9151 19.5908
# 4 7.9815 26.6558 30.2091 69.6325 -2.1625 1.7704
# 5 29.9296 10.8217 11.9151 -2.1625 44.9043 2.2202
# 6 -1.2576 22.0812 19.5908 1.7704 2.2202 50.7831
#
#
#
# Elastic Compliance Matrix: (Units=1/GPa)
#
#
# Indices 1 2 3 4 5 6 
#
# 1 0.027338 -0.008070 0.004388 -0.002584 -0.017731 0.003359
# 2 -0.008070 0.009884 -0.004023 -0.000905 0.004174 -0.003097
# 3 0.004388 -0.004023 0.009497 -0.003186 -0.004554 -0.001495
# 4 -0.002584 -0.000905 -0.003186 0.016475 0.003538 0.000830
# 5 -0.017731 0.004174 -0.004554 0.003538 0.034566 -0.002132
# 6 0.003359 -0.003097 -0.001495 0.000830 -0.002132 0.021762
#
#
# Mechanical properties :
#
#
# Convention : Reuss Voigt Hill
#
# Bulk Modulus (GPa) = 31.94022 70.33401 51.13711
# Shear Modulus (GPa) = 34.39500 51.31396 42.85448
#
# Velocity S-wave (km/s) = 3.65602 4.46559 4.08093
# Velocity P-wave (km/s) = 5.49859 7.34314 6.48676
#
# Compressibility (1/GPa) = 0.03130849
#
# Stress axis : x y z
#
# Youngs Moduli (GPa) = 36.57871 101.16873 105.30020
#
# Poissons Ratio (x) = 0.81641 -0.46204
# Poissons Ratio (y) = 0.29518 0.42367
# Poissons Ratio (z) = -0.16050 0.40705
#
# Static dielectric constant tensor:
#      x y z
#    x 5.962760 4.116330 -4.116790 
#    y 4.116330 6.549990 -4.578090 
#    z -4.116790 -4.578090 6.694890 
# 
# From -- ./inp_files/553220.got.cif
#   From: 2010.05.17/outbox.cif.g08.bks.cpg/sg2_277_cif.got.tgz:553220.got - 2010.06.03 11:33:40.
