data_PCOD9031812
_publ_section_title
;
Structure prediction by ZEFSAII (Michael W. Deem and Ramdas Pophale) SiO2 
 PCOD9031812
Probable space group: P -1
;
_chemical_formula_sum "Si O2"
_cell_formula_units_Z 16
_cell_length_a 10.159383
_cell_length_b 12.051740
_cell_length_c 12.287020
_cell_angle_alpha 145.569066
_cell_angle_beta 87.640467
_cell_angle_gamma 68.432947
_cell_volume 597.815726
_symmetry_space_group_name_H-M "P -1"
_symmetry_group_IT_number 2
_symmetry_cell_setting 'triclinic'
loop_
_space_group_symop_operation_xyz
x,y,z
-x,-y,-z
loop_
_atom_site_type_symbol
_atom_site_label
_atom_site_fract_x
_atom_site_fract_y
_atom_site_fract_z
Si Si1 0.999354 0.201876 0.732546
Si Si2 0.606745 0.310431 0.675550
Si Si3 0.601504 0.742354 0.492620
Si Si4 0.406254 0.315703 0.876353
Si Si5 0.465007 0.254434 0.250489
Si Si6 0.036633 0.374695 0.652295
Si Si7 0.939916 0.195761 0.331133
Si Si8 0.127052 0.114815 0.043278
O O1 0.013996 0.353097 0.761891
O O2 0.191659 0.972586 0.606067
O O3 0.000000 0.000000 0.500000
O O4 0.793030 0.448217 0.986606
O O5 0.437325 0.422669 0.697469
O O6 0.568566 0.232834 0.727630
O O7 0.604396 0.538144 0.897119
O O8 0.578901 0.727198 0.606882
O O9 0.786576 0.673505 0.412477
O O10 0.447698 0.051484 0.694690
O O11 0.282837 0.540714 0.433158
O O12 0.500000 0.000000 0.000000
O O13 0.659547 0.164959 0.162132
O O14 0.041856 0.170315 0.414306
O O15 0.872009 0.679962 0.853228
O O16 0.013511 0.245146 0.265398
O O17 0.964425 0.950773 0.085697
#
# Coordination Sequence:
#
# PCOD9031812 Si02
#       8
#     2   2   2   2   2   2   2   2
#     4  10  23  44  67  98 131 173 225 275 334 399
#     4  10  23  46  63  96 138 165 225 281 327 402
#     4  12  25  42  70  99 132 181 224 272 341 404
#     4  10  22  43  68  94 131 178 215 279 339 387
#     4  12  24  46  71 100 140 179 226 282 339 405
#     4  12  23  44  68  96 139 179 222 280 341 400
#     4  11  25  46  68  99 140 176 227 285 334 408
#     4  11  24  45  69 101 135 180 228 278 342 404
#
# _framework density 26.764099000000002
#
# number of rings (size 3 to 8) (size 9 to 14) (size 15 to 20)
#    0.000    1.000    3.750    2.625    0.000    3.500 
#    4.500    0.000    0.000    0.000    0.000    0.000 
#    0.000    0.000    0.000    0.000    0.000    0.000 
#
# Total GULP energy -89714.730063 kJ/mol
# GULP energy per Si atom -5607.170629 kJ/mol
# Density = 2.670318 g / cm^3
# Si number density = 26.764099 Si / 1000 Ang^3
#
#
#
# Elastic Constant Matrix: (Units=GPa)
#
#
# Indices 1 2 3 4 5 6 
#
# 1 124.7484 12.2060 26.7506 -2.1155 0.0640 -31.0665
# 2 12.2060 73.5586 17.5015 -9.8698 2.9972 1.5201
# 3 26.7506 17.5015 66.6570 6.3399 -14.6133 -9.6857
# 4 -2.1155 -9.8698 6.3399 40.1900 -10.3827 7.1455
# 5 0.0640 2.9972 -14.6133 -10.3827 57.1612 2.6125
# 6 -31.0665 1.5201 -9.6857 7.1455 2.6125 47.4544
#
#
#
# Elastic Compliance Matrix: (Units=1/GPa)
#
#
# Indices 1 2 3 4 5 6 
#
# 1 0.010371 -0.001151 -0.003128 -0.000674 -0.001164 0.006353
# 2 -0.001151 0.015659 -0.004751 0.004781 -0.001034 -0.002888
# 3 -0.003128 -0.004751 0.019148 -0.003632 0.004382 0.002318
# 4 -0.000674 0.004781 -0.003632 0.028758 0.004315 -0.005903
# 5 -0.001164 -0.001034 0.004382 0.004315 0.019525 -0.001559
# 6 0.006353 -0.002888 0.002318 -0.005903 -0.001559 0.026773
#
#
# Mechanical properties :
#
#
# Convention : Reuss Voigt Hill
#
# Bulk Modulus (GPa) = 36.87409 41.98666 39.43037
# Shear Modulus (GPa) = 33.93724 42.86152 38.39938
#
# Velocity S-wave (km/s) = 3.56478 4.00616 3.79190
# Velocity P-wave (km/s) = 5.54535 6.09269 5.82545
#
# Compressibility (1/GPa) = 0.02711932
#
# Stress axis : x y z
#
# Youngs Moduli (GPa) = 96.42463 63.86061 52.22578
#
# Poissons Ratio (x) = 0.07350 0.16334
# Poissons Ratio (y) = 0.11099 0.24810
# Poissons Ratio (z) = 0.30158 0.30337
#
# Static dielectric constant tensor:
#      x y z
#    x 2.059400 -0.034670 -0.027260 
#    y -0.034670 2.063480 0.056570 
#    z -0.027260 0.056570 2.097100 
# 
# From -- ./inp_files/505824.got.cif
#   From: 2010.05.17/outbox.cif.g08.bks.cpg/sg2_253_cif.got.tgz:505824.got - 2010.06.03 11:33:40.
