data_PCOD9031209
_publ_section_title
;
Structure prediction by ZEFSAII (Michael W. Deem and Ramdas Pophale) SiO2 
 PCOD9031209
Probable space group: P -1
;
_chemical_formula_sum "Si O2"
_cell_formula_units_Z 16
_cell_length_a 17.382812
_cell_length_b 11.734599
_cell_length_c 9.524917
_cell_angle_alpha 105.227728
_cell_angle_beta 133.532726
_cell_angle_gamma 40.149514
_cell_volume 749.760505
_symmetry_space_group_name_H-M "P -1"
_symmetry_group_IT_number 2
_symmetry_cell_setting 'triclinic'
loop_
_space_group_symop_operation_xyz
x,y,z
-x,-y,-z
loop_
_atom_site_type_symbol
_atom_site_label
_atom_site_fract_x
_atom_site_fract_y
_atom_site_fract_z
Si Si1 0.417603 0.101996 0.276796
Si Si2 0.744533 0.978865 0.626730
Si Si3 0.326288 0.637480 0.722624
Si Si4 0.781050 0.008534 0.369301
Si Si5 0.528703 0.860278 0.091246
Si Si6 0.110708 0.567826 0.131029
Si Si7 0.548012 0.565172 0.483959
Si Si8 0.890336 0.405962 0.525733
O O1 0.582271 0.034314 0.398821
O O2 0.219187 0.353727 0.133736
O O3 0.500000 0.000000 0.500000
O O4 0.415891 0.992141 0.137624
O O5 0.628002 0.181574 0.637911
O O6 0.817809 0.964819 0.567731
O O7 0.912926 0.770321 0.866255
O O8 0.423697 0.512532 0.658425
O O9 0.206255 0.634241 0.613167
O O10 0.204204 0.870241 0.623286
O O11 0.500000 0.500000 0.000000
O O12 0.917425 0.792180 0.385915
O O13 0.565785 0.163777 0.112508
O O14 0.745326 0.630259 0.337918
O O15 0.500000 0.000000 0.000000
O O16 0.257481 0.540668 0.275255
O O17 0.089927 0.580671 0.279054
O O18 0.500000 0.500000 0.500000
#
# Coordination Sequence:
#
# PCOD9031209 Si02
#       8
#     2   2   2   2   2   2   2   2
#     4  11  24  45  68  92 130 174 224 271 327 389
#     4  11  25  43  66  98 131 174 219 268 332 390
#     4  11  23  44  70  96 133 179 217 271 332 388
#     4  12  26  43  68  99 138 175 219 273 331 395
#     4  12  26  46  67  98 135 174 222 276 333 391
#     4  10  25  42  66  97 130 170 220 269 322 391
#     4  10  22  43  65  94 132 169 217 266 320 387
#     4  11  26  44  67 102 133 172 225 270 329 397
#
# _framework density 21.340149
#
# number of rings (size 3 to 8) (size 9 to 14) (size 15 to 20)
#    0.000    1.000    5.000    0.375    5.250    3.500 
#    0.000    0.000    0.000    0.000    0.000    0.000 
#    0.000    0.000    0.000    0.000    0.000    0.000 
#
# Total GULP energy -89449.580158 kJ/mol
# GULP energy per Si atom -5590.598760 kJ/mol
# Density = 2.129158 g / cm^3
# Si number density = 21.340149 Si / 1000 Ang^3
#
#
#
# Elastic Constant Matrix: (Units=GPa)
#
#
# Indices 1 2 3 4 5 6 
#
# 1 54.8834 -0.9489 7.5541 -10.1795 -8.2031 2.6954
# 2 -0.9489 108.6019 48.4019 -22.4196 -2.8508 -8.2042
# 3 7.5541 48.4019 115.2870 -19.6784 -11.9752 -7.5460
# 4 -10.1795 -22.4196 -19.6784 41.7537 3.1933 1.2710
# 5 -8.2031 -2.8508 -11.9752 3.1933 25.2259 -2.9362
# 6 2.6954 -8.2042 -7.5460 1.2710 -2.9362 37.1538
#
#
#
# Elastic Compliance Matrix: (Units=1/GPa)
#
#
# Indices 1 2 3 4 5 6 
#
# 1 0.020168 0.001560 -0.000580 0.005074 0.005705 -0.000959
# 2 0.001560 0.012289 -0.004392 0.004912 -0.000637 0.001490
# 3 -0.000580 -0.004392 0.011591 0.002552 0.004693 0.001710
# 4 0.005074 0.004912 0.002552 0.029038 -0.000233 0.000223
# 5 0.005705 -0.000637 0.004693 -0.000233 0.044136 0.003895
# 6 -0.000959 0.001490 0.001710 0.000223 0.003895 0.027961
#
#
# Mechanical properties :
#
#
# Convention : Reuss Voigt Hill
#
# Bulk Modulus (GPa) = 26.86524 43.19851 35.03188
# Shear Modulus (GPa) = 30.41066 35.74437 33.07751
#
# Velocity S-wave (km/s) = 3.77907 4.09709 3.94129
# Velocity P-wave (km/s) = 5.62656 6.53210 6.09617
#
# Compressibility (1/GPa) = 0.03722282
#
# Stress axis : x y z
#
# Youngs Moduli (GPa) = 49.58308 81.37506 86.27459
#
# Poissons Ratio (x) = -0.12691 0.05008
# Poissons Ratio (y) = -0.07733 0.37889
# Poissons Ratio (z) = 0.02878 0.35737
#
# Static dielectric constant tensor:
#      x y z
#    x 1.842240 0.033280 0.042050 
#    y 0.033280 1.796300 0.001670 
#    z 0.042050 0.001670 1.756110 
# 
# From -- ./inp_files/68532.got.cif
#   From: 2010.05.17/outbox.cif.g08.bks.cpg/sg2_35_cif.got.tgz:68532.got - 2010.06.03 11:33:40.
