data_PCOD9031907
_publ_section_title
;
Structure prediction by ZEFSAII (Michael W. Deem and Ramdas Pophale) SiO2 
 PCOD9031907
Probable space group: P -1
;
_chemical_formula_sum "Si O2"
_cell_formula_units_Z 16
_cell_length_a 12.584354
_cell_length_b 24.056155
_cell_length_c 12.234262
_cell_angle_alpha 31.758323
_cell_angle_beta 146.529030
_cell_angle_gamma 161.752192
_cell_volume 602.375733
_symmetry_space_group_name_H-M "P -1"
_symmetry_group_IT_number 2
_symmetry_cell_setting 'triclinic'
loop_
_space_group_symop_operation_xyz
x,y,z
-x,-y,-z
loop_
_atom_site_type_symbol
_atom_site_label
_atom_site_fract_x
_atom_site_fract_y
_atom_site_fract_z
Si Si1 0.408666 0.711312 0.397301
Si Si2 0.418943 0.190082 0.370017
Si Si3 0.843891 0.345977 0.271141
Si Si4 0.132208 0.286586 0.512296
Si Si5 0.535547 0.777412 0.064527
Si Si6 0.106247 0.238377 0.335523
Si Si7 0.095126 0.343341 0.924147
Si Si8 0.827412 0.057328 0.019754
O O1 0.546651 0.766855 0.545715
O O2 0.521395 0.650037 0.545106
O O3 0.627918 0.897170 0.207364
O O4 0.034576 0.595469 0.277581
O O5 0.729982 0.303817 0.367810
O O6 0.166957 0.975936 0.515583
O O7 0.217388 0.192173 0.131997
O O8 0.884882 0.240967 0.452499
O O9 0.192338 0.571829 0.171113
O O10 0.568869 0.259977 0.088668
O O11 0.500000 0.500000 0.500000
O O12 0.169584 0.178022 0.740261
O O13 0.090547 0.300113 0.327347
O O14 0.654429 0.939030 0.956934
O O15 0.004544 0.248517 0.120313
O O16 0.500000 0.500000 0.000000
O O17 0.875374 0.195064 0.882402
#
# Coordination Sequence:
#
# PCOD9031907 Si02
#       8
#     2   2   2   2   2   2   2   2
#     4  11  23  46  76  99 142 189 224 290 371 416
#     4  11  22  45  72 104 143 184 233 293 349 432
#     4  10  25  43  68 109 140 189 243 287 354 411
#     4  10  22  43  68  98 137 188 239 286 346 418
#     4  10  22  47  70  97 145 193 229 299 349 417
#     4  11  23  47  71  99 149 184 230 297 355 424
#     4  12  28  45  70 113 138 182 243 293 356 434
#     4  11  22  47  72 103 143 189 232 288 362 422
#
# _framework density 26.561495000000001
#
# number of rings (size 3 to 8) (size 9 to 14) (size 15 to 20)
#    0.000    1.250    5.000    1.125    1.750    4.500 
#    6.750    0.000    0.000    0.000    0.000    0.000 
#    0.000    0.000    0.000    0.000    0.000    0.000 
#
# Total GULP energy -89599.067394 kJ/mol
# GULP energy per Si atom -5599.941712 kJ/mol
# Density = 2.650104 g / cm^3
# Si number density = 26.561495 Si / 1000 Ang^3
#
#
#
# Elastic Constant Matrix: (Units=GPa)
#
#
# Indices 1 2 3 4 5 6 
#
# 1 163.7738 34.1689 34.0185 9.4376 4.4625 -19.8787
# 2 34.1689 64.5467 16.7025 5.6958 7.5082 -7.1258
# 3 34.0185 16.7025 92.5313 18.0094 9.0712 -2.0617
# 4 9.4376 5.6958 18.0094 38.6223 4.8602 3.1730
# 5 4.4625 7.5082 9.0712 4.8602 32.0065 8.1798
# 6 -19.8787 -7.1258 -2.0617 3.1730 8.1798 45.8459
#
#
#
# Elastic Compliance Matrix: (Units=1/GPa)
#
#
# Indices 1 2 3 4 5 6 
#
# 1 0.007551 -0.003067 -0.001996 -0.000645 -0.000391 0.002822
# 2 -0.003067 0.018292 -0.001572 -0.000912 -0.003839 0.002191
# 3 -0.001996 -0.001572 0.013051 -0.005092 -0.002342 0.000248
# 4 -0.000645 -0.000912 -0.005092 0.029007 -0.002073 -0.002288
# 5 -0.000391 -0.003839 -0.002342 -0.002073 0.034957 -0.006965
# 6 0.002822 0.002191 0.000248 -0.002288 -0.006965 0.024789
#
#
# Mechanical properties :
#
#
# Convention : Reuss Voigt Hill
#
# Bulk Modulus (GPa) = 39.02427 54.51461 46.76944
# Shear Modulus (GPa) = 33.45476 39.02575 36.24026
#
# Velocity S-wave (km/s) = 3.55282 3.83725 3.69777
# Velocity P-wave (km/s) = 5.61730 6.34044 5.98979
#
# Compressibility (1/GPa) = 0.02562508
#
# Stress axis : x y z
#
# Youngs Moduli (GPa) = 132.43827 54.66959 76.62466
#
# Poissons Ratio (x) = 0.16766 0.15292
# Poissons Ratio (y) = 0.40615 0.12042
# Poissons Ratio (z) = 0.26430 0.08592
#
# Static dielectric constant tensor:
#      x y z
#    x 2.083670 0.040680 0.092590 
#    y 0.040680 2.107150 0.041590 
#    z 0.092590 0.041590 2.107280 
# 
# From -- ./inp_files/439246.got.cif
#   From: 2010.05.17/outbox.cif.g08.bks.cpg/sg2_220_cif.got.tgz:439246.got - 2010.06.03 11:33:40.
