data_PCOD9031297
_publ_section_title
;
Structure prediction by ZEFSAII (Michael W. Deem and Ramdas Pophale) SiO2 
 PCOD9031297
Probable space group: P -1
;
_chemical_formula_sum "Si O2"
_cell_formula_units_Z 14
_cell_length_a 16.218988
_cell_length_b 12.575161
_cell_length_c 9.755377
_cell_angle_alpha 46.015938
_cell_angle_beta 123.924355
_cell_angle_gamma 153.212887
_cell_volume 633.365092
_symmetry_space_group_name_H-M "P -1"
_symmetry_group_IT_number 2
_symmetry_cell_setting 'triclinic'
loop_
_space_group_symop_operation_xyz
x,y,z
-x,-y,-z
loop_
_atom_site_type_symbol
_atom_site_label
_atom_site_fract_x
_atom_site_fract_y
_atom_site_fract_z
Si Si1 0.644544 0.483289 0.908108
Si Si2 0.794831 0.741314 0.102596
Si Si3 0.760756 0.484279 0.549369
Si Si4 0.592075 0.096726 0.149533
Si Si5 0.217419 0.005287 0.927173
Si Si6 0.712687 0.707109 0.502650
Si Si7 0.965608 0.422254 0.197168
O O1 0.425302 0.205375 0.918665
O O2 0.756760 0.722749 0.687068
O O3 0.666005 0.567688 0.005563
O O4 0.699965 0.382713 0.031301
O O5 0.772308 0.575542 0.331944
O O6 0.769203 0.852560 0.072695
O O7 0.000000 0.000000 0.000000
O O8 0.727977 0.572931 0.552278
O O9 0.938031 0.606438 0.639541
O O10 0.579231 0.152788 0.687484
O O11 0.744529 0.158958 0.246003
O O12 0.500000 0.000000 0.000000
O O13 0.172645 0.031988 0.716972
O O14 0.080227 0.703563 0.116169
O O15 0.500000 0.500000 0.500000
O O16 0.000000 0.500000 0.000000
#
# Coordination Sequence:
#
# PCOD9031297 Si02
#       7
#     2   2   2   2   2   2   2
#     4  11  20  42  69  95 134 183 222 279 331 399
#     4  11  26  46  64  94 139 181 229 273 332 405
#     4  11  24  46  67 102 137 176 225 276 338 399
#     4  12  22  42  71 101 138 171 223 283 339 392
#     4  10  22  43  66 101 135 171 229 279 334 395
#     4   9  20  38  72  99 130 176 224 276 336 392
#     4  12  23  40  72 103 134 175 221 284 335 398
#
# _framework density 22.104154999999999
#
# number of rings (size 3 to 8) (size 9 to 14) (size 15 to 20)
#    0.000    1.143    4.286    1.286    2.000    1.714 
#    7.714    5.000    0.000    0.000    0.000    0.000 
#    0.000    0.000    0.000    0.000    0.000    0.000 
#
# Total GULP energy -78286.638644 kJ/mol
# GULP energy per Si atom -5591.902760 kJ/mol
# Density = 2.205384 g / cm^3
# Si number density = 22.104155 Si / 1000 Ang^3
#
#
#
# Elastic Constant Matrix: (Units=GPa)
#
#
# Indices 1 2 3 4 5 6 
#
# 1 104.1617 26.4841 44.9941 13.5016 13.3252 7.8456
# 2 26.4841 75.6473 34.7056 8.4438 5.0096 5.4222
# 3 44.9941 34.7056 141.8672 11.4314 -8.4024 -13.6052
# 4 13.5016 8.4438 11.4314 30.1447 -2.3627 -4.5066
# 5 13.3252 5.0096 -8.4024 -2.3627 36.6581 2.6962
# 6 7.8456 5.4222 -13.6052 -4.5066 2.6962 47.4849
#
#
#
# Elastic Compliance Matrix: (Units=1/GPa)
#
#
# Indices 1 2 3 4 5 6 
#
# 1 0.013410 -0.001643 -0.004111 -0.004932 -0.005664 -0.003352
# 2 -0.001643 0.016137 -0.003590 -0.003024 -0.002423 -0.002749
# 3 -0.004111 -0.003590 0.009819 -0.000017 0.003964 0.003676
# 4 -0.004932 -0.003024 -0.000017 0.037236 0.004275 0.004447
# 5 -0.005664 -0.002423 0.003964 0.004275 0.030779 0.001006
# 6 -0.003352 -0.002749 0.003676 0.004447 0.001006 0.023345
#
#
# Mechanical properties :
#
#
# Convention : Reuss Voigt Hill
#
# Bulk Modulus (GPa) = 48.35890 59.33820 53.84855
# Shear Modulus (GPa) = 31.98842 37.22372 34.60607
#
# Velocity S-wave (km/s) = 3.80829 4.10813 3.96105
# Velocity P-wave (km/s) = 6.42360 7.02890 6.73305
#
# Compressibility (1/GPa) = 0.02067872
#
# Stress axis : x y z
#
# Youngs Moduli (GPa) = 74.56959 61.97120 101.83871
#
# Poissons Ratio (x) = 0.10183 0.41863
# Poissons Ratio (y) = 0.12253 0.36560
# Poissons Ratio (z) = 0.30653 0.22247
#
# Static dielectric constant tensor:
#      x y z
#    x 1.990370 -0.131950 0.169380 
#    y -0.131950 2.058190 -0.161430 
#    z 0.169380 -0.161430 1.995390 
# 
# From -- ./inp_files/187732.got.cif
#   From: 2010.05.17/outbox.cif.g08.bks.cpg/sg2_94_cif.got.tgz:187732.got - 2010.06.03 11:33:40.
