data_PCOD9031147
_publ_section_title
;
Structure prediction by ZEFSAII (Michael W. Deem and Ramdas Pophale) SiO2 
 PCOD9031147
Probable space group: P -1
;
_chemical_formula_sum "Si O2"
_cell_formula_units_Z 14
_cell_length_a 13.915795
_cell_length_b 5.040266
_cell_length_c 20.880729
_cell_angle_alpha 114.783491
_cell_angle_beta 21.658065
_cell_angle_gamma 112.119569
_cell_volume 490.364668
_symmetry_space_group_name_H-M "P -1"
_symmetry_group_IT_number 2
_symmetry_cell_setting 'triclinic'
loop_
_space_group_symop_operation_xyz
x,y,z
-x,-y,-z
loop_
_atom_site_type_symbol
_atom_site_label
_atom_site_fract_x
_atom_site_fract_y
_atom_site_fract_z
Si Si1 0.920457 0.672212 0.504694
Si Si2 0.696838 0.259617 0.410924
Si Si3 0.163426 0.432729 0.067663
Si Si4 0.018024 0.001648 0.304258
Si Si5 0.625830 0.271361 0.850732
Si Si6 0.541379 0.141835 0.329787
Si Si7 0.666776 0.490041 0.173581
O O1 0.626990 0.606129 0.667266
O O2 0.000000 0.500000 0.500000
O O3 0.123201 0.572076 0.315197
O O4 0.000000 0.000000 0.500000
O O5 0.537221 0.567948 0.550444
O O6 0.905099 0.258611 0.224269
O O7 0.500000 0.000000 0.500000
O O8 0.876997 0.197647 0.355700
O O9 0.111882 0.723028 0.172645
O O10 0.415010 0.248199 0.922057
O O11 0.201274 0.509788 0.977852
O O12 0.765093 0.944654 0.500760
O O13 0.261187 0.000157 0.204322
O O14 0.500000 0.500000 0.000000
O O15 0.725073 0.262293 0.171666
O O16 0.659934 0.819018 0.239330
#
# Coordination Sequence:
#
# PCOD9031147 Si02
#       7
#     2   2   2   2   2   2   2
#     4  12  25  42  66 104 152 205 244 288 364 453
#     4  11  26  51  79 107 143 200 262 319 379 447
#     4  10  25  42  72 111 154 196 245 312 374 454
#     4  10  22  45  73 104 147 194 251 304 377 442
#     4  10  22  43  65 110 147 191 241 298 366 442
#     4  11  24  44  77 107 148 199 247 314 372 457
#     4  12  24  45  71 111 158 195 247 305 383 452
#
# _framework density 28.550182
#
# number of rings (size 3 to 8) (size 9 to 14) (size 15 to 20)
#    0.000    1.143    4.286    0.857    2.000    2.857 
#    0.000    2.857    0.000    0.000    0.000    0.000 
#    0.000    0.000    0.000    0.000    0.000    0.000 
#
# Total GULP energy -78356.046444 kJ/mol
# GULP energy per Si atom -5596.860460 kJ/mol
# Density = 2.848520 g / cm^3
# Si number density = 28.550182 Si / 1000 Ang^3
#
#
#
# Elastic Constant Matrix: (Units=GPa)
#
#
# Indices 1 2 3 4 5 6 
#
# 1 111.5027 47.1857 67.1081 -7.9514 -9.1317 -4.3601
# 2 47.1857 127.4814 20.8995 -12.0035 -2.4911 -18.4636
# 3 67.1081 20.8995 195.7554 -37.6640 19.6499 -16.1569
# 4 -7.9514 -12.0035 -37.6640 48.0535 -12.2743 6.5009
# 5 -9.1317 -2.4911 19.6499 -12.2743 71.9018 -1.5920
# 6 -4.3601 -18.4636 -16.1569 6.5009 -1.5920 50.6433
#
#
#
# Elastic Compliance Matrix: (Units=1/GPa)
#
#
# Indices 1 2 3 4 5 6 
#
# 1 0.014061 -0.004763 -0.005100 -0.001939 0.002643 -0.001821
# 2 -0.004763 0.010096 0.001281 0.002242 -0.000147 0.003387
# 3 -0.005100 0.001281 0.008035 0.005034 -0.001898 0.001885
# 4 -0.001939 0.002242 0.005034 0.025854 0.002848 -0.000973
# 5 0.002643 -0.000147 -0.001898 0.002848 0.015236 -0.000318
# 6 -0.001821 0.003387 0.001885 -0.000973 -0.000318 0.021540
#
#
# Mechanical properties :
#
#
# Convention : Reuss Voigt Hill
#
# Bulk Modulus (GPa) = 66.55191 78.34735 72.44963
# Shear Modulus (GPa) = 42.73654 54.08948 48.41301
#
# Velocity S-wave (km/s) = 3.87317 4.35735 4.12238
# Velocity P-wave (km/s) = 6.58506 7.26753 6.93469
#
# Compressibility (1/GPa) = 0.01502586
#
# Stress axis : x y z
#
# Youngs Moduli (GPa) = 71.12049 99.04908 124.45764
#
# Poissons Ratio (x) = 0.47176 0.63479
# Poissons Ratio (y) = 0.33874 -0.15938
# Poissons Ratio (z) = 0.36275 -0.12684
#
# Static dielectric constant tensor:
#      x y z
#    x -1.188930 -5.238790 -1.677160 
#    y -5.238790 -0.874990 -0.274670 
#    z -1.677160 -0.274670 2.465520 
# 
# From -- ./inp_files/135774.got.cif
#   From: 2010.05.17/outbox.cif.g08.bks.cpg/sg2_68_cif.got.tgz:135774.got - 2010.06.03 11:33:40.
