data_PCOD9031190
_publ_section_title
;
Structure prediction by ZEFSAII (Michael W. Deem and Ramdas Pophale) SiO2 
 PCOD9031190
Probable space group: P -1
;
_chemical_formula_sum "Si O2"
_cell_formula_units_Z 16
_cell_length_a 8.664214
_cell_length_b 9.305325
_cell_length_c 14.567191
_cell_angle_alpha 39.426647
_cell_angle_beta 108.919194
_cell_angle_gamma 120.708003
_cell_volume 635.972329
_symmetry_space_group_name_H-M "P -1"
_symmetry_group_IT_number 2
_symmetry_cell_setting 'triclinic'
loop_
_space_group_symop_operation_xyz
x,y,z
-x,-y,-z
loop_
_atom_site_type_symbol
_atom_site_label
_atom_site_fract_x
_atom_site_fract_y
_atom_site_fract_z
Si Si1 0.763778 0.971705 0.403062
Si Si2 0.573833 0.564768 0.700067
Si Si3 0.016472 0.890694 0.348473
Si Si4 0.080660 0.753655 0.949674
Si Si5 0.204136 0.583174 0.572327
Si Si6 0.901041 0.551034 0.190917
Si Si7 0.568798 0.661147 0.026048
Si Si8 0.525683 0.893720 0.227401
O O1 0.730438 0.815294 0.566639
O O2 0.927599 0.961603 0.382751
O O3 0.586595 0.851980 0.361489
O O4 0.804974 0.258422 0.287518
O O5 0.395280 0.612915 0.630122
O O6 0.568023 0.473116 0.848397
O O7 0.560435 0.349595 0.732155
O O8 0.863322 0.617724 0.422371
O O9 0.190680 0.838499 0.420565
O O10 0.033724 0.092419 0.175135
O O11 0.282139 0.930768 0.870155
O O12 0.000000 0.500000 0.000000
O O13 0.064437 0.687549 0.085725
O O14 0.063789 0.453697 0.692842
O O15 0.759031 0.667049 0.089413
O O16 0.500000 0.500000 0.000000
O O17 0.580314 0.935207 0.876478
#
# Coordination Sequence:
#
# PCOD9031190 Si02
#       8
#     2   2   2   2   2   2   2   2
#     4  11  22  43  66  92 129 168 210 257 319 376
#     4  11  24  43  67  92 129 171 209 262 315 376
#     4  10  22  43  65  93 126 166 214 256 316 379
#     4  11  20  42  68  88 126 171 206 259 313 372
#     4  10  23  42  63  95 128 160 213 265 312 377
#     4  11  24  43  63  94 129 166 209 263 317 372
#     4  11  23  44  64  96 129 162 218 263 315 375
#     4  11  22  43  66  93 127 167 217 255 316 382
#
# _framework density 25.158327
#
# number of rings (size 3 to 8) (size 9 to 14) (size 15 to 20)
#    0.000    1.250    6.250    0.750    0.000    5.000 
#    9.000    0.000    0.000    0.000    0.000    0.000 
#    0.000    0.000    0.000    0.000    0.000    0.000 
#
# Total GULP energy -89697.300177 kJ/mol
# GULP energy per Si atom -5606.081261 kJ/mol
# Density = 2.510107 g / cm^3
# Si number density = 25.158327 Si / 1000 Ang^3
#
#
#
# Elastic Constant Matrix: (Units=GPa)
#
#
# Indices 1 2 3 4 5 6 
#
# 1 44.4252 31.9616 35.3202 -1.6293 19.9114 -16.5351
# 2 31.9616 91.4682 41.2502 3.6069 23.1424 -15.1803
# 3 35.3202 41.2502 120.5845 -4.3105 18.8054 -13.4599
# 4 -1.6293 3.6069 -4.3105 38.4884 -15.7653 6.2150
# 5 19.9114 23.1424 18.8054 -15.7653 56.8094 -3.1124
# 6 -16.5351 -15.1803 -13.4599 6.2150 -3.1124 31.8191
#
#
#
# Elastic Compliance Matrix: (Units=1/GPa)
#
#
# Indices 1 2 3 4 5 6 
#
# 1 0.043726 -0.006208 -0.007303 -0.005592 -0.011017 0.016686
# 2 -0.006208 0.016354 -0.002789 -0.004628 -0.004636 0.003847
# 3 -0.007303 -0.002789 0.011323 0.001445 0.000316 -0.000587
# 4 -0.005592 -0.004628 0.001445 0.032803 0.011937 -0.009742
# 5 -0.011017 -0.004636 0.000316 0.011937 0.026145 -0.007577
# 6 0.016686 0.003847 -0.000587 -0.009742 -0.007577 0.042847
#
#
# Mechanical properties :
#
#
# Convention : Reuss Voigt Hill
#
# Bulk Modulus (GPa) = 25.77211 52.61577 39.19394
# Shear Modulus (GPa) = 22.85888 35.28644 29.07266
#
# Velocity S-wave (km/s) = 3.01757 3.74916 3.40308
# Velocity P-wave (km/s) = 4.73362 6.30086 5.57261
#
# Compressibility (1/GPa) = 0.03880163
#
# Stress axis : x y z
#
# Youngs Moduli (GPa) = 22.86973 61.14771 88.31657
#
# Poissons Ratio (x) = 0.37963 0.64499
# Poissons Ratio (y) = 0.14198 0.24631
# Poissons Ratio (z) = 0.16702 0.17054
#
# Static dielectric constant tensor:
#      x y z
#    x 1.884810 0.142200 0.104490 
#    y 0.142200 1.857710 -0.071780 
#    z 0.104490 -0.071780 1.883050 
# 
# From -- ./inp_files/477494.got.cif
#   From: 2010.05.17/outbox.cif.g08.bks.cpg/sg2_239_cif.got.tgz:477494.got - 2010.06.03 11:33:40.
