data_PCOD9031116
_publ_section_title
;
Structure prediction by ZEFSAII (Michael W. Deem and Ramdas Pophale) SiO2 
 PCOD9031116
Probable space group: P -1
;
_chemical_formula_sum "Si O2"
_cell_formula_units_Z 16
_cell_length_a 22.182413
_cell_length_b 14.167722
_cell_length_c 5.062267
_cell_angle_alpha 85.702537
_cell_angle_beta 83.750039
_cell_angle_gamma 22.694827
_cell_volume 608.822209
_symmetry_space_group_name_H-M "P -1"
_symmetry_group_IT_number 2
_symmetry_cell_setting 'triclinic'
loop_
_space_group_symop_operation_xyz
x,y,z
-x,-y,-z
loop_
_atom_site_type_symbol
_atom_site_label
_atom_site_fract_x
_atom_site_fract_y
_atom_site_fract_z
Si Si1 0.637203 0.750993 0.333915
Si Si2 0.829429 0.279834 0.951719
Si Si3 0.988283 0.650697 0.852143
Si Si4 0.244424 0.135368 0.770078
Si Si5 0.818098 0.511801 0.827829
Si Si6 0.418343 0.361269 0.410065
Si Si7 0.270229 0.915947 0.438363
Si Si8 0.603446 0.444355 0.269145
O O1 0.672571 0.749063 0.038898
O O2 0.583931 0.717451 0.350819
O O3 0.500000 0.000000 0.500000
O O4 0.775392 0.562810 0.531404
O O5 0.842602 0.373303 0.978838
O O6 0.709351 0.372469 0.100853
O O7 0.757215 0.389216 0.670963
O O8 0.000000 0.000000 0.000000
O O9 0.133490 0.384802 0.705971
O O10 0.049289 0.608479 0.105766
O O11 0.892290 0.865536 0.684385
O O12 0.851369 0.773041 0.964198
O O13 0.429598 0.886320 0.784660
O O14 0.249930 0.047585 0.558414
O O15 0.436449 0.443978 0.460666
O O16 0.422508 0.690932 0.214905
O O17 0.304492 0.783252 0.660140
#
# Coordination Sequence:
#
# PCOD9031116 Si02
#       8
#     2   2   2   2   2   2   2   2
#     4  11  23  45  70 101 138 184 232 284 347 416
#     4  11  25  41  65  96 134 180 223 289 345 417
#     4  11  24  42  64 100 135 177 228 284 348 416
#     4  10  23  43  65  95 130 177 227 287 347 409
#     4  11  26  43  68 105 139 181 229 287 348 419
#     4  10  22  43  66  94 133 175 229 282 345 409
#     4  10  23  40  70  92 132 176 228 288 340 411
#     4  10  22  43  64  99 127 177 232 282 345 411
#
# _framework density 26.280252000000001
#
# number of rings (size 3 to 8) (size 9 to 14) (size 15 to 20)
#    0.000    1.500    1.250    2.250    5.250    2.500 
#    9.000    3.750    0.000    0.000    0.000    0.000 
#    0.000    0.000    0.000    0.000    0.000    0.000 
#
# Total GULP energy -89218.971998 kJ/mol
# GULP energy per Si atom -5576.185750 kJ/mol
# Density = 2.622044 g / cm^3
# Si number density = 26.280252 Si / 1000 Ang^3
#
#
#
# Elastic Constant Matrix: (Units=GPa)
#
#
# Indices 1 2 3 4 5 6 
#
# 1 100.5162 11.1427 10.3101 -11.9428 -9.6509 13.8464
# 2 11.1427 134.5815 10.4263 -23.7432 6.8530 -8.1033
# 3 10.3101 10.4263 59.7564 -8.6078 9.7252 -0.2620
# 4 -11.9428 -23.7432 -8.6078 25.8966 -9.0598 -1.9795
# 5 -9.6509 6.8530 9.7252 -9.0598 37.5404 -2.5419
# 6 13.8464 -8.1033 -0.2620 -1.9795 -2.5419 37.3041
#
#
#
# Elastic Compliance Matrix: (Units=1/GPa)
#
#
# Indices 1 2 3 4 5 6 
#
# 1 0.011873 -0.000252 -0.001939 0.005981 0.004785 -0.003832
# 2 -0.000252 0.009107 -0.000407 0.008505 0.000604 0.002561
# 3 -0.001939 -0.000407 0.018330 0.003364 -0.004317 0.000644
# 4 0.005981 0.008505 0.003364 0.054963 0.012610 0.003427
# 5 0.004785 0.000604 -0.004317 0.012610 0.031999 0.001175
# 6 -0.003832 0.002561 0.000644 0.003427 0.001175 0.029052
#
#
# Mechanical properties :
#
#
# Convention : Reuss Voigt Hill
#
# Bulk Modulus (GPa) = 29.31317 39.84582 34.57950
# Shear Modulus (GPa) = 29.08814 37.67989 33.38402
#
# Velocity S-wave (km/s) = 3.33054 3.79063 3.56800
# Velocity P-wave (km/s) = 5.09590 5.86117 5.49188
#
# Compressibility (1/GPa) = 0.03411435
#
# Stress axis : x y z
#
# Youngs Moduli (GPa) = 84.22235 109.80791 54.55480
#
# Poissons Ratio (x) = 0.02767 0.10575
# Poissons Ratio (y) = 0.02123 0.02223
# Poissons Ratio (z) = 0.16327 0.04474
#
# Static dielectric constant tensor:
#      x y z
#    x 2.206950 -0.034150 0.029480 
#    y -0.034150 2.153960 0.082620 
#    z 0.029480 0.082620 2.252730 
# 
# From -- ./inp_files/72302.got.cif
#   From: 2010.05.17/outbox.cif.g08.bks.cpg/sg2_37_cif.got.tgz:72302.got - 2010.06.03 11:33:40.
