data_PCOD9031719
_publ_section_title
;
Structure prediction by ZEFSAII (Michael W. Deem and Ramdas Pophale) SiO2 
 PCOD9031719
Probable space group: P -1
;
_chemical_formula_sum "Si O2"
_cell_formula_units_Z 16
_cell_length_a 14.056487
_cell_length_b 16.421921
_cell_length_c 5.258019
_cell_angle_alpha 110.097336
_cell_angle_beta 113.231557
_cell_angle_gamma 33.517407
_cell_volume 615.608763
_symmetry_space_group_name_H-M "P -1"
_symmetry_group_IT_number 2
_symmetry_cell_setting 'triclinic'
loop_
_space_group_symop_operation_xyz
x,y,z
-x,-y,-z
loop_
_atom_site_type_symbol
_atom_site_label
_atom_site_fract_x
_atom_site_fract_y
_atom_site_fract_z
Si Si1 0.614787 0.708607 0.791708
Si Si2 0.192541 0.686768 0.466647
Si Si3 0.170011 0.563318 0.932204
Si Si4 0.484076 0.378953 0.679249
Si Si5 0.186605 0.860002 0.914118
Si Si6 0.880922 0.654696 0.913734
Si Si7 0.839008 0.847674 0.414424
Si Si8 0.321325 0.961151 0.058112
O O1 0.752852 0.543670 0.861264
O O2 0.475272 0.738401 0.548767
O O3 0.527333 0.815271 0.052650
O O4 0.706587 0.718918 0.727001
O O5 0.147985 0.675178 0.135208
O O6 0.386153 0.520188 0.568655
O O7 0.174758 0.801181 0.603627
O O8 0.040679 0.745336 0.546550
O O9 0.986902 0.635366 0.785318
O O10 0.328053 0.455352 0.787016
O O11 0.661112 0.286397 0.906676
O O12 0.255714 0.908492 0.980712
O O13 0.000000 0.000000 0.000000
O O14 0.840195 0.750471 0.197457
O O15 0.000000 0.500000 0.000000
O O16 0.761617 0.950666 0.199248
O O17 0.731179 0.944496 0.656358
#
# Coordination Sequence:
#
# PCOD9031719 Si02
#       8
#     2   2   2   2   2   2   2   2
#     4  10  22  43  68 100 146 186 242 296 364 438
#     4  10  24  43  69 105 144 192 248 311 360 435
#     4   9  20  41  68 101 143 180 242 302 363 422
#     4  11  23  45  70 105 147 191 246 312 365 426
#     4  12  25  46  72 105 143 202 248 302 371 445
#     4   9  21  45  71 108 136 191 243 298 370 438
#     4  11  26  48  73 109 149 192 245 305 364 438
#     4  12  26  48  71 104 155 195 242 302 370 439
#
# _framework density 25.990532999999999
#
# number of rings (size 3 to 8) (size 9 to 14) (size 15 to 20)
#    0.000    1.500    2.500    1.875    3.500    2.500 
#    9.000    0.000    0.000    0.000    0.000    0.000 
#    0.000    0.000    0.000    0.000    0.000    0.000 
#
# Total GULP energy -89520.511620 kJ/mol
# GULP energy per Si atom -5595.031976 kJ/mol
# Density = 2.593138 g / cm^3
# Si number density = 25.990533 Si / 1000 Ang^3
#
#
#
# Elastic Constant Matrix: (Units=GPa)
#
#
# Indices 1 2 3 4 5 6 
#
# 1 118.3848 21.1895 10.6736 14.5788 8.1231 -6.9722
# 2 21.1895 98.9307 39.4866 31.3306 8.4622 11.2978
# 3 10.6736 39.4866 83.9293 16.0333 -6.4344 0.6584
# 4 14.5788 31.3306 16.0333 41.7283 -3.6270 -1.2207
# 5 8.1231 8.4622 -6.4344 -3.6270 31.3127 15.3873
# 6 -6.9722 11.2978 0.6584 -1.2207 15.3873 39.5998
#
#
#
# Elastic Compliance Matrix: (Units=1/GPa)
#
#
# Indices 1 2 3 4 5 6 
#
# 1 0.009517 -0.001005 -0.000603 -0.002615 -0.004392 0.003598
# 2 -0.001005 0.016956 -0.006213 -0.010542 -0.005249 -0.003197
# 3 -0.000603 -0.006213 0.015441 -0.000620 0.005257 -0.000652
# 4 -0.002615 -0.010542 -0.000620 0.033654 0.006837 0.000938
# 5 -0.004392 -0.005249 0.005257 0.006837 0.044434 -0.016418
# 6 0.003598 -0.003197 -0.000652 0.000938 -0.016418 0.033218
#
#
# Mechanical properties :
#
#
# Convention : Reuss Voigt Hill
#
# Bulk Modulus (GPa) = 38.06268 49.32714 43.69491
# Shear Modulus (GPa) = 28.15055 37.85451 33.00253
#
# Velocity S-wave (km/s) = 3.29463 3.82052 3.56728
# Velocity P-wave (km/s) = 5.39902 6.20338 5.81512
#
# Compressibility (1/GPa) = 0.02627245
#
# Stress axis : x y z
#
# Youngs Moduli (GPa) = 105.07973 58.97742 64.76280
#
# Poissons Ratio (x) = 0.05925 0.03905
# Poissons Ratio (y) = 0.10556 0.40236
# Poissons Ratio (z) = 0.06336 0.36642
#
# Static dielectric constant tensor:
#      x y z
#    x 2.071970 -0.040300 -0.027530 
#    y -0.040300 2.104170 -0.068230 
#    z -0.027530 -0.068230 2.040280 
# 
# From -- ./inp_files/99918.got.cif
#   From: 2010.05.17/outbox.cif.g08.bks.cpg/sg2_50_cif.got.tgz:99918.got - 2010.06.03 11:33:40.
