data_PCOD9031968
_publ_section_title
;
Structure prediction by ZEFSAII (Michael W. Deem and Ramdas Pophale) SiO2 
 PCOD9031968
Probable space group: P -1
;
_chemical_formula_sum "Si O2"
_cell_formula_units_Z 16
_cell_length_a 15.506165
_cell_length_b 20.555424
_cell_length_c 8.508608
_cell_angle_alpha 57.183678
_cell_angle_beta 112.570604
_cell_angle_gamma 160.444697
_cell_volume 680.893431
_symmetry_space_group_name_H-M "P -1"
_symmetry_group_IT_number 2
_symmetry_cell_setting 'triclinic'
loop_
_space_group_symop_operation_xyz
x,y,z
-x,-y,-z
loop_
_atom_site_type_symbol
_atom_site_label
_atom_site_fract_x
_atom_site_fract_y
_atom_site_fract_z
Si Si1 0.156682 0.057811 0.387293
Si Si2 0.558124 0.634491 0.409936
Si Si3 0.069356 0.842391 0.828023
Si Si4 0.104681 0.498597 0.122414
Si Si5 0.576476 0.018182 0.195638
Si Si6 0.500858 0.304514 0.006813
Si Si7 0.236112 0.435484 0.733404
Si Si8 0.014502 0.427114 0.518019
O O1 0.445753 0.330168 0.280216
O O2 0.254673 0.101216 0.229857
O O3 0.866572 0.877874 0.394295
O O4 0.097182 0.942741 0.619705
O O5 0.500000 0.500000 0.500000
O O6 0.587999 0.710818 0.178640
O O7 0.293552 0.457708 0.564061
O O8 0.782289 0.570093 0.928259
O O9 0.358417 0.019376 0.761685
O O10 0.003493 0.797038 0.027668
O O11 0.394650 0.695459 0.987742
O O12 0.858583 0.255218 0.185339
O O13 0.119970 0.509048 0.306603
O O14 0.000000 0.500000 0.000000
O O15 0.327654 0.854257 0.349737
O O16 0.500000 0.000000 0.000000
O O17 0.162684 0.469971 0.650624
O O18 0.000000 0.500000 0.500000
#
# Coordination Sequence:
#
# PCOD9031968 Si02
#       8
#     2   2   2   2   2   2   2   2
#     4  11  24  44  73  97 132 183 228 284 352 407
#     4  12  24  49  70 100 136 179 231 293 353 401
#     4  10  22  43  69 101 133 180 229 276 344 415
#     4  11  25  42  67 104 140 180 232 282 349 421
#     4  11  22  41  68  98 140 179 225 283 345 416
#     4  10  23  46  69 100 140 174 228 292 337 416
#     4  11  25  46  69  99 141 177 233 287 337 421
#     4  12  24  43  68  99 142 185 229 284 349 417
#
# _framework density 23.498539000000001
#
# number of rings (size 3 to 8) (size 9 to 14) (size 15 to 20)
#    0.000    1.000    3.750    2.625    5.250    0.500 
#    6.750    0.000    0.000    0.000    0.000    0.000 
#    0.000    0.000    0.000    0.000    0.000    0.000 
#
# Total GULP energy -89338.770041 kJ/mol
# GULP energy per Si atom -5583.673128 kJ/mol
# Density = 2.344506 g / cm^3
# Si number density = 23.498539 Si / 1000 Ang^3
#
#
#
# Elastic Constant Matrix: (Units=GPa)
#
#
# Indices 1 2 3 4 5 6 
#
# 1 119.5983 10.9512 53.5846 1.6228 -24.1661 20.7430
# 2 10.9512 64.8999 -10.6695 9.5276 -2.8572 8.2524
# 3 53.5846 -10.6695 133.8647 18.5853 -25.4741 7.8460
# 4 1.6228 9.5276 18.5853 34.3940 10.7819 -1.2828
# 5 -24.1661 -2.8572 -25.4741 10.7819 43.5163 -1.0350
# 6 20.7430 8.2524 7.8460 -1.2828 -1.0350 37.4237
#
#
#
# Elastic Compliance Matrix: (Units=1/GPa)
#
#
# Indices 1 2 3 4 5 6 
#
# 1 0.012033 -0.001960 -0.004027 0.000736 0.003889 -0.005260
# 2 -0.001960 0.018695 0.004834 -0.009493 0.005220 -0.004230
# 3 -0.004027 0.004834 0.012535 -0.010483 0.007978 -0.001601
# 4 0.000736 -0.009493 -0.010483 0.042795 -0.016839 0.004884
# 5 0.003889 0.005220 0.007978 -0.016839 0.034215 -0.004610
# 6 -0.005260 -0.004230 -0.001601 0.004884 -0.004610 0.030945
#
#
# Mechanical properties :
#
#
# Convention : Reuss Voigt Hill
#
# Bulk Modulus (GPa) = 24.41594 47.34393 35.87993
# Shear Modulus (GPa) = 29.90836 40.69991 35.30414
#
# Velocity S-wave (km/s) = 3.57147 4.16627 3.88028
# Velocity P-wave (km/s) = 5.23642 6.58294 5.94791
#
# Compressibility (1/GPa) = 0.04095686
#
# Stress axis : x y z
#
# Youngs Moduli (GPa) = 83.10365 53.48989 79.77710
#
# Poissons Ratio (x) = 0.10486 0.32124
# Poissons Ratio (y) = 0.16292 -0.38564
# Poissons Ratio (z) = 0.33464 -0.25857
#
# Static dielectric constant tensor:
#      x y z
#    x 4.382340 0.336380 0.457630 
#    y 0.336380 2.054530 -0.000530 
#    z 0.457630 -0.000530 2.020430 
# 
# From -- ./inp_files/319304.got.cif
#   From: 2010.05.17/outbox.cif.g08.bks.cpg/sg2_160_cif.got.tgz:319304.got - 2010.06.03 11:33:40.
