data_PCOD9031348
_publ_section_title
;
Structure prediction by ZEFSAII (Michael W. Deem and Ramdas Pophale) SiO2 
 PCOD9031348
Probable space group: P -1
;
_chemical_formula_sum "Si O2"
_cell_formula_units_Z 16
_cell_length_a 17.960447
_cell_length_b 11.647392
_cell_length_c 8.681547
_cell_angle_alpha 135.927507
_cell_angle_beta 82.051106
_cell_angle_gamma 131.108112
_cell_volume 733.353212
_symmetry_space_group_name_H-M "P -1"
_symmetry_group_IT_number 2
_symmetry_cell_setting 'triclinic'
loop_
_space_group_symop_operation_xyz
x,y,z
-x,-y,-z
loop_
_atom_site_type_symbol
_atom_site_label
_atom_site_fract_x
_atom_site_fract_y
_atom_site_fract_z
Si Si1 0.048801 0.674328 0.948855
Si Si2 0.210172 0.806625 0.274081
Si Si3 0.699647 0.723882 0.131527
Si Si4 0.132809 0.154346 0.567011
Si Si5 0.322414 0.551176 0.633072
Si Si6 0.558736 0.924650 0.411595
Si Si7 0.762946 0.937406 0.981667
Si Si8 0.606831 0.987971 0.101922
O O1 0.128514 0.672563 0.012271
O O2 0.094864 0.915283 0.264737
O O3 0.100075 0.781786 0.865767
O O4 0.898879 0.396353 0.758448
O O5 0.293203 0.117375 0.591383
O O6 0.319202 0.864241 0.307801
O O7 0.784253 0.732729 0.195403
O O8 0.556800 0.405552 0.834526
O O9 0.761135 0.897309 0.124002
O O10 0.220786 0.398926 0.651541
O O11 0.000000 0.000000 0.500000
O O12 0.285257 0.318864 0.328211
O O13 0.327306 0.724237 0.694374
O O14 0.460926 0.754533 0.862252
O O15 0.500000 0.000000 0.500000
O O16 0.606427 0.971696 0.270897
O O17 0.672526 0.935963 0.973125
#
# Coordination Sequence:
#
# PCOD9031348 Si02
#       8
#     2   2   2   2   2   2   2   2
#     4   9  23  42  66  97 125 178 224 261 327 402
#     4  10  22  43  66  91 132 171 222 266 321 400
#     4  11  23  42  66  96 130 171 222 267 341 387
#     4  10  22  43  68  91 135 178 218 272 327 397
#     4  10  23  43  64  99 133 172 228 264 332 405
#     4  12  25  40  66  99 133 169 221 279 330 393
#     4  11  23  42  67  98 135 171 216 278 335 391
#     4  11  23  41  67  96 133 177 216 278 334 388
#
# _framework density 21.817591
#
# number of rings (size 3 to 8) (size 9 to 14) (size 15 to 20)
#    0.000    1.500    2.500    1.500    1.750    6.500 
#    2.250    1.250    0.000    0.000    0.000    0.000 
#    0.000    0.000    0.000    0.000    0.000    0.000 
#
# Total GULP energy -89405.571385 kJ/mol
# GULP energy per Si atom -5587.848212 kJ/mol
# Density = 2.176793 g / cm^3
# Si number density = 21.817591 Si / 1000 Ang^3
#
#
#
# Elastic Constant Matrix: (Units=GPa)
#
#
# Indices 1 2 3 4 5 6 
#
# 1 80.0862 40.6455 17.7707 5.2241 3.4229 15.6421
# 2 40.6455 121.1480 23.7358 17.0964 3.2025 -4.1131
# 3 17.7707 23.7358 74.7318 15.6355 -0.3058 4.3800
# 4 5.2241 17.0964 15.6355 30.1229 3.6749 0.4299
# 5 3.4229 3.2025 -0.3058 3.6749 35.1954 4.9682
# 6 15.6421 -4.1131 4.3800 0.4299 4.9682 27.2129
#
#
#
# Elastic Compliance Matrix: (Units=1/GPa)
#
#
# Indices 1 2 3 4 5 6 
#
# 1 0.018209 -0.006328 -0.002002 0.001608 0.000195 -0.011162
# 2 -0.006328 0.011554 -0.001538 -0.004649 -0.000790 0.005849
# 3 -0.002002 -0.001538 0.015969 -0.007224 0.001483 -0.001809
# 4 0.001608 -0.004649 -0.007224 0.039787 -0.003897 -0.000381
# 5 0.000195 -0.000790 0.001483 -0.003897 0.029709 -0.005833
# 6 -0.011162 0.005849 -0.001809 -0.000381 -0.005833 0.045409
#
#
# Mechanical properties :
#
#
# Convention : Reuss Voigt Hill
#
# Bulk Modulus (GPa) = 38.46656 48.91889 43.69273
# Shear Modulus (GPa) = 26.44940 31.42718 28.93829
#
# Velocity S-wave (km/s) = 3.48558 3.79945 3.64589
# Velocity P-wave (km/s) = 5.81965 6.45896 6.14762
#
# Compressibility (1/GPa) = 0.02599661
#
# Stress axis : x y z
#
# Youngs Moduli (GPa) = 54.91708 86.54701 62.62044
#
# Poissons Ratio (x) = 0.54768 0.12534
# Poissons Ratio (y) = 0.34752 0.09634
# Poissons Ratio (z) = 0.10992 0.13315
#
# Static dielectric constant tensor:
#      x y z
#    x 1.878780 -0.018110 -0.009230 
#    y -0.018110 1.800710 -0.004970 
#    z -0.009230 -0.004970 1.806080 
# 
# From -- ./inp_files/298618.got.cif
#   From: 2010.05.17/outbox.cif.g08.bks.cpg/sg2_150_cif.got.tgz:298618.got - 2010.06.03 11:33:40.
