data_PCOD9031656
_publ_section_title
;
Structure prediction by ZEFSAII (Michael W. Deem and Ramdas Pophale) SiO2 
 PCOD9031656
Probable space group: P -1
;
_chemical_formula_sum "Si O2"
_cell_formula_units_Z 14
_cell_length_a 11.421595
_cell_length_b 9.260154
_cell_length_c 20.778066
_cell_angle_alpha 150.102435
_cell_angle_beta 37.000569
_cell_angle_gamma 123.527326
_cell_volume 583.025904
_symmetry_space_group_name_H-M "P -1"
_symmetry_group_IT_number 2
_symmetry_cell_setting 'triclinic'
loop_
_space_group_symop_operation_xyz
x,y,z
-x,-y,-z
loop_
_atom_site_type_symbol
_atom_site_label
_atom_site_fract_x
_atom_site_fract_y
_atom_site_fract_z
Si Si1 0.257544 0.709958 0.214299
Si Si2 0.708278 0.712975 0.529913
Si Si3 0.670341 0.383694 0.293604
Si Si4 0.078703 0.748400 0.527608
Si Si5 0.162489 0.725641 0.956345
Si Si6 0.825147 0.665535 0.784592
Si Si7 0.254425 0.023317 0.672695
O O1 0.196178 0.469611 0.188813
O O2 0.265803 0.962867 0.361025
O O3 0.100455 0.938878 0.314503
O O4 0.500000 0.500000 0.000000
O O5 0.747547 0.498526 0.366695
O O6 0.466798 0.805680 0.698719
O O7 0.909789 0.486715 0.400342
O O8 0.474072 0.722300 0.484141
O O9 0.842094 0.229946 0.101480
O O10 0.000000 0.500000 0.500000
O O11 0.244912 0.503958 0.306216
O O12 0.168527 0.905225 0.602669
O O13 0.927291 0.855858 0.143977
O O14 0.267659 0.947335 0.023698
O O15 0.286143 0.340214 0.766420
#
# Coordination Sequence:
#
# PCOD9031656 Si02
#       7
#     2   2   2   2   2   2   2
#     4  11  25  44  71 103 137 180 240 282 344 422
#     4  10  22  43  67  98 133 181 226 281 343 408
#     4  11  23  43  68  97 141 177 226 283 340 413
#     4  11  22  45  73  95 139 184 222 292 350 401
#     4  11  24  41  66  97 134 180 227 279 334 410
#     4  11  23  46  70  99 136 183 229 282 351 404
#     4  11  24  45  64 100 140 178 228 282 350 403
#
# _framework density 24.012654999999999
#
# number of rings (size 3 to 8) (size 9 to 14) (size 15 to 20)
#    0.000    1.143    2.857    3.857    4.000    2.857 
#    2.571    1.429    0.000    0.000    0.000    0.000 
#    0.000    0.000    0.000    0.000    0.000    0.000 
#
# Total GULP energy -78232.380323 kJ/mol
# GULP energy per Si atom -5588.027166 kJ/mol
# Density = 2.395800 g / cm^3
# Si number density = 24.012655 Si / 1000 Ang^3
#
#
#
# Elastic Constant Matrix: (Units=GPa)
#
#
# Indices 1 2 3 4 5 6 
#
# 1 120.8477 38.2887 56.2731 0.5215 12.8374 -11.1252
# 2 38.2887 129.5083 39.0135 13.3623 4.7445 -6.1865
# 3 56.2731 39.0135 76.1127 15.8274 20.4720 -0.1863
# 4 0.5215 13.3623 15.8274 55.2454 -2.8748 14.6825
# 5 12.8374 4.7445 20.4720 -2.8748 31.4573 -0.0977
# 6 -11.1252 -6.1865 -0.1863 14.6825 -0.0977 31.8009
#
#
#
# Elastic Compliance Matrix: (Units=1/GPa)
#
#
# Indices 1 2 3 4 5 6 
#
# 1 0.013585 -0.001004 -0.010425 0.002267 0.001610 0.003454
# 2 -0.001004 0.009500 -0.004219 -0.001584 0.001584 0.002209
# 3 -0.010425 -0.004219 0.028419 -0.007537 -0.014295 -0.000866
# 4 0.002267 -0.001584 -0.007537 0.023744 0.006356 -0.010502
# 5 0.001610 0.001584 -0.014295 0.006356 0.040771 -0.002022
# 6 0.003454 0.002209 -0.000866 -0.010502 -0.002022 0.037922
#
#
# Mechanical properties :
#
#
# Convention : Reuss Voigt Hill
#
# Bulk Modulus (GPa) = 49.48503 65.95770 57.72136
# Shear Modulus (GPa) = 26.04564 36.56027 31.30295
#
# Velocity S-wave (km/s) = 3.29699 3.90621 3.61446
# Velocity P-wave (km/s) = 5.92842 6.91897 6.44276
#
# Compressibility (1/GPa) = 0.02020813
#
# Stress axis : x y z
#
# Youngs Moduli (GPa) = 73.61304 105.26299 35.18810
#
# Poissons Ratio (x) = 0.10564 0.36684
# Poissons Ratio (y) = 0.07388 0.14845
# Poissons Ratio (z) = 0.76743 0.44408
#
# Static dielectric constant tensor:
#      x y z
#    x 1.924470 0.020780 0.013160 
#    y 0.020780 2.008280 -0.013770 
#    z 0.013160 -0.013770 1.935070 
# 
# From -- ./inp_files/594294.got.cif
#   From: 2010.05.17/outbox.cif.g08.bks.cpg/sg2_298_cif.got.tgz:594294.got - 2010.06.03 11:33:40.
