data_PCOD9031734
_publ_section_title
;
Structure prediction by ZEFSAII (Michael W. Deem and Ramdas Pophale) SiO2 
 PCOD9031734
Probable space group: P -1
;
_chemical_formula_sum "Si O2"
_cell_formula_units_Z 14
_cell_length_a 12.049442
_cell_length_b 9.571850
_cell_length_c 8.539792
_cell_angle_alpha 89.436021
_cell_angle_beta 83.782115
_cell_angle_gamma 36.194707
_cell_volume 573.147395
_symmetry_space_group_name_H-M "P -1"
_symmetry_group_IT_number 2
_symmetry_cell_setting 'triclinic'
loop_
_space_group_symop_operation_xyz
x,y,z
-x,-y,-z
loop_
_atom_site_type_symbol
_atom_site_label
_atom_site_fract_x
_atom_site_fract_y
_atom_site_fract_z
Si Si1 0.391831 0.736636 0.328337
Si Si2 0.114603 0.996142 0.136341
Si Si3 0.786368 0.675036 0.971573
Si Si4 0.376504 0.440319 0.422294
Si Si5 0.275741 0.015562 0.826293
Si Si6 0.061331 0.549547 0.362596
Si Si7 0.270888 0.589199 0.942613
O O1 0.197715 0.984774 0.276809
O O2 0.340941 0.642249 0.420125
O O3 0.514480 0.702832 0.429760
O O4 0.527388 0.577487 0.158335
O O5 0.201429 0.753469 0.097238
O O6 0.888496 0.217324 0.166789
O O7 0.177048 0.017779 0.971714
O O8 0.803492 0.664501 0.783357
O O9 0.663339 0.908232 0.086990
O O10 0.739072 0.563859 0.019263
O O11 0.000000 0.500000 0.000000
O O12 0.188486 0.542638 0.418551
O O13 0.537469 0.243567 0.270439
O O14 0.120801 0.207533 0.711892
O O15 0.000000 0.500000 0.500000
#
# Coordination Sequence:
#
# PCOD9031734 Si02
#       7
#     2   2   2   2   2   2   2
#     4  11  26  43  72 104 142 182 226 296 348 409
#     4  11  23  41  76 104 132 179 239 285 348 405
#     4  10  22  43  68 102 136 175 235 281 340 407
#     4  11  27  47  66 105 145 181 233 282 354 417
#     4  11  25  46  70 105 136 181 237 285 342 419
#     4  11  26  47  71  96 147 186 222 288 351 411
#     4  11  22  42  74 103 137 177 233 292 342 407
#
# _framework density 24.426527
#
# number of rings (size 3 to 8) (size 9 to 14) (size 15 to 20)
#    0.000    1.143    4.286    1.286    8.000    3.429 
#    0.000    2.857    0.000    0.000    0.000    0.000 
#    0.000    0.000    0.000    0.000    0.000    0.000 
#
# Total GULP energy -78388.009714 kJ/mol
# GULP energy per Si atom -5599.143551 kJ/mol
# Density = 2.437093 g / cm^3
# Si number density = 24.426527 Si / 1000 Ang^3
#
#
#
# Elastic Constant Matrix: (Units=GPa)
#
#
# Indices 1 2 3 4 5 6 
#
# 1 159.6220 30.0616 44.5435 -25.0522 7.0804 1.2596
# 2 30.0616 58.5721 5.5332 -5.7824 4.4747 -0.6172
# 3 44.5435 5.5332 82.3008 -22.7823 12.7861 -4.0050
# 4 -25.0522 -5.7824 -22.7823 34.5195 -5.2712 5.5272
# 5 7.0804 4.4747 12.7861 -5.2712 38.2424 -5.2228
# 6 1.2596 -0.6172 -4.0050 5.5272 -5.2228 44.9669
#
#
#
# Elastic Compliance Matrix: (Units=1/GPa)
#
#
# Indices 1 2 3 4 5 6 
#
# 1 0.008468 -0.003717 -0.003488 0.003435 0.000373 -0.000978
# 2 -0.003717 0.019102 0.001312 0.001069 -0.001819 0.000141
# 3 -0.003488 0.001312 0.016839 0.008168 -0.003992 0.000148
# 4 0.003435 0.001069 0.008168 0.037833 0.001195 -0.003866
# 5 0.000373 -0.001819 -0.003992 0.001195 0.028165 0.002734
# 6 -0.000978 0.000141 0.000148 -0.003866 0.002734 0.023074
#
#
# Mechanical properties :
#
#
# Convention : Reuss Voigt Hill
#
# Bulk Modulus (GPa) = 30.65139 51.19684 40.92411
# Shear Modulus (GPa) = 32.02230 38.23622 35.12926
#
# Velocity S-wave (km/s) = 3.62465 3.96075 3.79642
# Velocity P-wave (km/s) = 5.48572 6.47470 6.00062
#
# Compressibility (1/GPa) = 0.03262495
#
# Stress axis : x y z
#
# Youngs Moduli (GPa) = 118.08657 52.34940 59.38701
#
# Poissons Ratio (x) = 0.19456 0.20716
# Poissons Ratio (y) = 0.43887 -0.07795
# Poissons Ratio (z) = 0.41191 -0.06871
#
# Static dielectric constant tensor:
#      x y z
#    x 1.942130 0.021470 0.065760 
#    y 0.021470 2.011570 -0.002450 
#    z 0.065760 -0.002450 1.956910 
# 
# From -- ./inp_files/183784.got.cif
#   From: 2010.05.17/outbox.cif.g08.bks.cpg/sg2_92_cif.got.tgz:183784.got - 2010.06.03 11:33:40.
