data_PCOD9031392
_publ_section_title
;
Structure prediction by ZEFSAII (Michael W. Deem and Ramdas Pophale) SiO2 
 PCOD9031392
Probable space group: P -1
;
_chemical_formula_sum "Si O2"
_cell_formula_units_Z 12
_cell_length_a 11.827913
_cell_length_b 6.180082
_cell_length_c 9.526794
_cell_angle_alpha 125.895969
_cell_angle_beta 113.744647
_cell_angle_gamma 77.337414
_cell_volume 516.241402
_symmetry_space_group_name_H-M "P -1"
_symmetry_group_IT_number 2
_symmetry_cell_setting 'triclinic'
loop_
_space_group_symop_operation_xyz
x,y,z
-x,-y,-z
loop_
_atom_site_type_symbol
_atom_site_label
_atom_site_fract_x
_atom_site_fract_y
_atom_site_fract_z
Si Si1 0.625431 0.890429 0.383100
Si Si2 0.452960 0.575948 0.351603
Si Si3 0.844344 0.156529 0.123287
Si Si4 0.135532 0.886392 0.546925
Si Si5 0.947039 0.592460 0.858632
Si Si6 0.583380 0.992830 0.903526
O O1 0.577858 0.630573 0.344515
O O2 0.513241 0.943543 0.241461
O O3 0.619685 0.148961 0.581235
O O4 0.755379 0.913300 0.377859
O O5 0.500000 0.500000 0.500000
O O6 0.373004 0.313923 0.177695
O O7 0.851577 0.162919 0.298751
O O8 0.885035 0.872846 0.969964
O O9 0.938208 0.360928 0.173104
O O10 0.701221 0.185561 0.025170
O O11 0.138948 0.621587 0.349667
O O12 0.000000 0.000000 0.500000
O O13 0.000000 0.500000 0.000000
O O14 0.500000 0.000000 0.000000
#
# Coordination Sequence:
#
# PCOD9031392 Si02
#       6
#     2   2   2   2   2   2
#     4  10  22  43  66  95 129 169 218 267 330 388
#     4   9  21  41  64  96 128 170 211 267 328 390
#     4  11  25  46  68  99 133 174 226 271 332 393
#     4  12  24  45  70  98 133 175 224 273 330 394
#     4  11  25  46  69  97 134 179 220 274 329 395
#     4  11  22  40  66  95 129 165 212 271 326 387
#
# _framework density 23.244938999999999
#
# number of rings (size 3 to 8) (size 9 to 14) (size 15 to 20)
#    0.000    1.333    3.333    1.500    0.000    7.333 
#    6.000    0.000    0.000    0.000    0.000    0.000 
#    0.000    0.000    0.000    0.000    0.000    0.000 
#
# Total GULP energy -67012.637670 kJ/mol
# GULP energy per Si atom -5584.386473 kJ/mol
# Density = 2.319203 g / cm^3
# Si number density = 23.244939 Si / 1000 Ang^3
#
#
#
# Elastic Constant Matrix: (Units=GPa)
#
#
# Indices 1 2 3 4 5 6 
#
# 1 161.3052 44.4126 39.3166 -16.1435 21.4305 46.2506
# 2 44.4126 73.6633 22.5645 -8.0340 3.8758 40.8812
# 3 39.3166 22.5645 98.1764 -7.5717 -2.0000 15.6414
# 4 -16.1435 -8.0340 -7.5717 29.0734 6.0414 -8.8747
# 5 21.4305 3.8758 -2.0000 6.0414 45.1633 5.3735
# 6 46.2506 40.8812 15.6414 -8.8747 5.3735 57.3433
#
#
#
# Elastic Compliance Matrix: (Units=1/GPa)
#
#
# Indices 1 2 3 4 5 6 
#
# 1 0.009636 -0.001691 -0.002498 0.003660 -0.004444 -0.004902
# 2 -0.001691 0.023511 -0.002342 0.000369 0.000385 -0.014738
# 3 -0.002498 -0.002342 0.011752 0.000797 0.001748 0.000438
# 4 0.003660 0.000369 0.000797 0.039292 -0.007387 0.003341
# 5 -0.004444 0.000385 0.001748 -0.007387 0.025365 -0.000687
# 6 -0.004902 -0.014738 0.000438 0.003341 -0.000687 0.032362
#
#
# Mechanical properties :
#
#
# Convention : Reuss Voigt Hill
#
# Bulk Modulus (GPa) = 31.40947 60.63693 46.02320
# Shear Modulus (GPa) = 30.19468 41.43941 35.81704
#
# Velocity S-wave (km/s) = 3.60804 4.22682 3.92963
# Velocity P-wave (km/s) = 5.55869 7.06852 6.35858
#
# Compressibility (1/GPa) = 0.03183753
#
# Stress axis : x y z
#
# Youngs Moduli (GPa) = 103.77572 42.53245 85.09551
#
# Poissons Ratio (x) = 0.07192 0.21253
# Poissons Ratio (y) = 0.17549 0.19931
# Poissons Ratio (z) = 0.25918 0.09962
#
# Static dielectric constant tensor:
#      x y z
#    x 1.899700 -0.118650 -0.021100 
#    y -0.118650 1.911260 0.197490 
#    z -0.021100 0.197490 1.851820 
# 
# From -- ./inp_files/27424.got.cif
#   From: 2010.05.17/outbox.cif.g08.bks.cpg/sg2_14_cif.got.tgz:27424.got - 2010.06.03 11:33:40.
