data_PCOD9031059
_publ_section_title
;
Structure prediction by ZEFSAII (Michael W. Deem and Ramdas Pophale) SiO2 
 PCOD9031059
Probable space group: P -1
;
_chemical_formula_sum "Si O2"
_cell_formula_units_Z 10
_cell_length_a 13.510813
_cell_length_b 5.881693
_cell_length_c 13.435063
_cell_angle_alpha 106.860066
_cell_angle_beta 150.345483
_cell_angle_gamma 94.367573
_cell_volume 364.386641
_symmetry_space_group_name_H-M "P -1"
_symmetry_group_IT_number 2
_symmetry_cell_setting 'triclinic'
loop_
_space_group_symop_operation_xyz
x,y,z
-x,-y,-z
loop_
_atom_site_type_symbol
_atom_site_label
_atom_site_fract_x
_atom_site_fract_y
_atom_site_fract_z
Si Si1 0.270521 0.510897 0.793857
Si Si2 0.723816 0.975460 0.688824
Si Si3 0.267835 0.773976 0.632579
Si Si4 0.742943 0.583880 0.918143
Si Si5 0.664662 0.007467 0.864190
O O1 0.204856 0.512098 0.621572
O O2 0.982930 0.250910 0.569135
O O3 0.500000 0.500000 0.000000
O O4 0.438341 0.874720 0.030817
O O5 0.551436 0.652248 0.428631
O O6 0.500000 0.000000 0.500000
O O7 0.760934 0.971656 0.838334
O O8 0.004334 0.265983 0.915324
O O9 0.339472 0.758769 0.581360
O O10 0.730988 0.344816 0.950138
O O11 0.775458 0.886242 0.018992
#
# Coordination Sequence:
#
# PCOD9031059 Si02
#       5
#     2   2   2   2   2
#     4  10  22  45  67  90 132 167 209 270 345 394
#     4  10  22  43  64  92 133 180 213 264 325 378
#     4  10  24  40  66  99 124 168 218 271 326 396
#     4  11  25  41  66  91 137 175 214 266 324 377
#     4  11  24  43  65 101 128 170 226 267 315 394
#
# _framework density 27.443376000000001
#
# number of rings (size 3 to 8) (size 9 to 14) (size 15 to 20)
#    0.000    1.600    0.000    4.200    2.800    9.600 
#    0.000    0.000    0.000    0.000    0.000    0.000 
#    0.000    0.000    0.000    0.000    0.000    0.000 
#
# Total GULP energy -55787.269915 kJ/mol
# GULP energy per Si atom -5578.726992 kJ/mol
# Density = 2.738091 g / cm^3
# Si number density = 27.443376 Si / 1000 Ang^3
#
#
#
# Elastic Constant Matrix: (Units=GPa)
#
#
# Indices 1 2 3 4 5 6 
#
# 1 164.1081 67.2452 54.2074 6.1948 55.0686 17.8263
# 2 67.2452 218.0314 27.6385 -10.2682 27.1080 -20.7776
# 3 54.2074 27.6385 127.7036 14.9671 25.3891 8.5329
# 4 6.1948 -10.2682 14.9671 33.4495 -3.4751 15.3850
# 5 55.0686 27.1080 25.3891 -3.4751 71.0381 3.8227
# 6 17.8263 -20.7776 8.5329 15.3850 3.8227 47.4673
#
#
#
# Elastic Compliance Matrix: (Units=1/GPa)
#
#
# Indices 1 2 3 4 5 6 
#
# 1 0.010392 -0.002556 -0.002334 -0.000472 -0.006056 -0.003961
# 2 -0.002556 0.005818 -0.000462 0.000924 -0.000206 0.003307
# 3 -0.002334 -0.000462 0.009762 -0.004498 -0.001751 0.000518
# 4 -0.000472 0.000924 -0.004498 0.037858 0.004076 -0.011209
# 5 -0.006056 -0.000206 -0.001751 0.004076 0.019698 -0.000408
# 6 -0.003961 0.003307 0.000518 -0.011209 -0.000408 0.027575
#
#
# Mechanical properties :
#
#
# Convention : Reuss Voigt Hill
#
# Bulk Modulus (GPa) = 65.49931 89.78057 77.63994
# Shear Modulus (GPa) = 39.40197 54.44111 46.92154
#
# Velocity S-wave (km/s) = 3.79325 4.45878 4.13941
# Velocity P-wave (km/s) = 6.56535 7.70022 7.15532
#
# Compressibility (1/GPa) = 0.01526734
#
# Stress axis : x y z
#
# Youngs Moduli (GPa) = 96.22481 171.88932 102.43653
#
# Poissons Ratio (x) = 0.43936 0.23909
# Poissons Ratio (y) = 0.24596 0.04736
# Poissons Ratio (z) = 0.22459 0.07948
#
# Static dielectric constant tensor:
#      x y z
#    x 2.288710 -0.005810 -0.192520 
#    y -0.005810 2.252320 0.010540 
#    z -0.192520 0.010540 2.217110 
# 
# From -- ./inp_files/5894.got.cif
#   From: 2010.05.17/outbox.cif.g08.bks.cpg/sg2_3_cif.got.tgz:5894.got - 2010.06.03 11:33:40.
