data_PCOD9031310
_publ_section_title
;
Structure prediction by ZEFSAII (Michael W. Deem and Ramdas Pophale) SiO2 
 PCOD9031310
Probable space group: P -1
;
_chemical_formula_sum "Si O2"
_cell_formula_units_Z 14
_cell_length_a 14.783955
_cell_length_b 5.355120
_cell_length_c 12.067770
_cell_angle_alpha 105.194199
_cell_angle_beta 36.289171
_cell_angle_gamma 99.181839
_cell_volume 543.459959
_symmetry_space_group_name_H-M "P -1"
_symmetry_group_IT_number 2
_symmetry_cell_setting 'triclinic'
loop_
_space_group_symop_operation_xyz
x,y,z
-x,-y,-z
loop_
_atom_site_type_symbol
_atom_site_label
_atom_site_fract_x
_atom_site_fract_y
_atom_site_fract_z
Si Si1 0.938346 0.802911 0.125027
Si Si2 0.712960 0.032777 0.695450
Si Si3 0.321829 0.674242 0.437591
Si Si4 0.956697 0.601109 0.432306
Si Si5 0.567013 0.286491 0.053042
Si Si6 0.170110 0.765852 0.065763
Si Si7 0.319817 0.512284 0.668154
O O1 0.758981 0.759035 0.291597
O O2 0.012500 0.887168 0.177597
O O3 0.000000 0.500000 0.000000
O O4 0.000000 0.000000 0.000000
O O5 0.684642 0.065228 0.597217
O O6 0.878557 0.898367 0.545592
O O7 0.587990 0.843622 0.833931
O O8 0.658234 0.295785 0.847805
O O9 0.178853 0.545063 0.506537
O O10 0.491990 0.534015 0.224441
O O11 0.288246 0.655485 0.598134
O O12 0.000000 0.500000 0.500000
O O13 0.101032 0.577989 0.203152
O O14 0.694163 0.120969 0.984961
O O15 0.255033 0.653002 0.859345
O O16 0.500000 0.500000 0.500000
#
# Coordination Sequence:
#
# PCOD9031310 Si02
#       7
#     2   2   2   2   2   2   2
#     4  10  24  47  71 107 149 199 252 316 378 460
#     4  10  24  44  68 100 139 188 247 305 380 444
#     4  11  22  44  71  97 144 181 239 304 369 451
#     4  11  25  44  68  99 139 182 242 302 368 445
#     4  10  22  43  66 102 138 187 243 303 377 443
#     4  11  23  43  69 102 141 188 245 305 379 451
#     4  11  23  46  73 110 148 200 252 306 389 458
#
# _framework density 25.760867999999999
#
# number of rings (size 3 to 8) (size 9 to 14) (size 15 to 20)
#    0.000    1.429    2.857    1.286    0.000    8.000 
#    5.143    3.571    0.000    0.000    0.000    0.000 
#    0.000    0.000    0.000    0.000    0.000    0.000 
#
# Total GULP energy -78069.622193 kJ/mol
# GULP energy per Si atom -5576.401585 kJ/mol
# Density = 2.570224 g / cm^3
# Si number density = 25.760868 Si / 1000 Ang^3
#
#
#
# Elastic Constant Matrix: (Units=GPa)
#
#
# Indices 1 2 3 4 5 6 
#
# 1 183.6919 15.8695 59.1001 -18.0942 8.6617 -19.1499
# 2 15.8695 77.2924 46.9765 -7.5252 10.5026 -22.2521
# 3 59.1001 46.9765 200.1669 -1.6261 30.2918 -12.2967
# 4 -18.0942 -7.5252 -1.6261 35.8368 -3.9265 7.6642
# 5 8.6617 10.5026 30.2918 -3.9265 65.7481 -19.6465
# 6 -19.1499 -22.2521 -12.2967 7.6642 -19.6465 32.2456
#
#
#
# Elastic Compliance Matrix: (Units=1/GPa)
#
#
# Indices 1 2 3 4 5 6 
#
# 1 0.006686 0.001241 -0.002190 0.002798 0.001334 0.004140
# 2 0.001241 0.019072 -0.004448 0.001852 0.003013 0.013598
# 3 -0.002190 -0.004448 0.006967 -0.001358 -0.003310 -0.003407
# 4 0.002798 0.001852 -0.001358 0.030677 0.000413 -0.004618
# 5 0.001334 0.003013 -0.003310 0.000413 0.020238 0.013842
# 6 0.004140 0.013598 -0.003407 -0.004618 0.013842 0.051086
#
#
# Mechanical properties :
#
#
# Convention : Reuss Voigt Hill
#
# Bulk Modulus (GPa) = 45.59780 78.33817 61.96798
# Shear Modulus (GPa) = 32.71619 49.37979 41.04799
#
# Velocity S-wave (km/s) = 3.56757 4.38294 3.99610
# Velocity P-wave (km/s) = 5.89142 7.48928 6.73788
#
# Compressibility (1/GPa) = 0.02193088
#
# Stress axis : x y z
#
# Youngs Moduli (GPa) = 149.57683 52.43269 143.53517
#
# Poissons Ratio (x) = -0.06509 0.31436
# Poissons Ratio (y) = -0.18568 0.63845
# Poissons Ratio (z) = 0.32759 0.23322
#
# Static dielectric constant tensor:
#      x y z
#    x 2.043870 -0.018430 -0.035470 
#    y -0.018430 2.267740 0.133050 
#    z -0.035470 0.133050 2.180210 
# 
# From -- ./inp_files/441149.got.cif
#   From: 2010.05.17/outbox.cif.g08.bks.cpg/sg2_221_cif.got.tgz:441149.got - 2010.06.03 11:33:40.
