data_PCOD9031126
_publ_section_title
;
Structure prediction by ZEFSAII (Michael W. Deem and Ramdas Pophale) SiO2 
 PCOD9031126
Probable space group: P -1
;
_chemical_formula_sum "Si O2"
_cell_formula_units_Z 14
_cell_length_a 8.675726
_cell_length_b 10.758509
_cell_length_c 8.287379
_cell_angle_alpha 85.460928
_cell_angle_beta 54.657698
_cell_angle_gamma 113.221396
_cell_volume 528.924946
_symmetry_space_group_name_H-M "P -1"
_symmetry_group_IT_number 2
_symmetry_cell_setting 'triclinic'
loop_
_space_group_symop_operation_xyz
x,y,z
-x,-y,-z
loop_
_atom_site_type_symbol
_atom_site_label
_atom_site_fract_x
_atom_site_fract_y
_atom_site_fract_z
Si Si1 0.116035 0.149608 0.696425
Si Si2 0.296810 0.381335 0.300453
Si Si3 0.945309 0.354266 0.289584
Si Si4 0.804650 0.200786 0.068627
Si Si5 0.509128 0.792204 0.972783
Si Si6 0.295374 0.981919 0.423859
Si Si7 0.534915 0.340532 0.650750
O O1 0.123818 0.256474 0.541519
O O2 0.139558 0.023971 0.611043
O O3 0.351128 0.251407 0.637515
O O4 0.926021 0.119804 0.942010
O O5 0.401732 0.301653 0.154099
O O6 0.471864 0.525108 0.281034
O O7 0.173920 0.428441 0.243621
O O8 0.951570 0.325977 0.098783
O O9 0.784084 0.411506 0.420908
O O10 0.808701 0.187407 0.462736
O O11 0.730098 0.258239 0.955848
O O12 0.558105 0.085475 0.305179
O O13 0.673970 0.959902 0.786449
O O14 0.504567 0.769017 0.166420
#
# Coordination Sequence:
#
# PCOD9031126 Si02
#       7
#     2   2   2   2   2   2   2
#     4  11  23  43  70  94 128 173 212 268 326 372
#     4  11  24  43  63  97 131 171 219 262 317 383
#     4  12  23  42  67  94 135 169 210 270 320 381
#     4  10  22  43  65 101 126 167 212 263 329 379
#     4   9  22  42  64  94 133 162 217 269 314 382
#     4   9  23  45  65  96 135 158 220 265 323 381
#     4  12  23  42  66  95 132 173 215 264 317 385
#
# _framework density 26.468782000000001
#
# number of rings (size 3 to 8) (size 9 to 14) (size 15 to 20)
#    0.857    0.571    1.429    3.429    0.000    3.429 
#    2.571    2.143    0.000    0.000    0.000    0.000 
#    0.000    0.000    0.000    0.000    0.000    0.000 
#
# Total GULP energy -78468.035690 kJ/mol
# GULP energy per Si atom -5604.859692 kJ/mol
# Density = 2.640854 g / cm^3
# Si number density = 26.468782 Si / 1000 Ang^3
#
#
#
# Elastic Constant Matrix: (Units=GPa)
#
#
# Indices 1 2 3 4 5 6 
#
# 1 100.1431 5.7840 32.2056 7.5678 -4.0886 2.0990
# 2 5.7840 58.2459 10.6787 -1.2873 4.4889 -1.5690
# 3 32.2056 10.6787 120.1280 19.2577 -7.7176 -12.0320
# 4 7.5678 -1.2873 19.2577 39.3686 -7.8743 2.4361
# 5 -4.0886 4.4889 -7.7176 -7.8743 44.5531 5.9241
# 6 2.0990 -1.5690 -12.0320 2.4361 5.9241 28.0676
#
#
#
# Elastic Compliance Matrix: (Units=1/GPa)
#
#
# Indices 1 2 3 4 5 6 
#
# 1 0.011111 -0.000678 -0.003039 -0.000368 0.000804 -0.002309
# 2 -0.000678 0.017733 -0.001626 0.001057 -0.002035 0.000683
# 3 -0.003039 -0.001626 0.010593 -0.004929 0.000175 0.005068
# 4 -0.000368 0.001057 -0.004929 0.029248 0.004920 -0.005604
# 5 0.000804 -0.002035 0.000175 0.004920 0.024378 -0.005671
# 6 -0.002309 0.000683 0.005068 -0.005604 -0.005671 0.039695
#
#
# Mechanical properties :
#
#
# Convention : Reuss Voigt Hill
#
# Bulk Modulus (GPa) = 34.78373 41.76151 38.27262
# Shear Modulus (GPa) = 32.67351 37.72110 35.19730
#
# Velocity S-wave (km/s) = 3.51724 3.77917 3.65055
# Velocity P-wave (km/s) = 5.44652 5.90379 5.67976
#
# Compressibility (1/GPa) = 0.02874907
#
# Stress axis : x y z
#
# Youngs Moduli (GPa) = 89.99824 56.39316 94.40275
#
# Poissons Ratio (x) = 0.03826 0.28692
# Poissons Ratio (y) = 0.06106 0.15351
# Poissons Ratio (z) = 0.27353 0.09170
#
# Static dielectric constant tensor:
#      x y z
#    x 2.108820 0.011480 -0.005130 
#    y 0.011480 2.045040 -0.048520 
#    z -0.005130 -0.048520 2.054490 
# 
# From -- ./inp_files/179818.got.cif
#   From: 2010.05.17/outbox.cif.g08.bks.cpg/sg2_90_cif.got.tgz:179818.got - 2010.06.03 11:33:40.
