data_PCOD9031218
_publ_section_title
;
Structure prediction by ZEFSAII (Michael W. Deem and Ramdas Pophale) SiO2 
 PCOD9031218
Probable space group: P -1
;
_chemical_formula_sum "Si O2"
_cell_formula_units_Z 12
_cell_length_a 6.394729
_cell_length_b 17.527875
_cell_length_c 6.529951
_cell_angle_alpha 122.855683
_cell_angle_beta 110.453526
_cell_angle_gamma 97.914822
_cell_volume 523.910878
_symmetry_space_group_name_H-M "P -1"
_symmetry_group_IT_number 2
_symmetry_cell_setting 'triclinic'
loop_
_space_group_symop_operation_xyz
x,y,z
-x,-y,-z
loop_
_atom_site_type_symbol
_atom_site_label
_atom_site_fract_x
_atom_site_fract_y
_atom_site_fract_z
Si Si1 0.305146 0.885582 0.248703
Si Si2 0.010337 0.006890 0.753604
Si Si3 0.498817 0.570274 0.792743
Si Si4 0.586185 0.867249 0.670079
Si Si5 0.895526 0.556014 0.204099
Si Si6 0.607777 0.269230 0.235884
O O1 0.337899 0.850088 0.436930
O O2 0.068535 0.900190 0.110073
O O3 0.500000 0.000000 0.500000
O O4 0.377087 0.820115 0.019777
O O5 0.277452 0.039156 0.990941
O O6 0.000000 0.000000 0.500000
O O7 0.806831 0.905623 0.633903
O O8 0.500000 0.500000 0.500000
O O9 0.253834 0.514886 0.763798
O O10 0.517919 0.673169 0.854079
O O11 0.713619 0.585660 0.048628
O O12 0.523591 0.772131 0.653158
O O13 0.118996 0.650484 0.508212
O O14 0.000000 0.500000 0.000000
#
# Coordination Sequence:
#
# PCOD9031218 Si02
#       6
#     2   2   2   2   2   2
#     4  10  24  43  65  96 140 186 234 289 348 418
#     4  10  22  43  65  94 141 187 239 299 348 410
#     4  11  26  48  76 107 149 187 243 307 368 437
#     4  10  23  40  67  96 136 180 241 283 355 411
#     4  11  26  49  77 105 149 192 237 304 376 435
#     4  12  26  42  73 106 141 188 246 291 363 433
#
# _framework density 22.904658999999999
#
# number of rings (size 3 to 8) (size 9 to 14) (size 15 to 20)
#    0.000    1.333    1.667    2.500    2.333   11.333 
#    0.000    0.000    0.000    0.000    0.000    0.000 
#    0.000    0.000    0.000    0.000    0.000    0.000 
#
# Total GULP energy -67004.137418 kJ/mol
# GULP energy per Si atom -5583.678118 kJ/mol
# Density = 2.285253 g / cm^3
# Si number density = 22.904659 Si / 1000 Ang^3
#
#
#
# Elastic Constant Matrix: (Units=GPa)
#
#
# Indices 1 2 3 4 5 6 
#
# 1 80.3947 57.5385 24.6143 -6.7771 -4.7104 1.4539
# 2 57.5385 182.0172 26.8350 -32.4176 -12.3614 9.0668
# 3 24.6143 26.8350 98.0507 -11.8189 -11.2556 -2.4152
# 4 -6.7771 -32.4176 -11.8189 48.1684 -3.9081 -6.5740
# 5 -4.7104 -12.3614 -11.2556 -3.9081 51.0626 -2.4517
# 6 1.4539 9.0668 -2.4152 -6.5740 -2.4517 36.5865
#
#
#
# Elastic Compliance Matrix: (Units=1/GPa)
#
#
# Indices 1 2 3 4 5 6 
#
# 1 0.016988 -0.005304 -0.003115 -0.001983 -0.000553 0.000040
# 2 -0.005304 0.008207 -0.000156 0.004767 0.001787 -0.000857
# 3 -0.003115 -0.000156 0.011685 0.002748 0.002538 0.001598
# 4 -0.001983 0.004767 0.002748 0.025189 0.003690 0.003852
# 5 -0.000553 0.001787 0.002538 0.003690 0.020894 0.001810
# 6 0.000040 -0.000857 0.001598 0.003852 0.001810 0.028462
#
#
# Mechanical properties :
#
#
# Convention : Reuss Voigt Hill
#
# Bulk Modulus (GPa) = 50.68154 64.27091 57.47623
# Shear Modulus (GPa) = 36.99598 43.92850 40.46224
#
# Velocity S-wave (km/s) = 4.02334 4.38412 4.20759
# Velocity P-wave (km/s) = 6.61500 7.33133 6.98236
#
# Compressibility (1/GPa) = 0.01973105
#
# Stress axis : x y z
#
# Youngs Moduli (GPa) = 58.86609 121.85446 85.57785
#
# Poissons Ratio (x) = 0.64627 0.26654
# Poissons Ratio (y) = 0.31220 0.01335
# Poissons Ratio (z) = 0.18334 0.01902
#
# Static dielectric constant tensor:
#      x y z
#    x 1.982710 -0.033590 0.002330 
#    y -0.033590 1.873890 -0.035060 
#    z 0.002330 -0.035060 1.877570 
# 
# From -- ./inp_files/6026.got.cif
#   From: 2010.05.17/outbox.cif.g08.bks.cpg/sg2_4_cif.got.tgz:6026.got - 2010.06.03 11:33:40.
