data_PCOD9031476
_publ_section_title
;
Structure prediction by ZEFSAII (Michael W. Deem and Ramdas Pophale) SiO2 
 PCOD9031476
Probable space group: P -1
;
_chemical_formula_sum "Si O2"
_cell_formula_units_Z 16
_cell_length_a 7.843183
_cell_length_b 8.020684
_cell_length_c 13.251533
_cell_angle_alpha 120.162445
_cell_angle_beta 101.067125
_cell_angle_gamma 78.539014
_cell_volume 702.195941
_symmetry_space_group_name_H-M "P -1"
_symmetry_group_IT_number 2
_symmetry_cell_setting 'triclinic'
loop_
_space_group_symop_operation_xyz
x,y,z
-x,-y,-z
loop_
_atom_site_type_symbol
_atom_site_label
_atom_site_fract_x
_atom_site_fract_y
_atom_site_fract_z
Si Si1 0.745333 0.077375 0.001938
Si Si2 0.012356 0.883390 0.127762
Si Si3 0.312233 0.969083 0.315380
Si Si4 0.151185 0.280131 0.764386
Si Si5 0.864051 0.190199 0.567011
Si Si6 0.503769 0.418904 0.862549
Si Si7 0.547791 0.735891 0.834978
Si Si8 0.632461 0.157115 0.359809
O O1 0.858928 0.185814 0.970619
O O2 0.694889 0.879188 0.884775
O O3 0.568061 0.188418 0.057585
O O4 0.859274 0.015379 0.094073
O O5 0.120018 0.005102 0.254430
O O6 0.934753 0.719865 0.134482
O O7 0.276006 0.883860 0.394382
O O8 0.409266 0.802683 0.202768
O O9 0.446212 0.127409 0.381418
O O10 0.301689 0.415524 0.807046
O O11 0.992459 0.318199 0.679061
O O12 0.253711 0.057550 0.702685
O O13 0.755636 0.267714 0.480035
O O14 0.000000 0.000000 0.500000
O O15 0.607894 0.523964 0.820371
O O16 0.500000 0.500000 0.000000
O O17 0.427881 0.751502 0.726957
#
# Coordination Sequence:
#
# PCOD9031476 Si02
#       8
#     2   2   2   2   2   2   2   2
#     4  10  20  32  55  81 114 151 189 244 277 321
#     4  10  17  32  53  79 109 144 180 236 282 320
#     4  10  20  36  58  87 115 146 194 235 280 347
#     4   9  19  36  56  83 115 144 192 237 282 338
#     4   9  19  36  63  85 110 144 194 250 288 320
#     4  11  23  37  57  83 121 164 183 222 287 356
#     4  11  21  36  55  82 114 152 200 228 283 341
#     4  10  18  35  60  85 105 147 198 241 277 331
#
# _framework density 22.785663
#
# number of rings (size 3 to 8) (size 9 to 14) (size 15 to 20)
#    0.000    2.000    2.500    1.875    3.500    0.000 
#    0.000   15.000    0.000    0.000    0.000    0.000 
#    0.000    0.000    0.000    0.000    0.000    0.000 
#
# Total GULP energy -89223.952339 kJ/mol
# GULP energy per Si atom -5576.497021 kJ/mol
# Density = 2.273380 g / cm^3
# Si number density = 22.785663 Si / 1000 Ang^3
#
#
#
# Elastic Constant Matrix: (Units=GPa)
#
#
# Indices 1 2 3 4 5 6 
#
# 1 77.1489 4.7102 15.4550 -1.8315 2.7044 10.7971
# 2 4.7102 30.1897 15.6118 -13.7558 11.8302 7.1506
# 3 15.4550 15.6118 91.8799 -31.5514 22.1964 0.6397
# 4 -1.8315 -13.7558 -31.5514 23.7550 -12.2111 1.0592
# 5 2.7044 11.8302 22.1964 -12.2111 42.6090 -10.5404
# 6 10.7971 7.1506 0.6397 1.0592 -10.5404 23.0779
#
#
#
# Elastic Compliance Matrix: (Units=1/GPa)
#
#
# Indices 1 2 3 4 5 6 
#
# 1 0.014666 0.000467 -0.003188 -0.003720 -0.002407 -0.007847
# 2 0.000467 0.058823 0.006097 0.035027 -0.016349 -0.027688
# 3 -0.003188 0.006097 0.022042 0.029887 -0.005633 -0.004953
# 4 -0.003720 0.035027 0.029887 0.102888 0.000903 -0.014251
# 5 -0.002407 -0.016349 -0.005633 0.000903 0.037107 0.023254
# 6 -0.007847 -0.027688 -0.004953 -0.014251 0.023254 0.066994
#
#
# Mechanical properties :
#
#
# Convention : Reuss Voigt Hill
#
# Bulk Modulus (GPa) = 9.77670 30.08582 19.93126
# Shear Modulus (GPa) = 15.15785 28.78449 21.97117
#
# Velocity S-wave (km/s) = 2.58202 3.55811 3.10861
# Velocity P-wave (km/s) = 3.63168 5.48750 4.65305
#
# Compressibility (1/GPa) = 0.10228404
#
# Stress axis : x y z
#
# Youngs Moduli (GPa) = 68.18382 17.00026 45.36706
#
# Poissons Ratio (x) = -0.00794 0.14462
# Poissons Ratio (y) = -0.03183 -0.27661
# Poissons Ratio (z) = 0.21735 -0.10365
#
# Static dielectric constant tensor:
#      x y z
#    x 1.876030 -0.022850 0.000510 
#    y -0.022850 1.933480 0.040840 
#    z 0.000510 0.040840 1.891710 
# 
# From -- ./inp_files/215874.got.cif
#   From: 2010.05.17/outbox.cif.g08.bks.cpg/sg2_108_cif.got.tgz:215874.got - 2010.06.03 11:33:40.
