data_PCOD9031215
_publ_section_title
;
Structure prediction by ZEFSAII (Michael W. Deem and Ramdas Pophale) SiO2 
 PCOD9031215
Probable space group: P -1
;
_chemical_formula_sum "Si O2"
_cell_formula_units_Z 15
_cell_length_a 9.348662
_cell_length_b 8.676213
_cell_length_c 11.550534
_cell_angle_alpha 78.419331
_cell_angle_beta 81.999502
_cell_angle_gamma 52.751864
_cell_volume 730.403580
_symmetry_space_group_name_H-M "P -1"
_symmetry_group_IT_number 2
_symmetry_cell_setting 'triclinic'
loop_
_space_group_symop_operation_xyz
x,y,z
-x,-y,-z
loop_
_atom_site_type_symbol
_atom_site_label
_atom_site_fract_x
_atom_site_fract_y
_atom_site_fract_z
Si Si1 0.407485 0.690765 0.402029
Si Si2 0.511077 0.805263 0.879435
Si Si3 0.339384 0.208768 0.728520
Si Si4 0.176771 0.465989 0.929263
Si Si5 0.295924 0.551557 0.237499
Si Si6 0.181242 0.793169 0.978719
Si Si7 0.000000 0.000000 0.500000
Si Si8 0.035760 0.306462 0.581550
O O1 0.500000 0.500000 0.500000
O O2 0.533097 0.759804 0.363273
O O3 0.400372 0.614801 0.288018
O O4 0.208259 0.856732 0.444981
O O5 0.593888 0.673712 0.774662
O O6 0.455953 0.016939 0.824017
O O7 0.654374 0.693203 0.984107
O O8 0.334125 0.817825 0.924777
O O9 0.213645 0.385031 0.807038
O O10 0.216194 0.194376 0.654548
O O11 0.157318 0.668373 0.907359
O O12 0.000000 0.500000 0.000000
O O13 0.242407 0.662629 0.105822
O O14 0.124084 0.619147 0.320958
O O15 0.000000 0.000000 0.000000
O O16 0.033124 0.163066 0.514963
O O17 0.000000 0.500000 0.500000
#
# Coordination Sequence:
#
# PCOD9031215 Si02
#       8
#     2   2   2   2   2   2   1   2
#     4  11  25  46  68 101 135 178 238 292 349 420
#     4  11  23  40  67  99 137 175 225 276 341 423
#     4  12  24  41  71 101 132 181 224 285 353 412
#     4  11  23  42  65 103 140 176 224 282 340 414
#     4  10  22  43  65  94 135 180 221 279 349 402
#     4  11  22  42  66  95 139 181 223 275 337 422
#     4  10  26  48  70  94 140 182 232 296 360 402
#     4  11  25  47  69 101 138 178 241 291 345 424
#
# _framework density 20.536593
#
# number of rings (size 3 to 8) (size 9 to 14) (size 15 to 20)
#    0.000    1.067    0.000    8.400    3.733    1.600 
#   14.400    0.000    0.000    0.000    0.000    0.000 
#    0.000    0.000    0.000    0.000    0.000    0.000 
#
# Total GULP energy -83603.366944 kJ/mol
# GULP energy per Si atom -5573.557796 kJ/mol
# Density = 2.048985 g / cm^3
# Si number density = 20.536593 Si / 1000 Ang^3
#
#
#
# Elastic Constant Matrix: (Units=GPa)
#
#
# Indices 1 2 3 4 5 6 
#
# 1 127.1729 41.8286 16.5833 5.1456 -17.1106 5.7398
# 2 41.8286 122.9511 35.3044 21.1673 1.7305 18.3797
# 3 16.5833 35.3044 45.8412 8.6174 -10.8802 12.5439
# 4 5.1456 21.1673 8.6174 33.4676 4.2284 -2.1927
# 5 -17.1106 1.7305 -10.8802 4.2284 37.0183 2.7433
# 6 5.7398 18.3797 12.5439 -2.1927 2.7433 33.6614
#
#
#
# Elastic Compliance Matrix: (Units=1/GPa)
#
#
# Indices 1 2 3 4 5 6 
#
# 1 0.009576 -0.003368 0.000341 -0.000045 0.004712 -0.000308
# 2 -0.003368 0.013025 -0.007541 -0.005591 -0.003461 -0.003810
# 3 0.000341 -0.007541 0.034319 -0.006308 0.012068 -0.010124
# 4 -0.000045 -0.005591 -0.006308 0.036398 -0.006386 0.008302
# 5 0.004712 -0.003461 0.012068 -0.006386 0.034119 -0.006607
# 6 -0.000308 -0.003810 -0.010124 0.008302 -0.006607 0.036692
#
#
# Mechanical properties :
#
#
# Convention : Reuss Voigt Hill
#
# Bulk Modulus (GPa) = 27.94549 53.71085 40.82817
# Shear Modulus (GPa) = 25.35566 34.31271 29.83419
#
# Velocity S-wave (km/s) = 3.51758 4.09199 3.81561
# Velocity P-wave (km/s) = 5.48954 6.96680 6.27182
#
# Compressibility (1/GPa) = 0.03578395
#
# Stress axis : x y z
#
# Youngs Moduli (GPa) = 104.42269 76.77369 29.13848
#
# Poissons Ratio (x) = 0.25860 -0.00993
# Poissons Ratio (y) = 0.35173 0.21973
# Poissons Ratio (z) = -0.03560 0.57894
#
# Static dielectric constant tensor:
#      x y z
#    x 1.687420 -0.004970 0.047920 
#    y -0.004970 1.722680 0.009530 
#    z 0.047920 0.009530 1.731480 
# 
# From -- ./inp_files/273767.got.cif
#   From: 2010.05.17/outbox.cif.g08.bks.cpg/sg2_137_cif.got.tgz:273767.got - 2010.06.03 11:33:40.
