data_PCOD9031315
_publ_section_title
;
Structure prediction by ZEFSAII (Michael W. Deem and Ramdas Pophale) SiO2 
 PCOD9031315
Probable space group: P -1
;
_chemical_formula_sum "Si O2"
_cell_formula_units_Z 13
_cell_length_a 9.973949
_cell_length_b 7.454224
_cell_length_c 7.223323
_cell_angle_alpha 111.760433
_cell_angle_beta 88.270096
_cell_angle_gamma 85.185037
_cell_volume 495.919748
_symmetry_space_group_name_H-M "P -1"
_symmetry_group_IT_number 2
_symmetry_cell_setting 'triclinic'
loop_
_space_group_symop_operation_xyz
x,y,z
-x,-y,-z
loop_
_atom_site_type_symbol
_atom_site_label
_atom_site_fract_x
_atom_site_fract_y
_atom_site_fract_z
Si Si1 0.805548 0.241911 0.381910
Si Si2 0.893681 0.678403 0.915216
Si Si3 0.721325 0.676791 0.493179
Si Si4 0.477835 0.931775 0.685268
Si Si5 0.392453 0.353072 0.910885
Si Si6 0.000000 0.000000 0.000000
Si Si7 0.983632 0.753123 0.321610
O O1 0.788389 0.475022 0.493820
O O2 0.658317 0.171318 0.355694
O O3 0.901104 0.174826 0.528196
O O4 0.879216 0.161016 0.162909
O O5 0.754415 0.619520 0.976722
O O6 0.885044 0.859439 0.850435
O O7 0.968905 0.809127 0.123717
O O8 0.983319 0.481641 0.789566
O O9 0.611021 0.791433 0.671603
O O10 0.637388 0.622035 0.296157
O O11 0.838474 0.784288 0.433425
O O12 0.500000 0.000000 0.500000
O O13 0.453569 0.134320 0.870073
O O14 0.500000 0.500000 0.000000
#
# Coordination Sequence:
#
# PCOD9031315 Si02
#       7
#     2   2   2   2   2   1   2
#     4  12  24  45  70 101 142 184 227 294 351 402
#     4  10  22  44  68 104 138 177 238 287 337 428
#     4  10  22  43  66 103 136 174 233 286 336 424
#     4  10  23  44  65  98 134 182 235 277 338 427
#     4  10  22  44  69  95 141 187 225 283 352 406
#     4  12  24  42  66 106 144 170 234 296 334 412
#     4  10  23  43  71  97 136 188 225 279 358 410
#
# _framework density 26.213920000000002
#
# number of rings (size 3 to 8) (size 9 to 14) (size 15 to 20)
#    0.000    1.538    3.077    0.923    4.308    0.615 
#    2.769    0.769    0.000    0.000    0.000    0.000 
#    0.000    0.000    0.000    0.000    0.000    0.000 
#
# Total GULP energy -72595.048388 kJ/mol
# GULP energy per Si atom -5584.234491 kJ/mol
# Density = 2.615426 g / cm^3
# Si number density = 26.213920 Si / 1000 Ang^3
#
#
#
# Elastic Constant Matrix: (Units=GPa)
#
#
# Indices 1 2 3 4 5 6 
#
# 1 193.1070 42.6370 52.8457 -2.4972 -20.7687 16.0214
# 2 42.6370 89.6066 5.3477 8.9380 4.7195 3.7673
# 3 52.8457 5.3477 104.5473 -23.3658 -13.0631 -7.1927
# 4 -2.4972 8.9380 -23.3658 33.1888 -6.4918 -0.4825
# 5 -20.7687 4.7195 -13.0631 -6.4918 49.7639 -0.3346
# 6 16.0214 3.7673 -7.1927 -0.4825 -0.3346 55.4077
#
#
#
# Elastic Compliance Matrix: (Units=1/GPa)
#
#
# Indices 1 2 3 4 5 6 
#
# 1 0.007293 -0.003217 -0.003540 -0.000658 0.002318 -0.002341
# 2 -0.003217 0.013405 -0.000600 -0.004945 -0.003417 -0.000123
# 3 -0.003540 -0.000600 0.014513 0.010907 0.003832 0.003067
# 4 -0.000658 -0.004945 0.010907 0.040767 0.008391 0.002348
# 5 0.002318 -0.003417 0.003832 0.008391 0.023489 0.000275
# 6 -0.002341 -0.000123 0.003067 0.002348 0.000275 0.019154
#
#
# Mechanical properties :
#
#
# Convention : Reuss Voigt Hill
#
# Bulk Modulus (GPa) = 48.79115 65.43574 57.11345
# Shear Modulus (GPa) = 35.67219 46.76747 41.21983
#
# Velocity S-wave (km/s) = 3.69292 4.22841 3.96970
# Velocity P-wave (km/s) = 6.06932 6.98968 6.54570
#
# Compressibility (1/GPa) = 0.02049552
#
# Stress axis : x y z
#
# Youngs Moduli (GPa) = 137.12715 74.60095 68.90530
#
# Poissons Ratio (x) = 0.23997 0.24394
# Poissons Ratio (y) = 0.44109 0.04136
# Poissons Ratio (z) = 0.48546 0.04478
#
# Static dielectric constant tensor:
#      x y z
#    x 2.154550 0.008160 0.022360 
#    y 0.008160 2.456220 -0.152660 
#    z 0.022360 -0.152660 2.218540 
# 
# From -- ./inp_files/160075.got.cif
#   From: 2010.05.17/outbox.cif.g08.bks.cpg/sg2_81_cif.got.tgz:160075.got - 2010.06.03 11:33:40.
