data_PCOD9031157
_publ_section_title
;
Structure prediction by ZEFSAII (Michael W. Deem and Ramdas Pophale) SiO2 
 PCOD9031157
Probable space group: P -1
;
_chemical_formula_sum "Si O2"
_cell_formula_units_Z 14
_cell_length_a 14.541590
_cell_length_b 11.657331
_cell_length_c 14.524022
_cell_angle_alpha 51.649582
_cell_angle_beta 160.480656
_cell_angle_gamma 129.392505
_cell_volume 633.367758
_symmetry_space_group_name_H-M "P -1"
_symmetry_group_IT_number 2
_symmetry_cell_setting 'triclinic'
loop_
_space_group_symop_operation_xyz
x,y,z
-x,-y,-z
loop_
_atom_site_type_symbol
_atom_site_label
_atom_site_fract_x
_atom_site_fract_y
_atom_site_fract_z
Si Si1 0.780131 0.691750 0.701631
Si Si2 0.207930 0.566115 0.294813
Si Si3 0.943292 0.529659 0.593574
Si Si4 0.709547 0.194144 0.298336
Si Si5 0.845343 0.988907 0.113292
Si Si6 0.701691 0.937051 0.790964
Si Si7 0.425234 0.371472 0.092921
O O1 0.481465 0.691618 0.467749
O O2 0.731850 0.584947 0.620385
O O3 0.971211 0.848500 0.778011
O O4 0.951450 0.613503 0.975911
O O5 0.126562 0.531308 0.340001
O O6 0.651492 0.508951 0.274958
O O7 0.116334 0.696873 0.666556
O O8 0.132352 0.422992 0.776985
O O9 0.560661 0.299246 0.171573
O O10 0.935168 0.120632 0.605178
O O11 0.445858 0.069432 0.078178
O O12 0.733948 0.984637 0.904842
O O13 0.621820 0.758614 0.810134
O O14 0.500000 0.000000 0.500000
O O15 0.000000 0.000000 0.000000
#
# Coordination Sequence:
#
# PCOD9031157 Si02
#       7
#     2   2   2   2   2   2   2
#     4  10  22  43  65  88 127 156 200 257 324 363
#     4  10  23  40  64  96 118 157 207 260 303 370
#     4  12  23  39  64  89 123 162 215 251 297 356
#     4  11  23  42  59  91 124 167 210 248 294 375
#     4  11  23  40  64  85 124 170 198 249 323 355
#     4  11  23  36  54  87 123 155 203 245 288 375
#     4  11  23  38  57  88 124 167 201 248 309 348
#
# _framework density 22.104061999999999
#
# number of rings (size 3 to 8) (size 9 to 14) (size 15 to 20)
#    0.000    1.143    0.000    7.714    6.000    0.000 
#    0.000    1.429    0.000    0.000    0.000    0.000 
#    0.000    0.000    0.000    0.000    0.000    0.000 
#
# Total GULP energy -78269.201624 kJ/mol
# GULP energy per Si atom -5590.657259 kJ/mol
# Density = 2.205375 g / cm^3
# Si number density = 22.104062 Si / 1000 Ang^3
#
#
#
# Elastic Constant Matrix: (Units=GPa)
#
#
# Indices 1 2 3 4 5 6 
#
# 1 44.8533 26.6633 15.4513 3.1048 11.5016 18.7207
# 2 26.6633 126.0263 24.0639 23.7898 4.8438 30.0120
# 3 15.4513 24.0639 128.8284 5.1838 8.3291 10.8127
# 4 3.1048 23.7898 5.1838 46.5450 13.7393 7.9386
# 5 11.5016 4.8438 8.3291 13.7393 19.3495 5.5403
# 6 18.7207 30.0120 10.8127 7.9386 5.5403 31.8205
#
#
#
# Elastic Compliance Matrix: (Units=1/GPa)
#
#
# Indices 1 2 3 4 5 6 
#
# 1 0.037146 -0.004926 -0.001171 0.009469 -0.022710 -0.015219
# 2 -0.004926 0.011971 -0.001213 -0.006494 0.007247 -0.007622
# 3 -0.001171 -0.001213 0.008346 0.000749 -0.002930 -0.000680
# 4 0.009469 -0.006494 0.000749 0.032439 -0.026446 -0.003189
# 5 -0.022710 0.007247 -0.002930 -0.026446 0.083527 -0.000424
# 6 -0.015219 -0.007622 -0.000680 -0.003189 -0.000424 0.048669
#
#
# Mechanical properties :
#
#
# Convention : Reuss Voigt Hill
#
# Bulk Modulus (GPa) = 23.34035 48.00721 35.67378
# Shear Modulus (GPa) = 19.92046 35.11162 27.51604
#
# Velocity S-wave (km/s) = 3.00528 3.98988 3.53206
# Velocity P-wave (km/s) = 4.75652 6.55679 5.72782
#
# Compressibility (1/GPa) = 0.04284427
#
# Stress axis : x y z
#
# Youngs Moduli (GPa) = 26.92064 83.53439 119.82391
#
# Poissons Ratio (x) = 0.41149 0.14026
# Poissons Ratio (y) = 0.13261 0.14532
# Poissons Ratio (z) = 0.03151 0.10131
#
# Static dielectric constant tensor:
#      x y z
#    x 1.934220 -0.037790 -0.009710 
#    y -0.037790 1.895990 0.024300 
#    z -0.009710 0.024300 1.780790 
# 
# From -- ./inp_files/531762.got.cif
#   From: 2010.05.17/outbox.cif.g08.bks.cpg/sg2_266_cif.got.tgz:531762.got - 2010.06.03 11:33:40.
