data_PCOD9031515
_publ_section_title
;
Structure prediction by ZEFSAII (Michael W. Deem and Ramdas Pophale) SiO2 
 PCOD9031515
Probable space group: P -1
;
_chemical_formula_sum "Si O2"
_cell_formula_units_Z 16
_cell_length_a 11.030369
_cell_length_b 14.680547
_cell_length_c 8.389434
_cell_angle_alpha 131.344844
_cell_angle_beta 42.043202
_cell_angle_gamma 128.246018
_cell_volume 660.348710
_symmetry_space_group_name_H-M "P -1"
_symmetry_group_IT_number 2
_symmetry_cell_setting 'triclinic'
loop_
_space_group_symop_operation_xyz
x,y,z
-x,-y,-z
loop_
_atom_site_type_symbol
_atom_site_label
_atom_site_fract_x
_atom_site_fract_y
_atom_site_fract_z
Si Si1 0.810080 0.893607 0.710175
Si Si2 0.985937 0.459625 0.224123
Si Si3 0.029572 0.099795 0.944730
Si Si4 0.585920 0.525037 0.121882
Si Si5 0.600919 0.805269 0.492129
Si Si6 0.538537 0.261319 0.960567
Si Si7 0.073148 0.704710 0.227923
Si Si8 0.255701 0.742417 0.576823
O O1 0.693448 0.875885 0.640359
O O2 0.957896 0.808400 0.461272
O O3 0.925865 0.029951 0.808151
O O4 0.653316 0.838327 0.932207
O O5 0.830945 0.395750 0.428396
O O6 0.991532 0.598272 0.318304
O O7 0.950565 0.367952 0.999908
O O8 0.191965 0.460679 0.083293
O O9 0.244091 0.155317 0.752496
O O10 0.920743 0.202272 0.215894
O O11 0.000000 0.000000 0.000000
O O12 0.563760 0.654255 0.368702
O O13 0.500000 0.500000 0.000000
O O14 0.508301 0.401445 0.162674
O O15 0.402197 0.824131 0.654436
O O16 0.706063 0.246622 0.895377
O O17 0.623131 0.254788 0.695652
#
# Coordination Sequence:
#
# PCOD9031515 Si02
#       8
#     2   2   2   2   2   2   2   2
#     4  12  26  45  74 102 143 188 231 285 346 412
#     4  10  22  43  69 102 142 185 222 284 352 409
#     4  12  28  49  74  99 137 189 239 290 346 406
#     4  11  22  42  69 105 144 174 231 280 351 422
#     4  12  26  47  72 106 138 183 234 289 349 415
#     4  11  26  39  67 109 138 186 230 278 352 414
#     4  10  22  43  67 102 145 178 229 284 342 416
#     4  12  25  46  70 102 142 181 234 294 338 417
#
# _framework density 24.229621000000002
#
# number of rings (size 3 to 8) (size 9 to 14) (size 15 to 20)
#    0.000    0.750    3.750    2.625    1.750    7.000 
#    0.000    0.000    0.000    0.000    0.000    0.000 
#    0.000    0.000    0.000    0.000    0.000    0.000 
#
# Total GULP energy -89698.096817 kJ/mol
# GULP energy per Si atom -5606.131051 kJ/mol
# Density = 2.417447 g / cm^3
# Si number density = 24.229621 Si / 1000 Ang^3
#
#
#
# Elastic Constant Matrix: (Units=GPa)
#
#
# Indices 1 2 3 4 5 6 
#
# 1 120.4257 -5.6382 0.4242 -4.3756 -0.0948 15.4075
# 2 -5.6382 60.3858 14.4042 -20.6399 -8.7555 5.2953
# 3 0.4242 14.4042 55.2039 -6.8987 0.2179 -9.7884
# 4 -4.3756 -20.6399 -6.8987 34.0995 12.0714 3.0741
# 5 -0.0948 -8.7555 0.2179 12.0714 36.7888 -0.8742
# 6 15.4075 5.2953 -9.7884 3.0741 -0.8742 37.6656
#
#
#
# Elastic Compliance Matrix: (Units=1/GPa)
#
#
# Indices 1 2 3 4 5 6 
#
# 1 0.009131 0.002509 -0.001167 0.003044 -0.000482 -0.004651
# 2 0.002509 0.023593 -0.005691 0.013726 0.000987 -0.006920
# 3 -0.001167 -0.005691 0.020858 0.000563 -0.001508 0.006617
# 4 0.003044 0.013726 0.000563 0.042594 -0.010866 -0.006757
# 5 -0.000482 0.000987 -0.001508 -0.010866 0.031020 0.001273
# 6 -0.004651 -0.006920 0.006617 -0.006757 0.001273 0.031725
#
#
# Mechanical properties :
#
#
# Convention : Reuss Voigt Hill
#
# Bulk Modulus (GPa) = 22.27932 28.26619 25.27276
# Shear Modulus (GPa) = 27.38506 36.83247 32.10877
#
# Velocity S-wave (km/s) = 3.36554 3.90313 3.64426
# Velocity P-wave (km/s) = 4.93128 5.65720 5.30666
#
# Compressibility (1/GPa) = 0.04488467
#
# Stress axis : x y z
#
# Youngs Moduli (GPa) = 109.52003 42.38477 47.94286
#
# Poissons Ratio (x) = -0.10636 0.05596
# Poissons Ratio (y) = -0.27484 0.27284
# Poissons Ratio (z) = 0.12784 0.24121
#
# Static dielectric constant tensor:
#      x y z
#    x 1.946500 -0.020630 0.037600 
#    y -0.020630 1.914000 0.019440 
#    z 0.037600 0.019440 1.908000 
# 
# From -- ./inp_files/274253.got.cif
#   From: 2010.05.17/outbox.cif.g08.bks.cpg/sg2_138_cif.got.tgz:274253.got - 2010.06.03 11:33:40.
