data_PCOD9031264
_publ_section_title
;
Structure prediction by ZEFSAII (Michael W. Deem and Ramdas Pophale) SiO2 
 PCOD9031264
Probable space group: P -1
;
_chemical_formula_sum "Si O2"
_cell_formula_units_Z 16
_cell_length_a 13.910732
_cell_length_b 5.121186
_cell_length_c 16.748173
_cell_angle_alpha 86.337603
_cell_angle_beta 150.018826
_cell_angle_gamma 89.642355
_cell_volume 590.455563
_symmetry_space_group_name_H-M "P -1"
_symmetry_group_IT_number 2
_symmetry_cell_setting 'triclinic'
loop_
_space_group_symop_operation_xyz
x,y,z
-x,-y,-z
loop_
_atom_site_type_symbol
_atom_site_label
_atom_site_fract_x
_atom_site_fract_y
_atom_site_fract_z
Si Si1 0.525253 0.558746 0.630759
Si Si2 0.306510 0.089913 0.451194
Si Si3 0.770661 0.288386 0.269018
Si Si4 0.553608 0.407879 0.832961
Si Si5 0.898963 0.979772 0.112651
Si Si6 0.636983 0.747841 0.046942
Si Si7 0.212988 0.054247 0.566167
Si Si8 0.936563 0.277299 0.904224
O O1 0.477220 0.854303 0.557712
O O2 0.543287 0.568902 0.739772
O O3 0.709657 0.374448 0.731971
O O4 0.356308 0.384392 0.490568
O O5 0.254738 0.006528 0.505241
O O6 0.106572 0.084322 0.261523
O O7 0.722331 0.570115 0.185746
O O8 0.764606 0.212303 0.359942
O O9 0.592128 0.143243 0.108530
O O10 0.992189 0.186827 0.410953
O O11 0.366947 0.243792 0.705354
O O12 0.601536 0.554119 0.947060
O O13 0.732938 0.183010 0.951787
O O14 0.801725 0.908820 0.127121
O O15 0.947886 0.731591 0.095274
O O16 0.000000 0.500000 0.000000
O O17 0.000000 0.000000 0.000000
#
# Coordination Sequence:
#
# PCOD9031264 Si02
#       8
#     2   2   2   2   2   2   2   2
#     4  11  25  47  74 107 143 193 237 295 353 434
#     4  11  27  46  74 104 151 187 240 294 362 426
#     4  10  22  43  65  97 144 183 247 297 361 426
#     4  11  23  41  72  95 142 186 243 294 361 431
#     4  12  27  45  71 104 144 189 234 301 364 424
#     4  11  24  43  65 103 138 187 240 303 362 420
#     4  10  22  44  66 102 135 192 239 297 359 426
#     4  12  26  46  78 114 145 187 241 293 355 431
#
# _framework density 27.097719999999999
#
# number of rings (size 3 to 8) (size 9 to 14) (size 15 to 20)
#    0.000    1.000    2.500    3.000    8.750    2.000 
#    9.000    0.000    0.000    0.000    0.000    0.000 
#    0.000    0.000    0.000    0.000    0.000    0.000 
#
# Total GULP energy -89631.194128 kJ/mol
# GULP energy per Si atom -5601.949633 kJ/mol
# Density = 2.703604 g / cm^3
# Si number density = 27.097720 Si / 1000 Ang^3
#
#
#
# Elastic Constant Matrix: (Units=GPa)
#
#
# Indices 1 2 3 4 5 6 
#
# 1 97.7136 -7.7280 32.8758 -25.6428 -7.9284 25.2156
# 2 -7.7280 67.7752 43.7274 -10.7801 -2.4162 26.3917
# 3 32.8758 43.7274 158.2545 -14.5520 9.8290 7.4339
# 4 -25.6428 -10.7801 -14.5520 55.0557 8.1715 -12.5065
# 5 -7.9284 -2.4162 9.8290 8.1715 52.4436 -7.9299
# 6 25.2156 26.3917 7.4339 -12.5065 -7.9299 18.3399
#
#
#
# Elastic Compliance Matrix: (Units=1/GPa)
#
#
# Indices 1 2 3 4 5 6 
#
# 1 -0.018815 -0.044169 0.011999 0.005540 0.005742 0.090827
# 2 -0.044169 -0.054373 0.017576 0.003535 0.007782 0.137623
# 3 0.011999 0.017576 0.001311 -0.000025 -0.004301 -0.044199
# 4 0.005540 0.003535 -0.000025 0.022077 -0.002223 0.001401
# 5 0.005742 0.007782 -0.004301 -0.002223 0.019895 -0.010264
# 6 0.090827 0.137623 -0.044199 0.001401 -0.010264 -0.253963
#
#
# Mechanical properties :
#
#
# Convention : Reuss Voigt Hill
#
# Bulk Modulus (GPa) = -9.89469 51.27710 20.69120
# Shear Modulus (GPa) = -17.33891 42.15904 12.41007
#
# Velocity S-wave (km/s) = -2.53230 3.94866 2.14236
# Velocity P-wave (km/s) = 3.49421 6.30503 3.71106
#
# Compressibility (1/GPa) = -0.10106427
#
# Stress axis : x y z
#
# Youngs Moduli (GPa) = -53.14869 -18.39162 762.93902
#
# Poissons Ratio (x) = -0.81234 -9.15475
# Poissons Ratio (y) = -2.34754 -13.40968
# Poissons Ratio (z) = 0.63775 0.32326
#
# Static dielectric constant tensor:
#      x y z
#    x 2.183860 -0.038440 0.060300 
#    y -0.038440 2.137430 0.020580 
#    z 0.060300 0.020580 2.074130 
# 
# From -- ./inp_files/141297.got.cif
#   From: 2010.05.17/outbox.cif.g08.bks.cpg/sg2_71_cif.got.tgz:141297.got - 2010.06.03 11:33:40.
