data_PCOD9031034
_publ_section_title
;
Structure prediction by ZEFSAII (Michael W. Deem and Ramdas Pophale) SiO2 
 PCOD9031034
Probable space group: P -1
;
_chemical_formula_sum "Si O2"
_cell_formula_units_Z 14
_cell_length_a 16.910841
_cell_length_b 5.259109
_cell_length_c 14.137601
_cell_angle_alpha 125.011874
_cell_angle_beta 146.015069
_cell_angle_gamma 71.133109
_cell_volume 542.818031
_symmetry_space_group_name_H-M "P -1"
_symmetry_group_IT_number 2
_symmetry_cell_setting 'triclinic'
loop_
_space_group_symop_operation_xyz
x,y,z
-x,-y,-z
loop_
_atom_site_type_symbol
_atom_site_label
_atom_site_fract_x
_atom_site_fract_y
_atom_site_fract_z
Si Si1 0.016021 0.586683 0.644571
Si Si2 0.956796 0.733300 0.133503
Si Si3 0.824569 0.101392 0.775814
Si Si4 0.452783 0.014364 0.063712
Si Si5 0.311697 0.560057 0.988442
Si Si6 0.779969 0.392023 0.529913
Si Si7 0.480792 0.855016 0.555936
O O1 0.000000 0.500000 0.500000
O O2 0.858818 0.496121 0.526372
O O3 0.131432 0.436144 0.777510
O O4 0.098396 0.977130 0.825649
O O5 0.016241 0.814469 0.102255
O O6 0.106567 0.765918 0.345676
O O7 0.852484 0.354192 0.944761
O O8 0.689814 0.160728 0.595781
O O9 0.780962 0.712804 0.658403
O O10 0.367154 0.280001 0.028741
O O11 0.610832 0.165048 0.305256
O O12 0.363485 0.675993 0.956367
O O13 0.500000 0.000000 0.000000
O O14 0.397327 0.891402 0.202534
O O15 0.500000 0.500000 0.500000
O O16 0.500000 0.000000 0.500000
#
# Coordination Sequence:
#
# PCOD9031034 Si02
#       7
#     2   2   2   2   2   2   2
#     4  11  27  45  69 105 144 190 244 300 362 431
#     4  10  23  41  71  95 141 181 235 294 362 426
#     4  10  22  43  64 104 132 182 236 292 358 435
#     4  12  27  47  77 105 144 196 246 303 365 434
#     4  12  27  49  72 108 151 187 246 305 365 436
#     4  11  24  43  74  99 138 188 240 295 362 432
#     4  12  26  42  71 101 146 186 234 292 367 431
#
# _framework density 25.791332000000001
#
# number of rings (size 3 to 8) (size 9 to 14) (size 15 to 20)
#    0.000    0.857    1.429    4.286   10.000    0.571 
#    0.000    0.000    0.000    0.000    0.000    0.000 
#    0.000    0.000    0.000    0.000    0.000    0.000 
#
# Total GULP energy -78409.389980 kJ/mol
# GULP energy per Si atom -5600.670713 kJ/mol
# Density = 2.573263 g / cm^3
# Si number density = 25.791332 Si / 1000 Ang^3
#
#
#
# Elastic Constant Matrix: (Units=GPa)
#
#
# Indices 1 2 3 4 5 6 
#
# 1 118.1040 7.4497 19.4153 8.5582 13.3291 10.6090
# 2 7.4497 63.9313 5.7841 -28.6750 13.4326 -0.2440
# 3 19.4153 5.7841 103.2660 -29.1662 4.8819 -15.2662
# 4 8.5582 -28.6750 -29.1662 41.0224 -4.1356 -2.7817
# 5 13.3291 13.4326 4.8819 -4.1356 49.9234 -0.0807
# 6 10.6090 -0.2440 -15.2662 -2.7817 -0.0807 35.5064
#
#
#
# Elastic Compliance Matrix: (Units=1/GPa)
#
#
# Indices 1 2 3 4 5 6 
#
# 1 0.011378 -0.005290 -0.005826 -0.010871 -0.001956 -0.006797
# 2 -0.005290 0.028748 0.008406 0.027192 -0.004880 0.007511
# 3 -0.005826 0.008406 0.017722 0.020364 -0.000735 0.011012
# 4 -0.010871 0.027192 0.020364 0.061150 -0.001312 0.016978
# 5 -0.001956 -0.004880 -0.000735 -0.001312 0.021829 0.000182
# 6 -0.006797 0.007511 0.011012 0.016978 0.000182 0.036312
#
#
# Mechanical properties :
#
#
# Convention : Reuss Voigt Hill
#
# Bulk Modulus (GPa) = 19.07338 38.95549 29.01444
# Shear Modulus (GPa) = 24.99566 42.13390 33.56478
#
# Velocity S-wave (km/s) = 3.11649 4.04622 3.61140
# Velocity P-wave (km/s) = 4.51236 6.07998 5.35385
#
# Compressibility (1/GPa) = 0.05242910
#
# Stress axis : x y z
#
# Youngs Moduli (GPa) = 87.89271 34.78467 56.42579
#
# Poissons Ratio (x) = 0.18400 0.32871
# Poissons Ratio (y) = 0.46492 -0.47429
# Poissons Ratio (z) = 0.51202 -0.29239
#
# Static dielectric constant tensor:
#      x y z
#    x 2.229620 0.038010 -0.018040 
#    y 0.038010 1.993340 0.013670 
#    z -0.018040 0.013670 1.954130 
# 
# From -- ./inp_files/27032.got.cif
#   From: 2010.05.17/outbox.cif.g08.bks.cpg/sg2_14_cif.got.tgz:27032.got - 2010.06.03 11:33:40.
