data_PCOD9031347
_publ_section_title
;
Structure prediction by ZEFSAII (Michael W. Deem and Ramdas Pophale) SiO2 
 PCOD9031347
Probable space group: P -1
;
_chemical_formula_sum "Si O2"
_cell_formula_units_Z 16
_cell_length_a 13.731247
_cell_length_b 8.259808
_cell_length_c 6.023325
_cell_angle_alpha 82.526185
_cell_angle_beta 80.192052
_cell_angle_gamma 101.949962
_cell_volume 648.818215
_symmetry_space_group_name_H-M "P -1"
_symmetry_group_IT_number 2
_symmetry_cell_setting 'triclinic'
loop_
_space_group_symop_operation_xyz
x,y,z
-x,-y,-z
loop_
_atom_site_type_symbol
_atom_site_label
_atom_site_fract_x
_atom_site_fract_y
_atom_site_fract_z
Si Si1 0.800646 0.804545 0.992470
Si Si2 0.473748 0.625566 0.671637
Si Si3 0.398485 0.806535 0.298420
Si Si4 0.868882 0.301265 0.194830
Si Si5 0.600448 0.840130 0.924584
Si Si6 0.278849 0.556228 0.068375
Si Si7 0.949109 0.668425 0.219306
Si Si8 0.087857 0.907989 0.421903
O O1 0.685721 0.817001 0.067310
O O2 0.850599 0.971806 0.809900
O O3 0.790698 0.633144 0.879664
O O4 0.867376 0.778389 0.181013
O O5 0.500000 0.500000 0.500000
O O6 0.436609 0.773709 0.531700
O O7 0.572598 0.700989 0.767293
O O8 0.378434 0.551896 0.882138
O O9 0.367040 0.979409 0.237927
O O10 0.495730 0.821740 0.098359
O O11 0.315980 0.643897 0.271556
O O12 0.782305 0.320965 0.051844
O O13 0.889731 0.476654 0.288281
O O14 0.848348 0.141652 0.391545
O O15 0.974130 0.304376 0.025664
O O16 0.023273 0.733038 0.379766
O O17 0.000000 0.000000 0.500000
#
# Coordination Sequence:
#
# PCOD9031347 Si02
#       8
#     2   2   2   2   2   2   2   2
#     4  11  23  43  62  94 130 166 212 258 317 377
#     4  11  22  41  66  93 131 167 212 258 316 378
#     4  10  22  43  66  91 132 166 208 264 318 371
#     4  10  23  44  66  93 124 170 215 259 316 380
#     4  10  23  41  62  97 127 167 209 265 314 376
#     4  10  24  42  66  95 128 168 214 256 316 381
#     4  10  23  45  66  88 130 168 210 266 319 373
#     4  12  25  42  64  96 130 166 212 267 318 372
#
# _framework density 24.660218
#
# number of rings (size 3 to 8) (size 9 to 14) (size 15 to 20)
#    0.000    1.500    1.250    2.625    3.500    2.000 
#   11.250    0.000    0.000    0.000    0.000    0.000 
#    0.000    0.000    0.000    0.000    0.000    0.000 
#
# Total GULP energy -89546.136165 kJ/mol
# GULP energy per Si atom -5596.633510 kJ/mol
# Density = 2.460409 g / cm^3
# Si number density = 24.660218 Si / 1000 Ang^3
#
#
#
# Elastic Constant Matrix: (Units=GPa)
#
#
# Indices 1 2 3 4 5 6 
#
# 1 113.7152 16.7406 16.2862 0.1019 24.3055 -7.7285
# 2 16.7406 51.6508 11.7699 -6.4494 -0.1253 -6.7530
# 3 16.2862 11.7699 45.9618 -13.0648 18.1464 -6.7037
# 4 0.1019 -6.4494 -13.0648 31.1877 -11.7452 12.8445
# 5 24.3055 -0.1253 18.1464 -11.7452 41.3273 -9.5759
# 6 -7.7285 -6.7530 -6.7037 12.8445 -9.5759 32.3293
#
#
#
# Elastic Compliance Matrix: (Units=1/GPa)
#
#
# Indices 1 2 3 4 5 6 
#
# 1 0.011108 -0.003700 -0.001344 -0.004530 -0.006928 0.001352
# 2 -0.003700 0.022703 -0.005587 0.003457 0.006429 0.003230
# 3 -0.001344 -0.005587 0.029836 0.008089 -0.010398 -0.001595
# 4 -0.004530 0.003457 0.008089 0.045268 0.008725 -0.014084
# 5 -0.006928 0.006429 -0.010398 0.008725 0.036464 0.004865
# 6 0.001352 0.003230 -0.001595 -0.014084 0.004865 0.038635
#
#
# Mechanical properties :
#
#
# Convention : Reuss Voigt Hill
#
# Bulk Modulus (GPa) = 23.59311 33.43570 28.51440
# Shear Modulus (GPa) = 22.78909 32.07095 27.43002
#
# Velocity S-wave (km/s) = 3.04324 3.61018 3.33876
# Velocity P-wave (km/s) = 4.68364 5.56469 5.14307
#
# Compressibility (1/GPa) = 0.04238526
#
# Stress axis : x y z
#
# Youngs Moduli (GPa) = 90.02735 44.04782 33.51655
#
# Poissons Ratio (x) = 0.16296 0.04504
# Poissons Ratio (y) = 0.33307 0.18726
# Poissons Ratio (z) = 0.12097 0.24610
#
# Static dielectric constant tensor:
#      x y z
#    x 1.929170 -0.015020 -0.017560 
#    y -0.015020 2.001360 0.011980 
#    z -0.017560 0.011980 1.912800 
# 
# From -- ./inp_files/90014.got.cif
#   From: 2010.05.17/outbox.cif.g08.bks.cpg/sg2_46_cif.got.tgz:90014.got - 2010.06.03 11:33:40.
