data_PCOD9031638
_publ_section_title
;
Structure prediction by ZEFSAII (Michael W. Deem and Ramdas Pophale) SiO2 
 PCOD9031638
Probable space group: P -1
;
_chemical_formula_sum "Si O2"
_cell_formula_units_Z 13
_cell_length_a 13.503829
_cell_length_b 6.145682
_cell_length_c 13.632436
_cell_angle_alpha 79.974018
_cell_angle_beta 151.012466
_cell_angle_gamma 103.565530
_cell_volume 531.821720
_symmetry_space_group_name_H-M "P -1"
_symmetry_group_IT_number 2
_symmetry_cell_setting 'triclinic'
loop_
_space_group_symop_operation_xyz
x,y,z
-x,-y,-z
loop_
_atom_site_type_symbol
_atom_site_label
_atom_site_fract_x
_atom_site_fract_y
_atom_site_fract_z
Si Si1 0.821973 0.413505 0.571714
Si Si2 0.269237 0.385912 0.905069
Si Si3 0.500000 0.000000 0.500000
Si Si4 0.760090 0.242676 0.869753
Si Si5 0.777688 0.644955 0.713725
Si Si6 0.317426 0.277745 0.743074
Si Si7 0.550184 0.040195 0.250280
O O1 0.740860 0.479641 0.600750
O O2 0.773364 0.584288 0.432115
O O3 0.065995 0.413853 0.785815
O O4 0.699152 0.171462 0.451387
O O5 0.203702 0.306125 0.744142
O O6 0.443526 0.609048 0.035972
O O7 0.391564 0.201209 0.069804
O O8 0.303878 0.936311 0.257891
O O9 0.608837 0.801647 0.560929
O O10 0.773015 0.491881 0.818409
O O11 0.588387 0.182277 0.809368
O O12 0.988771 0.224188 0.107239
O O13 0.321453 0.031014 0.724318
#
# Coordination Sequence:
#
# PCOD9031638 Si02
#       7
#     2   2   1   2   2   2   2
#     4  11  24  42  66  98 132 173 220 270 328 389
#     4  10  23  42  67  97 134 174 218 271 328 386
#     4  12  24  44  70  94 124 168 218 270 324 384
#     4  11  25  44  66  96 133 171 214 269 328 390
#     4  11  26  45  67  96 132 172 218 270 328 392
#     4  10  22  43  67  97 134 173 219 273 325 384
#     4  11  24  41  66  98 132 174 221 267 323 389
#
# _framework density 24.444282000000001
#
# number of rings (size 3 to 8) (size 9 to 14) (size 15 to 20)
#    0.000    1.231    0.000    4.615    0.000   11.692 
#    0.000    0.000    0.000    0.000    0.000    0.000 
#    0.000    0.000    0.000    0.000    0.000    0.000 
#
# Total GULP energy -72639.756076 kJ/mol
# GULP energy per Si atom -5587.673544 kJ/mol
# Density = 2.438865 g / cm^3
# Si number density = 24.444282 Si / 1000 Ang^3
#
#
#
# Elastic Constant Matrix: (Units=GPa)
#
#
# Indices 1 2 3 4 5 6 
#
# 1 88.7565 34.3365 7.6269 -6.6545 -0.3407 -32.4660
# 2 34.3365 57.2171 18.9354 -1.4598 6.4044 -33.9473
# 3 7.6269 18.9354 74.2726 0.7189 0.9016 -15.2132
# 4 -6.6545 -1.4598 0.7189 41.3452 -8.7348 -5.1008
# 5 -0.3407 6.4044 0.9016 -8.7348 35.7697 -2.1528
# 6 -32.4660 -33.9473 -15.2132 -5.1008 -2.1528 48.3130
#
#
#
# Elastic Compliance Matrix: (Units=1/GPa)
#
#
# Indices 1 2 3 4 5 6 
#
# 1 0.016677 -0.005879 0.001363 0.004003 0.002639 0.008046
# 2 -0.005879 0.033957 -0.004214 0.001663 -0.004507 0.018557
# 3 0.001363 -0.004214 0.014945 0.000278 0.000622 0.002718
# 4 0.004003 0.001663 0.000278 0.027201 0.006804 0.007121
# 5 0.002639 -0.004507 0.000622 0.006804 0.030487 0.000879
# 6 0.008046 0.018557 0.002718 0.007121 0.000879 0.040791
#
#
# Mechanical properties :
#
#
# Convention : Reuss Voigt Hill
#
# Bulk Modulus (GPa) = 20.78140 38.00487 29.39313
# Shear Modulus (GPa) = 25.30915 35.70875 30.50895
#
# Velocity S-wave (km/s) = 3.22122 3.82622 3.53668
# Velocity P-wave (km/s) = 4.72811 5.92463 5.35986
#
# Compressibility (1/GPa) = 0.04811996
#
# Stress axis : x y z
#
# Youngs Moduli (GPa) = 59.96197 29.44914 66.91319
#
# Poissons Ratio (x) = 0.17314 -0.09124
# Poissons Ratio (y) = 0.35253 0.28196
# Poissons Ratio (z) = -0.08176 0.12409
#
# Static dielectric constant tensor:
#      x y z
#    x 1.978910 0.019280 -0.030480 
#    y 0.019280 2.048580 0.032670 
#    z -0.030480 0.032670 1.901150 
# 
# From -- ./inp_files/525016.got.cif
#   From: 2010.05.17/outbox.cif.g08.bks.cpg/sg2_263_cif.got.tgz:525016.got - 2010.06.03 11:33:40.
