data_PCOD9031707
_publ_section_title
;
Structure prediction by ZEFSAII (Michael W. Deem and Ramdas Pophale) SiO2 
 PCOD9031707
Probable space group: P -1
;
_chemical_formula_sum "Si O2"
_cell_formula_units_Z 16
_cell_length_a 8.398537
_cell_length_b 20.749710
_cell_length_c 16.595662
_cell_angle_alpha 20.583857
_cell_angle_beta 41.889181
_cell_angle_gamma 42.417337
_cell_volume 668.293275
_symmetry_space_group_name_H-M "P -1"
_symmetry_group_IT_number 2
_symmetry_cell_setting 'triclinic'
loop_
_space_group_symop_operation_xyz
x,y,z
-x,-y,-z
loop_
_atom_site_type_symbol
_atom_site_label
_atom_site_fract_x
_atom_site_fract_y
_atom_site_fract_z
Si Si1 0.099626 0.282786 0.477759
Si Si2 0.638913 0.437396 0.691316
Si Si3 0.697981 0.819644 0.647293
Si Si4 0.719272 0.491738 0.127934
Si Si5 0.979370 0.611449 0.253750
Si Si6 0.769650 0.997928 0.929962
Si Si7 0.146131 0.910580 0.472371
Si Si8 0.357622 0.986796 0.858949
O O1 0.239954 0.277237 0.347987
O O2 0.244555 0.133276 0.661827
O O3 0.043657 0.488372 0.294895
O O4 0.860131 0.192427 0.659103
O O5 0.372993 0.501294 0.753972
O O6 0.731485 0.556485 0.446853
O O7 0.811252 0.457722 0.678991
O O8 0.676525 0.222371 0.903387
O O9 0.941744 0.877876 0.523942
O O10 0.500000 0.000000 0.500000
O O11 0.596063 0.678230 0.911388
O O12 0.699222 0.294955 0.327527
O O13 0.000000 0.500000 0.000000
O O14 0.940504 0.833927 0.009095
O O15 0.765563 0.952597 0.080048
O O16 0.500000 0.000000 0.000000
O O17 0.352558 0.020885 0.236406
O O18 0.000000 0.000000 0.500000
#
# Coordination Sequence:
#
# PCOD9031707 Si02
#       8
#     2   2   2   2   2   2   2   2
#     4  12  24  46  70 104 140 186 235 294 363 424
#     4  11  21  42  75 102 132 183 241 295 349 429
#     4  11  25  46  71 104 148 187 239 300 353 434
#     4  10  22  43  68 100 137 186 237 292 349 427
#     4  11  24  42  71 104 136 183 241 293 358 423
#     4  12  26  45  65 102 144 184 237 296 359 426
#     4  11  23  44  70 104 140 190 240 292 362 423
#     4  12  22  44  71 100 139 185 233 295 361 427
#
# _framework density 23.941586000000001
#
# number of rings (size 3 to 8) (size 9 to 14) (size 15 to 20)
#    0.000    0.750    2.500    7.125    0.000    1.500 
#    9.000    3.125    0.000    0.000    0.000    0.000 
#    0.000    0.000    0.000    0.000    0.000    0.000 
#
# Total GULP energy -89618.313249 kJ/mol
# GULP energy per Si atom -5601.144578 kJ/mol
# Density = 2.388709 g / cm^3
# Si number density = 23.941586 Si / 1000 Ang^3
#
#
#
# Elastic Constant Matrix: (Units=GPa)
#
#
# Indices 1 2 3 4 5 6 
#
# 1 70.4090 32.4133 26.2982 -7.8396 -9.7958 8.2661
# 2 32.4133 147.8711 28.3299 -15.3023 -11.8148 24.9909
# 3 26.2982 28.3299 84.0511 -10.4116 -17.0530 10.7375
# 4 -7.8396 -15.3023 -10.4116 51.4046 3.8028 -7.1541
# 5 -9.7958 -11.8148 -17.0530 3.8028 37.4654 -1.5511
# 6 8.2661 24.9909 10.7375 -7.1541 -1.5511 45.3672
#
#
#
# Elastic Compliance Matrix: (Units=1/GPa)
#
#
# Indices 1 2 3 4 5 6 
#
# 1 0.017342 -0.002724 -0.003982 0.000824 0.001757 -0.000527
# 2 -0.002724 0.008413 -0.001129 0.001270 0.001148 -0.003631
# 3 -0.003982 -0.001129 0.014989 0.001458 0.005203 -0.001792
# 4 0.000824 0.001270 0.001458 0.020588 -0.000726 0.002027
# 5 0.001757 0.001148 0.005203 -0.000726 0.029902 -0.001276
# 6 -0.000527 -0.003631 -0.001792 0.002027 -0.001276 0.024839
#
#
# Mechanical properties :
#
#
# Convention : Reuss Voigt Hill
#
# Bulk Modulus (GPa) = 39.88195 52.93486 46.40841
# Shear Modulus (GPa) = 35.68839 41.20009 38.44424
#
# Velocity S-wave (km/s) = 3.86508 4.15282 4.01153
# Velocity P-wave (km/s) = 6.05083 6.71957 6.39395
#
# Compressibility (1/GPa) = 0.02507400
#
# Stress axis : x y z
#
# Youngs Moduli (GPa) = 57.66328 118.86562 66.71416
#
# Poissons Ratio (x) = 0.32376 0.26566
# Poissons Ratio (y) = 0.15706 0.07534
# Poissons Ratio (z) = 0.22962 0.13424
#
# Static dielectric constant tensor:
#      x y z
#    x 1.967020 -0.053590 -0.008740 
#    y -0.053590 1.897800 0.018540 
#    z -0.008740 0.018540 1.945800 
# 
# From -- ./inp_files/338113.got.cif
#   From: 2010.05.17/outbox.cif.g08.bks.cpg/sg2_170_cif.got.tgz:338113.got - 2010.06.03 11:33:40.
