data_PCOD9031773
_publ_section_title
;
Structure prediction by ZEFSAII (Michael W. Deem and Ramdas Pophale) SiO2 
 PCOD9031773
Probable space group: P -1
;
_chemical_formula_sum "Si O2"
_cell_formula_units_Z 14
_cell_length_a 4.946292
_cell_length_b 11.374857
_cell_length_c 13.075284
_cell_angle_alpha 85.425093
_cell_angle_beta 70.573474
_cell_angle_gamma 119.223382
_cell_volume 578.678553
_symmetry_space_group_name_H-M "P -1"
_symmetry_group_IT_number 2
_symmetry_cell_setting 'triclinic'
loop_
_space_group_symop_operation_xyz
x,y,z
-x,-y,-z
loop_
_atom_site_type_symbol
_atom_site_label
_atom_site_fract_x
_atom_site_fract_y
_atom_site_fract_z
Si Si1 0.352932 0.113320 0.890318
Si Si2 0.429723 0.561596 0.844869
Si Si3 0.023741 0.892772 0.250489
Si Si4 0.984376 0.305724 0.375568
Si Si5 0.614192 0.178124 0.230634
Si Si6 0.826333 0.699582 0.996588
Si Si7 0.616423 0.661405 0.484684
O O1 0.699062 0.115724 0.853771
O O2 0.393192 0.254409 0.918742
O O3 0.247316 0.100145 0.786014
O O4 0.000000 0.000000 0.000000
O O5 0.358230 0.673823 0.799078
O O6 0.137426 0.406537 0.928346
O O7 0.690488 0.561797 0.731588
O O8 0.631418 0.627591 0.920550
O O9 0.826320 0.756352 0.355566
O O10 0.243307 0.037015 0.277466
O O11 0.792787 0.193419 0.315579
O O12 0.720926 0.337847 0.453870
O O13 0.143233 0.268584 0.450821
O O14 0.815000 0.177312 0.104527
O O15 0.500000 0.500000 0.500000
#
# Coordination Sequence:
#
# PCOD9031773 Si02
#       7
#     2   2   2   2   2   2   2
#     4  12  25  46  69 108 142 189 224 281 354 419
#     4  10  22  43  68 109 134 187 228 290 345 413
#     4  12  29  44  73 103 143 188 233 288 346 410
#     4  11  25  47  74  99 133 185 230 294 347 400
#     4  11  23  45  71 105 142 177 239 283 352 421
#     4  10  23  38  71 101 148 178 233 283 347 421
#     4  12  28  50  70 102 139 181 240 292 343 411
#
# _framework density 24.193052999999999
#
# number of rings (size 3 to 8) (size 9 to 14) (size 15 to 20)
#    0.000    0.857    2.857    3.000    8.000    1.143 
#    0.000    0.000    0.000    0.000    0.000    0.000 
#    0.000    0.000    0.000    0.000    0.000    0.000 
#
# Total GULP energy -78307.716694 kJ/mol
# GULP energy per Si atom -5593.408335 kJ/mol
# Density = 2.413799 g / cm^3
# Si number density = 24.193053 Si / 1000 Ang^3
#
#
#
# Elastic Constant Matrix: (Units=GPa)
#
#
# Indices 1 2 3 4 5 6 
#
# 1 89.9980 2.5892 13.0956 -2.0951 -3.1880 -6.3885
# 2 2.5892 55.0949 26.7274 -12.6638 -4.6027 -2.2425
# 3 13.0956 26.7274 97.7447 -7.8972 1.5042 9.2673
# 4 -2.0951 -12.6638 -7.8972 25.5534 -10.1619 -3.1367
# 5 -3.1880 -4.6027 1.5042 -10.1619 42.6847 10.6800
# 6 -6.3885 -2.2425 9.2673 -3.1367 10.6800 31.9556
#
#
#
# Elastic Compliance Matrix: (Units=1/GPa)
#
#
# Indices 1 2 3 4 5 6 
#
# 1 0.011633 0.000906 -0.001976 0.001404 0.000649 0.002883
# 2 0.000906 0.024631 -0.006207 0.012822 0.005185 0.003235
# 3 -0.001976 -0.006207 0.012621 0.000063 -0.000136 -0.004439
# 4 0.001404 0.012822 0.000063 0.051091 0.013207 0.001763
# 5 0.000649 0.005185 -0.000136 0.013207 0.029165 -0.007918
# 6 0.002883 0.003235 -0.004439 0.001763 -0.007918 0.036204
#
#
# Mechanical properties :
#
#
# Convention : Reuss Voigt Hill
#
# Bulk Modulus (GPa) = 29.12815 36.40690 32.76752
# Shear Modulus (GPa) = 26.13099 33.40045 29.76572
#
# Velocity S-wave (km/s) = 3.29006 3.71965 3.51143
# Velocity P-wave (km/s) = 5.14768 5.79041 5.47848
#
# Compressibility (1/GPa) = 0.03433105
#
# Stress axis : x y z
#
# Youngs Moduli (GPa) = 85.96072 40.59892 79.23360
#
# Poissons Ratio (x) = -0.03680 0.15659
# Poissons Ratio (y) = -0.07792 0.49182
# Poissons Ratio (z) = 0.16989 0.25201
#
# Static dielectric constant tensor:
#      x y z
#    x 1.922550 -0.028470 -0.035590 
#    y -0.028470 2.003710 0.003980 
#    z -0.035590 0.003980 1.928230 
# 
# From -- ./inp_files/62770.got.cif
#   From: 2010.05.17/outbox.cif.g08.bks.cpg/sg2_32_cif.got.tgz:62770.got - 2010.06.03 11:33:40.
