data_PCOD9031670
_publ_section_title
;
Structure prediction by ZEFSAII (Michael W. Deem and Ramdas Pophale) SiO2 
 PCOD9031670
Probable space group: P -1
;
_chemical_formula_sum "Si O2"
_cell_formula_units_Z 12
_cell_length_a 14.303783
_cell_length_b 7.935560
_cell_length_c 14.584494
_cell_angle_alpha 126.839126
_cell_angle_beta 20.873787
_cell_angle_gamma 129.476257
_cell_volume 455.213186
_symmetry_space_group_name_H-M "P -1"
_symmetry_group_IT_number 2
_symmetry_cell_setting 'triclinic'
loop_
_space_group_symop_operation_xyz
x,y,z
-x,-y,-z
loop_
_atom_site_type_symbol
_atom_site_label
_atom_site_fract_x
_atom_site_fract_y
_atom_site_fract_z
Si Si1 0.336220 0.270870 0.157456
Si Si2 0.479030 0.901856 0.803406
Si Si3 0.270702 0.626489 0.743633
Si Si4 0.884038 0.578859 0.765884
Si Si5 0.028368 0.810253 0.332647
Si Si6 0.812804 0.131141 0.264180
O O1 0.135123 0.344140 0.295594
O O2 0.201626 0.064278 0.278550
O O3 0.565146 0.476130 0.052350
O O4 0.504294 0.148223 0.893635
O O5 0.382864 0.851741 0.771015
O O6 0.752594 0.828653 0.543784
O O7 0.237988 0.769117 0.048364
O O8 0.500000 0.500000 0.500000
O O9 0.191467 0.659918 0.724194
O O10 0.000000 0.500000 0.000000
O O11 0.003946 0.377743 0.622342
O O12 0.054865 0.786466 0.733182
O O13 0.500000 0.000000 0.500000
O O14 0.000000 0.000000 0.000000
#
# Coordination Sequence:
#
# PCOD9031670 Si02
#       6
#     2   2   2   2   2   2
#     4   9  24  44  72 102 139 177 229 290 342 412
#     4  10  22  43  67  98 139 172 224 288 335 401
#     4  12  24  42  70 100 134 186 234 274 345 413
#     4  11  22  48  70 104 135 187 227 283 353 407
#     4  10  23  44  69 104 135 175 227 283 344 410
#     4  12  28  46  69 103 143 182 233 290 341 418
#
# _framework density 26.361276
#
# number of rings (size 3 to 8) (size 9 to 14) (size 15 to 20)
#    1.000    0.333    0.000    5.500    2.333    2.000 
#    6.000    1.667    0.000    0.000    0.000    0.000 
#    0.000    0.000    0.000    0.000    0.000    0.000 
#
# Total GULP energy -67151.435281 kJ/mol
# GULP energy per Si atom -5595.952940 kJ/mol
# Density = 2.630128 g / cm^3
# Si number density = 26.361276 Si / 1000 Ang^3
#
#
#
# Elastic Constant Matrix: (Units=GPa)
#
#
# Indices 1 2 3 4 5 6 
#
# 1 137.7894 26.7633 26.0042 -10.8913 -25.7393 4.4641
# 2 26.7633 105.4557 43.4417 -19.3025 -9.3105 9.0434
# 3 26.0042 43.4417 155.4700 -12.4054 -41.5401 -3.2894
# 4 -10.8913 -19.3025 -12.4054 55.2708 -8.7995 -8.0168
# 5 -25.7393 -9.3105 -41.5401 -8.7995 37.8842 -5.6583
# 6 4.4641 9.0434 -3.2894 -8.0168 -5.6583 63.1056
#
#
#
# Elastic Compliance Matrix: (Units=1/GPa)
#
#
# Indices 1 2 3 4 5 6 
#
# 1 0.009019 -0.001674 0.001327 0.002865 0.007949 0.000748
# 2 -0.001674 0.011704 -0.003180 0.002606 -0.001369 -0.001516
# 3 0.001327 -0.003180 0.011172 0.004243 0.013762 0.002717
# 4 0.002865 0.002606 0.004243 0.023165 0.013183 0.003770
# 5 0.007949 -0.001369 0.013762 0.013183 0.050592 0.006562
# 6 0.000748 -0.001516 0.002717 0.003770 0.006562 0.017220
#
#
# Mechanical properties :
#
#
# Convention : Reuss Voigt Hill
#
# Bulk Modulus (GPa) = 40.25559 65.68148 52.96853
# Shear Modulus (GPa) = 36.17794 51.41917 43.79855
#
# Velocity S-wave (km/s) = 3.70860 4.42130 4.08054
# Velocity P-wave (km/s) = 5.80018 7.14380 6.50677
#
# Compressibility (1/GPa) = 0.02484127
#
# Stress axis : x y z
#
# Youngs Moduli (GPa) = 110.87553 85.44355 89.51122
#
# Poissons Ratio (x) = 0.14301 -0.11882
# Poissons Ratio (y) = 0.18558 0.28467
# Poissons Ratio (z) = -0.14718 0.27174
#
# Static dielectric constant tensor:
#      x y z
#    x 2.030950 0.048030 0.093700 
#    y 0.048030 2.147420 0.039980 
#    z 0.093700 0.039980 2.164220 
# 
# From -- ./inp_files/530080.got.cif
#   From: 2010.05.17/outbox.cif.g08.bks.cpg/sg2_266_cif.got.tgz:530080.got - 2010.06.03 11:33:40.
