data_PCOD9031787
_publ_section_title
;
Structure prediction by ZEFSAII (Michael W. Deem and Ramdas Pophale) SiO2 
 PCOD9031787
Probable space group: P -1
;
_chemical_formula_sum "Si O2"
_cell_formula_units_Z 16
_cell_length_a 8.790746
_cell_length_b 22.553568
_cell_length_c 12.798182
_cell_angle_alpha 161.402509
_cell_angle_beta 101.270132
_cell_angle_gamma 78.903375
_cell_volume 793.405836
_symmetry_space_group_name_H-M "P -1"
_symmetry_group_IT_number 2
_symmetry_cell_setting 'triclinic'
loop_
_space_group_symop_operation_xyz
x,y,z
-x,-y,-z
loop_
_atom_site_type_symbol
_atom_site_label
_atom_site_fract_x
_atom_site_fract_y
_atom_site_fract_z
Si Si1 0.776159 0.473212 0.634941
Si Si2 0.318180 0.370677 0.687774
Si Si3 0.033161 0.790357 0.190190
Si Si4 0.173549 0.569983 0.659273
Si Si5 0.515014 0.026095 0.170070
Si Si6 0.455276 0.386399 0.501302
Si Si7 0.808644 0.246662 0.624807
Si Si8 0.018569 0.781761 0.613166
O O1 0.775483 0.375283 0.357930
O O2 0.598996 0.517299 0.716100
O O3 0.853436 0.329246 0.486873
O O4 0.884073 0.655032 0.946081
O O5 0.400757 0.198032 0.470263
O O6 0.407614 0.399748 0.639143
O O7 0.144844 0.308649 0.534574
O O8 0.293667 0.561428 0.066016
O O9 0.109113 0.777579 0.293371
O O10 0.000000 0.000000 0.500000
O O11 0.152868 0.713000 0.989799
O O12 0.302635 0.425636 0.478076
O O13 0.000000 0.500000 0.500000
O O14 0.688902 0.083877 0.315847
O O15 0.500000 0.000000 0.000000
O O16 0.484607 0.821962 0.866463
O O17 0.932198 0.247344 0.549078
O O18 0.000000 0.000000 0.000000
#
# Coordination Sequence:
#
# PCOD9031787 Si02
#       8
#     2   2   2   2   2   2   2   2
#     4  11  24  43  69  99 137 177 226 289 331 413
#     4  11  21  42  62 100 137 178 219 280 347 405
#     4  11  26  46  69 100 133 183 233 281 348 400
#     4  10  22  43  68  92 130 182 230 275 329 402
#     4  10  23  39  65  96 135 179 221 274 342 415
#     4  11  21  43  67  99 134 176 231 276 345 404
#     4  12  24  43  68  97 141 178 228 292 341 406
#     4  12  24  41  69 101 135 178 233 276 346 412
#
# _framework density 20.166225000000001
#
# number of rings (size 3 to 8) (size 9 to 14) (size 15 to 20)
#    0.000    1.000    2.500    5.625    5.250    0.000 
#    0.000    0.625    0.000    0.000    0.000    0.000 
#    0.000    0.000    0.000    0.000    0.000    0.000 
#
# Total GULP energy -89348.606032 kJ/mol
# GULP energy per Si atom -5584.287877 kJ/mol
# Density = 2.012033 g / cm^3
# Si number density = 20.166225 Si / 1000 Ang^3
#
#
#
# Elastic Constant Matrix: (Units=GPa)
#
#
# Indices 1 2 3 4 5 6 
#
# 1 117.0677 38.0497 30.7432 -8.0719 0.6573 5.4610
# 2 38.0497 125.4119 45.7718 -8.5700 -17.8110 0.8335
# 3 30.7432 45.7718 102.8181 4.0351 -4.4030 5.6166
# 4 -8.0719 -8.5700 4.0351 32.6174 -2.7242 -12.9751
# 5 0.6573 -17.8110 -4.4030 -2.7242 36.4471 -4.1728
# 6 5.4610 0.8335 5.6166 -12.9751 -4.1728 37.7912
#
#
#
# Elastic Compliance Matrix: (Units=1/GPa)
#
#
# Indices 1 2 3 4 5 6 
#
# 1 0.010010 -0.002399 -0.002021 0.001696 -0.001548 -0.000682
# 2 -0.002399 0.011457 -0.004481 0.004646 0.005791 0.002994
# 3 -0.002021 -0.004481 0.012625 -0.004634 -0.001344 -0.003225
# 4 0.001696 0.004646 -0.004634 0.039154 0.006264 0.014476
# 5 -0.001548 0.005791 -0.001344 0.006264 0.031276 0.005900
# 6 -0.000682 0.002994 -0.003225 0.014476 0.005900 0.032594
#
#
# Mechanical properties :
#
#
# Convention : Reuss Voigt Hill
#
# Bulk Modulus (GPa) = 61.38310 63.82524 62.60417
# Shear Modulus (GPa) = 31.18219 36.75334 33.96776
#
# Velocity S-wave (km/s) = 3.93651 4.27373 4.10858
# Velocity P-wave (km/s) = 7.15305 7.48808 7.32248
#
# Compressibility (1/GPa) = 0.01629113
#
# Stress axis : x y z
#
# Youngs Moduli (GPa) = 99.90122 87.28340 79.20524
#
# Poissons Ratio (x) = 0.20938 0.16005
# Poissons Ratio (y) = 0.23965 0.35491
# Poissons Ratio (z) = 0.20187 0.39111
#
# Static dielectric constant tensor:
#      x y z
#    x 1.744870 -0.016280 -0.009860 
#    y -0.016280 1.709070 0.010030 
#    z -0.009860 0.010030 1.729700 
# 
# From -- ./inp_files/184313.got.cif
#   From: 2010.05.17/outbox.cif.g08.bks.cpg/sg2_93_cif.got.tgz:184313.got - 2010.06.03 11:33:40.
