data_PCOD9031993
_publ_section_title
;
Structure prediction by ZEFSAII (Michael W. Deem and Ramdas Pophale) SiO2 
 PCOD9031993
Probable space group: P -1
;
_chemical_formula_sum "Si O2"
_cell_formula_units_Z 16
_cell_length_a 10.850430
_cell_length_b 11.635558
_cell_length_c 11.179547
_cell_angle_alpha 104.321946
_cell_angle_beta 127.176714
_cell_angle_gamma 118.248359
_cell_volume 643.950846
_symmetry_space_group_name_H-M "P -1"
_symmetry_group_IT_number 2
_symmetry_cell_setting 'triclinic'
loop_
_space_group_symop_operation_xyz
x,y,z
-x,-y,-z
loop_
_atom_site_type_symbol
_atom_site_label
_atom_site_fract_x
_atom_site_fract_y
_atom_site_fract_z
Si Si1 0.746667 0.407830 0.090643
Si Si2 0.752630 0.682036 0.085057
Si Si3 0.221935 0.340652 0.361757
Si Si4 0.446051 0.806282 0.383756
Si Si5 0.182268 0.418584 0.610073
Si Si6 0.804508 0.016602 0.415641
Si Si7 0.014491 0.643792 0.956774
Si Si8 0.102520 0.012599 0.186475
O O1 0.797445 0.571104 0.110274
O O2 0.825438 0.463787 0.290434
O O3 0.892437 0.399695 0.095282
O O4 0.438912 0.192938 0.847150
O O5 0.923818 0.859387 0.331449
O O6 0.446623 0.520068 0.846804
O O7 0.883599 0.800906 0.068428
O O8 0.500000 0.500000 0.500000
O O9 0.218749 0.430222 0.493027
O O10 0.152878 0.167827 0.327516
O O11 0.025619 0.266793 0.125421
O O12 0.623177 0.887997 0.623574
O O13 0.261307 0.574529 0.210270
O O14 0.650260 0.951338 0.432974
O O15 0.230620 0.773902 0.222388
O O16 0.922386 0.187961 0.439726
O O17 0.000000 0.000000 0.000000
#
# Coordination Sequence:
#
# PCOD9031993 Si02
#       8
#     2   2   2   2   2   2   2   2
#     4  10  22  43  69 102 143 182 241 290 353 427
#     4  10  23  39  65 105 138 185 234 288 351 419
#     4  12  26  46  72 100 142 186 235 295 359 426
#     4   9  20  41  69  99 138 178 236 287 344 416
#     4  11  25  40  68 104 140 190 233 294 353 423
#     4   9  20  40  65 102 137 182 234 289 349 409
#     4  10  22  43  73 105 134 196 232 291 365 415
#     4  11  24  43  69 105 144 181 237 296 357 424
#
# _framework density 24.846616000000001
#
# number of rings (size 3 to 8) (size 9 to 14) (size 15 to 20)
#    0.000    1.750    1.250    2.250    7.000    4.500 
#    0.000   15.000    0.000    0.000    0.000    0.000 
#    0.000    0.000    0.000    0.000    0.000    0.000 
#
# Total GULP energy -89276.663197 kJ/mol
# GULP energy per Si atom -5579.791450 kJ/mol
# Density = 2.479006 g / cm^3
# Si number density = 24.846616 Si / 1000 Ang^3
#
#
#
# Elastic Constant Matrix: (Units=GPa)
#
#
# Indices 1 2 3 4 5 6 
#
# 1 97.3196 32.1117 37.9149 3.4366 -8.3777 16.6084
# 2 32.1117 107.1191 74.9959 9.3996 5.9850 -4.1539
# 3 37.9149 74.9959 162.2674 -11.8955 8.7924 16.4250
# 4 3.4366 9.3996 -11.8955 51.5398 9.0892 9.5343
# 5 -8.3777 5.9850 8.7924 9.0892 46.1989 -2.4487
# 6 16.6084 -4.1539 16.4250 9.5343 -2.4487 42.4184
#
#
#
# Elastic Compliance Matrix: (Units=1/GPa)
#
#
# Indices 1 2 3 4 5 6 
#
# 1 0.012890 -0.003423 -0.001102 -0.000092 0.002756 -0.004776
# 2 -0.003423 0.017014 -0.008322 -0.006284 0.000401 0.007664
# 3 -0.001102 -0.008322 0.011492 0.005908 -0.002806 -0.006323
# 4 -0.000092 -0.006284 0.005908 0.024518 -0.005612 -0.008702
# 5 0.002756 0.000401 -0.002806 -0.005612 0.023874 0.002687
# 6 -0.004776 0.007664 -0.006323 -0.008702 0.002687 0.030754
#
#
# Mechanical properties :
#
#
# Convention : Reuss Voigt Hill
#
# Bulk Modulus (GPa) = 63.69212 72.97235 68.33224
# Shear Modulus (GPa) = 33.00986 42.81032 37.91009
#
# Velocity S-wave (km/s) = 3.64888 4.15539 3.91034
# Velocity P-wave (km/s) = 6.59107 7.24264 6.92452
#
# Compressibility (1/GPa) = 0.01570053
#
# Stress axis : x y z
#
# Youngs Moduli (GPa) = 77.58000 58.77479 87.02056
#
# Poissons Ratio (x) = 0.20121 0.09592
# Poissons Ratio (y) = 0.26559 0.72417
# Poissons Ratio (z) = 0.08551 0.48911
#
# Static dielectric constant tensor:
#      x y z
#    x 2.107920 -0.043320 -0.082710 
#    y -0.043320 1.964550 -0.005960 
#    z -0.082710 -0.005960 2.018830 
# 
# From -- ./inp_files/428452.got.cif
#   From: 2010.05.17/outbox.cif.g08.bks.cpg/sg2_215_cif.got.tgz:428452.got - 2010.06.03 11:33:40.
