data_PCOD9031133
_publ_section_title
;
Structure prediction by ZEFSAII (Michael W. Deem and Ramdas Pophale) SiO2 
 PCOD9031133
Probable space group: P -1
;
_chemical_formula_sum "Si O2"
_cell_formula_units_Z 14
_cell_length_a 9.810961
_cell_length_b 7.641712
_cell_length_c 10.815178
_cell_angle_alpha 90.072084
_cell_angle_beta 135.740331
_cell_angle_gamma 73.480722
_cell_volume 517.125457
_symmetry_space_group_name_H-M "P -1"
_symmetry_group_IT_number 2
_symmetry_cell_setting 'triclinic'
loop_
_space_group_symop_operation_xyz
x,y,z
-x,-y,-z
loop_
_atom_site_type_symbol
_atom_site_label
_atom_site_fract_x
_atom_site_fract_y
_atom_site_fract_z
Si Si1 0.215825 0.749822 0.239773
Si Si2 0.339496 0.114369 0.788765
Si Si3 0.231980 0.493338 0.811156
Si Si4 0.497466 0.723911 0.773213
Si Si5 0.885066 0.359337 0.569491
Si Si6 0.622234 0.770145 0.587088
Si Si7 0.946609 0.191794 0.138981
O O1 0.176498 0.630481 0.326190
O O2 0.463751 0.714190 0.399924
O O3 0.059348 0.963518 0.188976
O O4 0.158925 0.731917 0.062330
O O5 0.357872 0.319758 0.794491
O O6 0.096878 0.169452 0.674182
O O7 0.400569 0.956303 0.722268
O O8 0.500000 0.000000 0.000000
O O9 0.994176 0.508931 0.624361
O O10 0.200000 0.706480 0.836120
O O11 0.342197 0.378800 0.010401
O O12 0.303318 0.655385 0.634732
O O13 0.609981 0.689300 0.714542
O O14 0.860741 0.743501 0.722993
O O15 0.500000 0.000000 0.500000
#
# Coordination Sequence:
#
# PCOD9031133 Si02
#       7
#     2   2   2   2   2   2   2
#     4   9  19  33  51  72  96 140 167 195 246 302
#     4   8  17  32  50  76  97 128 166 204 243 295
#     4   9  20  31  49  79 103 125 166 206 247 287
#     4  10  17  32  53  74 100 132 163 206 245 290
#     4   9  18  31  51  76  95 128 170 204 241 290
#     4   9  19  32  50  74  97 131 168 199 240 298
#     4  10  19  34  50  71 108 130 162 206 248 289
#
# _framework density 27.072737
#
# number of rings (size 3 to 8) (size 9 to 14) (size 15 to 20)
#    0.857    2.000    0.000    1.286    0.000    3.429 
#    0.000    2.857    0.000   11.143    0.000    0.000 
#    0.000    0.000    0.000    0.000    0.000    0.000 
#
# Total GULP energy -78046.402778 kJ/mol
# GULP energy per Si atom -5574.743056 kJ/mol
# Density = 2.701112 g / cm^3
# Si number density = 27.072737 Si / 1000 Ang^3
#
#
#
# Elastic Constant Matrix: (Units=GPa)
#
#
# Indices 1 2 3 4 5 6 
#
# 1 44.4970 21.1925 53.9711 4.7055 5.3972 -15.6327
# 2 21.1925 171.6985 24.8845 6.7328 -14.5666 -31.1045
# 3 53.9711 24.8845 161.5101 4.0200 -7.5088 1.8829
# 4 4.7055 6.7328 4.0200 28.3229 2.3549 -9.3413
# 5 5.3972 -14.5666 -7.5088 2.3549 22.1248 13.9352
# 6 -15.6327 -31.1045 1.8829 -9.3413 13.9352 39.2843
#
#
#
# Elastic Compliance Matrix: (Units=1/GPa)
#
#
# Indices 1 2 3 4 5 6 
#
# 1 0.137058 -0.001474 -0.053302 0.030622 -0.123061 0.106863
# 2 -0.001474 0.007036 -0.000536 -0.000147 0.002179 0.004202
# 3 -0.053302 -0.000536 0.027339 -0.013841 0.051414 -0.044474
# 4 0.030622 -0.000147 -0.013841 0.048678 -0.042179 0.039270
# 5 -0.123061 0.002179 0.051414 -0.042179 0.175408 -0.121961
# 6 0.106863 0.004202 -0.044474 0.039270 -0.121961 0.126040
#
#
# Mechanical properties :
#
#
# Convention : Reuss Voigt Hill
#
# Bulk Modulus (GPa) = 16.44480 64.20019 40.32249
# Shear Modulus (GPa) = 7.66343 36.45690 22.06016
#
# Velocity S-wave (km/s) = 1.68429 3.67362 2.85765
# Velocity P-wave (km/s) = 3.14164 6.46216 5.08082
#
# Compressibility (1/GPa) = 0.06080950
#
# Stress axis : x y z
#
# Youngs Moduli (GPa) = 7.29620 142.13611 36.57773
#
# Poissons Ratio (x) = 0.20947 1.94967
# Poissons Ratio (y) = 0.01075 0.01959
# Poissons Ratio (z) = 0.38890 0.07612
#
# Static dielectric constant tensor:
#      x y z
#    x 2.446490 -0.071900 0.116620 
#    y -0.071900 2.271010 -0.067130 
#    z 0.116620 -0.067130 2.055500 
# 
# From -- ./inp_files/332141.got.cif
#   From: 2010.05.17/outbox.cif.g08.bks.cpg/sg2_167_cif.got.tgz:332141.got - 2010.06.03 11:33:40.
