data_PCOD9031957
_publ_section_title
;
Structure prediction by ZEFSAII (Michael W. Deem and Ramdas Pophale) SiO2 
 PCOD9031957
Probable space group: P -1
;
_chemical_formula_sum "Si O2"
_cell_formula_units_Z 10
_cell_length_a 14.699631
_cell_length_b 10.010834
_cell_length_c 8.075804
_cell_angle_alpha 47.077081
_cell_angle_beta 31.898679
_cell_angle_gamma 47.396699
_cell_volume 444.619512
_symmetry_space_group_name_H-M "P -1"
_symmetry_group_IT_number 2
_symmetry_cell_setting 'triclinic'
loop_
_space_group_symop_operation_xyz
x,y,z
-x,-y,-z
loop_
_atom_site_type_symbol
_atom_site_label
_atom_site_fract_x
_atom_site_fract_y
_atom_site_fract_z
Si Si1 0.627100 0.387624 0.754336
Si Si2 0.142810 0.301900 0.427259
Si Si3 0.017011 0.188855 0.400805
Si Si4 0.638081 0.691224 0.222511
Si Si5 0.444328 0.064114 0.345837
O O1 0.605522 0.514736 0.517504
O O2 0.831987 0.342269 0.531257
O O3 0.500000 0.500000 0.000000
O O4 0.575675 0.190630 0.980694
O O5 0.056820 0.171333 0.551284
O O6 0.244226 0.192547 0.520059
O O7 0.000000 0.500000 0.500000
O O8 0.299017 0.341946 0.034946
O O9 0.186167 0.256556 0.014849
O O10 0.000000 0.000000 0.500000
O O11 0.478987 0.876541 0.339406
O O12 0.500000 0.000000 0.500000
#
# Coordination Sequence:
#
# PCOD9031957 Si02
#       5
#     2   2   2   2   2
#     4  12  22  40  71 102 137 190 234 286 359 418
#     4  10  24  45  70 106 146 183 240 294 351 423
#     4  10  22  43  69 100 141 187 232 288 354 417
#     4  10  24  42  72  98 145 182 239 286 354 420
#     4  12  24  43  71 104 145 186 236 294 358 422
#
# _framework density 22.491143000000001
#
# number of rings (size 3 to 8) (size 9 to 14) (size 15 to 20)
#    1.200    0.000    4.000    2.400    0.000    0.800 
#    0.000    1.000    0.000    0.000    0.000    0.000 
#    0.000    0.000    0.000    0.000    0.000    0.000 
#
# Total GULP energy -55846.539272 kJ/mol
# GULP energy per Si atom -5584.653927 kJ/mol
# Density = 2.243995 g / cm^3
# Si number density = 22.491143 Si / 1000 Ang^3
#
#
#
# Elastic Constant Matrix: (Units=GPa)
#
#
# Indices 1 2 3 4 5 6 
#
# 1 111.8822 55.5186 21.9428 -3.4323 0.5970 -19.1835
# 2 55.5186 146.4578 40.5249 14.5594 6.1011 -24.5917
# 3 21.9428 40.5249 54.5883 -18.2072 -0.2024 -1.8618
# 4 -3.4323 14.5594 -18.2072 49.0818 0.1985 -1.3283
# 5 0.5970 6.1011 -0.2024 0.1985 43.6689 2.4728
# 6 -19.1835 -24.5917 -1.8618 -1.3283 2.4728 35.5460
#
#
#
# Elastic Compliance Matrix: (Units=1/GPa)
#
#
# Indices 1 2 3 4 5 6 
#
# 1 0.011674 -0.003517 -0.001479 0.001414 0.000101 0.003835
# 2 -0.003517 0.013095 -0.010741 -0.007932 -0.002161 0.006453
# 3 -0.001479 -0.010741 0.031559 0.014615 0.001950 -0.006166
# 4 0.001414 -0.007932 0.014615 0.028162 0.001198 -0.002989
# 5 0.000101 -0.002161 0.001950 0.001198 0.023369 -0.002919
# 6 0.003835 0.006453 -0.006166 -0.002989 -0.002919 0.034435
#
#
# Mechanical properties :
#
#
# Convention : Reuss Voigt Hill
#
# Bulk Modulus (GPa) = 40.23470 60.98897 50.61183
# Shear Modulus (GPa) = 27.46478 38.65546 33.06012
#
# Velocity S-wave (km/s) = 3.49827 4.15021 3.83811
# Velocity P-wave (km/s) = 5.85194 7.08106 6.49564
#
# Compressibility (1/GPa) = 0.02485417
#
# Stress axis : x y z
#
# Youngs Moduli (GPa) = 85.66347 76.36425 31.68687
#
# Poissons Ratio (x) = 0.26856 0.04685
# Poissons Ratio (y) = 0.30127 0.34035
# Poissons Ratio (z) = 0.12666 0.82024
#
# Static dielectric constant tensor:
#      x y z
#    x 1.844690 -0.054140 -0.037190 
#    y -0.054140 1.785250 -0.000160 
#    z -0.037190 -0.000160 1.817320 
# 
# From -- ./inp_files/152961.got.cif
#   From: 2010.05.17/outbox.cif.g08.bks.cpg/sg2_77_cif.got.tgz:152961.got - 2010.06.03 11:33:40.
