data_PCOD9031153
_publ_section_title
;
Structure prediction by ZEFSAII (Michael W. Deem and Ramdas Pophale) SiO2 
 PCOD9031153
Probable space group: P -1
;
_chemical_formula_sum "Si O2"
_cell_formula_units_Z 10
_cell_length_a 12.258692
_cell_length_b 10.562673
_cell_length_c 9.037634
_cell_angle_alpha 115.861165
_cell_angle_beta 90.441811
_cell_angle_gamma 144.578389
_cell_volume 438.046263
_symmetry_space_group_name_H-M "P -1"
_symmetry_group_IT_number 2
_symmetry_cell_setting 'triclinic'
loop_
_space_group_symop_operation_xyz
x,y,z
-x,-y,-z
loop_
_atom_site_type_symbol
_atom_site_label
_atom_site_fract_x
_atom_site_fract_y
_atom_site_fract_z
Si Si1 0.388989 0.729869 0.285208
Si Si2 0.802852 0.692235 0.511769
Si Si3 0.439110 0.324223 0.587005
Si Si4 0.448562 0.794317 0.977448
Si Si5 0.142817 0.971351 0.906812
O O1 0.587141 0.834490 0.381292
O O2 0.114042 0.361405 0.168045
O O3 0.500000 0.000000 0.500000
O O4 0.355067 0.709106 0.099930
O O5 0.553884 0.395558 0.471929
O O6 0.796856 0.846507 0.536711
O O7 0.742096 0.517319 0.289148
O O8 0.048311 0.932320 0.733570
O O9 0.665088 0.692777 0.840928
O O10 0.500000 0.000000 0.000000
O O11 0.704863 0.995552 0.096002
#
# Coordination Sequence:
#
# PCOD9031153 Si02
#       5
#     2   2   2   2   2
#     4  11  23  40  64  91 123 162 202 249 305 361
#     4   9  18  36  63  87 118 159 198 246 297 353
#     4   9  19  40  64  90 124 159 200 248 301 362
#     4  11  24  40  60  91 126 159 204 253 299 358
#     4  10  22  43  65  87 124 164 197 248 308 358
#
# _framework density 22.828637000000001
#
# number of rings (size 3 to 8) (size 9 to 14) (size 15 to 20)
#    0.000    2.000    0.000    4.800    0.000    7.200 
#    0.000   19.000    0.000    0.000    0.000    0.000 
#    0.000    0.000    0.000    0.000    0.000    0.000 
#
# Total GULP energy -55979.225188 kJ/mol
# GULP energy per Si atom -5597.922519 kJ/mol
# Density = 2.277668 g / cm^3
# Si number density = 22.828637 Si / 1000 Ang^3
#
#
#
# Elastic Constant Matrix: (Units=GPa)
#
#
# Indices 1 2 3 4 5 6 
#
# 1 133.2751 66.9103 69.4410 -4.4562 3.3979 -29.8300
# 2 66.9103 118.2958 75.6703 -22.4755 -6.0271 -24.5926
# 3 69.4410 75.6703 122.5769 -47.6059 -1.7487 -4.6594
# 4 -4.4562 -22.4755 -47.6059 33.7015 -0.4849 4.8992
# 5 3.3979 -6.0271 -1.7487 -0.4849 45.9044 -10.1393
# 6 -29.8300 -24.5926 -4.6594 4.8992 -10.1393 41.8295
#
#
#
# Elastic Compliance Matrix: (Units=1/GPa)
#
#
# Indices 1 2 3 4 5 6 
#
# 1 0.028095 0.002361 -0.034827 -0.047296 0.001588 0.023469
# 2 0.002361 0.019035 -0.018165 -0.014571 0.004493 0.013647
# 3 -0.034827 -0.018165 0.073641 0.092955 -0.004709 -0.039342
# 4 -0.047296 -0.014571 0.092955 0.152338 -0.004499 -0.050874
# 5 0.001588 0.004493 -0.004709 -0.004499 0.024157 0.009632
# 6 0.023469 0.013647 -0.039342 -0.050874 0.009632 0.052577
#
#
# Mechanical properties :
#
#
# Convention : Reuss Voigt Hill
#
# Bulk Modulus (GPa) = 51.26003 88.68787 69.97395
# Shear Modulus (GPa) = 10.92636 35.09549 23.01093
#
# Velocity S-wave (km/s) = 2.19012 3.92515 3.17832
# Velocity P-wave (km/s) = 5.37574 7.71208 6.64736
#
# Compressibility (1/GPa) = 0.01950838
#
# Stress axis : x y z
#
# Youngs Moduli (GPa) = 35.59309 52.53493 13.57945
#
# Poissons Ratio (x) = -0.12402 0.47294
# Poissons Ratio (y) = -0.08402 0.24666
# Poissons Ratio (z) = 1.23962 0.95427
#
# Static dielectric constant tensor:
#      x y z
#    x 1.887780 0.034930 0.044560 
#    y 0.034930 1.873810 -0.014840 
#    z 0.044560 -0.014840 1.812680 
# 
# From -- ./inp_files/147124.got.cif
#   From: 2010.05.17/outbox.cif.g08.bks.cpg/sg2_74_cif.got.tgz:147124.got - 2010.06.03 11:33:40.
