data_PCOD9031271
_publ_section_title
;
Structure prediction by ZEFSAII (Michael W. Deem and Ramdas Pophale) SiO2 
 PCOD9031271
Probable space group: P -1
;
_chemical_formula_sum "Si O2"
_cell_formula_units_Z 16
_cell_length_a 7.299457
_cell_length_b 15.912071
_cell_length_c 7.740198
_cell_angle_alpha 99.390701
_cell_angle_beta 119.383983
_cell_angle_gamma 116.623932
_cell_volume 609.779899
_symmetry_space_group_name_H-M "P -1"
_symmetry_group_IT_number 2
_symmetry_cell_setting 'triclinic'
loop_
_space_group_symop_operation_xyz
x,y,z
-x,-y,-z
loop_
_atom_site_type_symbol
_atom_site_label
_atom_site_fract_x
_atom_site_fract_y
_atom_site_fract_z
Si Si1 0.165889 0.353554 0.241404
Si Si2 0.652548 0.169663 0.739807
Si Si3 0.561615 0.633452 0.974153
Si Si4 0.790476 0.007358 0.310496
Si Si5 0.941160 0.228678 0.524801
Si Si6 0.557260 0.818745 0.880035
Si Si7 0.030451 0.509855 0.224416
Si Si8 0.566606 0.735933 0.520804
O O1 0.126685 0.440807 0.305976
O O2 0.284406 0.317225 0.422531
O O3 0.350014 0.393652 0.167287
O O4 0.888044 0.249229 0.005978
O O5 0.464408 0.053620 0.700680
O O6 0.778730 0.179146 0.616451
O O7 0.488697 0.217059 0.650248
O O8 0.772856 0.669969 0.237556
O O9 0.585980 0.740459 0.978858
O O10 0.257207 0.540381 0.849967
O O11 0.924219 0.131836 0.396089
O O12 0.691221 0.933218 0.069777
O O13 0.000000 0.000000 0.500000
O O14 0.752251 0.238121 0.319384
O O15 0.684148 0.824512 0.756345
O O16 0.267072 0.634362 0.408614
O O17 0.000000 0.500000 0.000000
#
# Coordination Sequence:
#
# PCOD9031271 Si02
#       8
#     2   2   2   2   2   2   2   2
#     4  10  22  43  68  96 134 176 224 272 335 390
#     4  10  22  45  65  97 134 173 220 280 329 403
#     4  10  23  45  67  97 140 174 220 282 330 392
#     4  12  23  41  69  97 135 173 219 277 342 397
#     4  10  22  44  69  95 132 179 219 277 341 388
#     4  10  22  43  65  98 133 168 227 273 326 405
#     4  12  24  43  68 101 136 177 229 272 329 408
#     4  10  23  45  67  95 138 175 221 277 331 392
#
# _framework density 26.238976999999998
#
# number of rings (size 3 to 8) (size 9 to 14) (size 15 to 20)
#    0.000    1.500    2.500    1.875    0.000    2.500 
#   13.500    1.250    0.000    0.000    0.000    0.000 
#    0.000    0.000    0.000    0.000    0.000    0.000 
#
# Total GULP energy -89722.917526 kJ/mol
# GULP energy per Si atom -5607.682345 kJ/mol
# Density = 2.617926 g / cm^3
# Si number density = 26.238977 Si / 1000 Ang^3
#
#
#
# Elastic Constant Matrix: (Units=GPa)
#
#
# Indices 1 2 3 4 5 6 
#
# 1 95.0167 23.5163 36.4000 5.0459 10.1148 1.6172
# 2 23.5163 75.8231 13.8243 21.9297 13.1420 -0.5839
# 3 36.4000 13.8243 131.7553 3.8940 12.3856 -4.6316
# 4 5.0459 21.9297 3.8940 37.9913 -4.3502 -0.3023
# 5 10.1148 13.1420 12.3856 -4.3502 44.1239 -6.8592
# 6 1.6172 -0.5839 -4.6316 -0.3023 -6.8592 48.7830
#
#
#
# Elastic Compliance Matrix: (Units=1/GPa)
#
#
# Indices 1 2 3 4 5 6 
#
# 1 0.012634 -0.003275 -0.003081 0.000388 -0.001159 -0.000911
# 2 -0.003275 0.018373 -0.000175 -0.010824 -0.005829 -0.000575
# 3 -0.003081 -0.000175 0.008652 -0.000556 -0.001618 0.000691
# 4 0.000388 -0.010824 -0.000556 0.033353 0.006728 0.000958
# 5 -0.001159 -0.005829 -0.001618 0.006728 0.026336 0.003560
# 6 -0.000911 -0.000575 0.000691 0.000958 0.003560 0.021094
#
#
# Mechanical properties :
#
#
# Convention : Reuss Voigt Hill
#
# Bulk Modulus (GPa) = 37.60004 50.00847 43.80425
# Shear Modulus (GPa) = 35.11964 41.43664 38.27814
#
# Velocity S-wave (km/s) = 3.66246 3.97823 3.82360
# Velocity P-wave (km/s) = 5.67853 6.34050 6.01862
#
# Compressibility (1/GPa) = 0.02659572
#
# Stress axis : x y z
#
# Youngs Moduli (GPa) = 79.15364 54.42844 115.57690
#
# Poissons Ratio (x) = 0.17825 0.35612
# Poissons Ratio (y) = 0.25922 0.02027
# Poissons Ratio (z) = 0.24389 0.00954
#
# Static dielectric constant tensor:
#      x y z
#    x 2.194690 0.046810 0.004840 
#    y 0.046810 2.008870 -0.019450 
#    z 0.004840 -0.019450 1.994970 
# 
# From -- ./inp_files/217745.got.cif
#   From: 2010.05.17/outbox.cif.g08.bks.cpg/sg2_109_cif.got.tgz:217745.got - 2010.06.03 11:33:40.
