data_PCOD9031345
_publ_section_title
;
Structure prediction by ZEFSAII (Michael W. Deem and Ramdas Pophale) SiO2 
 PCOD9031345
Probable space group: P -1
;
_chemical_formula_sum "Si O2"
_cell_formula_units_Z 12
_cell_length_a 5.653953
_cell_length_b 5.975875
_cell_length_c 18.309368
_cell_angle_alpha 60.141102
_cell_angle_beta 67.633625
_cell_angle_gamma 86.815487
_cell_volume 489.179411
_symmetry_space_group_name_H-M "P -1"
_symmetry_group_IT_number 2
_symmetry_cell_setting 'triclinic'
loop_
_space_group_symop_operation_xyz
x,y,z
-x,-y,-z
loop_
_atom_site_type_symbol
_atom_site_label
_atom_site_fract_x
_atom_site_fract_y
_atom_site_fract_z
Si Si1 0.656093 0.757553 0.027361
Si Si2 0.254159 0.270690 0.361922
Si Si3 0.143812 0.252595 0.533364
Si Si4 0.794713 0.724555 0.857537
Si Si5 0.240125 0.423482 0.803767
Si Si6 0.066685 0.260330 0.696525
O O1 0.472643 0.473111 0.089259
O O2 0.765541 0.761924 0.095324
O O3 0.835057 0.763912 0.933832
O O4 0.500000 0.000000 0.000000
O O5 0.331020 0.257490 0.440931
O O6 0.500609 0.363811 0.268083
O O7 0.069086 0.486828 0.337908
O O8 0.080394 0.997650 0.407988
O O9 0.000000 0.500000 0.500000
O O10 0.239859 0.243729 0.606637
O O11 0.004653 0.577296 0.819306
O O12 0.837480 0.010936 0.771002
O O13 0.215324 0.278536 0.752608
#
# Coordination Sequence:
#
# PCOD9031345 Si02
#       6
#     2   2   2   2   2   2
#     4  11  25  46  66  89 127 169 209 259 317 377
#     4  10  22  43  66  91 130 170 209 258 312 371
#     4   9  20  41  66  92 127 171 210 254 311 371
#     4  11  25  42  64  93 126 164 212 261 314 376
#     4  12  24  39  65  96 125 162 211 263 315 372
#     4  11  23  41  64  94 129 164 212 261 311 373
#
# _framework density 24.530878000000001
#
# number of rings (size 3 to 8) (size 9 to 14) (size 15 to 20)
#    0.000    1.333    0.000    5.500    0.000   10.000 
#    0.000   11.667    0.000    0.000    0.000    0.000 
#    0.000    0.000    0.000    0.000    0.000    0.000 
#
# Total GULP energy -67176.192740 kJ/mol
# GULP energy per Si atom -5598.016062 kJ/mol
# Density = 2.447504 g / cm^3
# Si number density = 24.530878 Si / 1000 Ang^3
#
#
#
# Elastic Constant Matrix: (Units=GPa)
#
#
# Indices 1 2 3 4 5 6 
#
# 1 15.2609 7.0038 14.4270 5.1415 14.8646 11.5396
# 2 7.0038 94.6400 55.4279 -12.5344 29.0315 17.2929
# 3 14.4270 55.4279 175.9133 23.6807 25.7471 17.5053
# 4 5.1415 -12.5344 23.6807 79.2773 13.1398 7.8951
# 5 14.8646 29.0315 25.7471 13.1398 43.0876 11.4243
# 6 11.5396 17.2929 17.5053 7.8951 11.4243 24.0072
#
#
#
# Elastic Compliance Matrix: (Units=1/GPa)
#
#
# Indices 1 2 3 4 5 6 
#
# 1 0.156927 0.021036 -0.007075 0.010004 -0.049910 -0.064964
# 2 0.021036 0.021297 -0.005485 0.007987 -0.016457 -0.016248
# 3 -0.007075 -0.005485 0.007986 -0.003280 0.001915 0.001696
# 4 0.010004 0.007987 -0.003280 0.016698 -0.009547 -0.009118
# 5 -0.049910 -0.016457 0.001915 -0.009547 0.049570 0.013998
# 6 -0.064964 -0.016248 0.001696 -0.009118 0.013998 0.079684
#
#
# Mechanical properties :
#
#
# Convention : Reuss Voigt Hill
#
# Bulk Modulus (GPa) = 4.92221 48.83684 26.87953
# Shear Modulus (GPa) = 13.05712 43.20477 28.13095
#
# Velocity S-wave (km/s) = 2.30961 4.20127 3.39005
# Velocity P-wave (km/s) = 3.02048 6.59437 5.12879
#
# Compressibility (1/GPa) = 0.20316061
#
# Stress axis : x y z
#
# Youngs Moduli (GPa) = 6.37237 46.95467 125.22463
#
# Poissons Ratio (x) = -0.98773 0.88600
# Poissons Ratio (y) = -0.13405 0.68690
# Poissons Ratio (z) = 0.04509 0.25756
#
# Static dielectric constant tensor:
#      x y z
#    x 1.951930 0.070630 0.047790 
#    y 0.070630 1.953410 0.038690 
#    z 0.047790 0.038690 1.942610 
# 
# From -- ./inp_files/3302.got.cif
#   From: 2010.05.17/outbox.cif.g08.bks.cpg/sg2_2_cif.got.tgz:3302.got - 2010.06.03 11:33:40.
