data_PCOD9031524
_publ_section_title
;
Structure prediction by ZEFSAII (Michael W. Deem and Ramdas Pophale) SiO2 
 PCOD9031524
Probable space group: P -1
;
_chemical_formula_sum "Si O2"
_cell_formula_units_Z 16
_cell_length_a 12.036457
_cell_length_b 15.875064
_cell_length_c 12.132666
_cell_angle_alpha 124.735796
_cell_angle_beta 72.941284
_cell_angle_gamma 153.170305
_cell_volume 700.501274
_symmetry_space_group_name_H-M "P -1"
_symmetry_group_IT_number 2
_symmetry_cell_setting 'triclinic'
loop_
_space_group_symop_operation_xyz
x,y,z
-x,-y,-z
loop_
_atom_site_type_symbol
_atom_site_label
_atom_site_fract_x
_atom_site_fract_y
_atom_site_fract_z
Si Si1 0.221351 0.967043 0.201746
Si Si2 0.882278 0.322221 0.716868
Si Si3 0.920761 0.058540 0.191346
Si Si4 0.418550 0.332173 0.333462
Si Si5 0.200108 0.687846 0.688284
Si Si6 0.412800 0.099346 0.644213
Si Si7 0.286038 0.506073 0.847692
Si Si8 0.075887 0.334519 0.168806
O O1 0.948766 0.749199 0.203373
O O2 0.397864 0.217226 0.331461
O O3 0.456922 0.069813 0.241481
O O4 0.081601 0.833441 0.021911
O O5 0.639069 0.211342 0.733520
O O6 0.059495 0.511447 0.700860
O O7 0.125450 0.484279 0.855199
O O8 0.710712 0.079564 0.545251
O O9 0.092665 0.094884 0.199687
O O10 0.110958 0.276050 0.207125
O O11 0.847426 0.066175 0.326923
O O12 0.596545 0.772395 0.019794
O O13 0.500000 0.500000 0.500000
O O14 0.640226 0.485267 0.283801
O O15 0.000000 0.500000 0.500000
O O16 0.151651 0.766827 0.789056
O O17 0.617999 0.355847 0.722293
#
# Coordination Sequence:
#
# PCOD9031524 Si02
#       8
#     2   2   2   2   2   2   2   2
#     4  12  27  47  70 105 143 184 236 291 349 420
#     4  10  22  43  67 104 154 173 232 288 351 413
#     4  12  25  45  74 100 139 188 234 283 355 414
#     4  12  29  51  73  99 140 184 239 297 346 419
#     4  11  24  43  73 107 146 187 230 289 354 417
#     4  10  23  41  67 109 136 187 224 290 345 420
#     4  12  26  45  73 104 137 186 234 288 355 413
#     4  11  24  43  71 105 145 182 232 284 350 417
#
# _framework density 22.840786999999999
#
# number of rings (size 3 to 8) (size 9 to 14) (size 15 to 20)
#    0.000    0.750    3.750    2.250    8.750    3.500 
#    0.000    0.000    0.000    0.000    0.000    0.000 
#    0.000    0.000    0.000    0.000    0.000    0.000 
#
# Total GULP energy -89647.972817 kJ/mol
# GULP energy per Si atom -5602.998301 kJ/mol
# Density = 2.278880 g / cm^3
# Si number density = 22.840787 Si / 1000 Ang^3
#
#
#
# Elastic Constant Matrix: (Units=GPa)
#
#
# Indices 1 2 3 4 5 6 
#
# 1 69.4462 12.2141 -8.8340 -10.2107 9.8695 17.7668
# 2 12.2141 98.2906 9.1414 -9.9135 -7.0044 4.7472
# 3 -8.8340 9.1414 39.5292 3.1417 1.0740 -4.2200
# 4 -10.2107 -9.9135 3.1417 22.5495 2.1333 3.5140
# 5 9.8695 -7.0044 1.0740 2.1333 38.1124 7.7157
# 6 17.7668 4.7472 -4.2200 3.5140 7.7157 24.0187
#
#
#
# Elastic Compliance Matrix: (Units=1/GPa)
#
#
# Indices 1 2 3 4 5 6 
#
# 1 0.021023 -0.001179 0.002499 0.011375 -0.003229 -0.015506
# 2 -0.001179 0.011634 -0.003883 0.005439 0.003034 -0.003880
# 3 0.002499 -0.003883 0.027822 -0.005027 -0.002977 0.005498
# 4 0.011375 0.005439 -0.005027 0.055527 -0.001249 -0.018095
# 5 -0.003229 0.003034 -0.002977 -0.001249 0.029405 -0.007997
# 6 -0.015506 -0.003880 0.005498 -0.018095 -0.007997 0.060053
#
#
# Mechanical properties :
#
#
# Convention : Reuss Voigt Hill
#
# Bulk Modulus (GPa) = 18.06562 25.81210 21.93886
# Shear Modulus (GPa) = 21.83025 29.91907 25.87466
#
# Velocity S-wave (km/s) = 3.09489 3.62318 3.36940
# Velocity P-wave (km/s) = 4.54947 5.36923 4.97626
#
# Compressibility (1/GPa) = 0.05535376
#
# Stress axis : x y z
#
# Youngs Moduli (GPa) = 47.56651 85.95723 35.94331
#
# Poissons Ratio (x) = 0.10133 -0.08983
# Poissons Ratio (y) = 0.05607 0.13956
# Poissons Ratio (z) = -0.11888 0.33375
#
# Static dielectric constant tensor:
#      x y z
#    x 1.832340 0.008780 0.036590 
#    y 0.008780 1.826920 0.015370 
#    z 0.036590 0.015370 1.891890 
# 
# From -- ./inp_files/434212.got.cif
#   From: 2010.05.17/outbox.cif.g08.bks.cpg/sg2_218_cif.got.tgz:434212.got - 2010.06.03 11:33:40.
