data_PCOD9031618
_publ_section_title
;
Structure prediction by ZEFSAII (Michael W. Deem and Ramdas Pophale) SiO2 
 PCOD9031618
Probable space group: P -1
;
_chemical_formula_sum "Si O2"
_cell_formula_units_Z 16
_cell_length_a 12.891273
_cell_length_b 10.686608
_cell_length_c 9.064622
_cell_angle_alpha 71.337165
_cell_angle_beta 49.154710
_cell_angle_gamma 47.915868
_cell_volume 685.349074
_symmetry_space_group_name_H-M "P -1"
_symmetry_group_IT_number 2
_symmetry_cell_setting 'triclinic'
loop_
_space_group_symop_operation_xyz
x,y,z
-x,-y,-z
loop_
_atom_site_type_symbol
_atom_site_label
_atom_site_fract_x
_atom_site_fract_y
_atom_site_fract_z
Si Si1 0.557058 0.052375 0.295075
Si Si2 0.346065 0.010149 0.071565
Si Si3 0.920425 0.918804 0.033959
Si Si4 0.743901 0.592642 0.571462
Si Si5 0.984000 0.142740 0.372588
Si Si6 0.037376 0.540761 0.112428
Si Si7 0.573320 0.486995 0.600896
Si Si8 0.615616 0.605240 0.990921
O O1 0.367957 0.212461 0.343161
O O2 0.500000 0.000000 0.500000
O O3 0.708832 0.058141 0.205539
O O4 0.666304 0.923074 0.106996
O O5 0.434274 0.806766 0.062282
O O6 0.149545 0.130761 0.279727
O O7 0.500000 0.000000 0.000000
O O8 0.985496 0.730427 0.090846
O O9 0.965111 0.906275 0.825602
O O10 0.000000 0.000000 0.000000
O O11 0.610316 0.615368 0.562725
O O12 0.919587 0.533579 0.346764
O O13 0.725034 0.517245 0.767126
O O14 0.779721 0.313905 0.497923
O O15 0.000000 0.000000 0.500000
O O16 0.243466 0.412216 0.022828
O O17 0.000000 0.500000 0.000000
O O18 0.500000 0.500000 0.500000
O O19 0.449003 0.488800 0.834031
#
# Coordination Sequence:
#
# PCOD9031618 Si02
#       8
#     2   2   2   2   2   2   2   2
#     4  10  22  43  67  96 135 178 229 288 350 414
#     4  10  24  42  69  98 135 179 234 289 350 419
#     4  11  26  44  69 103 139 182 234 290 354 423
#     4  11  25  45  70  99 141 185 237 293 358 429
#     4  11  24  47  66 102 138 183 235 290 354 420
#     4  12  26  47  72 105 144 186 238 299 361 427
#     4  12  26  45  72 104 143 189 236 298 361 424
#     4  11  25  45  69 101 138 188 238 292 359 426
#
# _framework density 23.345769000000001
#
# number of rings (size 3 to 8) (size 9 to 14) (size 15 to 20)
#    0.000    1.000    2.500    3.000    8.750    3.000 
#    0.000    0.000    0.000    0.000    0.000    0.000 
#    0.000    0.000    0.000    0.000    0.000    0.000 
#
# Total GULP energy -89160.239558 kJ/mol
# GULP energy per Si atom -5572.514972 kJ/mol
# Density = 2.329263 g / cm^3
# Si number density = 23.345769 Si / 1000 Ang^3
#
#
#
# Elastic Constant Matrix: (Units=GPa)
#
#
# Indices 1 2 3 4 5 6 
#
# 1 129.2599 10.4179 43.2821 3.0580 -28.0861 -9.2001
# 2 10.4179 94.6471 30.5384 12.6074 -6.5099 -12.7038
# 3 43.2821 30.5384 185.8524 -10.7986 -32.6543 -10.1572
# 4 3.0580 12.6074 -10.7986 36.1017 -10.6781 -9.5149
# 5 -28.0861 -6.5099 -32.6543 -10.6781 41.4090 2.9241
# 6 -9.2001 -12.7038 -10.1572 -9.5149 2.9241 33.7969
#
#
#
# Elastic Compliance Matrix: (Units=1/GPa)
#
#
# Indices 1 2 3 4 5 6 
#
# 1 0.009452 -0.000222 -0.000963 0.001242 0.005792 0.002049
# 2 -0.000222 0.012224 -0.002344 -0.004692 -0.001474 0.002636
# 3 -0.000963 -0.002344 0.007515 0.005541 0.006182 0.002140
# 4 0.001242 -0.004692 0.005541 0.037397 0.013439 0.009605
# 5 0.005792 -0.001474 0.006182 0.013439 0.035936 0.003555
# 6 0.002049 0.002636 0.002140 0.009605 0.003555 0.034177
#
#
# Mechanical properties :
#
#
# Convention : Reuss Voigt Hill
#
# Bulk Modulus (GPa) = 45.18207 64.24848 54.71527
# Shear Modulus (GPa) = 33.08270 43.96292 38.52281
#
# Velocity S-wave (km/s) = 3.76849 4.34420 4.06655
# Velocity P-wave (km/s) = 6.19119 7.26243 6.74810
#
# Compressibility (1/GPa) = 0.02213268
#
# Stress axis : x y z
#
# Youngs Moduli (GPa) = 105.80227 81.80659 133.06284
#
# Poissons Ratio (x) = 0.01814 0.12813
# Poissons Ratio (y) = 0.02346 0.31195
# Poissons Ratio (z) = 0.10188 0.19179
#
# Static dielectric constant tensor:
#      x y z
#    x 2.133020 -0.011400 0.122290 
#    y -0.011400 2.215450 -0.039120 
#    z 0.122290 -0.039120 2.115150 
# 
# From -- ./inp_files/262265.got.cif
#   From: 2010.05.17/outbox.cif.g08.bks.cpg/sg2_132_cif.got.tgz:262265.got - 2010.06.03 11:33:40.
