data_PCOD9031363
_publ_section_title
;
Structure prediction by ZEFSAII (Michael W. Deem and Ramdas Pophale) SiO2 
 PCOD9031363
Probable space group: P -1
;
_chemical_formula_sum "Si O2"
_cell_formula_units_Z 14
_cell_length_a 11.919832
_cell_length_b 8.040415
_cell_length_c 8.341891
_cell_angle_alpha 114.925795
_cell_angle_beta 120.707658
_cell_angle_gamma 71.638033
_cell_volume 618.233511
_symmetry_space_group_name_H-M "P -1"
_symmetry_group_IT_number 2
_symmetry_cell_setting 'triclinic'
loop_
_space_group_symop_operation_xyz
x,y,z
-x,-y,-z
loop_
_atom_site_type_symbol
_atom_site_label
_atom_site_fract_x
_atom_site_fract_y
_atom_site_fract_z
Si Si1 0.998377 0.671504 0.952486
Si Si2 0.266722 0.849619 0.538399
Si Si3 0.988858 0.988847 0.680052
Si Si4 0.803267 0.326679 0.160409
Si Si5 0.224336 0.451080 0.476382
Si Si6 0.452304 0.166821 0.411911
Si Si7 0.364019 0.966750 0.974127
O O1 0.889633 0.647301 0.728325
O O2 0.143621 0.659839 0.974119
O O3 0.000000 0.500000 0.000000
O O4 0.963476 0.853465 0.108099
O O5 0.168987 0.970630 0.396104
O O6 0.217622 0.655916 0.474527
O O7 0.411941 0.793555 0.553433
O O8 0.272999 0.974228 0.753695
O O9 0.000000 0.000000 0.500000
O O10 0.074229 0.804716 0.724898
O O11 0.791540 0.513076 0.330716
O O12 0.672616 0.226274 0.053078
O O13 0.366057 0.336790 0.502060
O O14 0.500000 0.000000 0.500000
O O15 0.360407 0.102486 0.176668
O O16 0.500000 0.000000 0.000000
#
# Coordination Sequence:
#
# PCOD9031363 Si02
#       7
#     2   2   2   2   2   2   2
#     4  12  25  42  67 105 138 180 223 279 343 407
#     4  10  22  43  66  92 136 176 221 276 337 402
#     4  12  22  42  71 100 135 178 225 277 343 406
#     4  11  24  43  69 100 141 175 225 282 342 406
#     4  11  23  44  65  95 139 175 221 279 338 403
#     4  11  25  41  67  96 128 178 235 275 330 398
#     4   9  20  42  65  94 129 175 222 274 334 400
#
# _framework density 22.645167000000001
#
# number of rings (size 3 to 8) (size 9 to 14) (size 15 to 20)
#    0.000    1.143    4.286    2.143    4.000    0.000 
#    0.000    2.857    0.000    0.000    0.000    0.000 
#    0.000    0.000    0.000    0.000    0.000    0.000 
#
# Total GULP energy -78099.741222 kJ/mol
# GULP energy per Si atom -5578.552944 kJ/mol
# Density = 2.259363 g / cm^3
# Si number density = 22.645167 Si / 1000 Ang^3
#
#
#
# Elastic Constant Matrix: (Units=GPa)
#
#
# Indices 1 2 3 4 5 6 
#
# 1 132.2703 29.1449 53.8696 11.7630 -9.5484 3.3839
# 2 29.1449 64.2406 25.4593 1.6227 -11.4364 -18.2955
# 3 53.8696 25.4593 112.5836 30.7873 -5.5351 -10.5107
# 4 11.7630 1.6227 30.7873 23.7185 -10.1964 -11.1598
# 5 -9.5484 -11.4364 -5.5351 -10.1964 48.8214 2.3388
# 6 3.3839 -18.2955 -10.5107 -11.1598 2.3388 42.5846
#
#
#
# Elastic Compliance Matrix: (Units=1/GPa)
#
#
# Indices 1 2 3 4 5 6 
#
# 1 0.010353 -0.004092 -0.004029 -0.001243 0.000538 -0.003931
# 2 -0.004092 0.025357 -0.007585 0.020185 0.007814 0.014207
# 3 -0.004029 -0.007585 0.019247 -0.027352 -0.005854 -0.005034
# 4 -0.001243 0.020185 -0.027352 0.098312 0.020640 0.026650
# 5 0.000538 0.007814 -0.005854 0.020640 0.025785 0.005863
# 6 -0.003931 0.014207 -0.005034 0.026650 0.005863 0.035318
#
#
# Mechanical properties :
#
#
# Convention : Reuss Voigt Hill
#
# Bulk Modulus (GPa) = 42.47368 58.44913 50.46140
# Shear Modulus (GPa) = 19.71360 36.39962 28.05661
#
# Velocity S-wave (km/s) = 2.95370 4.01358 3.52371
# Velocity P-wave (km/s) = 5.51628 6.88079 6.23597
#
# Compressibility (1/GPa) = 0.02354399
#
# Stress axis : x y z
#
# Youngs Moduli (GPa) = 96.59267 39.43734 51.95604
#
# Poissons Ratio (x) = 0.16139 0.20932
# Poissons Ratio (y) = 0.39530 0.39409
# Poissons Ratio (z) = 0.38915 0.29913
#
# Static dielectric constant tensor:
#      x y z
#    x 1.865000 0.091900 0.170190 
#    y 0.091900 1.788580 -0.090450 
#    z 0.170190 -0.090450 1.558320 
# 
# From -- ./inp_files/208619.got.cif
#   From: 2010.05.17/outbox.cif.g08.bks.cpg/sg2_105_cif.got.tgz:208619.got - 2010.06.03 11:33:40.
