data_PCOD9031115
_publ_section_title
;
Structure prediction by ZEFSAII (Michael W. Deem and Ramdas Pophale) SiO2 
 PCOD9031115
Probable space group: P -1
;
_chemical_formula_sum "Si O2"
_cell_formula_units_Z 14
_cell_length_a 12.937163
_cell_length_b 20.361691
_cell_length_c 6.669178
_cell_angle_alpha 128.450496
_cell_angle_beta 52.444680
_cell_angle_gamma 154.267741
_cell_volume 591.016720
_symmetry_space_group_name_H-M "P -1"
_symmetry_group_IT_number 2
_symmetry_cell_setting 'triclinic'
loop_
_space_group_symop_operation_xyz
x,y,z
-x,-y,-z
loop_
_atom_site_type_symbol
_atom_site_label
_atom_site_fract_x
_atom_site_fract_y
_atom_site_fract_z
Si Si1 0.926959 0.137621 0.252216
Si Si2 0.921461 0.054269 0.697206
Si Si3 0.444277 0.043806 0.311511
Si Si4 0.688265 0.376244 0.203536
Si Si5 0.674781 0.673093 0.546875
Si Si6 0.984491 0.335754 0.341040
Si Si7 0.012273 0.563187 0.804529
O O1 0.732267 0.069906 0.508484
O O2 0.020653 0.264855 0.252269
O O3 0.141447 0.214822 0.273874
O O4 0.840612 0.029233 0.973907
O O5 0.699520 0.959201 0.635295
O O6 0.143813 0.230822 0.679198
O O7 0.000000 0.000000 0.500000
O O8 0.700429 0.202507 0.409562
O O9 0.500000 0.000000 0.000000
O O10 0.468574 0.318957 0.316774
O O11 0.734847 0.312822 0.143067
O O12 0.861878 0.525249 0.425186
O O13 0.808991 0.431490 0.951256
O O14 0.500000 0.500000 0.500000
O O15 0.049439 0.380850 0.114706
O O16 0.000000 0.500000 0.500000
#
# Coordination Sequence:
#
# PCOD9031115 Si02
#       7
#     2   2   2   2   2   2   2
#     4  11  25  45  70 105 140 185 241 297 358 426
#     4  11  28  50  69 103 148 192 241 295 357 433
#     4  11  25  43  72 103 133 182 239 295 356 424
#     4  10  22  43  64  98 144 174 231 289 352 423
#     4  11  25  44  72 102 138 185 231 288 357 428
#     4  11  22  38  72  99 133 172 237 292 356 411
#     4   9  22  40  61  98 133 179 222 283 349 416
#
# _framework density 23.687994
#
# number of rings (size 3 to 8) (size 9 to 14) (size 15 to 20)
#    0.000    1.429    2.857    0.429    6.000    5.143 
#   10.286    0.000    0.000    0.000    0.000    0.000 
#    0.000    0.000    0.000    0.000    0.000    0.000 
#
# Total GULP energy -77979.872335 kJ/mol
# GULP energy per Si atom -5569.990881 kJ/mol
# Density = 2.363408 g / cm^3
# Si number density = 23.687994 Si / 1000 Ang^3
#
#
#
# Elastic Constant Matrix: (Units=GPa)
#
#
# Indices 1 2 3 4 5 6 
#
# 1 165.3805 5.0414 51.1869 0.9365 26.6247 26.1770
# 2 5.0414 56.2573 10.3851 -12.2340 17.8258 5.2139
# 3 51.1869 10.3851 98.0690 -21.6787 23.8695 -10.8167
# 4 0.9365 -12.2340 -21.6787 30.0614 -4.6250 3.0664
# 5 26.6247 17.8258 23.8695 -4.6250 39.8944 1.2073
# 6 26.1770 5.2139 -10.8167 3.0664 1.2073 45.6220
#
#
#
# Elastic Compliance Matrix: (Units=1/GPa)
#
#
# Indices 1 2 3 4 5 6 
#
# 1 0.009426 0.001125 -0.005735 -0.003860 -0.003612 -0.006542
# 2 0.001125 0.023067 0.001152 0.008889 -0.010616 -0.003325
# 3 -0.005735 0.001152 0.017986 0.011962 -0.006268 0.006785
# 4 -0.003860 0.008889 0.011962 0.044999 -0.003370 0.001099
# 5 -0.003612 -0.010616 -0.006268 -0.003370 0.035547 0.001085
# 6 -0.006542 -0.003325 0.006785 0.001099 0.001085 0.027559
#
#
# Mechanical properties :
#
#
# Convention : Reuss Voigt Hill
#
# Bulk Modulus (GPa) = 22.95434 50.32596 36.64015
# Shear Modulus (GPa) = 27.77470 39.98845 33.88158
#
# Velocity S-wave (km/s) = 3.42793 4.11315 3.78607
# Velocity P-wave (km/s) = 5.03775 6.62184 5.88335
#
# Compressibility (1/GPa) = 0.04356474
#
# Stress axis : x y z
#
# Youngs Moduli (GPa) = 106.08841 43.35189 55.59812
#
# Poissons Ratio (x) = -0.04879 0.31884
# Poissons Ratio (y) = -0.11939 -0.06405
# Poissons Ratio (z) = 0.60839 -0.04994
#
# Static dielectric constant tensor:
#      x y z
#    x 2.077020 -0.148440 -0.112610 
#    y -0.148440 2.061980 0.020270 
#    z -0.112610 0.020270 1.965480 
# 
# From -- ./inp_files/83392.got.cif
#   From: 2010.05.17/outbox.cif.g08.bks.cpg/sg2_42_cif.got.tgz:83392.got - 2010.06.03 11:33:40.
