data_PCOD9031270
_publ_section_title
;
Structure prediction by ZEFSAII (Michael W. Deem and Ramdas Pophale) SiO2 
 PCOD9031270
Probable space group: P -1
;
_chemical_formula_sum "Si O2"
_cell_formula_units_Z 16
_cell_length_a 11.619167
_cell_length_b 8.014137
_cell_length_c 9.855685
_cell_angle_alpha 88.233112
_cell_angle_beta 96.626673
_cell_angle_gamma 125.835622
_cell_volume 738.270216
_symmetry_space_group_name_H-M "P -1"
_symmetry_group_IT_number 2
_symmetry_cell_setting 'triclinic'
loop_
_space_group_symop_operation_xyz
x,y,z
-x,-y,-z
loop_
_atom_site_type_symbol
_atom_site_label
_atom_site_fract_x
_atom_site_fract_y
_atom_site_fract_z
Si Si1 0.356636 0.853473 0.066202
Si Si2 0.594721 0.998650 0.633126
Si Si3 0.100767 0.427462 0.036212
Si Si4 0.526625 0.473425 0.348237
Si Si5 0.241236 0.332172 0.239335
Si Si6 0.156750 0.006946 0.001499
Si Si7 0.868418 0.039910 0.574028
Si Si8 0.842640 0.844246 0.302831
O O1 0.258743 0.616190 0.005389
O O2 0.390775 0.880458 0.231375
O O3 0.260917 0.936874 0.027558
O O4 0.500000 0.000000 0.000000
O O5 0.521369 0.759387 0.668459
O O6 0.500000 0.000000 0.500000
O O7 0.754793 0.083845 0.601860
O O8 0.141079 0.405602 0.195798
O O9 0.999971 0.195037 0.973815
O O10 0.000000 0.500000 0.000000
O O11 0.500000 0.500000 0.500000
O O12 0.411172 0.495193 0.258533
O O13 0.686591 0.637829 0.316814
O O14 0.193628 0.186637 0.366519
O O15 0.211214 0.185164 0.112596
O O16 0.154505 0.074319 0.847450
O O17 0.028787 0.179214 0.651774
O O18 0.868901 0.011337 0.414303
#
# Coordination Sequence:
#
# PCOD9031270 Si02
#       8
#     2   2   2   2   2   2   2   2
#     4  11  26  44  65  99 138 176 229 271 332 410
#     4  11  25  46  68  95 141 180 217 278 345 394
#     4  10  24  41  65  95 136 178 212 270 354 394
#     4  11  23  42  69  99 132 178 226 275 342 394
#     4  11  21  42  69  94 132 174 225 276 339 398
#     4  11  23  43  68  95 130 177 222 284 335 390
#     4  10  22  43  65  98 132 171 225 272 328 400
#     4  11  23  38  72 100 129 167 235 277 327 398
#
# _framework density 21.672280000000001
#
# number of rings (size 3 to 8) (size 9 to 14) (size 15 to 20)
#    0.000    1.250    6.250    0.375    5.250    1.500 
#    0.000    0.625    0.000    0.000    0.000    0.000 
#    0.000    0.000    0.000    0.000    0.000    0.000 
#
# Total GULP energy -89277.818586 kJ/mol
# GULP energy per Si atom -5579.863662 kJ/mol
# Density = 2.162295 g / cm^3
# Si number density = 21.672280 Si / 1000 Ang^3
#
#
#
# Elastic Constant Matrix: (Units=GPa)
#
#
# Indices 1 2 3 4 5 6 
#
# 1 128.5578 48.4933 47.5311 0.5747 28.6756 32.6291
# 2 48.4933 115.4625 43.9168 12.3721 1.8889 37.3300
# 3 47.5311 43.9168 141.4941 5.4928 8.9161 7.1126
# 4 0.5747 12.3721 5.4928 25.9251 3.2595 8.9037
# 5 28.6756 1.8889 8.9161 3.2595 42.6429 -0.7264
# 6 32.6291 37.3300 7.1126 8.9037 -0.7264 44.9344
#
#
#
# Elastic Compliance Matrix: (Units=1/GPa)
#
#
# Indices 1 2 3 4 5 6 
#
# 1 0.014251 -0.002202 -0.003269 0.005805 -0.009404 -0.009304
# 2 -0.002202 0.013940 -0.003123 -0.003105 0.001603 -0.008846
# 3 -0.003269 -0.003123 0.008965 -0.001763 0.000663 0.003909
# 4 0.005805 -0.003105 -0.001763 0.044727 -0.006993 -0.010332
# 5 -0.009404 0.001603 0.000663 -0.006993 0.030223 0.007266
# 6 -0.009304 -0.008846 0.003909 -0.010332 0.007266 0.037906
#
#
# Mechanical properties :
#
#
# Convention : Reuss Voigt Hill
#
# Bulk Modulus (GPa) = 50.07888 73.93300 62.00594
# Shear Modulus (GPa) = 28.75948 39.07201 33.91574
#
# Velocity S-wave (km/s) = 3.64678 4.25061 3.96022
# Velocity P-wave (km/s) = 6.39449 7.63403 7.04159
#
# Compressibility (1/GPa) = 0.01996850
#
# Stress axis : x y z
#
# Youngs Moduli (GPa) = 70.17046 71.73567 111.54665
#
# Poissons Ratio (x) = 0.15798 0.36462
# Poissons Ratio (y) = 0.15453 0.34833
# Poissons Ratio (z) = 0.22937 0.22401
#
# Static dielectric constant tensor:
#      x y z
#    x 1.843670 -0.021380 0.046020 
#    y -0.021380 1.848610 0.004890 
#    z 0.046020 0.004890 1.790560 
# 
# From -- ./inp_files/244127.got.cif
#   From: 2010.05.17/outbox.cif.g08.bks.cpg/sg2_123_cif.got.tgz:244127.got - 2010.06.03 11:33:40.
