data_PCOD9031298
_publ_section_title
;
Structure prediction by ZEFSAII (Michael W. Deem and Ramdas Pophale) SiO2 
 PCOD9031298
Probable space group: P -1
;
_chemical_formula_sum "Si O2"
_cell_formula_units_Z 16
_cell_length_a 11.273764
_cell_length_b 16.138551
_cell_length_c 5.461767
_cell_angle_alpha 131.133207
_cell_angle_beta 102.039029
_cell_angle_gamma 58.132771
_cell_volume 620.518263
_symmetry_space_group_name_H-M "P -1"
_symmetry_group_IT_number 2
_symmetry_cell_setting 'triclinic'
loop_
_space_group_symop_operation_xyz
x,y,z
-x,-y,-z
loop_
_atom_site_type_symbol
_atom_site_label
_atom_site_fract_x
_atom_site_fract_y
_atom_site_fract_z
Si Si1 0.224367 0.022006 0.910507
Si Si2 0.908023 0.162576 0.001099
Si Si3 0.411970 0.061685 0.338597
Si Si4 0.343489 0.394546 0.322002
Si Si5 0.246161 0.635541 0.058836
Si Si6 0.647488 0.229155 0.320695
Si Si7 0.213641 0.278299 0.399256
Si Si8 0.091476 0.594959 0.284853
O O1 0.341308 0.867742 0.645231
O O2 0.277657 0.041958 0.237976
O O3 0.215296 0.151055 0.040827
O O4 0.070079 0.045857 0.843042
O O5 0.793829 0.147442 0.071089
O O6 0.915202 0.278331 0.360887
O O7 0.840826 0.225992 0.838332
O O8 0.330155 0.214038 0.545004
O O9 0.500000 0.000000 0.500000
O O10 0.500000 0.000000 0.000000
O O11 0.510690 0.282305 0.189809
O O12 0.267109 0.338001 0.341678
O O13 0.235765 0.468485 0.196070
O O14 0.339474 0.516239 0.689339
O O15 0.341875 0.653554 0.332584
O O16 0.124680 0.608178 0.045815
O O17 0.058562 0.381267 0.643450
#
# Coordination Sequence:
#
# PCOD9031298 Si02
#       8
#     2   2   2   2   2   2   2   2
#     4   9  21  42  65  93 129 169 213 271 340 406
#     4   9  20  41  62  91 124 168 217 272 325 400
#     4  10  22  43  66 101 138 175 219 276 342 418
#     4  11  22  39  61  92 128 169 217 274 329 397
#     4  10  23  39  62  89 125 166 229 267 333 382
#     4  11  22  39  62  90 129 168 220 271 333 391
#     4   9  21  42  65  95 129 166 217 270 340 407
#     4   9  20  41  63  89 123 169 215 274 327 399
#
# _framework density 25.784898999999999
#
# number of rings (size 3 to 8) (size 9 to 14) (size 15 to 20)
#    0.750    1.500    0.000    1.875    0.000    7.500 
#    9.000    0.000    0.000    0.000    0.000    0.000 
#    0.000    0.000    0.000    0.000    0.000    0.000 
#
# Total GULP energy -89150.812068 kJ/mol
# GULP energy per Si atom -5571.925754 kJ/mol
# Density = 2.572621 g / cm^3
# Si number density = 25.784899 Si / 1000 Ang^3
#
#
#
# Elastic Constant Matrix: (Units=GPa)
#
#
# Indices 1 2 3 4 5 6 
#
# 1 121.3194 46.0321 16.0269 6.4517 -0.5480 -13.7482
# 2 46.0321 133.2975 18.9741 8.4727 -5.3834 -2.6810
# 3 16.0269 18.9741 38.9522 14.7003 -0.7937 7.9726
# 4 6.4517 8.4727 14.7003 40.3503 -0.9342 3.9737
# 5 -0.5480 -5.3834 -0.7937 -0.9342 17.6833 13.5753
# 6 -13.7482 -2.6810 7.9726 3.9737 13.5753 42.4151
#
#
#
# Elastic Compliance Matrix: (Units=1/GPa)
#
#
# Indices 1 2 3 4 5 6 
#
# 1 0.010607 -0.003174 -0.003988 -0.000255 -0.005183 0.005669
# 2 -0.003174 0.009123 -0.002792 -0.000221 0.003275 -0.000955
# 3 -0.003988 -0.002792 0.034613 -0.010303 0.007182 -0.009308
# 4 -0.000255 -0.000221 -0.010303 0.028828 0.002182 -0.001559
# 5 -0.005183 0.003275 0.007182 0.002182 0.079742 -0.028549
# 6 0.005669 -0.000955 -0.009308 -0.001559 -0.028549 0.036387
#
#
# Mechanical properties :
#
#
# Convention : Reuss Voigt Hill
#
# Bulk Modulus (GPa) = 29.04072 50.62615 39.83344
# Shear Modulus (GPa) = 21.67454 34.25879 27.96667
#
# Velocity S-wave (km/s) = 2.90244 3.64900 3.29692
# Velocity P-wave (km/s) = 4.74545 6.11803 5.47493
#
# Compressibility (1/GPa) = 0.03443441
#
# Stress axis : x y z
#
# Youngs Moduli (GPa) = 94.28165 109.61606 28.89059
#
# Poissons Ratio (x) = 0.34795 0.11521
# Poissons Ratio (y) = 0.29927 0.08067
# Poissons Ratio (z) = 0.37596 0.30607
#
# Static dielectric constant tensor:
#      x y z
#    x 2.137340 0.033510 -0.002260 
#    y 0.033510 2.069950 0.003170 
#    z -0.002260 0.003170 2.175100 
# 
# From -- ./inp_files/78599.got.cif
#   From: 2010.05.17/outbox.cif.g08.bks.cpg/sg2_40_cif.got.tgz:78599.got - 2010.06.03 11:33:40.
