data_PCOD9031732
_publ_section_title
;
Structure prediction by ZEFSAII (Michael W. Deem and Ramdas Pophale) SiO2 
 PCOD9031732
Probable space group: P -1
;
_chemical_formula_sum "Si O2"
_cell_formula_units_Z 16
_cell_length_a 19.971627
_cell_length_b 5.497822
_cell_length_c 10.950972
_cell_angle_alpha 94.234657
_cell_angle_beta 149.224404
_cell_angle_gamma 81.362218
_cell_volume 604.641377
_symmetry_space_group_name_H-M "P -1"
_symmetry_group_IT_number 2
_symmetry_cell_setting 'triclinic'
loop_
_space_group_symop_operation_xyz
x,y,z
-x,-y,-z
loop_
_atom_site_type_symbol
_atom_site_label
_atom_site_fract_x
_atom_site_fract_y
_atom_site_fract_z
Si Si1 0.497493 0.750052 0.362705
Si Si2 0.074766 0.287456 0.744835
Si Si3 0.832627 0.710411 0.364333
Si Si4 0.303805 0.977539 0.422691
Si Si5 0.780790 0.131143 0.461618
Si Si6 0.280886 0.613213 0.171193
Si Si7 0.411085 0.526752 0.982576
Si Si8 0.960247 0.849124 0.051758
O O1 0.353466 0.776472 0.198277
O O2 0.604602 0.616785 0.621739
O O3 0.558757 0.980673 0.418137
O O4 0.492221 0.580190 0.229397
O O5 0.131594 0.169903 0.702537
O O6 0.079067 0.112804 0.863011
O O7 0.928285 0.444432 0.501852
O O8 0.163172 0.496789 0.925370
O O9 0.679651 0.677066 0.136199
O O10 0.860490 0.868665 0.531171
O O11 0.313518 0.914256 0.576845
O O12 0.249516 0.767043 0.251832
O O13 0.181959 0.208837 0.221170
O O14 0.698304 0.239930 0.220509
O O15 0.888581 0.290225 0.687689
O O16 0.500000 0.500000 0.000000
O O17 0.000000 0.000000 0.000000
#
# Coordination Sequence:
#
# PCOD9031732 Si02
#       8
#     2   2   2   2   2   2   2   2
#     4  11  24  41  63  97 131 180 230 270 344 402
#     4  11  22  47  73 101 140 179 230 293 347 405
#     4  11  25  44  72 101 138 183 230 285 348 409
#     4  11  23  42  66  97 133 177 223 285 343 405
#     4  11  25  45  65 102 136 179 232 281 349 407
#     4  11  23  42  67  97 133 173 228 285 337 407
#     4  12  25  44  67  99 143 183 232 279 339 419
#     4  10  22  43  68 102 133 168 230 281 348 407
#
# _framework density 26.461970000000001
#
# number of rings (size 3 to 8) (size 9 to 14) (size 15 to 20)
#    0.000    1.000    3.750    2.625    0.000    4.500 
#    0.000    2.500    0.000    0.000    0.000    0.000 
#    0.000    0.000    0.000    0.000    0.000    0.000 
#
# Total GULP energy -89324.004845 kJ/mol
# GULP energy per Si atom -5582.750303 kJ/mol
# Density = 2.640174 g / cm^3
# Si number density = 26.461970 Si / 1000 Ang^3
#
#
#
# Elastic Constant Matrix: (Units=GPa)
#
#
# Indices 1 2 3 4 5 6 
#
# 1 226.9517 34.7304 20.0263 10.8740 -1.9748 16.2377
# 2 34.7304 49.5166 12.8979 6.0582 -0.2657 -0.9901
# 3 20.0263 12.8979 93.9074 6.8980 5.5415 8.8432
# 4 10.8740 6.0582 6.8980 37.3267 10.4490 -7.4716
# 5 -1.9748 -0.2657 5.5415 10.4490 47.9723 1.6849
# 6 16.2377 -0.9901 8.8432 -7.4716 1.6849 46.4537
#
#
#
# Elastic Compliance Matrix: (Units=1/GPa)
#
#
# Indices 1 2 3 4 5 6 
#
# 1 0.005184 -0.003396 -0.000372 -0.001483 0.000633 -0.002075
# 2 -0.003396 0.023552 -0.002560 -0.002197 0.000702 0.001797
# 3 -0.000372 -0.002560 0.011489 -0.001830 -0.000875 -0.002374
# 4 -0.001483 -0.002197 -0.001830 0.031044 -0.006837 0.006061
# 5 0.000633 0.000702 -0.000875 -0.006837 0.022534 -0.001957
# 6 -0.002075 0.001797 -0.002374 0.006061 -0.001957 0.023788
#
#
# Mechanical properties :
#
#
# Convention : Reuss Voigt Hill
#
# Bulk Modulus (GPa) = 36.27146 56.18722 46.22934
# Shear Modulus (GPa) = 35.85850 46.53194 41.19522
#
# Velocity S-wave (km/s) = 3.68516 4.19793 3.94987
# Velocity P-wave (km/s) = 5.64304 6.69150 6.18951
#
# Compressibility (1/GPa) = 0.02756989
#
# Stress axis : x y z
#
# Youngs Moduli (GPa) = 192.91252 42.45902 87.03709
#
# Poissons Ratio (x) = 0.14417 0.03239
# Poissons Ratio (y) = 0.65504 0.22281
# Poissons Ratio (z) = 0.07179 0.10869
#
# Static dielectric constant tensor:
#      x y z
#    x 2.069850 -0.029010 0.048020 
#    y -0.029010 2.217030 -0.052510 
#    z 0.048020 -0.052510 2.061170 
# 
# From -- ./inp_files/468384.got.cif
#   From: 2010.05.17/outbox.cif.g08.bks.cpg/sg2_235_cif.got.tgz:468384.got - 2010.06.03 11:33:40.
