data_PCOD9031668
_publ_section_title
;
Structure prediction by ZEFSAII (Michael W. Deem and Ramdas Pophale) SiO2 
 PCOD9031668
Probable space group: P -1
;
_chemical_formula_sum "Si O2"
_cell_formula_units_Z 12
_cell_length_a 4.940026
_cell_length_b 8.516870
_cell_length_c 13.249120
_cell_angle_alpha 59.516222
_cell_angle_beta 62.185293
_cell_angle_gamma 89.349111
_cell_volume 405.886968
_symmetry_space_group_name_H-M "P -1"
_symmetry_group_IT_number 2
_symmetry_cell_setting 'triclinic'
loop_
_space_group_symop_operation_xyz
x,y,z
-x,-y,-z
loop_
_atom_site_type_symbol
_atom_site_label
_atom_site_fract_x
_atom_site_fract_y
_atom_site_fract_z
Si Si1 0.210050 0.753455 0.611971
Si Si2 0.611300 0.274587 0.073696
Si Si3 0.244808 0.019446 0.694734
Si Si4 0.882353 0.583470 0.394985
Si Si5 0.278625 0.127857 0.979179
Si Si6 0.356347 0.501009 0.813650
O O1 0.403863 0.876148 0.447435
O O2 0.026594 0.544791 0.668285
O O3 0.450399 0.680537 0.665993
O O4 0.088605 0.884217 0.669469
O O5 0.332800 0.211921 0.058432
O O6 0.529137 0.409171 0.127720
O O7 0.689078 0.102214 0.180964
O O8 0.965888 0.395704 0.930163
O O9 0.077925 0.187240 0.693514
O O10 0.500000 0.500000 0.500000
O O11 0.000000 0.500000 0.500000
O O12 0.438478 0.314463 0.823831
O O13 0.500000 0.000000 0.000000
O O14 0.000000 0.000000 0.000000
#
# Coordination Sequence:
#
# PCOD9031668 Si02
#       6
#     2   2   2   2   2   2
#     4   9  20  42  69 100 139 183 230 289 350 420
#     4  10  22  45  72 100 140 186 236 293 351 422
#     4   9  20  43  70 101 138 183 235 287 352 420
#     4  10  22  43  67  98 137 180 226 282 342 416
#     4  12  25  45  69 105 143 186 235 294 354 425
#     4  10  22  44  70 101 140 185 235 289 353 423
#
# _framework density 29.564882999999998
#
# number of rings (size 3 to 8) (size 9 to 14) (size 15 to 20)
#    0.000    2.000    1.667    0.500    2.333    0.667 
#   18.000    0.000    0.000    0.000    0.000    0.000 
#    0.000    0.000    0.000    0.000    0.000    0.000 
#
# Total GULP energy -67010.350000 kJ/mol
# GULP energy per Si atom -5584.195833 kJ/mol
# Density = 2.949759 g / cm^3
# Si number density = 29.564883 Si / 1000 Ang^3
#
#
#
# Elastic Constant Matrix: (Units=GPa)
#
#
# Indices 1 2 3 4 5 6 
#
# 1 190.6352 66.8125 45.9464 -29.2731 25.0806 40.9003
# 2 66.8125 285.4562 61.8517 -26.0094 23.1631 7.3145
# 3 45.9464 61.8517 156.3289 -13.9422 21.8113 11.0643
# 4 -29.2731 -26.0094 -13.9422 63.5181 4.3506 15.0084
# 5 25.0806 23.1631 21.8113 4.3506 56.7689 -14.1811
# 6 40.9003 7.3145 11.0643 15.0084 -14.1811 61.2484
#
#
#
# Elastic Compliance Matrix: (Units=1/GPa)
#
#
# Indices 1 2 3 4 5 6 
#
# 1 0.009483 -0.000773 -0.000307 0.006646 -0.006600 -0.009342
# 2 -0.000773 0.004138 -0.001123 0.001246 -0.001095 -0.000334
# 3 -0.000307 -0.001123 0.007672 0.001810 -0.003041 -0.002195
# 4 0.006646 0.001246 0.001810 0.023350 -0.009113 -0.012746
# 5 -0.006600 -0.001095 -0.003041 -0.009113 0.026188 0.013384
# 6 -0.009342 -0.000334 -0.002195 -0.012746 0.013384 0.029223
#
#
# Mechanical properties :
#
#
# Convention : Reuss Voigt Hill
#
# Bulk Modulus (GPa) = 59.20904 109.07127 84.14016
# Shear Modulus (GPa) = 45.41786 66.82774 56.12280
#
# Velocity S-wave (km/s) = 3.92370 4.75950 4.36167
# Velocity P-wave (km/s) = 6.37162 8.19610 7.34076
#
# Compressibility (1/GPa) = 0.01688931
#
# Stress axis : x y z
#
# Youngs Moduli (GPa) = 105.44687 241.65159 130.34167
#
# Poissons Ratio (x) = 0.18673 0.04000
# Poissons Ratio (y) = 0.08148 0.14633
# Poissons Ratio (z) = 0.03236 0.27130
#
# Static dielectric constant tensor:
#      x y z
#    x 2.576740 -0.103260 -0.018670 
#    y -0.103260 2.313850 0.001200 
#    z -0.018670 0.001200 2.757730 
# 
# From -- ./inp_files/478366.got.cif
#   From: 2010.05.17/outbox.cif.g08.bks.cpg/sg2_240_cif.got.tgz:478366.got - 2010.06.03 11:33:40.
