data_PCOD9031071
_publ_section_title
;
Structure prediction by ZEFSAII (Michael W. Deem and Ramdas Pophale) SiO2 
 PCOD9031071
Probable space group: P -1
;
_chemical_formula_sum "Si O2"
_cell_formula_units_Z 12
_cell_length_a 18.457468
_cell_length_b 14.990198
_cell_length_c 19.515175
_cell_angle_alpha 18.139511
_cell_angle_beta 159.273502
_cell_angle_gamma 147.912455
_cell_volume 550.982931
_symmetry_space_group_name_H-M "P -1"
_symmetry_group_IT_number 2
_symmetry_cell_setting 'triclinic'
loop_
_space_group_symop_operation_xyz
x,y,z
-x,-y,-z
loop_
_atom_site_type_symbol
_atom_site_label
_atom_site_fract_x
_atom_site_fract_y
_atom_site_fract_z
Si Si1 0.537291 0.722818 0.926097
Si Si2 0.376125 0.351359 0.790872
Si Si3 0.071697 0.282490 0.097366
Si Si4 0.717385 0.206165 0.927725
Si Si5 0.771867 0.167630 0.800858
Si Si6 0.316642 0.708440 0.012894
O O1 0.733791 0.848283 0.993069
O O2 0.500000 0.500000 0.000000
O O3 0.572511 0.582832 0.135337
O O4 0.308989 0.016552 0.510976
O O5 0.226063 0.666937 0.390330
O O6 0.593602 0.196623 0.046855
O O7 0.270195 0.093688 0.885245
O O8 0.118240 0.596287 0.902529
O O9 0.920667 0.294431 0.020242
O O10 0.957719 0.193552 0.995994
O O11 0.500000 0.500000 0.500000
O O12 0.727003 0.111504 0.085515
O O13 0.537822 0.410053 0.446299
#
# Coordination Sequence:
#
# PCOD9031071 Si02
#       6
#     2   2   2   2   2   2
#     4  11  24  45  67  91 126 167 212 276 325 363
#     4  10  22  43  64  93 135 165 208 274 301 377
#     4  11  21  41  66  94 131 166 216 256 308 390
#     4  12  19  38  66  94 135 174 200 255 316 375
#     4   9  21  43  60  93 133 154 217 262 306 375
#     4   9  21  36  61  94 130 164 206 248 308 373
#
# _framework density 21.779257000000001
#
# number of rings (size 3 to 8) (size 9 to 14) (size 15 to 20)
#    1.000    0.667    3.333    2.000    0.000    2.667 
#    0.000    3.333    0.000    0.000    0.000    0.000 
#    0.000    0.000    0.000    0.000    0.000    0.000 
#
# Total GULP energy -66918.326658 kJ/mol
# GULP energy per Si atom -5576.527221 kJ/mol
# Density = 2.172969 g / cm^3
# Si number density = 21.779257 Si / 1000 Ang^3
#
#
#
# Elastic Constant Matrix: (Units=GPa)
#
#
# Indices 1 2 3 4 5 6 
#
# 1 97.2187 99.8990 50.9196 17.0872 -29.5937 -41.6105
# 2 99.8990 415.1999 187.8042 72.0394 11.5340 -143.3279
# 3 50.9196 187.8042 150.1881 48.1940 2.6277 -86.2374
# 4 17.0872 72.0394 48.1940 37.5368 -0.6166 -25.2268
# 5 -29.5937 11.5340 2.6277 -0.6166 30.6719 0.9911
# 6 -41.6105 -143.3279 -86.2374 -25.2268 0.9911 104.7246
#
#
#
# Elastic Compliance Matrix: (Units=1/GPa)
#
#
# Indices 1 2 3 4 5 6 
#
# 1 0.026409 -0.006910 -0.002317 0.004670 0.028372 -0.000015
# 2 -0.006910 0.008677 -0.003835 -0.005571 -0.009866 0.004723
# 3 -0.002317 -0.003835 0.021320 -0.013527 -0.003155 0.008158
# 4 0.004670 -0.005571 -0.013527 0.049278 0.008916 -0.005122
# 5 0.028372 -0.009866 -0.003155 0.008916 0.064244 -0.003288
# 6 -0.000015 0.004723 0.008158 -0.005122 -0.003288 0.021522
#
#
# Mechanical properties :
#
#
# Convention : Reuss Voigt Hill
#
# Bulk Modulus (GPa) = 33.02292 148.87250 90.94771
# Shear Modulus (GPa) = 21.96192 56.18558 39.07375
#
# Velocity S-wave (km/s) = 3.17896 5.08466 4.24025
# Velocity P-wave (km/s) = 5.35442 10.14767 8.11311
#
# Compressibility (1/GPa) = 0.03028200
#
# Stress axis : x y z
#
# Youngs Moduli (GPa) = 37.86551 115.25136 46.90490
#
# Poissons Ratio (x) = 0.79637 0.10868
# Poissons Ratio (y) = 0.26165 0.17988
# Poissons Ratio (z) = 0.08773 0.44199
#
# Static dielectric constant tensor:
#      x y z
#    x 1.820240 0.015710 -0.008680 
#    y 0.015710 1.782200 -0.004800 
#    z -0.008680 -0.004800 1.795700 
# 
# From -- ./inp_files/31729.got.cif
#   From: 2010.05.17/outbox.cif.g08.bks.cpg/sg2_16_cif.got.tgz:31729.got - 2010.06.03 11:33:40.
