data_PCOD9031081
_publ_section_title
;
Structure prediction by ZEFSAII (Michael W. Deem and Ramdas Pophale) SiO2 
 PCOD9031081
Probable space group: P -1
;
_chemical_formula_sum "Si O2"
_cell_formula_units_Z 16
_cell_length_a 9.119903
_cell_length_b 20.155348
_cell_length_c 24.510556
_cell_angle_alpha 157.933855
_cell_angle_beta 149.192435
_cell_angle_gamma 28.983629
_cell_volume 790.869773
_symmetry_space_group_name_H-M "P -1"
_symmetry_group_IT_number 2
_symmetry_cell_setting 'triclinic'
loop_
_space_group_symop_operation_xyz
x,y,z
-x,-y,-z
loop_
_atom_site_type_symbol
_atom_site_label
_atom_site_fract_x
_atom_site_fract_y
_atom_site_fract_z
Si Si1 0.185035 0.473222 0.366697
Si Si2 0.710535 0.155908 0.056730
Si Si3 0.872740 0.808044 0.439082
Si Si4 0.575044 0.069459 0.134590
Si Si5 0.847781 0.231290 0.615977
Si Si6 0.836655 0.113453 0.746701
Si Si7 0.066938 0.445319 0.041648
Si Si8 0.148956 0.518026 0.617998
O O1 0.500000 0.500000 0.500000
O O2 0.325079 0.286384 0.230358
O O3 0.945041 0.649117 0.388596
O O4 0.041896 0.453410 0.364349
O O5 0.811147 0.282408 0.226129
O O6 0.442093 0.319785 0.062211
O O7 0.527141 0.047768 0.943735
O O8 0.000000 0.000000 0.000000
O O9 0.528258 0.851752 0.337511
O O10 0.110409 0.740199 0.413121
O O11 0.914186 0.986144 0.618567
O O12 0.935636 0.011702 0.226164
O O13 0.500000 0.000000 0.000000
O O14 0.478963 0.333321 0.589746
O O15 0.992348 0.364017 0.795669
O O16 0.000000 0.000000 0.500000
O O17 0.895230 0.309574 0.905525
O O18 0.000000 0.500000 0.000000
O O19 0.000000 0.500000 0.500000
#
# Coordination Sequence:
#
# PCOD9031081 Si02
#       8
#     2   2   2   2   2   2   2   2
#     4  12  25  43  71 101 136 183 227 280 353 402
#     4  10  22  43  64  95 129 174 224 273 340 392
#     4  11  25  43  71  97 141 175 232 288 338 422
#     4  11  25  44  70  98 139 177 229 281 342 417
#     4  11  26  45  68  99 135 182 233 278 347 404
#     4  10  24  44  68  97 134 179 227 281 353 393
#     4  10  23  41  67  94 136 172 226 280 337 411
#     4  11  26  43  68  99 137 176 231 281 333 410
#
# _framework density 20.230892000000001
#
# number of rings (size 3 to 8) (size 9 to 14) (size 15 to 20)
#    0.000    1.250    2.500    1.500   14.000    1.500 
#    2.250    0.000    0.000    0.000    0.000    0.000 
#    0.000    0.000    0.000    0.000    0.000    0.000 
#
# Total GULP energy -89142.183342 kJ/mol
# GULP energy per Si atom -5571.386459 kJ/mol
# Density = 2.018485 g / cm^3
# Si number density = 20.230892 Si / 1000 Ang^3
#
#
#
# Elastic Constant Matrix: (Units=GPa)
#
#
# Indices 1 2 3 4 5 6 
#
# 1 30.8751 2.6303 -3.1451 -0.3325 -20.2740 -12.5977
# 2 2.6303 81.2119 45.0330 1.0258 -12.7810 -11.3912
# 3 -3.1451 45.0330 135.5722 10.2674 -19.0697 -8.0756
# 4 -0.3325 1.0258 10.2674 40.3055 0.2185 -0.1111
# 5 -20.2740 -12.7810 -19.0697 0.2185 32.5105 0.9418
# 6 -12.5977 -11.3912 -8.0756 -0.1111 0.9418 29.5332
#
#
#
# Elastic Compliance Matrix: (Units=1/GPa)
#
#
# Indices 1 2 3 4 5 6 
#
# 1 0.097270 0.007253 0.012559 -0.002833 0.069578 0.045494
# 2 0.007253 0.016635 -0.003692 0.000553 0.008655 0.008226
# 3 0.012559 -0.003692 0.011299 -0.002732 0.012835 0.006603
# 4 -0.002833 0.000553 -0.002732 0.025483 -0.003279 -0.001542
# 5 0.069578 0.008655 0.012835 -0.003279 0.084122 0.033832
# 6 0.045494 0.008226 0.006603 -0.001542 0.033832 0.057160
#
#
# Mechanical properties :
#
#
# Convention : Reuss Voigt Hill
#
# Bulk Modulus (GPa) = 6.35150 37.41065 21.88108
# Shear Modulus (GPa) = 16.01483 34.01257 25.01370
#
# Velocity S-wave (km/s) = 2.81660 4.10472 3.52008
# Velocity P-wave (km/s) = 3.70458 6.40288 5.23072
#
# Compressibility (1/GPa) = 0.15744301
#
# Stress axis : x y z
#
# Youngs Moduli (GPa) = 10.28069 60.11543 88.49976
#
# Poissons Ratio (x) = -0.43599 -1.11145
# Poissons Ratio (y) = -0.07456 0.32672
# Poissons Ratio (z) = -0.12911 0.22193
#
# Static dielectric constant tensor:
#      x y z
#    x 1.567970 -0.022790 -0.033890 
#    y -0.022790 2.243580 -0.040770 
#    z -0.033890 -0.040770 1.781030 
# 
# From -- ./inp_files/186774.got.cif
#   From: 2010.05.17/outbox.cif.g08.bks.cpg/sg2_94_cif.got.tgz:186774.got - 2010.06.03 11:33:40.
