data_PCOD9031002
_publ_section_title
;
Structure prediction by ZEFSAII (Michael W. Deem and Ramdas Pophale) SiO2 
 PCOD9031002
Probable space group: P -1
;
_chemical_formula_sum "Si O2"
_cell_formula_units_Z 16
_cell_length_a 19.523028
_cell_length_b 9.443230
_cell_length_c 13.617632
_cell_angle_alpha 49.986839
_cell_angle_beta 155.012155
_cell_angle_gamma 141.601523
_cell_volume 636.622171
_symmetry_space_group_name_H-M "P -1"
_symmetry_group_IT_number 2
_symmetry_cell_setting 'triclinic'
loop_
_space_group_symop_operation_xyz
x,y,z
-x,-y,-z
loop_
_atom_site_type_symbol
_atom_site_label
_atom_site_fract_x
_atom_site_fract_y
_atom_site_fract_z
Si Si1 0.986950 0.485392 0.607305
Si Si2 0.031263 0.106900 0.811342
Si Si3 0.596485 0.236092 0.862851
Si Si4 0.113176 0.380880 0.086120
Si Si5 0.104753 0.031306 0.727397
Si Si6 0.147450 0.481394 0.311671
Si Si7 0.551580 0.275589 0.140155
Si Si8 0.493210 0.542956 0.201403
O O1 0.952938 0.244246 0.689940
O O2 0.208947 0.691182 0.848681
O O3 0.000000 0.500000 0.500000
O O4 0.791247 0.464956 0.398850
O O5 0.012129 0.074174 0.681898
O O6 0.279148 0.294090 0.063273
O O7 0.937565 0.868050 0.852928
O O8 0.490061 0.973540 0.807260
O O9 0.702429 0.433428 0.828322
O O10 0.455753 0.276539 0.725288
O O11 0.168463 0.494605 0.215542
O O12 0.907646 0.351638 0.801611
O O13 0.049927 0.781256 0.795961
O O14 0.353360 0.223172 0.960076
O O15 0.000000 0.000000 0.500000
O O16 0.539537 0.349882 0.982391
O O17 0.658722 0.503112 0.410857
#
# Coordination Sequence:
#
# PCOD9031002 Si02
#       8
#     2   2   2   2   2   2   2   2
#     4  11  25  44  67 101 140 168 215 279 332 394
#     4  10  25  45  63  96 138 172 216 281 327 387
#     4  11  25  43  68 100 134 179 220 269 332 396
#     4  10  23  44  65  88 136 177 223 271 317 395
#     4  11  23  39  69  96 131 173 221 276 328 392
#     4  10  22  43  63  96 129 172 227 270 323 388
#     4  12  24  42  69 104 130 174 217 273 339 396
#     4  11  24  41  66  99 131 172 218 274 343 388
#
# _framework density 25.132648
#
# number of rings (size 3 to 8) (size 9 to 14) (size 15 to 20)
#    0.000    1.250    5.000    0.375    5.250    4.500 
#    2.250    0.000    0.000    0.000    0.000    0.000 
#    0.000    0.000    0.000    0.000    0.000    0.000 
#
# Total GULP energy -89628.752835 kJ/mol
# GULP energy per Si atom -5601.797052 kJ/mol
# Density = 2.507544 g / cm^3
# Si number density = 25.132648 Si / 1000 Ang^3
#
#
#
# Elastic Constant Matrix: (Units=GPa)
#
#
# Indices 1 2 3 4 5 6 
#
# 1 118.2875 24.8807 39.9650 -2.8093 18.2325 -0.2630
# 2 24.8807 100.6472 9.0534 -17.6440 2.8912 9.4987
# 3 39.9650 9.0534 76.5463 -2.5785 29.7840 11.1900
# 4 -2.8093 -17.6440 -2.5785 38.7777 4.1395 1.8031
# 5 18.2325 2.8912 29.7840 4.1395 53.5323 0.5311
# 6 -0.2630 9.4987 11.1900 1.8031 0.5311 43.3619
#
#
#
# Elastic Compliance Matrix: (Units=1/GPa)
#
#
# Indices 1 2 3 4 5 6 
#
# 1 0.010918 -0.002519 -0.005558 -0.000774 -0.000451 0.002090
# 2 -0.002519 0.011738 0.000782 0.005414 -0.000600 -0.003006
# 3 -0.005558 0.000782 0.020552 0.002614 -0.009731 -0.005498
# 4 -0.000774 0.005414 0.002614 0.028904 -0.003688 -0.003022
# 5 -0.000451 -0.000600 -0.009731 -0.003688 0.024541 0.002493
# 6 0.002090 -0.003006 -0.005498 -0.003022 0.002493 0.025247
#
#
# Mechanical properties :
#
#
# Convention : Reuss Voigt Hill
#
# Bulk Modulus (GPa) = 34.94414 49.25326 42.09870
# Shear Modulus (GPa) = 34.23999 41.90649 38.07324
#
# Velocity S-wave (km/s) = 3.69504 4.08783 3.89638
# Velocity P-wave (km/s) = 5.66908 6.47459 6.08518
#
# Compressibility (1/GPa) = 0.02861710
#
# Stress axis : x y z
#
# Youngs Moduli (GPa) = 91.59591 85.19250 48.65769
#
# Poissons Ratio (x) = 0.21459 0.27046
# Poissons Ratio (y) = 0.23072 -0.03806
# Poissons Ratio (z) = 0.50913 -0.06663
#
# Static dielectric constant tensor:
#      x y z
#    x 2.010780 -0.047670 -0.005670 
#    y -0.047670 1.957700 0.028300 
#    z -0.005670 0.028300 2.067330 
# 
# From -- ./inp_files/252528.got.cif
#   From: 2010.05.17/outbox.cif.g08.bks.cpg/sg2_127_cif.got.tgz:252528.got - 2010.06.03 11:33:40.
