data_PCOD9031016
_publ_section_title
;
Structure prediction by ZEFSAII (Michael W. Deem and Ramdas Pophale) SiO2 
 PCOD9031016
Probable space group: P -1
;
_chemical_formula_sum "Si O2"
_cell_formula_units_Z 14
_cell_length_a 13.609907
_cell_length_b 13.241595
_cell_length_c 6.908895
_cell_angle_alpha 86.464383
_cell_angle_beta 74.770757
_cell_angle_gamma 29.537890
_cell_volume 554.637087
_symmetry_space_group_name_H-M "P -1"
_symmetry_group_IT_number 2
_symmetry_cell_setting 'triclinic'
loop_
_space_group_symop_operation_xyz
x,y,z
-x,-y,-z
loop_
_atom_site_type_symbol
_atom_site_label
_atom_site_fract_x
_atom_site_fract_y
_atom_site_fract_z
Si Si1 0.562678 0.334883 0.572491
Si Si2 0.481929 0.309066 0.231156
Si Si3 0.247538 0.246662 0.653148
Si Si4 0.122750 0.728184 0.960829
Si Si5 0.964196 0.375225 0.470279
Si Si6 0.180158 0.862979 0.172085
Si Si7 0.774289 0.881509 0.005385
O O1 0.500000 0.500000 0.500000
O O2 0.586852 0.236469 0.396409
O O3 0.354553 0.485733 0.791637
O O4 0.766065 0.168138 0.629590
O O5 0.220158 0.539959 0.368873
O O6 0.550109 0.140283 0.129069
O O7 0.606227 0.283013 0.040425
O O8 0.177422 0.421555 0.613662
O O9 0.227954 0.227761 0.888597
O O10 0.087235 0.322526 0.587653
O O11 0.500000 0.000000 0.500000
O O12 0.143522 0.782099 0.127704
O O13 0.019513 0.893912 0.831669
O O14 0.953461 0.786271 0.047603
O O15 0.149924 0.174716 0.248079
#
# Coordination Sequence:
#
# PCOD9031016 Si02
#       7
#     2   2   2   2   2   2   2
#     4  12  24  41  68  98 139 187 228 278 337 395
#     4  11  24  44  67 105 137 177 236 272 337 410
#     4  11  25  48  72 102 133 173 226 281 341 415
#     4  10  22  43  63  98 136 182 226 273 342 386
#     4  11  25  46  71 101 135 179 219 278 350 399
#     4  10  24  43  63  99 143 178 229 285 322 404
#     4  11  24  45  70  99 139 175 227 281 333 407
#
# _framework density 25.241727999999998
#
# number of rings (size 3 to 8) (size 9 to 14) (size 15 to 20)
#    0.000    1.143    4.286    0.857    2.000    3.429 
#    2.571    0.000    0.000    0.000    0.000    0.000 
#    0.000    0.000    0.000    0.000    0.000    0.000 
#
# Total GULP energy -78422.999891 kJ/mol
# GULP energy per Si atom -5601.642849 kJ/mol
# Density = 2.518428 g / cm^3
# Si number density = 25.241728 Si / 1000 Ang^3
#
#
#
# Elastic Constant Matrix: (Units=GPa)
#
#
# Indices 1 2 3 4 5 6 
#
# 1 49.6188 -1.1116 12.1131 -13.2086 -8.3669 -7.2901
# 2 -1.1116 86.4391 31.4459 -8.6893 1.6985 -9.9391
# 3 12.1131 31.4459 85.5275 7.6619 4.7587 -7.8618
# 4 -13.2086 -8.6893 7.6619 39.9470 -5.2251 -1.7289
# 5 -8.3669 1.6985 4.7587 -5.2251 45.9194 0.0074
# 6 -7.2901 -9.9391 -7.8618 -1.7289 0.0074 41.9587
#
#
#
# Elastic Compliance Matrix: (Units=1/GPa)
#
#
# Indices 1 2 3 4 5 6 
#
# 1 0.026951 0.004354 -0.006429 0.012198 0.006803 0.005011
# 2 0.004354 0.014962 -0.006464 0.006291 0.001625 0.003348
# 3 -0.006429 -0.006464 0.015796 -0.007001 -0.003366 0.000024
# 4 0.012198 0.006291 -0.007001 0.032779 0.006445 0.003648
# 5 0.006803 0.001625 -0.003366 0.006445 0.024039 0.001198
# 6 0.005011 0.003348 0.000024 0.003648 0.001198 0.025651
#
#
# Mechanical properties :
#
#
# Convention : Reuss Voigt Hill
#
# Bulk Modulus (GPa) = 24.61127 34.05338 29.33232
# Shear Modulus (GPa) = 29.27429 37.50756 33.39092
#
# Velocity S-wave (km/s) = 3.40922 3.85896 3.64104
# Velocity P-wave (km/s) = 5.02677 5.77717 5.41498
#
# Compressibility (1/GPa) = 0.04063180
#
# Stress axis : x y z
#
# Youngs Moduli (GPa) = 37.10423 66.83643 63.30801
#
# Poissons Ratio (x) = -0.29100 0.40698
# Poissons Ratio (y) = -0.16155 0.40922
# Poissons Ratio (z) = 0.23853 0.43203
#
# Static dielectric constant tensor:
#      x y z
#    x 1.966550 0.023390 -0.041970 
#    y 0.023390 2.008850 -0.001650 
#    z -0.041970 -0.001650 2.006760 
# 
# From -- ./inp_files/98071.got.cif
#   From: 2010.05.17/outbox.cif.g08.bks.cpg/sg2_50_cif.got.tgz:98071.got - 2010.06.03 11:33:40.
