data_PCOD9031485
_publ_section_title
;
Structure prediction by ZEFSAII (Michael W. Deem and Ramdas Pophale) SiO2 
 PCOD9031485
Probable space group: P -1
;
_chemical_formula_sum "Si O2"
_cell_formula_units_Z 16
_cell_length_a 15.837274
_cell_length_b 8.571052
_cell_length_c 14.169842
_cell_angle_alpha 96.015917
_cell_angle_beta 28.448085
_cell_angle_gamma 79.126932
_cell_volume 733.912363
_symmetry_space_group_name_H-M "P -1"
_symmetry_group_IT_number 2
_symmetry_cell_setting 'triclinic'
loop_
_space_group_symop_operation_xyz
x,y,z
-x,-y,-z
loop_
_atom_site_type_symbol
_atom_site_label
_atom_site_fract_x
_atom_site_fract_y
_atom_site_fract_z
Si Si1 0.049005 0.895289 0.213460
Si Si2 0.675656 0.900500 0.698391
Si Si3 0.147039 0.052350 0.947723
Si Si4 0.317668 0.692562 0.634973
Si Si5 0.176978 0.535719 0.454483
Si Si6 0.283566 0.204399 0.978859
Si Si7 0.532910 0.548302 0.211708
Si Si8 0.098861 0.091562 0.351467
O O1 0.044557 0.981203 0.120705
O O2 0.844285 0.902182 0.458698
O O3 0.099793 0.010699 0.242745
O O4 0.258965 0.672443 0.991943
O O5 0.737087 0.686457 0.641131
O O6 0.703976 0.967069 0.776317
O O7 0.436699 0.041484 0.896067
O O8 0.290209 0.876365 0.722906
O O9 0.934675 0.237272 0.116063
O O10 0.287061 0.104719 0.872203
O O11 0.500000 0.500000 0.500000
O O12 0.401749 0.642222 0.442862
O O13 0.369835 0.551860 0.298023
O O14 0.063256 0.671856 0.482169
O O15 0.972682 0.646581 0.734501
O O16 0.379096 0.328372 0.893617
O O17 0.000000 0.000000 0.500000
#
# Coordination Sequence:
#
# PCOD9031485 Si02
#       8
#     2   2   2   2   2   2   2   2
#     4  11  21  44  71  99 137 183 224 277 341 398
#     4  11  25  43  68 101 136 180 230 277 333 399
#     4  11  23  43  69 100 133 177 221 276 337 400
#     4  11  23  41  72  98 134 172 222 277 336 400
#     4  12  24  45  70  99 137 181 226 277 341 396
#     4  12  25  45  73  98 137 181 225 274 339 402
#     4  12  24  45  70 100 137 180 223 281 338 401
#     4  10  22  43  67 100 138 177 230 280 325 398
#
# _framework density 21.800968000000001
#
# number of rings (size 3 to 8) (size 9 to 14) (size 15 to 20)
#    0.000    0.750    5.000    3.375    0.000    1.000 
#    2.250    2.500    0.000    0.000    0.000    0.000 
#    0.000    0.000    0.000    0.000    0.000    0.000 
#
# Total GULP energy -89340.169203 kJ/mol
# GULP energy per Si atom -5583.760575 kJ/mol
# Density = 2.175135 g / cm^3
# Si number density = 21.800968 Si / 1000 Ang^3
#
#
#
# Elastic Constant Matrix: (Units=GPa)
#
#
# Indices 1 2 3 4 5 6 
#
# 1 90.7989 12.5258 7.7323 12.3719 -21.3223 24.0228
# 2 12.5258 107.3283 15.4910 11.5944 -18.3408 19.9345
# 3 7.7323 15.4910 63.2578 19.6738 -18.1368 7.2955
# 4 12.3719 11.5944 19.6738 48.5774 2.4607 -9.0146
# 5 -21.3223 -18.3408 -18.1368 2.4607 40.5805 -0.7328
# 6 24.0228 19.9345 7.2955 -9.0146 -0.7328 36.0103
#
#
#
# Elastic Compliance Matrix: (Units=1/GPa)
#
#
# Indices 1 2 3 4 5 6 
#
# 1 0.022080 0.005261 0.008820 -0.015649 0.018456 -0.022971
# 2 0.005261 0.013590 0.003563 -0.009139 0.010803 -0.013822
# 3 0.008820 0.003563 0.027043 -0.018269 0.019122 -0.017519
# 4 -0.015649 -0.009139 -0.018269 0.040656 -0.022461 0.028920
# 5 0.018456 0.010803 0.019122 -0.022461 0.048647 -0.026799
# 6 -0.022971 -0.013822 -0.017519 0.028920 -0.026799 0.060990
#
#
# Mechanical properties :
#
#
# Convention : Reuss Voigt Hill
#
# Bulk Modulus (GPa) = 10.20402 36.98700 23.59551
# Shear Modulus (GPa) = 23.76614 40.07602 31.92108
#
# Velocity S-wave (km/s) = 3.30531 4.29215 3.83064
# Velocity P-wave (km/s) = 4.38833 6.44717 5.51469
#
# Compressibility (1/GPa) = 0.09800063
#
# Stress axis : x y z
#
# Youngs Moduli (GPa) = 45.28932 73.58586 36.97868
#
# Poissons Ratio (x) = -0.38713 -0.32617
# Poissons Ratio (y) = -0.23826 -0.13174
# Poissons Ratio (z) = -0.39947 -0.26216
#
# Static dielectric constant tensor:
#      x y z
#    x 1.938470 -0.297330 -0.175690 
#    y -0.297330 2.354480 0.335980 
#    z -0.175690 0.335980 2.088000 
# 
# From -- ./inp_files/315251.got.cif
#   From: 2010.05.17/outbox.cif.g08.bks.cpg/sg2_158_cif.got.tgz:315251.got - 2010.06.03 11:33:40.
