data_PCOD9031263
_publ_section_title
;
Structure prediction by ZEFSAII (Michael W. Deem and Ramdas Pophale) SiO2 
 PCOD9031263
Probable space group: P -1
;
_chemical_formula_sum "Si O2"
_cell_formula_units_Z 14
_cell_length_a 8.986932
_cell_length_b 8.944962
_cell_length_c 15.194857
_cell_angle_alpha 107.320432
_cell_angle_beta 133.023521
_cell_angle_gamma 102.361873
_cell_volume 683.404056
_symmetry_space_group_name_H-M "P -1"
_symmetry_group_IT_number 2
_symmetry_cell_setting 'triclinic'
loop_
_space_group_symop_operation_xyz
x,y,z
-x,-y,-z
loop_
_atom_site_type_symbol
_atom_site_label
_atom_site_fract_x
_atom_site_fract_y
_atom_site_fract_z
Si Si1 0.504808 0.313129 0.949015
Si Si2 0.663344 0.608912 0.674768
Si Si3 0.949953 0.087381 0.238830
Si Si4 0.958816 0.478880 0.873712
Si Si5 0.871220 0.792703 0.368497
Si Si6 0.203294 0.886580 0.359668
Si Si7 0.831617 0.563097 0.475311
O O1 0.357842 0.244091 0.785929
O O2 0.500000 0.500000 0.000000
O O3 0.782335 0.375167 0.052319
O O4 0.329907 0.121068 0.906925
O O5 0.500000 0.500000 0.500000
O O6 0.925538 0.808935 0.785464
O O7 0.449466 0.613083 0.637171
O O8 0.746851 0.498624 0.749576
O O9 0.007153 0.260009 0.357358
O O10 0.128467 0.030005 0.336397
O O11 0.894536 0.272114 0.783608
O O12 0.000000 0.500000 0.000000
O O13 0.782210 0.644409 0.384446
O O14 0.059820 0.788011 0.376862
O O15 0.000000 0.000000 0.500000
O O16 0.500000 0.000000 0.500000
O O17 0.000000 0.500000 0.500000
#
# Coordination Sequence:
#
# PCOD9031263 Si02
#       7
#     2   2   2   2   2   2   2
#     4  11  22  43  68 100 140 181 234 283 354 415
#     4  10  24  45  67  99 142 180 233 286 350 414
#     4  10  22  43  65  97 139 179 227 285 348 413
#     4  12  26  44  71 104 141 191 229 292 353 416
#     4  11  22  41  68  99 133 181 240 288 334 413
#     4  11  23  39  69  99 136 184 237 285 342 416
#     4  11  23  39  67 104 133 176 231 293 340 407
#
# _framework density 20.485683999999999
#
# number of rings (size 3 to 8) (size 9 to 14) (size 15 to 20)
#    0.000    1.143    5.714    2.571    8.000    0.571 
#    0.000    0.714    0.000    0.000    0.000    0.000 
#    0.000    0.000    0.000    0.000    0.000    0.000 
#
# Total GULP energy -78005.115013 kJ/mol
# GULP energy per Si atom -5571.793930 kJ/mol
# Density = 2.043906 g / cm^3
# Si number density = 20.485684 Si / 1000 Ang^3
#
#
#
# Elastic Constant Matrix: (Units=GPa)
#
#
# Indices 1 2 3 4 5 6 
#
# 1 147.5254 37.3290 38.4428 14.6398 13.1638 -3.4118
# 2 37.3290 68.2596 14.6262 14.0160 1.1118 10.5532
# 3 38.4428 14.6262 84.3337 9.5900 -2.1108 -11.5609
# 4 14.6398 14.0160 9.5900 32.7809 -4.1531 -1.4682
# 5 13.1638 1.1118 -2.1108 -4.1531 42.7064 -2.2648
# 6 -3.4118 10.5532 -11.5609 -1.4682 -2.2648 38.9203
#
#
#
# Elastic Compliance Matrix: (Units=1/GPa)
#
#
# Indices 1 2 3 4 5 6 
#
# 1 0.009083 -0.003967 -0.003235 -0.001763 -0.002992 0.000670
# 2 -0.003967 0.019499 -0.001734 -0.006387 -0.000332 -0.006410
# 3 -0.003235 -0.001734 0.014484 -0.001615 0.001842 0.004535
# 4 -0.001763 -0.006387 -0.001615 0.035146 0.004189 0.002667
# 5 -0.002992 -0.000332 0.001842 0.004189 0.024950 0.001985
# 6 0.000670 -0.006410 0.004535 0.002667 0.001985 0.029054
#
#
# Mechanical properties :
#
#
# Convention : Reuss Voigt Hill
#
# Bulk Modulus (GPa) = 39.69158 53.43499 46.56328
# Shear Modulus (GPa) = 31.54853 36.86290 34.20572
#
# Velocity S-wave (km/s) = 3.92858 4.24659 4.09068
# Velocity P-wave (km/s) = 6.32421 7.08417 6.71495
#
# Compressibility (1/GPa) = 0.02519426
#
# Stress axis : x y z
#
# Youngs Moduli (GPa) = 110.10070 51.28515 69.03959
#
# Poissons Ratio (x) = 0.20344 0.22333
# Poissons Ratio (y) = 0.43674 0.11973
# Poissons Ratio (z) = 0.35615 0.08894
#
# Static dielectric constant tensor:
#      x y z
#    x 1.657080 0.121550 -0.106120 
#    y 0.121550 1.741520 0.054270 
#    z -0.106120 0.054270 1.608710 
# 
# From -- ./inp_files/206433.got.cif
#   From: 2010.05.17/outbox.cif.g08.bks.cpg/sg2_104_cif.got.tgz:206433.got - 2010.06.03 11:33:40.
