data_PCOD9031690
_publ_section_title
;
Structure prediction by ZEFSAII (Michael W. Deem and Ramdas Pophale) SiO2 
 PCOD9031690
Probable space group: P -1
;
_chemical_formula_sum "Si O2"
_cell_formula_units_Z 16
_cell_length_a 5.483700
_cell_length_b 8.841367
_cell_length_c 19.905842
_cell_angle_alpha 62.707426
_cell_angle_beta 125.439770
_cell_angle_gamma 87.827704
_cell_volume 634.279729
_symmetry_space_group_name_H-M "P -1"
_symmetry_group_IT_number 2
_symmetry_cell_setting 'triclinic'
loop_
_space_group_symop_operation_xyz
x,y,z
-x,-y,-z
loop_
_atom_site_type_symbol
_atom_site_label
_atom_site_fract_x
_atom_site_fract_y
_atom_site_fract_z
Si Si1 0.293871 0.175437 0.887827
Si Si2 0.946184 0.154393 0.262396
Si Si3 0.281125 0.883481 0.258029
Si Si4 0.804596 0.064070 0.525090
Si Si5 0.885897 0.469155 0.874575
Si Si6 0.554811 0.510116 0.585340
Si Si7 0.212700 0.508889 0.744593
Si Si8 0.767270 0.772066 0.894067
O O1 0.440519 0.290707 0.843543
O O2 0.067192 0.117734 0.816011
O O3 0.094959 0.338032 0.875698
O O4 0.500000 0.000000 0.000000
O O5 0.979848 0.335010 0.261159
O O6 0.587913 0.233581 0.153878
O O7 0.229655 0.006560 0.291685
O O8 0.954364 0.031894 0.354410
O O9 0.491663 0.662606 0.350365
O O10 0.324533 0.011032 0.180128
O O11 0.676960 0.286650 0.465319
O O12 0.500000 0.000000 0.500000
O O13 0.000000 0.000000 0.500000
O O14 0.513246 0.562790 0.766366
O O15 0.933532 0.643253 0.881246
O O16 0.994289 0.326107 0.985884
O O17 0.500000 0.500000 0.500000
O O18 0.924959 0.498023 0.656600
#
# Coordination Sequence:
#
# PCOD9031690 Si02
#       8
#     2   2   2   2   2   2   2   2
#     4  11  23  39  63  97 141 185 234 300 374 445
#     4  11  23  43  71  99 142 188 247 304 372 453
#     4  11  24  40  67 102 143 183 241 306 380 440
#     4  12  28  52  80 111 149 206 263 314 385 464
#     4  10  22  43  67  99 139 188 244 296 373 457
#     4  11  24  48  72 109 146 190 248 319 388 448
#     4  10  23  42  71  96 135 187 239 297 367 455
#     4  10  23  41  68 102 137 190 240 303 373 455
#
# _framework density 25.225462
#
# number of rings (size 3 to 8) (size 9 to 14) (size 15 to 20)
#    0.000    1.250    2.500    2.250    1.750    8.000 
#    2.250    6.250    0.000    0.000    0.000    0.000 
#    0.000    0.000    0.000    0.000    0.000    0.000 
#
# Total GULP energy -89328.358537 kJ/mol
# GULP energy per Si atom -5583.022409 kJ/mol
# Density = 2.516805 g / cm^3
# Si number density = 25.225462 Si / 1000 Ang^3
#
#
#
# Elastic Constant Matrix: (Units=GPa)
#
#
# Indices 1 2 3 4 5 6 
#
# 1 61.8029 45.3810 14.9365 -10.6649 -1.6655 -2.3502
# 2 45.3810 161.5446 69.2899 -28.2329 -6.9613 -4.5993
# 3 14.9365 69.2899 136.7598 -25.5105 -4.6925 10.3237
# 4 -10.6649 -28.2329 -25.5105 68.0944 11.6330 3.6245
# 5 -1.6655 -6.9613 -4.6925 11.6330 28.4922 -3.4443
# 6 -2.3502 -4.5993 10.3237 3.6245 -3.4443 41.1808
#
#
#
# Elastic Compliance Matrix: (Units=1/GPa)
#
#
# Indices 1 2 3 4 5 6 
#
# 1 0.020550 -0.006015 0.000998 0.001192 -0.000579 0.000097
# 2 -0.006015 0.010051 -0.004287 0.001339 0.001072 0.001826
# 3 0.000998 -0.004287 0.010048 0.002437 -0.000718 -0.003215
# 4 0.001192 0.001339 0.002437 0.017618 -0.006698 -0.002504
# 5 -0.000579 0.001072 -0.000718 -0.006698 0.038434 0.004071
# 6 0.000097 0.001826 -0.003215 -0.002504 0.004071 0.025860
#
#
# Mechanical properties :
#
#
# Convention : Reuss Voigt Hill
#
# Bulk Modulus (GPa) = 45.36867 68.81356 57.09111
# Shear Modulus (GPa) = 33.66722 42.92015 38.29369
#
# Velocity S-wave (km/s) = 3.65725 4.12935 3.90045
# Velocity P-wave (km/s) = 5.98818 7.07630 6.55486
#
# Compressibility (1/GPa) = 0.02204164
#
# Stress axis : x y z
#
# Youngs Moduli (GPa) = 48.66272 99.49575 99.52685
#
# Poissons Ratio (x) = 0.59844 -0.09935
# Poissons Ratio (y) = 0.29269 0.42663
# Poissons Ratio (z) = -0.04858 0.42650
#
# Static dielectric constant tensor:
#      x y z
#    x 2.179020 0.054640 -0.115400 
#    y 0.054640 1.990990 -0.057950 
#    z -0.115400 -0.057950 2.177330 
# 
# From -- ./inp_files/604016.got.cif
#   From: 2010.05.17/outbox.cif.g08.bks.cpg/sg2_303_cif.got.tgz:604016.got - 2010.06.03 11:33:40.
