data_PCOD9031226
_publ_section_title
;
Structure prediction by ZEFSAII (Michael W. Deem and Ramdas Pophale) SiO2 
 PCOD9031226
Probable space group: P -1
;
_chemical_formula_sum "Si O2"
_cell_formula_units_Z 14
_cell_length_a 10.217268
_cell_length_b 7.515080
_cell_length_c 15.532151
_cell_angle_alpha 108.463992
_cell_angle_beta 38.454992
_cell_angle_gamma 91.700776
_cell_volume 653.543852
_symmetry_space_group_name_H-M "P -1"
_symmetry_group_IT_number 2
_symmetry_cell_setting 'triclinic'
loop_
_space_group_symop_operation_xyz
x,y,z
-x,-y,-z
loop_
_atom_site_type_symbol
_atom_site_label
_atom_site_fract_x
_atom_site_fract_y
_atom_site_fract_z
Si Si1 0.541570 0.109392 0.082378
Si Si2 0.867280 0.521862 0.334708
Si Si3 0.049976 0.393227 0.047281
Si Si4 0.672921 0.470219 0.825224
Si Si5 0.940133 0.104993 0.166797
Si Si6 0.497349 0.053952 0.409498
Si Si7 0.573606 0.130735 0.748327
O O1 0.448427 0.346331 0.148893
O O2 0.422247 0.044272 0.214174
O O3 0.500000 0.000000 0.000000
O O4 0.808944 0.028494 0.952666
O O5 0.853486 0.300361 0.306450
O O6 0.642840 0.709073 0.500123
O O7 0.089922 0.513527 0.268901
O O8 0.278326 0.747290 0.275052
O O9 0.928871 0.551331 0.208550
O O10 0.315890 0.293347 0.913338
O O11 0.000000 0.500000 0.000000
O O12 0.953716 0.216406 0.087531
O O13 0.500000 0.500000 0.000000
O O14 0.756945 0.004759 0.243132
O O15 0.500000 0.000000 0.500000
O O16 0.394794 0.939136 0.377368
#
# Coordination Sequence:
#
# PCOD9031226 Si02
#       7
#     2   2   2   2   2   2   2
#     4  11  20  42  71 104 129 170 221 286 342 387
#     4  10  22  43  65  95 130 179 221 270 339 394
#     4   9  18  37  66  98 126 163 228 279 331 386
#     4  12  21  41  72  99 134 166 220 289 331 398
#     4   9  22  42  67  94 130 177 225 274 335 401
#     4  12  27  44  62  94 142 184 221 272 337 404
#     4  11  25  41  63 107 128 174 231 269 343 405
#
# _framework density 21.421669000000001
#
# number of rings (size 3 to 8) (size 9 to 14) (size 15 to 20)
#    0.857    0.571    4.286    1.286    2.000    5.143 
#    2.571    0.714    0.000    0.000    0.000    0.000 
#    0.000    0.000    0.000    0.000    0.000    0.000 
#
# Total GULP energy -78183.765567 kJ/mol
# GULP energy per Si atom -5584.554683 kJ/mol
# Density = 2.137291 g / cm^3
# Si number density = 21.421669 Si / 1000 Ang^3
#
#
#
# Elastic Constant Matrix: (Units=GPa)
#
#
# Indices 1 2 3 4 5 6 
#
# 1 93.8994 37.6271 17.1619 -5.7456 14.1421 -7.3267
# 2 37.6271 97.9406 10.7796 0.4390 1.4068 -16.2292
# 3 17.1619 10.7796 37.0580 3.7998 5.0072 -9.7456
# 4 -5.7456 0.4390 3.7998 26.2207 -1.5926 7.2980
# 5 14.1421 1.4068 5.0072 -1.5926 36.4391 3.8828
# 6 -7.3267 -16.2292 -9.7456 7.2980 3.8828 41.7973
#
#
#
# Elastic Compliance Matrix: (Units=1/GPa)
#
#
# Indices 1 2 3 4 5 6 
#
# 1 0.014501 -0.005102 -0.005302 0.004032 -0.004423 -0.000969
# 2 -0.005102 0.012916 -0.000089 -0.002506 0.000910 0.004453
# 3 -0.005302 -0.000089 0.033122 -0.008586 -0.003783 0.008609
# 4 0.004032 -0.002506 -0.008586 0.043274 0.002676 -0.010072
# 5 -0.004423 0.000910 -0.003783 0.002676 0.030249 -0.004581
# 6 -0.000969 0.004453 0.008609 -0.010072 -0.004581 0.029676
#
#
# Mechanical properties :
#
#
# Convention : Reuss Voigt Hill
#
# Bulk Modulus (GPa) = 25.28322 40.00391 32.64356
# Shear Modulus (GPa) = 25.26427 31.78006 28.52217
#
# Velocity S-wave (km/s) = 3.43794 3.85586 3.65288
# Velocity P-wave (km/s) = 5.25238 6.20795 5.75005
#
# Compressibility (1/GPa) = 0.03955192
#
# Stress axis : x y z
#
# Youngs Moduli (GPa) = 68.96289 77.42102 30.19175
#
# Poissons Ratio (x) = 0.39503 0.16007
# Poissons Ratio (y) = 0.35188 0.00269
# Poissons Ratio (z) = 0.36562 0.00690
#
# Static dielectric constant tensor:
#      x y z
#    x 1.786730 0.038620 0.051190 
#    y 0.038620 1.762810 0.028160 
#    z 0.051190 0.028160 1.761850 
# 
# From -- ./inp_files/489627.got.cif
#   From: 2010.05.17/outbox.cif.g08.bks.cpg/sg2_245_cif.got.tgz:489627.got - 2010.06.03 11:33:40.
