data_PCOD9031575
_publ_section_title
;
Structure prediction by ZEFSAII (Michael W. Deem and Ramdas Pophale) SiO2 
 PCOD9031575
Probable space group: P -1
;
_chemical_formula_sum "Si O2"
_cell_formula_units_Z 16
_cell_length_a 6.776031
_cell_length_b 20.820046
_cell_length_c 9.542140
_cell_angle_alpha 124.027638
_cell_angle_beta 134.082428
_cell_angle_gamma 56.212073
_cell_volume 769.324914
_symmetry_space_group_name_H-M "P -1"
_symmetry_group_IT_number 2
_symmetry_cell_setting 'triclinic'
loop_
_space_group_symop_operation_xyz
x,y,z
-x,-y,-z
loop_
_atom_site_type_symbol
_atom_site_label
_atom_site_fract_x
_atom_site_fract_y
_atom_site_fract_z
Si Si1 0.898205 0.145654 0.167914
Si Si2 0.951222 0.415003 0.515614
Si Si3 0.366882 0.660457 0.228048
Si Si4 0.974779 0.591162 0.776789
Si Si5 0.867341 0.178769 0.868497
Si Si6 0.459203 0.948339 0.549424
Si Si7 0.569663 0.938920 0.089036
Si Si8 0.655513 0.305426 0.416950
O O1 0.793101 0.216878 0.315503
O O2 0.231355 0.101565 0.300161
O O3 0.848697 0.181440 0.030538
O O4 0.710717 0.083392 0.022464
O O5 0.293060 0.377959 0.655554
O O6 0.891916 0.408805 0.312837
O O7 0.883353 0.508636 0.637809
O O8 0.789365 0.365799 0.469550
O O9 0.272758 0.736523 0.170697
O O10 0.287222 0.688020 0.381736
O O11 0.198125 0.598721 0.014132
O O12 0.687482 0.664821 0.735390
O O13 0.711045 0.113962 0.656469
O O14 0.195983 0.142052 0.940320
O O15 0.500000 0.000000 0.500000
O O16 0.316910 0.013615 0.675957
O O17 0.500000 0.000000 0.000000
#
# Coordination Sequence:
#
# PCOD9031575 Si02
#       8
#     2   2   2   2   2   2   2   2
#     4  12  26  45  63  93 132 166 208 264 317 376
#     4  10  22  43  67  94 130 167 208 259 310 374
#     4  11  25  40  64  98 126 166 214 256 313 375
#     4  10  22  43  67  94 129 169 208 255 314 375
#     4  12  26  44  65  92 129 170 208 262 318 375
#     4  12  25  44  68  94 125 166 215 263 318 375
#     4  12  25  44  68  92 125 168 213 263 318 374
#     4  11  25  40  64  97 128 165 212 259 313 374
#
# _framework density 20.797453999999998
#
# number of rings (size 3 to 8) (size 9 to 14) (size 15 to 20)
#    0.000    0.750    2.500    4.500    3.500    6.500 
#    0.000    0.000    0.000    0.000    0.000    0.000 
#    0.000    0.000    0.000    0.000    0.000    0.000 
#
# Total GULP energy -89574.851540 kJ/mol
# GULP energy per Si atom -5598.428221 kJ/mol
# Density = 2.075012 g / cm^3
# Si number density = 20.797454 Si / 1000 Ang^3
#
#
#
# Elastic Constant Matrix: (Units=GPa)
#
#
# Indices 1 2 3 4 5 6 
#
# 1 67.7883 6.3267 33.8568 2.9951 -9.0206 3.4943
# 2 6.3267 69.9601 1.7498 3.1699 -12.8993 -2.1310
# 3 33.8568 1.7498 102.6283 1.7981 -16.9225 -2.5512
# 4 2.9951 3.1699 1.7981 31.5134 -0.1410 -3.6339
# 5 -9.0206 -12.8993 -16.9225 -0.1410 31.5464 1.0490
# 6 3.4943 -2.1310 -2.5512 -3.6339 1.0490 40.0306
#
#
#
# Elastic Compliance Matrix: (Units=1/GPa)
#
#
# Indices 1 2 3 4 5 6 
#
# 1 0.018118 -0.001179 -0.005703 -0.001523 0.001705 -0.002191
# 2 -0.001179 0.015697 0.001275 -0.001427 0.006735 0.000714
# 3 -0.005703 0.001275 0.012557 -0.000138 0.005586 0.001207
# 4 -0.001523 -0.001427 -0.000138 0.032372 -0.001049 0.003014
# 5 0.001705 0.006735 0.005586 -0.001049 0.037950 -0.000524
# 6 -0.002191 0.000714 0.001207 0.003014 -0.000524 0.025574
#
#
# Mechanical properties :
#
#
# Convention : Reuss Voigt Hill
#
# Bulk Modulus (GPa) = 28.44493 36.02703 32.23598
# Shear Modulus (GPa) = 30.26602 33.84764 32.05683
#
# Velocity S-wave (km/s) = 3.81895 4.03859 3.93030
# Velocity P-wave (km/s) = 5.75783 6.25359 6.01082
#
# Compressibility (1/GPa) = 0.03515565
#
# Stress axis : x y z
#
# Youngs Moduli (GPa) = 55.19515 63.70723 79.63579
#
# Poissons Ratio (x) = 0.07512 0.45420
# Poissons Ratio (y) = 0.06508 -0.10151
# Poissons Ratio (z) = 0.31480 -0.08120
#
# Static dielectric constant tensor:
#      x y z
#    x 1.724350 -0.018380 0.019530 
#    y -0.018380 1.716200 0.008850 
#    z 0.019530 0.008850 1.720550 
# 
# From -- ./inp_files/47643.got.cif
#   From: 2010.05.17/outbox.cif.g08.bks.cpg/sg2_24_cif.got.tgz:47643.got - 2010.06.03 11:33:40.
