data_PCOD9031304
_publ_section_title
;
Structure prediction by ZEFSAII (Michael W. Deem and Ramdas Pophale) SiO2 
 PCOD9031304
Probable space group: P -1
;
_chemical_formula_sum "Si O2"
_cell_formula_units_Z 14
_cell_length_a 6.501549
_cell_length_b 9.279522
_cell_length_c 27.687080
_cell_angle_alpha 29.180117
_cell_angle_beta 43.953153
_cell_angle_gamma 49.479648
_cell_volume 564.152135
_symmetry_space_group_name_H-M "P -1"
_symmetry_group_IT_number 2
_symmetry_cell_setting 'triclinic'
loop_
_space_group_symop_operation_xyz
x,y,z
-x,-y,-z
loop_
_atom_site_type_symbol
_atom_site_label
_atom_site_fract_x
_atom_site_fract_y
_atom_site_fract_z
Si Si1 0.932872 0.131761 0.732497
Si Si2 0.553815 0.223287 0.498342
Si Si3 0.399874 0.595493 0.668253
Si Si4 0.911094 0.187584 0.913490
Si Si5 0.642971 0.190622 0.597739
Si Si6 0.339116 0.215893 0.200619
Si Si7 0.984189 0.851507 0.905562
O O1 0.721520 0.414785 0.669946
O O2 0.283698 0.171903 0.662233
O O3 0.871699 0.874363 0.780217
O O4 0.847878 0.020741 0.832547
O O5 0.686455 0.346280 0.390381
O O6 0.743624 0.168618 0.531557
O O7 0.320950 0.492358 0.476074
O O8 0.427559 0.913632 0.595523
O O9 0.173726 0.394190 0.792401
O O10 0.653298 0.433964 0.897531
O O11 0.849779 0.976149 0.941336
O O12 0.000000 0.000000 0.000000
O O13 0.754740 0.931303 0.690236
O O14 0.666312 0.080189 0.172385
O O15 0.000000 0.500000 0.000000
#
# Coordination Sequence:
#
# PCOD9031304 Si02
#       7
#     2   2   2   2   2   2   2
#     4  11  22  43  72  94 150 181 226 296 344 418
#     4  10  22  43  66 101 148 177 238 285 338 424
#     4  11  23  44  68 104 141 188 231 286 353 408
#     4  12  27  47  75 104 140 186 238 288 352 421
#     4  10  22  43  66 107 134 187 234 277 352 413
#     4  11  24  47  71 101 145 184 229 293 346 417
#     4  11  26  45  70 103 135 184 240 289 354 408
#
# _framework density 24.816002000000001
#
# number of rings (size 3 to 8) (size 9 to 14) (size 15 to 20)
#    0.000    1.143    2.857    2.571    4.000    4.000 
#   10.286    0.000    0.000    0.000    0.000    0.000 
#    0.000    0.000    0.000    0.000    0.000    0.000 
#
# Total GULP energy -78417.465949 kJ/mol
# GULP energy per Si atom -5601.247568 kJ/mol
# Density = 2.475952 g / cm^3
# Si number density = 24.816002 Si / 1000 Ang^3
#
#
#
# Elastic Constant Matrix: (Units=GPa)
#
#
# Indices 1 2 3 4 5 6 
#
# 1 103.1812 67.6637 50.5367 0.3439 19.7867 26.2445
# 2 67.6637 134.1543 55.4650 -12.0894 13.1394 33.7301
# 3 50.5367 55.4650 150.5471 -6.8765 28.4964 31.3273
# 4 0.3439 -12.0894 -6.8765 52.0098 7.9183 0.0783
# 5 19.7867 13.1394 28.4964 7.9183 58.1902 11.4429
# 6 26.2445 33.7301 31.3273 0.0783 11.4429 57.5231
#
#
#
# Elastic Compliance Matrix: (Units=1/GPa)
#
#
# Indices 1 2 3 4 5 6 
#
# 1 0.016023 -0.006648 -0.002200 -0.001588 -0.002309 -0.001752
# 2 -0.006648 0.012566 -0.001643 0.002667 0.000564 -0.003556
# 3 -0.002200 -0.001643 0.009123 0.001308 -0.003055 -0.002395
# 4 -0.001588 0.002667 0.001308 0.020537 -0.003316 -0.000920
# 5 -0.002309 0.000564 -0.003055 -0.003316 0.020107 -0.001609
# 6 -0.001752 -0.003556 -0.002395 -0.000920 -0.001609 0.021895
#
#
# Mechanical properties :
#
#
# Convention : Reuss Voigt Hill
#
# Bulk Modulus (GPa) = 59.77622 81.69036 70.73329
# Shear Modulus (GPa) = 39.42977 47.82576 43.62776
#
# Velocity S-wave (km/s) = 3.99041 4.39477 4.19746
# Velocity P-wave (km/s) = 6.73581 7.66432 7.21502
#
# Compressibility (1/GPa) = 0.01672906
#
# Stress axis : x y z
#
# Youngs Moduli (GPa) = 62.41108 79.58195 109.61674
#
# Poissons Ratio (x) = 0.52908 0.24117
# Poissons Ratio (y) = 0.41492 0.18007
# Poissons Ratio (z) = 0.13731 0.13073
#
# Static dielectric constant tensor:
#      x y z
#    x 1.941950 -0.045990 -0.036630 
#    y -0.045990 1.993460 0.036880 
#    z -0.036630 0.036880 1.963840 
# 
# From -- ./inp_files/89719.got.cif
#   From: 2010.05.17/outbox.cif.g08.bks.cpg/sg2_45_cif.got.tgz:89719.got - 2010.06.03 11:33:40.
