data_PCOD9031408
_publ_section_title
;
Structure prediction by ZEFSAII (Michael W. Deem and Ramdas Pophale) SiO2 
 PCOD9031408
Probable space group: P -1
;
_chemical_formula_sum "Si O2"
_cell_formula_units_Z 14
_cell_length_a 14.831683
_cell_length_b 8.394004
_cell_length_c 14.246988
_cell_angle_alpha 39.844824
_cell_angle_beta 32.159139
_cell_angle_gamma 41.083520
_cell_volume 576.211291
_symmetry_space_group_name_H-M "P -1"
_symmetry_group_IT_number 2
_symmetry_cell_setting 'triclinic'
loop_
_space_group_symop_operation_xyz
x,y,z
-x,-y,-z
loop_
_atom_site_type_symbol
_atom_site_label
_atom_site_fract_x
_atom_site_fract_y
_atom_site_fract_z
Si Si1 0.288459 0.061874 0.293853
Si Si2 0.258074 0.646765 0.867772
Si Si3 0.866473 0.976512 0.371417
Si Si4 0.875140 0.751016 0.942074
Si Si5 0.994500 0.408155 0.730250
Si Si6 0.602205 0.258435 0.955136
Si Si7 0.667351 0.465486 0.616928
O O1 0.287341 0.051176 0.413321
O O2 0.110263 0.285966 0.321739
O O3 0.307131 0.785245 0.357692
O O4 0.451280 0.166867 0.076188
O O5 0.459415 0.625432 0.724312
O O6 0.202049 0.838607 0.741579
O O7 0.232844 0.371791 0.979028
O O8 0.121615 0.715943 0.043677
O O9 0.986661 0.716772 0.332963
O O10 0.979834 0.109363 0.278477
O O11 0.729881 0.994690 0.009558
O O12 0.000000 0.500000 0.000000
O O13 0.193208 0.382385 0.601706
O O14 0.705534 0.362025 0.736523
O O15 0.500000 0.500000 0.000000
#
# Coordination Sequence:
#
# PCOD9031408 Si02
#       7
#     2   2   2   2   2   2   2
#     4  12  23  43  71  97 138 179 234 286 336 418
#     4  11  24  47  68 100 141 183 227 282 347 418
#     4  11  25  44  67 103 138 180 231 283 350 413
#     4  10  22  43  66  95 137 183 227 277 346 415
#     4  12  24  44  70 100 137 181 229 290 346 406
#     4  12  23  42  71 105 138 178 236 296 344 410
#     4  12  25  44  72 100 138 181 234 281 344 419
#
# _framework density 24.296643
#
# number of rings (size 3 to 8) (size 9 to 14) (size 15 to 20)
#    0.000    0.571    2.857    6.000    0.000    1.143 
#    5.143    0.000    0.000    0.000    0.000    0.000 
#    0.000    0.000    0.000    0.000    0.000    0.000 
#
# Total GULP energy -78270.344761 kJ/mol
# GULP energy per Si atom -5590.738912 kJ/mol
# Density = 2.424134 g / cm^3
# Si number density = 24.296643 Si / 1000 Ang^3
#
#
#
# Elastic Constant Matrix: (Units=GPa)
#
#
# Indices 1 2 3 4 5 6 
#
# 1 73.7407 34.3831 31.9537 7.8116 -1.6226 -7.9661
# 2 34.3831 129.3194 30.5148 18.8133 10.5227 -2.8643
# 3 31.9537 30.5148 102.9436 22.2501 -0.2564 -20.3872
# 4 7.8116 18.8133 22.2501 24.7845 2.5538 -1.4947
# 5 -1.6226 10.5227 -0.2564 2.5538 61.3653 4.9914
# 6 -7.9661 -2.8643 -20.3872 -1.4947 4.9914 42.3057
#
#
#
# Elastic Compliance Matrix: (Units=1/GPa)
#
#
# Indices 1 2 3 4 5 6 
#
# 1 0.017177 -0.003796 -0.004320 0.001297 0.000966 0.000827
# 2 -0.003796 0.009811 -0.000599 -0.005578 -0.001524 -0.000356
# 3 -0.004320 -0.000599 0.014801 -0.011120 0.000035 0.005882
# 4 0.001297 -0.005578 -0.011120 0.054053 -0.001024 -0.003462
# 5 0.000966 -0.001524 0.000035 -0.001024 0.016782 -0.001921
# 6 0.000827 -0.000356 0.005882 -0.003462 -0.001921 0.026708
#
#
# Mechanical properties :
#
#
# Convention : Reuss Voigt Hill
#
# Bulk Modulus (GPa) = 41.05458 55.52299 48.28878
# Shear Modulus (GPa) = 30.32498 39.63458 34.97978
#
# Velocity S-wave (km/s) = 3.53670 4.04329 3.79845
# Velocity P-wave (km/s) = 5.79755 6.68576 6.25743
#
# Compressibility (1/GPa) = 0.02435782
#
# Stress axis : x y z
#
# Youngs Moduli (GPa) = 58.21907 101.92663 67.56326
#
# Poissons Ratio (x) = 0.38695 0.29190
# Poissons Ratio (y) = 0.22102 0.04044
# Poissons Ratio (z) = 0.25153 0.06101
#
# Static dielectric constant tensor:
#      x y z
#    x 1.963930 -0.025700 -0.025250 
#    y -0.025700 1.958760 -0.009910 
#    z -0.025250 -0.009910 1.968020 
# 
# From -- ./inp_files/181680.got.cif
#   From: 2010.05.17/outbox.cif.g08.bks.cpg/sg2_91_cif.got.tgz:181680.got - 2010.06.03 11:33:40.
