data_PCOD9031268
_publ_section_title
;
Structure prediction by ZEFSAII (Michael W. Deem and Ramdas Pophale) SiO2 
 PCOD9031268
Probable space group: P -1
;
_chemical_formula_sum "Si O2"
_cell_formula_units_Z 14
_cell_length_a 6.532176
_cell_length_b 5.419061
_cell_length_c 19.444986
_cell_angle_alpha 84.212332
_cell_angle_beta 112.856901
_cell_angle_gamma 72.994998
_cell_volume 588.305607
_symmetry_space_group_name_H-M "P -1"
_symmetry_group_IT_number 2
_symmetry_cell_setting 'triclinic'
loop_
_space_group_symop_operation_xyz
x,y,z
-x,-y,-z
loop_
_atom_site_type_symbol
_atom_site_label
_atom_site_fract_x
_atom_site_fract_y
_atom_site_fract_z
Si Si1 0.524377 0.927471 0.214950
Si Si2 0.922690 0.581245 0.806332
Si Si3 0.768182 0.097637 0.419643
Si Si4 0.143251 0.791508 0.100946
Si Si5 0.494972 0.294263 0.638689
Si Si6 0.957329 0.066230 0.290334
Si Si7 0.775706 0.360158 0.027094
O O1 0.380377 0.864657 0.134881
O O2 0.575020 0.716719 0.289624
O O3 0.330220 0.188752 0.217007
O O4 0.758900 0.986304 0.225808
O O5 0.873766 0.315518 0.822098
O O6 0.020170 0.670716 0.748618
O O7 0.098984 0.569989 0.892754
O O8 0.601338 0.400600 0.406220
O O9 0.861069 0.100120 0.354000
O O10 0.628396 0.892146 0.409452
O O11 0.000000 0.000000 0.500000
O O12 0.182827 0.585479 0.049201
O O13 0.899182 0.038865 0.051233
O O14 0.778724 0.156300 0.670366
O O15 0.500000 0.500000 0.000000
#
# Coordination Sequence:
#
# PCOD9031268 Si02
#       7
#     2   2   2   2   2   2   2
#     4   9  22  42  65  97 133 176 225 283 345 400
#     4  10  22  43  65  98 131 171 232 282 345 415
#     4  11  25  47  72 106 147 186 228 287 346 413
#     4  10  22  44  66  89 135 171 220 296 329 410
#     4  10  24  44  71 106 142 180 240 281 342 419
#     4  10  24  46  69 102 138 183 225 291 347 411
#     4  10  23  42  61  96 126 175 226 275 351 409
#
# _framework density 23.797156000000001
#
# number of rings (size 3 to 8) (size 9 to 14) (size 15 to 20)
#    0.000    2.000    0.000    0.857    8.000    4.000 
#   18.000    0.000    0.000    0.000    0.000    0.000 
#    0.000    0.000    0.000    0.000    0.000    0.000 
#
# Total GULP energy -78245.053151 kJ/mol
# GULP energy per Si atom -5588.932368 kJ/mol
# Density = 2.374299 g / cm^3
# Si number density = 23.797156 Si / 1000 Ang^3
#
#
#
# Elastic Constant Matrix: (Units=GPa)
#
#
# Indices 1 2 3 4 5 6 
#
# 1 125.4737 47.3790 45.1359 6.5945 38.2685 3.6179
# 2 47.3790 90.8301 41.3032 -6.6320 22.1565 5.1090
# 3 45.1359 41.3032 107.7442 2.6870 37.4685 6.7119
# 4 6.5945 -6.6320 2.6870 32.7639 2.3060 1.8751
# 5 38.2685 22.1565 37.4685 2.3060 39.9392 -8.4079
# 6 3.6179 5.1090 6.7119 1.8751 -8.4079 17.1450
#
#
#
# Elastic Compliance Matrix: (Units=1/GPa)
#
#
# Indices 1 2 3 4 5 6 
#
# 1 0.013534 -0.003963 0.001121 -0.002184 -0.013482 -0.008486
# 2 -0.003963 0.015950 -0.003036 0.004809 -0.003530 -0.004985
# 3 0.001121 -0.003036 0.017642 -0.000036 -0.019237 -0.015668
# 4 -0.002184 0.004809 -0.000036 0.032566 -0.003762 -0.006364
# 5 -0.013482 -0.003530 -0.019237 -0.003762 0.067655 0.045017
# 6 -0.008486 -0.004985 -0.015668 -0.006364 0.045017 0.090508
#
#
# Mechanical properties :
#
#
# Convention : Reuss Voigt Hill
#
# Bulk Modulus (GPa) = 28.27230 65.74268 47.00749
# Shear Modulus (GPa) = 19.12761 30.65160 24.88960
#
# Velocity S-wave (km/s) = 2.83817 3.59282 3.23756
# Velocity P-wave (km/s) = 4.75885 6.70055 5.81137
#
# Compressibility (1/GPa) = 0.03537031
#
# Stress axis : x y z
#
# Youngs Moduli (GPa) = 73.88657 62.69627 56.68232
#
# Poissons Ratio (x) = 0.24846 -0.06353
# Poissons Ratio (y) = 0.29281 0.17208
# Poissons Ratio (z) = -0.08282 0.19034
#
# Static dielectric constant tensor:
#      x y z
#    x 1.901130 0.061930 -0.022610 
#    y 0.061930 2.003200 0.017940 
#    z -0.022610 0.017940 1.935890 
# 
# From -- ./inp_files/11633.got.cif
#   From: 2010.05.17/outbox.cif.g08.bks.cpg/sg2_6_cif.got.tgz:11633.got - 2010.06.03 11:33:40.
