data_PCOD9031324
_publ_section_title
;
Structure prediction by ZEFSAII (Michael W. Deem and Ramdas Pophale) SiO2 
 PCOD9031324
Probable space group: P -1
;
_chemical_formula_sum "Si O2"
_cell_formula_units_Z 12
_cell_length_a 15.468517
_cell_length_b 15.448109
_cell_length_c 7.290424
_cell_angle_alpha 43.698894
_cell_angle_beta 134.082632
_cell_angle_gamma 155.753671
_cell_volume 490.154415
_symmetry_space_group_name_H-M "P -1"
_symmetry_group_IT_number 2
_symmetry_cell_setting 'triclinic'
loop_
_space_group_symop_operation_xyz
x,y,z
-x,-y,-z
loop_
_atom_site_type_symbol
_atom_site_label
_atom_site_fract_x
_atom_site_fract_y
_atom_site_fract_z
Si Si1 0.119803 0.489357 0.296386
Si Si2 0.649802 0.092502 0.823852
Si Si3 0.772883 0.766697 0.943931
Si Si4 0.529169 0.735787 0.347014
Si Si5 0.259434 0.903268 0.422939
Si Si6 0.493501 0.636827 0.020030
O O1 0.266028 0.700906 0.315119
O O2 0.286110 0.548481 0.339309
O O3 0.938073 0.258535 0.487439
O O4 0.000000 0.500000 0.000000
O O5 0.798957 0.173517 0.756051
O O6 0.406950 0.911148 0.682682
O O7 0.629943 0.962600 0.136209
O O8 0.680363 0.786665 0.627153
O O9 0.734319 0.602085 0.030638
O O10 0.636970 0.655245 0.102704
O O11 0.000000 0.000000 0.000000
O O12 0.517383 0.669716 0.223315
O O13 0.406472 0.151541 0.241329
#
# Coordination Sequence:
#
# PCOD9031324 Si02
#       6
#     2   2   2   2   2   2
#     4  12  24  40  69 110 145 194 237 285 366 436
#     4  10  22  43  66 105 144 188 242 295 357 433
#     4  11  26  50  77 106 142 191 252 310 373 427
#     4  11  24  48  76 107 152 189 249 305 359 442
#     4  10  22  43  70 100 147 191 236 298 361 433
#     4  10  25  49  73 110 144 192 244 312 364 435
#
# _framework density 24.48208
#
# number of rings (size 3 to 8) (size 9 to 14) (size 15 to 20)
#    0.000    1.333    1.667    2.500    2.333    4.667 
#    9.000    0.000    0.000    3.000    0.000    0.000 
#    0.000    0.000    0.000    0.000    0.000    0.000 
#
# Total GULP energy -67021.049159 kJ/mol
# GULP energy per Si atom -5585.087430 kJ/mol
# Density = 2.442636 g / cm^3
# Si number density = 24.482080 Si / 1000 Ang^3
#
#
#
# Elastic Constant Matrix: (Units=GPa)
#
#
# Indices 1 2 3 4 5 6 
#
# 1 149.8376 82.6814 54.3756 -1.5089 -25.0021 -10.1377
# 2 82.6814 131.5150 83.9482 4.5990 -30.2951 5.1930
# 3 54.3756 83.9482 165.4166 -6.9374 1.1981 13.2972
# 4 -1.5089 4.5990 -6.9374 40.8433 -2.5361 3.0436
# 5 -25.0021 -30.2951 1.1981 -2.5361 27.8412 -4.8160
# 6 -10.1377 5.1930 13.2972 3.0436 -4.8160 40.9184
#
#
#
# Elastic Compliance Matrix: (Units=1/GPa)
#
#
# Indices 1 2 3 4 5 6 
#
# 1 0.011231 -0.005024 -0.001514 0.000731 0.005531 0.004509
# 2 -0.005024 0.021309 -0.009565 -0.003147 0.019084 0.001640
# 3 -0.001514 -0.009565 0.011983 0.002612 -0.012869 -0.004764
# 4 0.000731 -0.003147 0.002612 0.025419 -0.000958 -0.002272
# 5 0.005531 0.019084 -0.012869 -0.000958 0.063974 0.010731
# 6 0.004509 0.001640 -0.004764 -0.002272 0.010731 0.028328
#
#
# Mechanical properties :
#
#
# Convention : Reuss Voigt Hill
#
# Bulk Modulus (GPa) = 81.18626 98.75329 89.96977
# Shear Modulus (GPa) = 25.18212 36.97150 31.07681
#
# Velocity S-wave (km/s) = 3.21065 3.89027 3.56669
# Velocity P-wave (km/s) = 6.85404 7.78483 7.33421
#
# Compressibility (1/GPa) = 0.01231736
#
# Stress axis : x y z
#
# Youngs Moduli (GPa) = 89.04169 46.92917 83.45248
#
# Poissons Ratio (x) = 0.23576 0.12636
# Poissons Ratio (y) = 0.44731 0.79820
# Poissons Ratio (z) = 0.13482 0.44886
#
# Static dielectric constant tensor:
#      x y z
#    x 1.994150 -0.053850 0.012380 
#    y -0.053850 2.154180 0.060770 
#    z 0.012380 0.060770 2.109820 
# 
# From -- ./inp_files/335898.got.cif
#   From: 2010.05.17/outbox.cif.g08.bks.cpg/sg2_168_cif.got.tgz:335898.got - 2010.06.03 11:33:40.
