data_PCOD9031435
_publ_section_title
;
Structure prediction by ZEFSAII (Michael W. Deem and Ramdas Pophale) SiO2 
 PCOD9031435
Probable space group: P -1
;
_chemical_formula_sum "Si O2"
_cell_formula_units_Z 12
_cell_length_a 7.686107
_cell_length_b 14.055468
_cell_length_c 9.746610
_cell_angle_alpha 58.772253
_cell_angle_beta 35.065882
_cell_angle_gamma 73.978257
_cell_volume 493.144346
_symmetry_space_group_name_H-M "P -1"
_symmetry_group_IT_number 2
_symmetry_cell_setting 'triclinic'
loop_
_space_group_symop_operation_xyz
x,y,z
-x,-y,-z
loop_
_atom_site_type_symbol
_atom_site_label
_atom_site_fract_x
_atom_site_fract_y
_atom_site_fract_z
Si Si1 0.353803 0.652148 0.378349
Si Si2 0.722141 0.931249 0.337647
Si Si3 0.736298 0.115151 0.821335
Si Si4 0.609742 0.689482 0.468546
Si Si5 0.680140 0.276259 0.936261
Si Si6 0.278643 0.549635 0.008477
O O1 0.230321 0.767446 0.375124
O O2 0.613687 0.674700 0.312971
O O3 0.440218 0.655452 0.158613
O O4 0.072707 0.535042 0.676185
O O5 0.551394 0.812435 0.452434
O O6 0.928832 0.901577 0.349635
O O7 0.500000 0.000000 0.500000
O O8 0.000000 0.000000 0.000000
O O9 0.585925 0.145645 0.038796
O O10 0.500000 0.000000 0.000000
O O11 0.355043 0.576809 0.780705
O O12 0.935100 0.690708 0.333567
O O13 0.630786 0.319683 0.083484
O O14 0.500000 0.500000 0.000000
#
# Coordination Sequence:
#
# PCOD9031435 Si02
#       6
#     2   2   2   2   2   2
#     4  10  22  43  66  97 134 178 231 281 353 421
#     4  11  25  45  72 103 146 191 238 299 360 427
#     4   9  20  44  70 101 137 184 237 291 354 427
#     4  11  24  43  66 100 132 179 232 284 354 418
#     4   9  23  42  66  91 139 172 228 284 354 408
#     4  12  22  43  67  96 137 176 226 286 352 417
#
# _framework density 24.333646999999999
#
# number of rings (size 3 to 8) (size 9 to 14) (size 15 to 20)
#    1.000    0.667    1.667    2.000    4.667    0.667 
#    6.000    1.667    0.000    0.000    0.000    0.000 
#    0.000    0.000    0.000    0.000    0.000    0.000 
#
# Total GULP energy -66894.498317 kJ/mol
# GULP energy per Si atom -5574.541526 kJ/mol
# Density = 2.427826 g / cm^3
# Si number density = 24.333647 Si / 1000 Ang^3
#
#
#
# Elastic Constant Matrix: (Units=GPa)
#
#
# Indices 1 2 3 4 5 6 
#
# 1 131.3765 28.9413 15.9658 -9.6856 1.8090 16.7806
# 2 28.9413 113.5781 25.6677 -7.7157 -8.7631 4.1394
# 3 15.9658 25.6677 66.1382 -11.6343 13.7550 3.9102
# 4 -9.6856 -7.7157 -11.6343 29.6560 6.8195 -4.3253
# 5 1.8090 -8.7631 13.7550 6.8195 36.3242 -10.5406
# 6 16.7806 4.1394 3.9102 -4.3253 -10.5406 35.4371
#
#
#
# Elastic Compliance Matrix: (Units=1/GPa)
#
#
# Indices 1 2 3 4 5 6 
#
# 1 0.008862 -0.002120 -0.000112 0.002254 -0.002622 -0.004441
# 2 -0.002120 0.010763 -0.005006 -0.000809 0.005262 0.001766
# 3 -0.000112 -0.005006 0.021555 0.009335 -0.012358 -0.004277
# 4 0.002254 -0.000809 0.009335 0.040500 -0.011593 -0.000508
# 5 -0.002622 0.005262 -0.012358 -0.011593 0.039350 0.012280
# 6 -0.004441 0.001766 -0.004277 -0.000508 0.012280 0.034178
#
#
# Mechanical properties :
#
#
# Convention : Reuss Voigt Hill
#
# Bulk Modulus (GPa) = 37.44891 50.24916 43.84903
# Shear Modulus (GPa) = 27.99787 36.31798 32.15793
#
# Velocity S-wave (km/s) = 3.39570 3.86748 3.63925
# Velocity P-wave (km/s) = 5.54956 6.37480 5.97644
#
# Compressibility (1/GPa) = 0.02670305
#
# Stress axis : x y z
#
# Youngs Moduli (GPa) = 112.84194 92.91252 46.39318
#
# Poissons Ratio (x) = 0.19699 0.00520
# Poissons Ratio (y) = 0.23925 0.23225
# Poissons Ratio (z) = 0.01264 0.46513
#
# Static dielectric constant tensor:
#      x y z
#    x 1.930520 -0.018180 0.085330 
#    y -0.018180 2.042620 0.044920 
#    z 0.085330 0.044920 2.003350 
# 
# From -- ./inp_files/398488.got.cif
#   From: 2010.05.17/outbox.cif.g08.bks.cpg/sg2_200_cif.got.tgz:398488.got - 2010.06.03 11:33:40.
