data_PCOD9031730
_publ_section_title
;
Structure prediction by ZEFSAII (Michael W. Deem and Ramdas Pophale) SiO2 
 PCOD9031730
Probable space group: P -1
;
_chemical_formula_sum "Si O2"
_cell_formula_units_Z 16
_cell_length_a 17.601691
_cell_length_b 7.619037
_cell_length_c 20.019890
_cell_angle_alpha 46.875101
_cell_angle_beta 160.197484
_cell_angle_gamma 131.801945
_cell_volume 660.881736
_symmetry_space_group_name_H-M "P -1"
_symmetry_group_IT_number 2
_symmetry_cell_setting 'triclinic'
loop_
_space_group_symop_operation_xyz
x,y,z
-x,-y,-z
loop_
_atom_site_type_symbol
_atom_site_label
_atom_site_fract_x
_atom_site_fract_y
_atom_site_fract_z
Si Si1 0.437573 0.961759 0.324699
Si Si2 0.748727 0.396452 0.834447
Si Si3 0.372613 0.688728 0.505627
Si Si4 0.622558 0.249387 0.159197
Si Si5 0.824672 0.152209 0.494822
Si Si6 0.988117 0.501479 0.649837
Si Si7 0.225151 0.842412 0.942853
Si Si8 0.905513 0.682871 0.082568
O O1 0.573353 0.057513 0.477628
O O2 0.603564 0.071833 0.375147
O O3 0.363541 0.701974 0.301511
O O4 0.218591 0.106446 0.104999
O O5 0.590448 0.586138 0.684036
O O6 0.764477 0.199336 0.957766
O O7 0.000000 0.500000 0.000000
O O8 0.248284 0.492927 0.507429
O O9 0.172238 0.704924 0.282745
O O10 0.747958 0.195791 0.345586
O O11 0.820301 0.281989 0.258636
O O12 0.500000 0.500000 0.000000
O O13 0.434635 0.029788 0.046930
O O14 0.936289 0.388597 0.564102
O O15 0.000219 0.953761 0.702537
O O16 0.098268 0.317515 0.839462
O O17 0.211449 0.574097 0.970589
#
# Coordination Sequence:
#
# PCOD9031730 Si02
#       8
#     2   2   2   2   2   2   2   2
#     4  11  21  43  78  93 142 191 222 294 363 412
#     4  12  26  49  77 106 138 184 242 300 364 429
#     4   9  23  46  68 103 144 176 237 290 350 428
#     4  12  23  40  70 109 143 189 246 283 346 426
#     4  11  22  41  71 101 143 185 240 281 351 415
#     4   9  21  39  65  96 140 184 227 283 341 413
#     4  12  25  42  70 102 147 185 234 300 351 414
#     4  10  22  43  68 101 144 185 233 285 359 413
#
# _framework density 24.210080000000001
#
# number of rings (size 3 to 8) (size 9 to 14) (size 15 to 20)
#    0.750    0.500    3.750    2.625    0.000    1.000 
#    0.000    5.625    0.000    0.000    0.000    0.000 
#    0.000    0.000    0.000    0.000    0.000    0.000 
#
# Total GULP energy -89456.233120 kJ/mol
# GULP energy per Si atom -5591.014570 kJ/mol
# Density = 2.415498 g / cm^3
# Si number density = 24.210080 Si / 1000 Ang^3
#
#
#
# Elastic Constant Matrix: (Units=GPa)
#
#
# Indices 1 2 3 4 5 6 
#
# 1 98.8671 35.7052 44.6260 0.0062 3.6079 4.7505
# 2 35.7052 109.1705 52.8816 21.1890 12.2996 -7.8681
# 3 44.6260 52.8816 127.9216 -0.7255 1.5017 6.9073
# 4 0.0062 21.1890 -0.7255 46.9177 5.5598 -2.2755
# 5 3.6079 12.2996 1.5017 5.5598 49.6648 7.7234
# 6 4.7505 -7.8681 6.9073 -2.2755 7.7234 34.4706
#
#
#
# Elastic Compliance Matrix: (Units=1/GPa)
#
#
# Indices 1 2 3 4 5 6 
#
# 1 0.012676 -0.003031 -0.003068 0.001228 0.000058 -0.001756
# 2 -0.003031 0.014623 -0.005261 -0.006035 -0.003370 0.005167
# 3 -0.003068 -0.005261 0.011231 0.002225 0.001435 -0.003203
# 4 0.001228 -0.006035 0.002225 0.024231 -0.001361 -0.000088
# 5 0.000058 -0.003370 0.001435 -0.001361 0.022021 -0.006089
# 6 -0.001756 0.005167 -0.003203 -0.000088 -0.006089 0.032432
#
#
# Mechanical properties :
#
#
# Convention : Reuss Voigt Hill
#
# Bulk Modulus (GPa) = 63.25173 66.93164 65.09169
# Shear Modulus (GPa) = 34.43388 39.72704 37.08046
#
# Velocity S-wave (km/s) = 3.77542 4.05523 3.91783
# Velocity P-wave (km/s) = 6.72220 7.04505 6.88552
#
# Compressibility (1/GPa) = 0.01580984
#
# Stress axis : x y z
#
# Youngs Moduli (GPa) = 78.88754 68.38368 89.03673
#
# Poissons Ratio (x) = 0.20728 0.27317
# Poissons Ratio (y) = 0.23912 0.46845
# Poissons Ratio (z) = 0.24203 0.35979
#
# Static dielectric constant tensor:
#      x y z
#    x 1.984030 0.015300 -0.019300 
#    y 0.015300 1.947170 0.015130 
#    z -0.019300 0.015130 1.932330 
# 
# From -- ./inp_files/599736.got.cif
#   From: 2010.05.17/outbox.cif.g08.bks.cpg/sg2_300_cif.got.tgz:599736.got - 2010.06.03 11:33:40.
