data_PCOD9031427
_publ_section_title
;
Structure prediction by ZEFSAII (Michael W. Deem and Ramdas Pophale) SiO2 
 PCOD9031427
Probable space group: P -1
;
_chemical_formula_sum "Si O2"
_cell_formula_units_Z 16
_cell_length_a 11.409481
_cell_length_b 11.784021
_cell_length_c 14.863087
_cell_angle_alpha 150.864990
_cell_angle_beta 117.267613
_cell_angle_gamma 81.949593
_cell_volume 691.135901
_symmetry_space_group_name_H-M "P -1"
_symmetry_group_IT_number 2
_symmetry_cell_setting 'triclinic'
loop_
_space_group_symop_operation_xyz
x,y,z
-x,-y,-z
loop_
_atom_site_type_symbol
_atom_site_label
_atom_site_fract_x
_atom_site_fract_y
_atom_site_fract_z
Si Si1 0.294821 0.832076 0.113086
Si Si2 0.070774 0.380358 0.875896
Si Si3 0.842364 0.639305 0.538938
Si Si4 0.835049 0.221203 0.541161
Si Si5 0.949343 0.372994 0.255118
Si Si6 0.147595 0.249532 0.992314
Si Si7 0.492854 0.456834 0.678507
Si Si8 0.508575 0.381107 0.015715
O O1 0.344318 0.648104 0.953396
O O2 0.447077 0.152314 0.416353
O O3 0.199711 0.643970 0.037957
O O4 0.183510 0.861937 0.025539
O O5 0.920433 0.150169 0.598196
O O6 0.145260 0.280854 0.904646
O O7 0.000000 0.500000 0.000000
O O8 0.858882 0.418784 0.333947
O O9 0.654954 0.531693 0.398632
O O10 0.922597 0.667561 0.683248
O O11 0.974384 0.954060 0.756562
O O12 0.837221 0.483664 0.767169
O O13 0.945504 0.345515 0.577104
O O14 0.656198 0.945759 0.262862
O O15 0.316241 0.288970 0.102035
O O16 0.476537 0.439841 0.769159
O O17 0.500000 0.500000 0.000000
#
# Coordination Sequence:
#
# PCOD9031427 Si02
#       8
#     2   2   2   2   2   2   2   2
#     4  11  23  44  67  98 140 177 228 279 341 407
#     4   9  20  37  67  94 130 182 217 280 335 403
#     4  11  24  45  72 101 135 181 234 286 349 401
#     4  10  22  43  66  96 139 179 228 284 339 407
#     4  10  23  47  70  96 138 178 230 294 336 412
#     4  11  23  41  67 102 138 178 231 281 341 412
#     4  12  25  43  69 102 140 182 230 283 345 408
#     4  12  26  40  65 105 139 180 227 276 342 409
#
# _framework density 23.150295
#
# number of rings (size 3 to 8) (size 9 to 14) (size 15 to 20)
#    0.000    1.250    2.500    3.750    5.250    3.000 
#    2.250    6.250    0.000    0.000    0.000    0.000 
#    0.000    0.000    0.000    0.000    0.000    0.000 
#
# Total GULP energy -89449.545213 kJ/mol
# GULP energy per Si atom -5590.596576 kJ/mol
# Density = 2.309760 g / cm^3
# Si number density = 23.150295 Si / 1000 Ang^3
#
#
#
# Elastic Constant Matrix: (Units=GPa)
#
#
# Indices 1 2 3 4 5 6 
#
# 1 101.1251 12.8564 5.4513 -11.1787 12.6043 -22.4295
# 2 12.8564 87.7393 23.7265 -34.9235 0.1727 -16.5440
# 3 5.4513 23.7265 59.4189 -15.6624 8.8781 -3.7718
# 4 -11.1787 -34.9235 -15.6624 26.3385 -4.3270 3.9015
# 5 12.6043 0.1727 8.8781 -4.3270 37.8669 -10.5332
# 6 -22.4295 -16.5440 -3.7718 3.9015 -10.5332 33.7869
#
#
#
# Elastic Compliance Matrix: (Units=1/GPa)
#
#
# Indices 1 2 3 4 5 6 
#
# 1 0.012357 0.002709 0.000508 0.007729 -0.001033 0.008372
# 2 0.002709 0.029271 -0.002227 0.037839 0.007679 0.013907
# 3 0.000508 -0.002227 0.020606 0.008945 -0.004188 -0.000792
# 4 0.007729 0.037839 0.008945 0.096010 0.010844 0.016952
# 5 -0.001033 0.007679 -0.004188 0.010844 0.032098 0.011362
# 6 0.008372 0.013907 -0.000792 0.016952 0.011362 0.043461
#
#
# Mechanical properties :
#
#
# Convention : Reuss Voigt Hill
#
# Bulk Modulus (GPa) = 15.57324 36.92797 26.25060
# Shear Modulus (GPa) = 19.74492 33.34839 26.54665
#
# Velocity S-wave (km/s) = 2.92362 3.79953 3.38998
# Velocity P-wave (km/s) = 4.25891 5.93588 5.16589
#
# Compressibility (1/GPa) = 0.06421273
#
# Stress axis : x y z
#
# Youngs Moduli (GPa) = 80.92639 34.16295 48.53004
#
# Poissons Ratio (x) = -0.09255 -0.02463
# Poissons Ratio (y) = -0.21923 0.10809
# Poissons Ratio (z) = -0.04107 0.07609
#
# Static dielectric constant tensor:
#      x y z
#    x 2.004040 -0.083420 -0.009570 
#    y -0.083420 1.884950 -0.014510 
#    z -0.009570 -0.014510 1.870540 
# 
# From -- ./inp_files/398839.got.cif
#   From: 2010.05.17/outbox.cif.g08.bks.cpg/sg2_200_cif.got.tgz:398839.got - 2010.06.03 11:33:40.
