data_PCOD9031381
_publ_section_title
;
Structure prediction by ZEFSAII (Michael W. Deem and Ramdas Pophale) SiO2 
 PCOD9031381
Probable space group: P -1
;
_chemical_formula_sum "Si O2"
_cell_formula_units_Z 15
_cell_length_a 9.012646
_cell_length_b 10.615074
_cell_length_c 11.458768
_cell_angle_alpha 83.967345
_cell_angle_beta 98.165829
_cell_angle_gamma 140.274395
_cell_volume 693.513449
_symmetry_space_group_name_H-M "P -1"
_symmetry_group_IT_number 2
_symmetry_cell_setting 'triclinic'
loop_
_space_group_symop_operation_xyz
x,y,z
-x,-y,-z
loop_
_atom_site_type_symbol
_atom_site_label
_atom_site_fract_x
_atom_site_fract_y
_atom_site_fract_z
Si Si1 0.955849 0.452009 0.159568
Si Si2 0.341818 0.136925 0.445769
Si Si3 0.381689 0.869091 0.116723
Si Si4 0.191592 0.583118 0.420328
Si Si5 0.000000 0.000000 0.000000
Si Si6 0.859708 0.090452 0.191770
Si Si7 0.899744 0.768437 0.549553
Si Si8 0.428294 0.169081 0.181612
O O1 0.930160 0.283681 0.163112
O O2 0.698168 0.345379 0.152421
O O3 0.143963 0.644811 0.081307
O O4 0.092212 0.560772 0.287543
O O5 0.554010 0.208302 0.530525
O O6 0.282443 0.236228 0.483631
O O7 0.409306 0.195385 0.312147
O O8 0.100816 0.905860 0.460728
O O9 0.579100 0.906456 0.188297
O O10 0.348335 0.970379 0.182977
O O11 0.500000 0.000000 0.000000
O O12 0.200878 0.436429 0.436996
O O13 0.000000 0.500000 0.500000
O O14 0.933177 0.053795 0.094612
O O15 0.747300 0.869283 0.917506
O O16 0.974808 0.123851 0.322518
#
# Coordination Sequence:
#
# PCOD9031381 Si02
#       8
#     2   2   2   2   1   2   2   2
#     4  10  24  44  67  96 129 171 220 268 330 378
#     4  11  22  40  65  94 131 173 213 264 325 383
#     4  11  23  44  67  90 128 172 218 275 321 380
#     4  11  22  39  63  99 128 166 211 267 318 390
#     4  12  22  46  66  94 134 170 220 266 320 382
#     4  10  22  43  66  94 131 172 216 269 319 393
#     4  10  23  40  64  92 135 171 212 263 329 380
#     4  11  24  41  67  94 128 171 221 268 314 399
#
# _framework density 21.628996999999998
#
# number of rings (size 3 to 8) (size 9 to 14) (size 15 to 20)
#    0.000    1.333    4.000    1.200    1.867    2.667 
#    0.000    2.667    0.000    0.000    0.000    0.000 
#    0.000    0.000    0.000    0.000    0.000    0.000 
#
# Total GULP energy -83560.407689 kJ/mol
# GULP energy per Si atom -5570.693846 kJ/mol
# Density = 2.157977 g / cm^3
# Si number density = 21.628997 Si / 1000 Ang^3
#
#
#
# Elastic Constant Matrix: (Units=GPa)
#
#
# Indices 1 2 3 4 5 6 
#
# 1 107.9336 44.4187 19.5577 7.4927 1.2919 43.4199
# 2 44.4187 122.2684 22.5471 1.1908 -0.0244 35.0637
# 3 19.5577 22.5471 77.7217 2.1897 -4.1634 20.6371
# 4 7.4927 1.1908 2.1897 31.3122 5.1508 6.5796
# 5 1.2919 -0.0244 -4.1634 5.1508 42.1519 8.1176
# 6 43.4199 35.0637 20.6371 6.5796 8.1176 35.8348
#
#
#
# Elastic Compliance Matrix: (Units=1/GPa)
#
#
# Indices 1 2 3 4 5 6 
#
# 1 0.018986 -0.000076 0.002174 -0.000142 0.004498 -0.025175
# 2 -0.000076 0.011670 -0.000098 0.001771 0.002108 -0.012073
# 3 0.002174 -0.000098 0.015905 0.000389 0.003893 -0.012652
# 4 -0.000142 0.001771 0.000389 0.033870 -0.002670 -0.007399
# 5 0.004498 0.002108 0.003893 -0.002670 0.027272 -0.015443
# 6 -0.025175 -0.012073 -0.012652 -0.007399 -0.015443 0.082365
#
#
# Mechanical properties :
#
#
# Convention : Reuss Voigt Hill
#
# Bulk Modulus (GPa) = 19.77834 53.44119 36.60976
# Shear Modulus (GPa) = 24.64023 36.61978 30.63001
#
# Velocity S-wave (km/s) = 3.37890 4.11918 3.76727
# Velocity P-wave (km/s) = 4.93830 6.88370 5.99050
#
# Compressibility (1/GPa) = 0.05056037
#
# Stress axis : x y z
#
# Youngs Moduli (GPa) = 52.67063 85.69125 62.87518
#
# Poissons Ratio (x) = 0.00655 -0.13670
# Poissons Ratio (y) = 0.00403 0.00614
# Poissons Ratio (z) = -0.11451 0.00836
#
# Static dielectric constant tensor:
#      x y z
#    x 1.777870 -0.008850 0.033170 
#    y -0.008850 1.852860 -0.039560 
#    z 0.033170 -0.039560 1.895170 
# 
# From -- ./inp_files/134286.got.cif
#   From: 2010.05.17/outbox.cif.g08.bks.cpg/sg2_68_cif.got.tgz:134286.got - 2010.06.03 11:33:40.
