data_PCOD9031196
_publ_section_title
;
Structure prediction by ZEFSAII (Michael W. Deem and Ramdas Pophale) SiO2 
 PCOD9031196
Probable space group: P -1
;
_chemical_formula_sum "Si O2"
_cell_formula_units_Z 14
_cell_length_a 10.878961
_cell_length_b 9.678296
_cell_length_c 7.582205
_cell_angle_alpha 48.306579
_cell_angle_beta 112.547520
_cell_angle_gamma 117.848356
_cell_volume 523.876414
_symmetry_space_group_name_H-M "P -1"
_symmetry_group_IT_number 2
_symmetry_cell_setting 'triclinic'
loop_
_space_group_symop_operation_xyz
x,y,z
-x,-y,-z
loop_
_atom_site_type_symbol
_atom_site_label
_atom_site_fract_x
_atom_site_fract_y
_atom_site_fract_z
Si Si1 0.593100 0.421465 0.754410
Si Si2 0.187249 0.952955 0.242969
Si Si3 0.229403 0.542724 0.625331
Si Si4 0.500000 0.000000 0.000000
Si Si5 0.869338 0.840785 0.295791
Si Si6 0.857790 0.466116 0.053256
Si Si7 0.264924 0.999511 0.606068
Si Si8 0.500000 0.500000 0.000000
O O1 0.500000 0.500000 0.500000
O O2 0.606812 0.221513 0.861344
O O3 0.744887 0.537134 0.820951
O O4 0.508264 0.374595 0.931078
O O5 0.209967 0.747224 0.395833
O O6 0.032078 0.912121 0.273651
O O7 0.284711 0.073072 0.352122
O O8 0.205042 0.067727 0.973859
O O9 0.192243 0.389802 0.575999
O O10 0.125380 0.446521 0.814347
O O11 0.378945 0.572792 0.771119
O O12 0.408680 0.051793 0.743932
O O13 0.836502 0.921654 0.394161
O O14 0.798376 0.233567 0.247184
O O15 0.000000 0.500000 0.000000
#
# Coordination Sequence:
#
# PCOD9031196 Si02
#       8
#     2   2   2   1   2   2   2   1
#     4  10  22  43  67  97 126 173 220 266 327 387
#     4  10  24  42  61  96 133 164 216 263 323 384
#     4  10  22  43  65  93 130 174 211 272 326 379
#     4  10  22  44  66  94 132 164 224 268 314 396
#     4  11  23  41  65  95 130 167 219 260 318 394
#     4   9  21  40  65  94 137 170 212 272 327 390
#     4  10  22  43  65  93 130 174 211 272 326 379
#     4  10  22  44  66  94 132 164 224 268 314 396
#
# _framework density 26.723860999999999
#
# number of rings (size 3 to 8) (size 9 to 14) (size 15 to 20)
#    0.000    2.000    0.000    2.571    4.000    4.571 
#   10.286    3.571    0.000    0.000    0.000    0.000 
#    0.000    0.000    0.000    0.000    0.000    0.000 
#
# Total GULP energy -77965.476790 kJ/mol
# GULP energy per Si atom -5568.962628 kJ/mol
# Density = 2.666304 g / cm^3
# Si number density = 26.723861 Si / 1000 Ang^3
#
#
#
# Elastic Constant Matrix: (Units=GPa)
#
#
# Indices 1 2 3 4 5 6 
#
# 1 59.8123 17.8688 31.4673 10.3261 4.2215 -16.2710
# 2 17.8688 93.9652 33.7824 9.2796 -5.6526 -22.4409
# 3 31.4673 33.7824 115.5957 7.0646 6.6775 -15.6433
# 4 10.3261 9.2796 7.0646 45.0969 -4.6328 4.4120
# 5 4.2215 -5.6526 6.6775 -4.6328 33.7013 11.6637
# 6 -16.2710 -22.4409 -15.6433 4.4120 11.6637 39.9953
#
#
#
# Elastic Compliance Matrix: (Units=1/GPa)
#
#
# Indices 1 2 3 4 5 6 
#
# 1 0.023339 -0.000256 -0.004105 -0.006343 -0.006616 0.010375
# 2 -0.000256 0.013609 -0.002829 -0.002939 0.000151 0.006705
# 3 -0.004105 -0.002829 0.011082 -0.000715 -0.002953 0.002017
# 4 -0.006343 -0.002939 -0.000715 0.026025 0.007313 -0.009513
# 5 -0.006616 0.000151 -0.002953 0.007313 0.037481 -0.015499
# 6 0.010375 0.006705 0.002017 -0.009513 -0.015499 0.039344
#
#
# Mechanical properties :
#
#
# Convention : Reuss Voigt Hill
#
# Bulk Modulus (GPa) = 29.71768 48.40112 39.05940
# Shear Modulus (GPa) = 28.33227 36.17568 32.25397
#
# Velocity S-wave (km/s) = 3.25958 3.68324 3.47787
# Velocity P-wave (km/s) = 5.03100 6.01990 5.54753
#
# Compressibility (1/GPa) = 0.03365001
#
# Stress axis : x y z
#
# Youngs Moduli (GPa) = 42.84614 73.48241 90.23495
#
# Poissons Ratio (x) = 0.01885 0.37038
# Poissons Ratio (y) = 0.01099 0.25527
# Poissons Ratio (z) = 0.17587 0.20788
#
# Static dielectric constant tensor:
#      x y z
#    x 2.031820 0.027250 0.064370 
#    y 0.027250 2.057000 -0.031930 
#    z 0.064370 -0.031930 2.045280 
# 
# From -- ./inp_files/242284.got.cif
#   From: 2010.05.17/outbox.cif.g08.bks.cpg/sg2_122_cif.got.tgz:242284.got - 2010.06.03 11:33:40.
