data_PCOD9031456
_publ_section_title
;
Structure prediction by ZEFSAII (Michael W. Deem and Ramdas Pophale) SiO2 
 PCOD9031456
Probable space group: P -1
;
_chemical_formula_sum "Si O2"
_cell_formula_units_Z 16
_cell_length_a 21.054767
_cell_length_b 19.062733
_cell_length_c 7.273152
_cell_angle_alpha 146.667169
_cell_angle_beta 144.712212
_cell_angle_gamma 22.856400
_cell_volume 608.181662
_symmetry_space_group_name_H-M "P -1"
_symmetry_group_IT_number 2
_symmetry_cell_setting 'triclinic'
loop_
_space_group_symop_operation_xyz
x,y,z
-x,-y,-z
loop_
_atom_site_type_symbol
_atom_site_label
_atom_site_fract_x
_atom_site_fract_y
_atom_site_fract_z
Si Si1 0.486532 0.141264 0.163590
Si Si2 0.588889 0.128702 0.011771
Si Si3 0.974292 0.732768 0.123557
Si Si4 0.992929 0.445529 0.658994
Si Si5 0.855600 0.172532 0.399131
Si Si6 0.848410 0.926861 0.635784
Si Si7 0.524052 0.466508 0.760380
Si Si8 0.660129 0.606284 0.309880
O O1 0.484611 0.133289 0.922121
O O2 0.345234 0.341612 0.377484
O O3 0.657314 0.068608 0.444356
O O4 0.500000 0.000000 0.000000
O O5 0.573937 0.284129 0.405332
O O6 0.782462 0.918100 0.006935
O O7 0.503864 0.208416 0.786599
O O8 0.960375 0.792636 0.432382
O O9 0.100533 0.719756 0.300990
O O10 0.023669 0.541766 0.818326
O O11 0.810131 0.544303 0.426344
O O12 0.109972 0.218760 0.434416
O O13 0.000000 0.500000 0.000000
O O14 0.657049 0.341933 0.337655
O O15 0.000000 0.000000 0.500000
O O16 0.874968 0.049486 0.016765
O O17 0.500000 0.500000 0.000000
O O18 0.656770 0.456800 0.988420
#
# Coordination Sequence:
#
# PCOD9031456 Si02
#       8
#     2   2   2   2   2   2   2   2
#     4  11  23  44  70  96 138 182 228 288 345 419
#     4  11  25  43  69 108 135 179 237 283 360 406
#     4  10  23  44  68  98 137 174 230 280 340 424
#     4  10  24  42  70  99 132 181 227 279 350 410
#     4  12  26  43  68 101 142 178 229 289 346 411
#     4  10  22  43  66  98 129 180 225 272 353 406
#     4  12  25  44  72 106 137 187 234 289 357 419
#     4  12  24  44  71  99 143 175 230 295 341 419
#
# _framework density 26.307929000000001
#
# number of rings (size 3 to 8) (size 9 to 14) (size 15 to 20)
#    0.000    1.000    2.500    4.500    7.000    3.000 
#    0.000    0.625    0.000    0.000    0.000    0.000 
#    0.000    0.000    0.000    0.000    0.000    0.000 
#
# Total GULP energy -89640.039841 kJ/mol
# GULP energy per Si atom -5602.502490 kJ/mol
# Density = 2.624805 g / cm^3
# Si number density = 26.307929 Si / 1000 Ang^3
#
#
#
# Elastic Constant Matrix: (Units=GPa)
#
#
# Indices 1 2 3 4 5 6 
#
# 1 99.6017 0.5985 61.3840 -0.5007 15.2809 10.3169
# 2 0.5985 94.8727 16.8532 -11.0905 16.1265 13.5373
# 3 61.3840 16.8532 101.0598 -1.1638 19.8545 10.5438
# 4 -0.5007 -11.0905 -1.1638 37.5603 -0.7577 8.4642
# 5 15.2809 16.1265 19.8545 -0.7577 64.4894 5.4196
# 6 10.3169 13.5373 10.5438 8.4642 5.4196 27.8052
#
#
#
# Elastic Compliance Matrix: (Units=1/GPa)
#
#
# Indices 1 2 3 4 5 6 
#
# 1 0.016757 0.002613 -0.009945 0.001554 -0.001211 -0.003955
# 2 0.002613 0.013101 -0.002434 0.005496 -0.002441 -0.007623
# 3 -0.009945 -0.002434 0.016872 -0.000132 -0.002141 -0.001066
# 4 0.001554 0.005496 -0.000132 0.031101 -0.000276 -0.012616
# 5 -0.001211 -0.002441 -0.002141 -0.000276 0.017127 -0.000804
# 6 -0.003955 -0.007623 -0.001066 -0.012616 -0.000804 0.045544
#
#
# Mechanical properties :
#
#
# Convention : Reuss Voigt Hill
#
# Bulk Modulus (GPa) = 36.76763 50.35618 43.56191
# Shear Modulus (GPa) = 29.56797 40.41756 34.99276
#
# Velocity S-wave (km/s) = 3.35613 3.92385 3.65104
# Velocity P-wave (km/s) = 5.38742 6.30170 5.86241
#
# Compressibility (1/GPa) = 0.02719783
#
# Stress axis : x y z
#
# Youngs Moduli (GPa) = 59.67678 76.32794 59.26907
#
# Poissons Ratio (x) = -0.19944 0.58946
# Poissons Ratio (y) = -0.15593 0.14425
# Poissons Ratio (z) = 0.59351 0.18577
#
# Static dielectric constant tensor:
#      x y z
#    x 2.023460 0.121230 0.143200 
#    y 0.121230 1.998630 -0.153770 
#    z 0.143200 -0.153770 1.660330 
# 
# From -- ./inp_files/355337.got.cif
#   From: 2010.05.17/outbox.cif.g08.bks.cpg/sg2_178_cif.got.tgz:355337.got - 2010.06.03 11:33:40.
