data_PCOD9031576
_publ_section_title
;
Structure prediction by ZEFSAII (Michael W. Deem and Ramdas Pophale) SiO2 
 PCOD9031576
Probable space group: P -1
;
_chemical_formula_sum "Si O2"
_cell_formula_units_Z 16
_cell_length_a 8.732873
_cell_length_b 6.672218
_cell_length_c 23.958297
_cell_angle_alpha 44.572844
_cell_angle_beta 48.999667
_cell_angle_gamma 58.071660
_cell_volume 734.405528
_symmetry_space_group_name_H-M "P -1"
_symmetry_group_IT_number 2
_symmetry_cell_setting 'triclinic'
loop_
_space_group_symop_operation_xyz
x,y,z
-x,-y,-z
loop_
_atom_site_type_symbol
_atom_site_label
_atom_site_fract_x
_atom_site_fract_y
_atom_site_fract_z
Si Si1 0.866495 0.628753 0.365068
Si Si2 0.764833 0.248605 0.373676
Si Si3 0.566913 0.707542 0.870146
Si Si4 0.791205 0.495390 0.082616
Si Si5 0.283948 0.695936 0.304586
Si Si6 0.713964 0.591830 0.522877
Si Si7 0.382318 0.885504 0.997875
Si Si8 0.677096 0.248749 0.271791
O O1 0.899645 0.417428 0.347411
O O2 0.791559 0.467727 0.469536
O O3 0.083635 0.731381 0.307375
O O4 0.694863 0.900890 0.340720
O O5 0.531462 0.352819 0.426869
O O6 0.783727 0.322105 0.289670
O O7 0.789802 0.907578 0.443921
O O8 0.375035 0.617565 0.897749
O O9 0.708460 0.401641 0.902664
O O10 0.639393 0.991931 0.770202
O O11 0.515411 0.794722 0.929399
O O12 0.788243 0.312656 0.175752
O O13 0.000000 0.500000 0.000000
O O14 0.749327 0.826179 0.046451
O O15 0.225266 0.585621 0.401282
O O16 0.458196 0.449794 0.287313
O O17 0.500000 0.000000 0.000000
#
# Coordination Sequence:
#
# PCOD9031576 Si02
#       8
#     2   2   2   2   2   2   2   2
#     4  11  23  41  68 100 130 179 223 264 334 393
#     4   9  20  42  67  93 136 177 215 278 325 385
#     4  10  22  43  67  94 129 175 214 275 342 385
#     4  11  24  44  68  96 128 173 228 273 334 404
#     4  11  23  44  66  96 140 171 221 275 328 402
#     4   9  20  40  64  97 136 170 225 271 321 396
#     4   9  20  42  67  90 126 162 219 266 332 400
#     4  10  24  44  63  98 137 167 225 277 322 402
#
# _framework density 21.786328000000001
#
# number of rings (size 3 to 8) (size 9 to 14) (size 15 to 20)
#    0.000    2.000    1.250    1.500    3.500    4.000 
#    6.750    1.250    0.000    0.000    0.000    0.000 
#    0.000    0.000    0.000    0.000    0.000    0.000 
#
# Total GULP energy -89244.288545 kJ/mol
# GULP energy per Si atom -5577.768034 kJ/mol
# Density = 2.173674 g / cm^3
# Si number density = 21.786328 Si / 1000 Ang^3
#
#
#
# Elastic Constant Matrix: (Units=GPa)
#
#
# Indices 1 2 3 4 5 6 
#
# 1 65.1378 30.6347 45.1280 -9.9794 -4.7239 14.8867
# 2 30.6347 77.4211 37.2899 -5.2971 6.9181 23.6594
# 3 45.1280 37.2899 110.6451 4.7062 21.0867 14.8440
# 4 -9.9794 -5.2971 4.7062 38.6057 3.9232 10.2526
# 5 -4.7239 6.9181 21.0867 3.9232 24.9301 3.4143
# 6 14.8867 23.6594 14.8440 10.2526 3.4143 27.3828
#
#
#
# Elastic Compliance Matrix: (Units=1/GPa)
#
#
# Indices 1 2 3 4 5 6 
#
# 1 0.033964 -0.002326 -0.015410 0.012328 0.020263 -0.015244
# 2 -0.002326 0.022122 -0.004007 0.008015 -0.001926 -0.018438
# 3 -0.015410 -0.004007 0.019620 -0.006662 -0.018171 0.005964
# 4 0.012328 0.008015 -0.006662 0.037132 0.003235 -0.024322
# 5 0.020263 -0.001926 -0.018171 0.003235 0.060478 -0.008253
# 6 -0.015244 -0.018438 0.005964 -0.024322 -0.008253 0.067640
#
#
# Mechanical properties :
#
#
# Convention : Reuss Voigt Hill
#
# Bulk Modulus (GPa) = 31.03656 53.25657 42.14657
# Shear Modulus (GPa) = 16.93882 27.52714 22.23298
#
# Velocity S-wave (km/s) = 2.79139 3.55844 3.19799
# Velocity P-wave (km/s) = 4.96648 6.43283 5.74662
#
# Compressibility (1/GPa) = 0.03222006
#
# Stress axis : x y z
#
# Youngs Moduli (GPa) = 29.44290 45.20471 50.96892
#
# Poissons Ratio (x) = 0.10514 0.78542
# Poissons Ratio (y) = 0.06848 0.20424
# Poissons Ratio (z) = 0.45371 0.18114
#
# Static dielectric constant tensor:
#      x y z
#    x 1.817910 -0.037760 0.007070 
#    y -0.037760 1.841340 0.006270 
#    z 0.007070 0.006270 1.799320 
# 
# From -- ./inp_files/536369.got.cif
#   From: 2010.05.17/outbox.cif.g08.bks.cpg/sg2_269_cif.got.tgz:536369.got - 2010.06.03 11:33:40.
