data_PCOD9031749
_publ_section_title
;
Structure prediction by ZEFSAII (Michael W. Deem and Ramdas Pophale) SiO2 
 PCOD9031749
Probable space group: P -1
;
_chemical_formula_sum "Si O2"
_cell_formula_units_Z 14
_cell_length_a 8.269978
_cell_length_b 17.009650
_cell_length_c 16.549734
_cell_angle_alpha 143.761504
_cell_angle_beta 32.458356
_cell_angle_gamma 146.380022
_cell_volume 648.101017
_symmetry_space_group_name_H-M "P -1"
_symmetry_group_IT_number 2
_symmetry_cell_setting 'triclinic'
loop_
_space_group_symop_operation_xyz
x,y,z
-x,-y,-z
loop_
_atom_site_type_symbol
_atom_site_label
_atom_site_fract_x
_atom_site_fract_y
_atom_site_fract_z
Si Si1 0.373185 0.889623 0.037536
Si Si2 0.301691 0.963958 0.819051
Si Si3 0.827960 0.720575 0.711719
Si Si4 0.413827 0.371375 0.863105
Si Si5 0.711259 0.550153 0.188173
Si Si6 0.062990 0.864089 0.392006
Si Si7 0.791658 0.175974 0.533069
O O1 0.607223 0.808934 0.878521
O O2 0.984059 0.759132 0.081749
O O3 0.500000 0.000000 0.000000
O O4 0.451427 0.989294 0.168695
O O5 0.123242 0.796132 0.718538
O O6 0.528654 0.070621 0.739067
O O7 0.000000 0.000000 0.000000
O O8 0.553959 0.555399 0.719855
O O9 0.004065 0.754273 0.578122
O O10 0.483485 0.451556 0.812964
O O11 0.625778 0.282270 0.713494
O O12 0.500000 0.500000 0.000000
O O13 0.887273 0.718671 0.288955
O O14 0.000000 0.500000 0.000000
O O15 0.981651 0.823612 0.486252
O O16 0.000000 0.000000 0.500000
O O17 0.500000 0.000000 0.500000
#
# Coordination Sequence:
#
# PCOD9031749 Si02
#       7
#     2   2   2   2   2   2   2
#     4  11  24  42  71 104 142 188 247 288 352 436
#     4  10  22  43  68 103 135 186 239 283 351 420
#     4  11  25  44  72 105 142 191 238 302 358 417
#     4  12  27  46  72 105 145 193 234 298 362 421
#     4  12  24  49  72 101 147 188 243 292 358 431
#     4  12  26  47  74 101 143 194 234 294 366 428
#     4  12  26  47  72 106 148 182 245 299 357 431
#
# _framework density 21.601572000000001
#
# number of rings (size 3 to 8) (size 9 to 14) (size 15 to 20)
#    0.000    0.571    4.286    3.429    6.000    1.143 
#    0.000    0.000    0.000    0.000    0.000    0.000 
#    0.000    0.000    0.000    0.000    0.000    0.000 
#
# Total GULP energy -78259.358819 kJ/mol
# GULP energy per Si atom -5589.954201 kJ/mol
# Density = 2.155241 g / cm^3
# Si number density = 21.601572 Si / 1000 Ang^3
#
#
#
# Elastic Constant Matrix: (Units=GPa)
#
#
# Indices 1 2 3 4 5 6 
#
# 1 130.8656 51.5110 58.0744 15.8714 16.9179 -7.4714
# 2 51.5110 146.4557 64.1762 -0.9861 13.7497 -10.6976
# 3 58.0744 64.1762 129.2042 17.5575 10.8472 -0.1562
# 4 15.8714 -0.9861 17.5575 42.7616 -6.7531 4.5686
# 5 16.9179 13.7497 10.8472 -6.7531 34.2196 3.0316
# 6 -7.4714 -10.6976 -0.1562 4.5686 3.0316 42.3481
#
#
#
# Elastic Compliance Matrix: (Units=1/GPa)
#
#
# Indices 1 2 3 4 5 6 
#
# 1 0.010941 -0.001950 -0.003041 -0.003816 -0.004607 0.002168
# 2 -0.001950 0.009575 -0.004064 0.002198 -0.001331 0.001918
# 3 -0.003041 -0.004064 0.011758 -0.003885 -0.001268 -0.001010
# 4 -0.003816 0.002198 -0.003885 0.028130 0.008119 -0.003748
# 5 -0.004607 -0.001331 -0.001268 0.008119 0.034438 -0.004495
# 6 0.002168 0.001918 -0.001010 -0.003748 -0.004495 0.025203
#
#
# Mechanical properties :
#
#
# Convention : Reuss Voigt Hill
#
# Bulk Modulus (GPa) = 70.60443 83.78321 77.19382
# Shear Modulus (GPa) = 34.99546 39.38343 37.18945
#
# Velocity S-wave (km/s) = 4.02934 4.27450 4.15373
# Velocity P-wave (km/s) = 7.37586 7.95183 7.66925
#
# Compressibility (1/GPa) = 0.01416342
#
# Stress axis : x y z
#
# Youngs Moduli (GPa) = 91.40159 104.44402 85.04720
#
# Poissons Ratio (x) = 0.20371 0.25862
# Poissons Ratio (y) = 0.17827 0.34561
# Poissons Ratio (z) = 0.27794 0.42443
#
# Static dielectric constant tensor:
#      x y z
#    x 1.838700 0.023990 0.020250 
#    y 0.023990 1.811470 -0.018730 
#    z 0.020250 -0.018730 1.835680 
# 
# From -- ./inp_files/562086.got.cif
#   From: 2010.05.17/outbox.cif.g08.bks.cpg/sg2_282_cif.got.tgz:562086.got - 2010.06.03 11:33:40.
