data_PCOD9031547
_publ_section_title
;
Structure prediction by ZEFSAII (Michael W. Deem and Ramdas Pophale) SiO2 
 PCOD9031547
Probable space group: P -1
;
_chemical_formula_sum "Si O2"
_cell_formula_units_Z 16
_cell_length_a 13.088100
_cell_length_b 9.019751
_cell_length_c 10.310520
_cell_angle_alpha 92.911653
_cell_angle_beta 45.128726
_cell_angle_gamma 84.545248
_cell_volume 846.627087
_symmetry_space_group_name_H-M "P -1"
_symmetry_group_IT_number 2
_symmetry_cell_setting 'triclinic'
loop_
_space_group_symop_operation_xyz
x,y,z
-x,-y,-z
loop_
_atom_site_type_symbol
_atom_site_label
_atom_site_fract_x
_atom_site_fract_y
_atom_site_fract_z
Si Si1 0.759783 0.802726 0.465461
Si Si2 0.686105 0.295092 0.798643
Si Si3 0.955152 0.093883 0.675715
Si Si4 0.591423 0.602089 0.780785
Si Si5 0.323522 0.853321 0.477158
Si Si6 0.859844 0.628621 0.104415
Si Si7 0.002718 0.888942 0.869393
Si Si8 0.550516 0.569267 0.325439
O O1 0.672656 0.717082 0.639018
O O2 0.798849 0.704253 0.297826
O O3 0.910105 0.829389 0.397317
O O4 0.674011 0.969467 0.511272
O O5 0.811517 0.216527 0.779227
O O6 0.698613 0.464108 0.749407
O O7 0.692037 0.193169 0.660538
O O8 0.527098 0.315197 0.007948
O O9 0.936682 0.983076 0.806466
O O10 0.000000 0.000000 0.500000
O O11 0.504981 0.519943 0.748115
O O12 0.463839 0.741893 0.402010
O O13 0.174292 0.828219 0.680597
O O14 0.723781 0.564497 0.163892
O O15 0.915456 0.757064 0.975861
O O16 0.000000 0.500000 0.000000
O O17 0.000000 0.000000 0.000000
O O18 0.500000 0.500000 0.500000
#
# Coordination Sequence:
#
# PCOD9031547 Si02
#       8
#     2   2   2   2   2   2   2   2
#     4  11  23  43  66  98 130 168 221 272 322 385
#     4  10  22  44  64  90 132 173 219 267 327 385
#     4  11  22  42  69  96 129 172 216 267 330 382
#     4  10  24  43  64  93 131 172 218 274 321 385
#     4  10  22  43  67  91 134 168 217 278 318 388
#     4  12  26  42  64 100 133 171 217 267 333 397
#     4  11  22  43  67  96 133 168 216 275 324 383
#     4  11  23  43  66  92 131 176 215 265 332 386
#
# _framework density 18.898522
#
# number of rings (size 3 to 8) (size 9 to 14) (size 15 to 20)
#    0.000    1.250    6.250    0.750    3.500    3.500 
#    6.750    0.000    0.000    0.000    0.000    0.000 
#    0.000    0.000    0.000    0.000    0.000    0.000 
#
# Total GULP energy -89396.833596 kJ/mol
# GULP energy per Si atom -5587.302100 kJ/mol
# Density = 1.885551 g / cm^3
# Si number density = 18.898522 Si / 1000 Ang^3
#
#
#
# Elastic Constant Matrix: (Units=GPa)
#
#
# Indices 1 2 3 4 5 6 
#
# 1 80.6380 33.5353 5.2036 -9.2175 -9.1800 -27.8760
# 2 33.5353 98.4881 36.3779 -26.6060 -18.3004 -17.9913
# 3 5.2036 36.3779 97.3319 -12.7612 4.5682 -10.9677
# 4 -9.2175 -26.6060 -12.7612 47.8089 2.1484 -3.4783
# 5 -9.1800 -18.3004 4.5682 2.1484 34.7579 5.1733
# 6 -27.8760 -17.9913 -10.9677 -3.4783 5.1733 32.5749
#
#
#
# Elastic Compliance Matrix: (Units=1/GPa)
#
#
# Indices 1 2 3 4 5 6 
#
# 1 0.019793 -0.003739 0.002608 0.003588 0.000300 0.016087
# 2 -0.003739 0.017733 -0.005297 0.007696 0.007918 0.004375
# 3 0.002608 -0.005297 0.013056 0.001581 -0.004599 0.004602
# 4 0.003588 0.007696 0.001581 0.027006 0.001561 0.010489
# 5 0.000300 0.007918 -0.004599 0.001561 0.033843 -0.002126
# 6 0.016087 0.004375 0.004602 0.010489 -0.002126 0.049888
#
#
# Mechanical properties :
#
#
# Convention : Reuss Voigt Hill
#
# Bulk Modulus (GPa) = 26.50717 47.41021 36.95869
# Shear Modulus (GPa) = 26.77348 36.45107 31.61228
#
# Velocity S-wave (km/s) = 3.76799 4.39655 4.09435
# Velocity P-wave (km/s) = 5.74341 7.13541 6.47692
#
# Compressibility (1/GPa) = 0.03772564
#
# Stress axis : x y z
#
# Youngs Moduli (GPa) = 50.52231 56.39206 76.59143
#
# Poissons Ratio (x) = 0.21088 -0.19979
# Poissons Ratio (y) = 0.18893 0.40574
# Poissons Ratio (z) = -0.13179 0.29874
#
# Static dielectric constant tensor:
#      x y z
#    x 1.660200 -0.009080 0.011300 
#    y -0.009080 1.658220 0.009260 
#    z 0.011300 0.009260 1.639370 
# 
# From -- ./inp_files/190925.got.cif
#   From: 2010.05.17/outbox.cif.g08.bks.cpg/sg2_96_cif.got.tgz:190925.got - 2010.06.03 11:33:40.
