data_PCOD9031511
_publ_section_title
;
Structure prediction by ZEFSAII (Michael W. Deem and Ramdas Pophale) SiO2 
 PCOD9031511
Probable space group: P -1
;
_chemical_formula_sum "Si O2"
_cell_formula_units_Z 12
_cell_length_a 7.573520
_cell_length_b 15.065300
_cell_length_c 16.565524
_cell_angle_alpha 162.557587
_cell_angle_beta 117.468349
_cell_angle_gamma 62.357796
_cell_volume 500.643744
_symmetry_space_group_name_H-M "P -1"
_symmetry_group_IT_number 2
_symmetry_cell_setting 'triclinic'
loop_
_space_group_symop_operation_xyz
x,y,z
-x,-y,-z
loop_
_atom_site_type_symbol
_atom_site_label
_atom_site_fract_x
_atom_site_fract_y
_atom_site_fract_z
Si Si1 0.849371 0.984092 0.207739
Si Si2 0.554016 0.015686 0.620927
Si Si3 0.115054 0.170009 0.737092
Si Si4 0.550844 0.834631 0.786184
Si Si5 0.187090 0.612058 0.880581
Si Si6 0.975222 0.575525 0.653765
O O1 0.607469 0.015956 0.181220
O O2 0.923783 0.267572 0.421403
O O3 0.906078 0.968642 0.299578
O O4 0.958906 0.687088 0.931805
O O5 0.680313 0.696013 0.374358
O O6 0.500000 0.000000 0.500000
O O7 0.344690 0.113629 0.707236
O O8 0.696374 0.226132 0.883169
O O9 0.000000 0.000000 0.500000
O O10 0.000000 0.500000 0.000000
O O11 0.500000 0.500000 0.500000
O O12 0.786416 0.813858 0.815881
O O13 0.500000 0.000000 0.000000
O O14 0.145229 0.698760 0.852841
O O15 0.000000 0.500000 0.500000
#
# Coordination Sequence:
#
# PCOD9031511 Si02
#       6
#     2   2   2   2   2   2
#     4  11  25  47  74 106 151 191 247 301 362 436
#     4  12  26  48  75 108 145 189 246 305 369 437
#     4  12  28  49  77 108 145 190 242 303 370 439
#     4  10  22  43  67 102 141 191 238 295 352 423
#     4  12  24  46  74 107 147 192 240 305 367 434
#     4  11  26  48  74 110 151 197 249 302 364 435
#
# _framework density 23.969138999999998
#
# number of rings (size 3 to 8) (size 9 to 14) (size 15 to 20)
#    0.000    0.667    3.333    3.500    4.667    0.667 
#    6.000    0.000    0.000    0.000    0.000    0.000 
#    0.000    0.000    0.000    0.000    0.000    0.000 
#
# Total GULP energy -66868.309851 kJ/mol
# GULP energy per Si atom -5572.359154 kJ/mol
# Density = 2.391458 g / cm^3
# Si number density = 23.969139 Si / 1000 Ang^3
#
#
#
# Elastic Constant Matrix: (Units=GPa)
#
#
# Indices 1 2 3 4 5 6 
#
# 1 97.5713 78.2970 28.3690 15.7815 -45.2547 -21.1013
# 2 78.2970 220.1462 62.5175 -18.6290 -19.7201 -9.9389
# 3 28.3690 62.5175 157.3165 -1.7235 -43.4821 -7.7232
# 4 15.7815 -18.6290 -1.7235 61.6192 -8.4293 -14.0794
# 5 -45.2547 -19.7201 -43.4821 -8.4293 50.3434 -1.6355
# 6 -21.1013 -9.9389 -7.7232 -14.0794 -1.6355 63.5112
#
#
#
# Elastic Compliance Matrix: (Units=1/GPa)
#
#
# Indices 1 2 3 4 5 6 
#
# 1 0.038198 -0.012793 0.008706 -0.005849 0.036236 0.011384
# 2 -0.012793 0.009631 -0.004720 0.003891 -0.011241 -0.002744
# 3 0.008706 -0.004720 0.011192 -0.000314 0.015716 0.003850
# 4 -0.005849 0.003891 -0.000314 0.019475 -0.000649 0.002928
# 5 0.036236 -0.011241 0.015716 -0.000649 0.061942 0.013643
# 6 0.011384 -0.002744 0.003850 0.002928 0.013643 0.020567
#
#
# Mechanical properties :
#
#
# Convention : Reuss Voigt Hill
#
# Bulk Modulus (GPa) = 24.14986 90.37787 57.26387
# Shear Modulus (GPa) = 25.98474 55.48479 40.73476
#
# Velocity S-wave (km/s) = 3.29613 4.81650 4.12693
# Velocity P-wave (km/s) = 4.95815 8.28971 6.83017
#
# Compressibility (1/GPa) = 0.04140810
#
# Stress axis : x y z
#
# Youngs Moduli (GPa) = 26.17922 103.83041 89.35181
#
# Poissons Ratio (x) = 1.32830 -0.77790
# Poissons Ratio (y) = 0.33491 0.42170
# Poissons Ratio (z) = -0.22792 0.49003
#
# Static dielectric constant tensor:
#      x y z
#    x 2.041040 -0.026000 0.121710 
#    y -0.026000 1.938290 -0.004420 
#    z 0.121710 -0.004420 1.954600 
# 
# From -- ./inp_files/506016.got.cif
#   From: 2010.05.17/outbox.cif.g08.bks.cpg/sg2_254_cif.got.tgz:506016.got - 2010.06.03 11:33:40.
