data_PCOD9031929
_publ_section_title
;
Structure prediction by ZEFSAII (Michael W. Deem and Ramdas Pophale) SiO2 
 PCOD9031929
Probable space group: P -1
;
_chemical_formula_sum "Si O2"
_cell_formula_units_Z 16
_cell_length_a 14.251867
_cell_length_b 8.490165
_cell_length_c 6.014063
_cell_angle_alpha 83.921592
_cell_angle_beta 69.330626
_cell_angle_gamma 82.204757
_cell_volume 673.251329
_symmetry_space_group_name_H-M "P -1"
_symmetry_group_IT_number 2
_symmetry_cell_setting 'triclinic'
loop_
_space_group_symop_operation_xyz
x,y,z
-x,-y,-z
loop_
_atom_site_type_symbol
_atom_site_label
_atom_site_fract_x
_atom_site_fract_y
_atom_site_fract_z
Si Si1 0.482703 0.816066 0.549467
Si Si2 0.186828 0.282029 0.636797
Si Si3 0.765445 0.986914 0.731785
Si Si4 0.652764 0.747663 0.112996
Si Si5 0.596028 0.565885 0.802194
Si Si6 0.711070 0.297468 0.434516
Si Si7 0.079371 0.590250 0.769224
Si Si8 0.052668 0.107033 0.112785
O O1 0.547566 0.728239 0.703185
O O2 0.369747 0.767276 0.656455
O O3 0.500000 0.000000 0.500000
O O4 0.537225 0.753381 0.284586
O O5 0.213561 0.154182 0.444428
O O6 0.127538 0.450096 0.586344
O O7 0.281220 0.297900 0.717882
O O8 0.115949 0.205916 0.881099
O O9 0.683205 0.916910 0.972313
O O10 0.869096 0.992373 0.778033
O O11 0.735430 0.150524 0.606762
O O12 0.669455 0.616225 0.926931
O O13 0.652449 0.441069 0.603297
O O14 0.500000 0.500000 0.000000
O O15 0.815227 0.348989 0.235476
O O16 0.019067 0.756536 0.718546
O O17 0.000000 0.500000 0.000000
O O18 0.000000 0.000000 0.000000
#
# Coordination Sequence:
#
# PCOD9031929 Si02
#       8
#     2   2   2   2   2   2   2   2
#     4  12  27  45  71 103 148 193 240 293 361 440
#     4  10  22  43  68  99 138 187 238 294 358 428
#     4  11  25  44  71 105 142 190 243 297 364 437
#     4  11  23  44  68  98 146 189 236 291 355 433
#     4  12  27  45  71 109 148 189 241 302 360 432
#     4  12  25  44  72 104 144 192 242 301 365 434
#     4  10  23  43  71 101 137 189 241 300 369 422
#     4  10  23  43  68 101 140 183 236 304 360 426
#
# _framework density 23.765269
#
# number of rings (size 3 to 8) (size 9 to 14) (size 15 to 20)
#    0.000    1.000    1.250    4.875    3.500    5.500 
#    0.000    2.500    0.000    0.000    0.000    0.000 
#    0.000    0.000    0.000    0.000    0.000    0.000 
#
# Total GULP energy -89363.730409 kJ/mol
# GULP energy per Si atom -5585.233151 kJ/mol
# Density = 2.371118 g / cm^3
# Si number density = 23.765269 Si / 1000 Ang^3
#
#
#
# Elastic Constant Matrix: (Units=GPa)
#
#
# Indices 1 2 3 4 5 6 
#
# 1 135.1201 28.4380 25.9852 -3.3641 -6.1316 26.0795
# 2 28.4380 118.7118 24.8622 -0.9941 1.9458 4.6877
# 3 25.9852 24.8622 55.7860 -4.3272 -7.8645 7.2084
# 4 -3.3641 -0.9941 -4.3272 26.3977 13.7083 4.6485
# 5 -6.1316 1.9458 -7.8645 13.7083 52.4547 -4.1325
# 6 26.0795 4.6877 7.2084 4.6485 -4.1325 34.0680
#
#
#
# Elastic Compliance Matrix: (Units=1/GPa)
#
#
# Indices 1 2 3 4 5 6 
#
# 1 0.009611 -0.001412 -0.002843 0.002096 -0.000341 -0.006889
# 2 -0.001412 0.009560 -0.003807 0.000032 -0.001064 0.000437
# 3 -0.002843 -0.003807 0.021691 0.002167 0.002345 -0.001901
# 4 0.002096 0.000032 0.002167 0.046708 -0.012421 -0.009947
# 5 -0.000341 -0.001064 0.002345 -0.012421 0.023008 0.004397
# 6 -0.006889 0.000437 -0.001901 -0.009947 0.004397 0.036859
#
#
# Mechanical properties :
#
#
# Convention : Reuss Voigt Hill
#
# Bulk Modulus (GPa) = 40.42356 52.02096 46.22226
# Shear Modulus (GPa) = 29.10267 37.93959 33.52113
#
# Velocity S-wave (km/s) = 3.50321 3.99987 3.75975
# Velocity P-wave (km/s) = 5.78011 6.57791 6.19188
#
# Compressibility (1/GPa) = 0.02473805
#
# Stress axis : x y z
#
# Youngs Moduli (GPa) = 104.04725 104.60573 46.10250
#
# Poissons Ratio (x) = 0.14768 0.13107
# Poissons Ratio (y) = 0.14689 0.17551
# Poissons Ratio (z) = 0.29580 0.39823
#
# Static dielectric constant tensor:
#      x y z
#    x 1.841910 -0.002810 -0.023930 
#    y -0.002810 1.927410 0.026140 
#    z -0.023930 0.026140 1.910000 
# 
# From -- ./inp_files/90332.got.cif
#   From: 2010.05.17/outbox.cif.g08.bks.cpg/sg2_46_cif.got.tgz:90332.got - 2010.06.03 11:33:40.
