data_PCOD9031128
_publ_section_title
;
Structure prediction by ZEFSAII (Michael W. Deem and Ramdas Pophale) SiO2 
 PCOD9031128
Probable space group: P -1
;
_chemical_formula_sum "Si O2"
_cell_formula_units_Z 16
_cell_length_a 6.315588
_cell_length_b 15.024314
_cell_length_c 11.221840
_cell_angle_alpha 48.826731
_cell_angle_beta 78.438488
_cell_angle_gamma 59.993981
_cell_volume 680.396372
_symmetry_space_group_name_H-M "P -1"
_symmetry_group_IT_number 2
_symmetry_cell_setting 'triclinic'
loop_
_space_group_symop_operation_xyz
x,y,z
-x,-y,-z
loop_
_atom_site_type_symbol
_atom_site_label
_atom_site_fract_x
_atom_site_fract_y
_atom_site_fract_z
Si Si1 0.727594 0.339746 0.513601
Si Si2 0.475931 0.357500 0.768590
Si Si3 0.297801 0.158823 0.863791
Si Si4 0.800355 0.447888 0.032336
Si Si5 0.907555 0.761669 0.626237
Si Si6 0.866000 0.256765 0.001051
Si Si7 0.400726 0.238880 0.533671
Si Si8 0.853827 0.958122 0.643848
O O1 0.681037 0.331188 0.665564
O O2 0.721150 0.482029 0.365778
O O3 0.488410 0.342122 0.478167
O O4 0.958032 0.218180 0.522996
O O5 0.383846 0.252968 0.840218
O O6 0.592500 0.325251 0.915351
O O7 0.266068 0.212785 0.684238
O O8 0.049979 0.185745 0.933408
O O9 0.500000 0.000000 0.000000
O O10 0.905209 0.370198 0.963458
O O11 0.864612 0.345636 0.226250
O O12 0.500000 0.500000 0.000000
O O13 0.000000 0.500000 0.000000
O O14 0.734210 0.715851 0.618454
O O15 0.759713 0.878791 0.636763
O O16 0.949335 0.141770 0.193416
O O17 0.631668 0.088195 0.615894
O O18 0.000000 0.000000 0.500000
#
# Coordination Sequence:
#
# PCOD9031128 Si02
#       8
#     2   2   2   2   2   2   2   2
#     4  10  22  43  65 101 136 182 238 300 365 446
#     4  10  24  42  70  98 139 183 240 298 378 438
#     4  11  24  44  69 102 141 184 242 308 373 441
#     4  11  28  47  74 109 150 199 246 304 377 450
#     4  11  24  39  69  98 136 185 236 302 364 436
#     4  11  25  44  70 104 141 189 243 313 367 451
#     4  11  23  43  68  98 141 184 242 301 367 448
#     4  11  23  44  64  97 137 187 241 298 371 448
#
# _framework density 23.515705000000001
#
# number of rings (size 3 to 8) (size 9 to 14) (size 15 to 20)
#    0.000    1.250    2.500    1.875    7.000    1.500 
#    2.250    3.750    0.000    0.000    0.000    0.000 
#    0.000    0.000    0.000    0.000    0.000    0.000 
#
# Total GULP energy -89153.072983 kJ/mol
# GULP energy per Si atom -5572.067061 kJ/mol
# Density = 2.346218 g / cm^3
# Si number density = 23.515705 Si / 1000 Ang^3
#
#
#
# Elastic Constant Matrix: (Units=GPa)
#
#
# Indices 1 2 3 4 5 6 
#
# 1 64.5388 15.8124 36.5001 -1.0861 18.2517 22.1431
# 2 15.8124 95.2369 22.4211 13.9531 4.0347 16.6335
# 3 36.5001 22.4211 94.5342 6.3294 24.6230 25.6175
# 4 -1.0861 13.9531 6.3294 36.2295 5.7607 2.0800
# 5 18.2517 4.0347 24.6230 5.7607 41.8468 19.8649
# 6 22.1431 16.6335 25.6175 2.0800 19.8649 44.4204
#
#
#
# Elastic Compliance Matrix: (Units=1/GPa)
#
#
# Indices 1 2 3 4 5 6 
#
# 1 0.022299 -0.001666 -0.005928 0.003285 -0.003934 -0.005468
# 2 -0.001666 0.012452 -0.001709 -0.004809 0.003095 -0.004006
# 3 -0.005928 -0.001709 0.015427 -0.001294 -0.004647 -0.003163
# 4 0.003285 -0.004809 -0.001294 0.030513 -0.005283 0.001843
# 5 -0.003934 0.003095 -0.004647 -0.005283 0.034283 -0.011602
# 6 -0.005468 -0.004006 -0.003163 0.001843 -0.011602 0.033664
#
#
# Mechanical properties :
#
#
# Convention : Reuss Voigt Hill
#
# Bulk Modulus (GPa) = 31.67440 44.86411 38.26925
# Shear Modulus (GPa) = 28.12644 36.47110 32.29877
#
# Velocity S-wave (km/s) = 3.46218 3.94245 3.71009
# Velocity P-wave (km/s) = 5.42963 6.31218 5.88747
#
# Compressibility (1/GPa) = 0.03157124
#
# Stress axis : x y z
#
# Youngs Moduli (GPa) = 44.84441 80.30732 64.82348
#
# Poissons Ratio (x) = 0.13383 0.38429
# Poissons Ratio (y) = 0.07473 0.11076
# Poissons Ratio (z) = 0.26585 0.13721
#
# Static dielectric constant tensor:
#      x y z
#    x 1.982730 -0.004740 0.000380 
#    y -0.004740 1.973190 -0.037740 
#    z 0.000380 -0.037740 1.907930 
# 
# From -- ./inp_files/94606.got.cif
#   From: 2010.05.17/outbox.cif.g08.bks.cpg/sg2_48_cif.got.tgz:94606.got - 2010.06.03 11:33:40.
