data_PCOD9031725
_publ_section_title
;
Structure prediction by ZEFSAII (Michael W. Deem and Ramdas Pophale) SiO2 
 PCOD9031725
Probable space group: P -1
;
_chemical_formula_sum "Si O2"
_cell_formula_units_Z 14
_cell_length_a 9.998121
_cell_length_b 13.540323
_cell_length_c 8.343260
_cell_angle_alpha 111.821740
_cell_angle_beta 75.325500
_cell_angle_gamma 145.723762
_cell_volume 587.391425
_symmetry_space_group_name_H-M "P -1"
_symmetry_group_IT_number 2
_symmetry_cell_setting 'triclinic'
loop_
_space_group_symop_operation_xyz
x,y,z
-x,-y,-z
loop_
_atom_site_type_symbol
_atom_site_label
_atom_site_fract_x
_atom_site_fract_y
_atom_site_fract_z
Si Si1 0.616914 0.250824 0.511912
Si Si2 0.176382 0.109140 0.667925
Si Si3 0.602355 0.378791 0.147726
Si Si4 0.175462 0.246586 0.269706
Si Si5 0.827493 0.678915 0.047510
Si Si6 0.963450 0.623772 0.455679
Si Si7 0.611763 0.962276 0.883170
O O1 0.397701 0.169302 0.616829
O O2 0.813265 0.464550 0.539382
O O3 0.505190 0.141818 0.312860
O O4 0.765473 0.247365 0.542335
O O5 0.259841 0.279833 0.787282
O O6 0.000000 0.000000 0.500000
O O7 0.014629 0.966636 0.777206
O O8 0.430786 0.351267 0.283907
O O9 0.679693 0.482354 0.022540
O O10 0.842751 0.517088 0.260560
O O11 0.460375 0.179760 0.062641
O O12 0.085357 0.283538 0.436218
O O13 0.186230 0.298676 0.119456
O O14 0.107126 0.845519 0.101809
O O15 0.500000 0.000000 0.000000
#
# Coordination Sequence:
#
# PCOD9031725 Si02
#       7
#     2   2   2   2   2   2   2
#     4  10  22  43  70 100 137 183 231 287 347 412
#     4  12  22  42  72 101 139 183 235 284 344 418
#     4  11  24  45  72 100 139 188 233 285 350 414
#     4  12  24  43  71 104 142 181 233 296 344 411
#     4  12  25  45  69 106 140 182 234 286 354 411
#     4  10  22  43  68 101 137 180 237 281 345 421
#     4  11  24  46  70 103 143 177 230 294 350 419
#
# _framework density 23.834192000000002
#
# number of rings (size 3 to 8) (size 9 to 14) (size 15 to 20)
#    0.000    0.857    2.857    4.714    0.000    1.143 
#    2.571    0.000    0.000    0.000    0.000    0.000 
#    0.000    0.000    0.000    0.000    0.000    0.000 
#
# Total GULP energy -78432.457856 kJ/mol
# GULP energy per Si atom -5602.318418 kJ/mol
# Density = 2.377994 g / cm^3
# Si number density = 23.834192 Si / 1000 Ang^3
#
#
#
# Elastic Constant Matrix: (Units=GPa)
#
#
# Indices 1 2 3 4 5 6 
#
# 1 150.5541 67.1892 30.8288 -2.2581 -8.9527 22.5395
# 2 67.1892 122.0961 18.3826 -19.1941 -14.2009 4.3662
# 3 30.8288 18.3826 54.6669 -11.0177 -8.5832 3.0708
# 4 -2.2581 -19.1941 -11.0177 29.7968 -8.3665 4.4838
# 5 -8.9527 -14.2009 -8.5832 -8.3665 31.3533 9.4628
# 6 22.5395 4.3662 3.0708 4.4838 9.4628 49.0553
#
#
#
# Elastic Compliance Matrix: (Units=1/GPa)
#
#
# Indices 1 2 3 4 5 6 
#
# 1 0.010637 -0.005845 -0.004952 -0.004604 -0.001165 -0.003412
# 2 -0.005845 0.014110 0.002611 0.012462 0.009263 -0.001659
# 3 -0.004952 0.002611 0.025008 0.014179 0.011303 -0.002999
# 4 -0.004604 0.012462 0.014179 0.055267 0.025959 -0.009940
# 5 -0.001165 0.009263 0.011303 0.025959 0.049689 -0.012955
# 6 -0.003412 -0.001659 -0.002999 -0.009940 -0.012955 0.025696
#
#
# Mechanical properties :
#
#
# Convention : Reuss Voigt Hill
#
# Bulk Modulus (GPa) = 29.95657 62.23536 46.09596
# Shear Modulus (GPa) = 24.04924 36.10219 30.07572
#
# Velocity S-wave (km/s) = 3.17996 3.89617 3.55614
# Velocity P-wave (km/s) = 5.10675 6.81239 6.02028
#
# Compressibility (1/GPa) = 0.03338166
#
# Stress axis : x y z
#
# Youngs Moduli (GPa) = 94.00864 70.87396 39.98685
#
# Poissons Ratio (x) = 0.41428 0.19803
# Poissons Ratio (y) = 0.54951 -0.10440
# Poissons Ratio (z) = 0.46556 -0.18505
#
# Static dielectric constant tensor:
#      x y z
#    x 1.922230 -0.028240 0.013240 
#    y -0.028240 1.895400 -0.008610 
#    z 0.013240 -0.008610 1.876060 
# 
# From -- ./inp_files/188489.got.cif
#   From: 2010.05.17/outbox.cif.g08.bks.cpg/sg2_95_cif.got.tgz:188489.got - 2010.06.03 11:33:40.
