data_PCOD9031495
_publ_section_title
;
Structure prediction by ZEFSAII (Michael W. Deem and Ramdas Pophale) SiO2 
 PCOD9031495
Probable space group: P -1
;
_chemical_formula_sum "Si O2"
_cell_formula_units_Z 16
_cell_length_a 6.063032
_cell_length_b 18.900267
_cell_length_c 10.929099
_cell_angle_alpha 140.949475
_cell_angle_beta 120.902308
_cell_angle_gamma 62.590029
_cell_volume 672.613715
_symmetry_space_group_name_H-M "P -1"
_symmetry_group_IT_number 2
_symmetry_cell_setting 'triclinic'
loop_
_space_group_symop_operation_xyz
x,y,z
-x,-y,-z
loop_
_atom_site_type_symbol
_atom_site_label
_atom_site_fract_x
_atom_site_fract_y
_atom_site_fract_z
Si Si1 0.308171 0.866758 0.196847
Si Si2 0.089584 0.944049 0.579277
Si Si3 0.920275 0.731717 0.825948
Si Si4 0.755165 0.788709 0.368470
Si Si5 0.515271 0.570777 0.473491
Si Si6 0.103385 0.789973 0.690845
Si Si7 0.322509 0.467843 0.028406
Si Si8 0.497114 0.920296 0.063135
O O1 0.099717 0.975875 0.278248
O O2 0.502701 0.870605 0.369004
O O3 0.468120 0.868873 0.120959
O O4 0.157725 0.755655 0.012580
O O5 0.376128 0.964589 0.728673
O O6 0.998208 0.821163 0.399962
O O7 0.000000 0.000000 0.500000
O O8 0.794489 0.616632 0.626867
O O9 0.019637 0.758701 0.758307
O O10 0.701125 0.830117 0.934124
O O11 0.859552 0.799817 0.547705
O O12 0.676743 0.666145 0.157879
O O13 0.500000 0.500000 0.500000
O O14 0.306345 0.683557 0.564521
O O15 0.457860 0.508192 0.245921
O O16 0.236879 0.905707 0.896186
O O17 0.500000 0.500000 0.000000
O O18 0.000000 0.500000 0.000000
#
# Coordination Sequence:
#
# PCOD9031495 Si02
#       8
#     2   2   2   2   2   2   2   2
#     4  10  22  43  67 101 136 175 237 292 358 444
#     4  11  23  41  69 105 139 181 245 293 366 442
#     4   9  21  42  68  93 134 182 233 300 356 444
#     4  12  25  43  72 103 141 194 231 307 375 435
#     4  11  25  43  73 102 140 191 254 311 372 442
#     4  10  22  45  64  98 141 180 239 287 378 437
#     4  12  29  53  73 112 159 197 258 320 385 453
#     4   9  20  42  66  94 137 173 226 290 345 446
#
# _framework density 23.787797000000001
#
# number of rings (size 3 to 8) (size 9 to 14) (size 15 to 20)
#    0.000    1.500    2.500    1.125    5.250    3.000 
#    4.500    5.625    0.000    0.000    0.000    0.000 
#    0.000    0.000    0.000    0.000    0.000    0.000 
#
# Total GULP energy -89259.472940 kJ/mol
# GULP energy per Si atom -5578.717059 kJ/mol
# Density = 2.373366 g / cm^3
# Si number density = 23.787797 Si / 1000 Ang^3
#
#
#
# Elastic Constant Matrix: (Units=GPa)
#
#
# Indices 1 2 3 4 5 6 
#
# 1 95.1130 24.1713 75.9670 11.8040 19.3613 7.2999
# 2 24.1713 72.8247 58.9301 -4.6460 17.0963 -1.6785
# 3 75.9670 58.9301 202.3128 -19.5387 45.4407 18.9033
# 4 11.8040 -4.6460 -19.5387 37.1895 2.9753 10.7241
# 5 19.3613 17.0963 45.4407 2.9753 52.2898 6.8369
# 6 7.2999 -1.6785 18.9033 10.7241 6.8369 39.9758
#
#
#
# Elastic Compliance Matrix: (Units=1/GPa)
#
#
# Indices 1 2 3 4 5 6 
#
# 1 0.018233 -0.000051 -0.008428 -0.011309 0.000769 0.003556
# 2 -0.000051 0.018653 -0.005587 -0.001656 -0.001675 0.004165
# 3 -0.008428 -0.005587 0.012753 0.011078 -0.005891 -0.006690
# 4 -0.011309 -0.001656 0.011078 0.040314 -0.005477 -0.013121
# 5 0.000769 -0.001675 -0.005891 -0.005477 0.024845 -0.000205
# 6 0.003556 0.004165 -0.006690 -0.013121 -0.000205 0.031259
#
#
# Mechanical properties :
#
#
# Convention : Reuss Voigt Hill
#
# Bulk Modulus (GPa) = 46.49912 76.48745 61.49329
# Shear Modulus (GPa) = 27.56970 39.96985 33.76978
#
# Velocity S-wave (km/s) = 3.40808 4.10355 3.77188
# Velocity P-wave (km/s) = 5.92255 7.39433 6.69898
#
# Compressibility (1/GPa) = 0.02150578
#
# Stress axis : x y z
#
# Youngs Moduli (GPa) = 54.84672 53.61012 78.41224
#
# Poissons Ratio (x) = 0.00275 0.66088
# Poissons Ratio (y) = 0.00281 0.43809
# Poissons Ratio (z) = 0.46227 0.29952
#
# Static dielectric constant tensor:
#      x y z
#    x 2.008950 0.018440 0.039530 
#    y 0.018440 1.884410 0.014900 
#    z 0.039530 0.014900 1.959350 
# 
# From -- ./inp_files/370154.got.cif
#   From: 2010.05.17/outbox.cif.g08.bks.cpg/sg2_186_cif.got.tgz:370154.got - 2010.06.03 11:33:40.
