data_PCOD9031343
_publ_section_title
;
Structure prediction by ZEFSAII (Michael W. Deem and Ramdas Pophale) SiO2 
 PCOD9031343
Probable space group: P -1
;
_chemical_formula_sum "Si O2"
_cell_formula_units_Z 14
_cell_length_a 8.797985
_cell_length_b 21.608651
_cell_length_c 7.988785
_cell_angle_alpha 134.842873
_cell_angle_beta 77.875348
_cell_angle_gamma 136.801735
_cell_volume 574.618640
_symmetry_space_group_name_H-M "P -1"
_symmetry_group_IT_number 2
_symmetry_cell_setting 'triclinic'
loop_
_space_group_symop_operation_xyz
x,y,z
-x,-y,-z
loop_
_atom_site_type_symbol
_atom_site_label
_atom_site_fract_x
_atom_site_fract_y
_atom_site_fract_z
Si Si1 0.807943 0.987578 0.951898
Si Si2 0.495480 0.863060 0.287225
Si Si3 0.105818 0.252726 0.190740
Si Si4 0.116751 0.841756 0.447736
Si Si5 0.444467 0.442681 0.132051
Si Si6 0.788397 0.283903 0.291488
Si Si7 0.235828 0.580498 0.966926
O O1 0.847255 0.089694 0.259092
O O2 0.936045 0.083530 0.933208
O O3 0.474579 0.811617 0.711240
O O4 0.000000 0.000000 0.000000
O O5 0.335159 0.865057 0.426038
O O6 0.789085 0.042474 0.494070
O O7 0.320351 0.764706 0.966211
O O8 0.463135 0.760558 0.205774
O O9 0.277754 0.340511 0.147075
O O10 0.344218 0.381125 0.524582
O O11 0.888228 0.231834 0.204948
O O12 0.803467 0.657934 0.135040
O O13 0.615999 0.436879 0.034103
O O14 0.060164 0.469473 0.629416
O O15 0.000000 0.500000 0.000000
#
# Coordination Sequence:
#
# PCOD9031343 Si02
#       7
#     2   2   2   2   2   2   2
#     4  11  26  40  64  96 128 162 207 260 312 365
#     4  10  22  43  66  91 124 166 210 252 312 374
#     4  10  22  43  66  91 124 166 210 252 312 374
#     4  10  23  42  64  93 122 165 210 254 311 367
#     4  10  23  42  64  93 122 165 210 254 311 367
#     4  10  22  44  64  92 126 170 204 252 318 366
#     4  11  26  40  64  96 128 162 207 260 312 365
#
# _framework density 24.363983999999999
#
# number of rings (size 3 to 8) (size 9 to 14) (size 15 to 20)
#    0.000    1.714    1.429    0.857   10.000    3.429 
#    0.000    0.000    0.000    0.000    0.000    0.000 
#    0.000    0.000    0.000    0.000    0.000    0.000 
#
# Total GULP energy -78382.095849 kJ/mol
# GULP energy per Si atom -5598.721132 kJ/mol
# Density = 2.430853 g / cm^3
# Si number density = 24.363984 Si / 1000 Ang^3
#
#
#
# Elastic Constant Matrix: (Units=GPa)
#
#
# Indices 1 2 3 4 5 6 
#
# 1 46.0690 28.5443 5.5826 16.7017 -9.4317 4.5544
# 2 28.5443 75.3563 1.1436 15.5084 -11.4307 -0.7629
# 3 5.5826 1.1436 105.7148 14.0580 6.4637 -7.3746
# 4 16.7017 15.5084 14.0580 44.4543 -2.9801 -0.7095
# 5 -9.4317 -11.4307 6.4637 -2.9801 32.6414 9.2600
# 6 4.5544 -0.7629 -7.3746 -0.7095 9.2600 36.0033
#
#
#
# Elastic Compliance Matrix: (Units=1/GPa)
#
#
# Indices 1 2 3 4 5 6 
#
# 1 0.033137 -0.009757 -0.001503 -0.008167 0.007649 -0.006835
# 2 -0.009757 0.017925 0.000553 -0.002557 0.002847 0.000945
# 3 -0.001503 0.000553 0.010377 -0.003092 -0.003474 0.003160
# 4 -0.008167 -0.002557 -0.003092 0.027421 -0.000421 0.000994
# 5 0.007649 0.002847 -0.003474 -0.000421 0.037705 -0.011325
# 6 -0.006835 0.000945 0.003160 0.000994 -0.011325 0.032239
#
#
# Mechanical properties :
#
#
# Convention : Reuss Voigt Hill
#
# Bulk Modulus (GPa) = 24.98426 33.07568 29.02997
# Shear Modulus (GPa) = 25.83178 35.41110 30.62144
#
# Velocity S-wave (km/s) = 3.25967 3.81651 3.54903
# Velocity P-wave (km/s) = 4.94410 5.74684 5.36052
#
# Compressibility (1/GPa) = 0.04002520
#
# Stress axis : x y z
#
# Youngs Moduli (GPa) = 30.17805 55.78658 96.36818
#
# Poissons Ratio (x) = 0.54433 0.14482
# Poissons Ratio (y) = 0.29446 -0.05331
# Poissons Ratio (z) = 0.04535 -0.03086
#
# Static dielectric constant tensor:
#      x y z
#    x 1.891890 -0.057850 0.039150 
#    y -0.057850 1.988850 -0.038650 
#    z 0.039150 -0.038650 1.947630 
# 
# From -- ./inp_files/175482.got.cif
#   From: 2010.05.17/outbox.cif.g08.bks.cpg/sg2_88_cif.got.tgz:175482.got - 2010.06.03 11:33:40.
