data_PCOD9031642
_publ_section_title
;
Structure prediction by ZEFSAII (Michael W. Deem and Ramdas Pophale) SiO2 
 PCOD9031642
Probable space group: P -1
;
_chemical_formula_sum "Si O2"
_cell_formula_units_Z 15
_cell_length_a 6.877912
_cell_length_b 7.479490
_cell_length_c 17.733185
_cell_angle_alpha 115.412422
_cell_angle_beta 99.850000
_cell_angle_gamma 121.338367
_cell_volume 604.931850
_symmetry_space_group_name_H-M "P -1"
_symmetry_group_IT_number 2
_symmetry_cell_setting 'triclinic'
loop_
_space_group_symop_operation_xyz
x,y,z
-x,-y,-z
loop_
_atom_site_type_symbol
_atom_site_label
_atom_site_fract_x
_atom_site_fract_y
_atom_site_fract_z
Si Si1 0.714122 0.761833 0.975550
Si Si2 0.147202 0.979313 0.255864
Si Si3 0.350400 0.499775 0.654111
Si Si4 0.642402 0.750888 0.245743
Si Si5 0.828682 0.506156 0.052111
Si Si6 0.450612 0.938078 0.371226
Si Si7 0.860829 0.428920 0.584810
Si Si8 0.500000 0.500000 0.500000
O O1 0.566780 0.515920 0.863400
O O2 0.469799 0.746484 0.983086
O O3 0.785843 0.687672 0.041376
O O4 0.000000 0.000000 0.000000
O O5 0.316160 0.057521 0.359127
O O6 0.899036 0.951500 0.248259
O O7 0.017272 0.686194 0.167691
O O8 0.360546 0.214457 0.257493
O O9 0.269869 0.316089 0.686920
O O10 0.378527 0.396285 0.560343
O O11 0.157711 0.553377 0.633780
O O12 0.528279 0.877101 0.290650
O O13 0.000000 0.500000 0.000000
O O14 0.254509 0.668897 0.356344
O O15 0.701126 0.152554 0.477759
O O16 0.771328 0.561642 0.558349
#
# Coordination Sequence:
#
# PCOD9031642 Si02
#       8
#     2   2   2   2   2   2   2   1
#     4  10  22  43  68  99 131 172 223 268 330 406
#     4  11  24  42  65  95 131 170 219 269 324 391
#     4  12  25  42  64  97 128 173 220 267 321 386
#     4  11  24  43  67  93 135 170 215 274 324 386
#     4  10  22  43  67  97 135 173 212 274 340 391
#     4  11  23  42  62  93 127 175 216 264 327 376
#     4  11  25  42  64  89 132 170 218 271 319 385
#     4  12  24  42  62  92 126 172 218 266 324 374
#
# _framework density 24.796181000000001
#
# number of rings (size 3 to 8) (size 9 to 14) (size 15 to 20)
#    0.000    1.067    4.000    2.000    1.867    1.067 
#    2.400    0.000    0.000    0.000    0.000    0.000 
#    0.000    0.000    0.000    0.000    0.000    0.000 
#
# Total GULP energy -83602.192705 kJ/mol
# GULP energy per Si atom -5573.479514 kJ/mol
# Density = 2.473974 g / cm^3
# Si number density = 24.796181 Si / 1000 Ang^3
#
#
#
# Elastic Constant Matrix: (Units=GPa)
#
#
# Indices 1 2 3 4 5 6 
#
# 1 142.9459 30.9901 27.2359 13.0289 14.9305 38.6506
# 2 30.9901 88.8679 10.4731 6.1711 18.5546 19.7964
# 3 27.2359 10.4731 88.6030 4.2239 6.7406 22.2102
# 4 13.0289 6.1711 4.2239 40.6842 7.1371 17.8287
# 5 14.9305 18.5546 6.7406 7.1371 38.9465 -4.0448
# 6 38.6506 19.7964 22.2102 17.8287 -4.0448 53.1818
#
#
#
# Elastic Compliance Matrix: (Units=1/GPa)
#
#
# Indices 1 2 3 4 5 6 
#
# 1 0.009535 -0.000951 -0.000857 0.000846 -0.003916 -0.006800
# 2 -0.000951 0.014330 0.000628 0.002113 -0.007601 -0.006192
# 3 -0.000857 0.000628 0.013135 0.002022 -0.003240 -0.006021
# 4 0.000846 0.002113 0.002022 0.031176 -0.008782 -0.013365
# 5 -0.003916 -0.007601 -0.003240 -0.008782 0.034275 0.012579
# 6 -0.006800 -0.006192 -0.006021 -0.013365 0.012579 0.034002
#
#
# Mechanical properties :
#
#
# Convention : Reuss Voigt Hill
#
# Bulk Modulus (GPa) = 28.86721 50.86833 39.86777
# Shear Modulus (GPa) = 33.25387 43.34370 38.29878
#
# Velocity S-wave (km/s) = 3.66606 4.18544 3.93433
# Velocity P-wave (km/s) = 5.43940 6.62694 6.06232
#
# Compressibility (1/GPa) = 0.03464138
#
# Stress axis : x y z
#
# Youngs Moduli (GPa) = 104.87235 69.78443 76.13372
#
# Poissons Ratio (x) = 0.06635 0.06522
# Poissons Ratio (y) = 0.09971 -0.04782
# Poissons Ratio (z) = 0.08984 -0.04383
#
# Static dielectric constant tensor:
#      x y z
#    x 1.980300 0.090270 -0.011020 
#    y 0.090270 1.935470 -0.009010 
#    z -0.011020 -0.009010 1.992930 
# 
# From -- ./inp_files/582038.got.cif
#   From: 2010.05.17/outbox.cif.g08.bks.cpg/sg2_292_cif.got.tgz:582038.got - 2010.06.03 11:33:40.
