data_PCOD9031953
_publ_section_title
;
Structure prediction by ZEFSAII (Michael W. Deem and Ramdas Pophale) SiO2 
 PCOD9031953
Probable space group: P -1
;
_chemical_formula_sum "Si O2"
_cell_formula_units_Z 16
_cell_length_a 8.414158
_cell_length_b 13.494701
_cell_length_c 7.706558
_cell_angle_alpha 95.074531
_cell_angle_beta 54.864524
_cell_angle_gamma 70.113461
_cell_volume 625.294574
_symmetry_space_group_name_H-M "P -1"
_symmetry_group_IT_number 2
_symmetry_cell_setting 'triclinic'
loop_
_space_group_symop_operation_xyz
x,y,z
-x,-y,-z
loop_
_atom_site_type_symbol
_atom_site_label
_atom_site_fract_x
_atom_site_fract_y
_atom_site_fract_z
Si Si1 0.574216 0.128487 0.910375
Si Si2 0.316646 0.625685 0.605450
Si Si3 0.143544 0.355596 0.247419
Si Si4 0.070468 0.074684 0.161681
Si Si5 0.005395 0.763947 0.082803
Si Si6 0.955818 0.410602 0.736644
Si Si7 0.723654 0.988688 0.440240
Si Si8 0.786092 0.258122 0.638368
O O1 0.691034 0.205374 0.826485
O O2 0.642326 0.054343 0.682040
O O3 0.323359 0.224967 0.095605
O O4 0.303707 0.962831 0.030373
O O5 0.500000 0.500000 0.500000
O O6 0.252768 0.693343 0.837386
O O7 0.372205 0.685644 0.421909
O O8 0.090447 0.628049 0.677729
O O9 0.174087 0.454050 0.147974
O O10 0.131057 0.383113 0.466004
O O11 0.089397 0.145887 0.002136
O O12 0.992086 0.155500 0.393065
O O13 0.872980 0.040277 0.265022
O O14 0.952813 0.662861 0.156960
O O15 0.893784 0.854311 0.321374
O O16 0.813110 0.355630 0.735468
O O17 0.500000 0.000000 0.500000
#
# Coordination Sequence:
#
# PCOD9031953 Si02
#       8
#     2   2   2   2   2   2   2   2
#     4  11  22  43  75  97 140 187 226 277 348 421
#     4  10  23  45  65  97 139 184 223 276 352 416
#     4  10  24  45  67 102 135 178 231 285 345 410
#     4  10  22  43  69 100 140 185 229 275 349 416
#     4  11  23  42  69 101 139 179 228 284 341 409
#     4  10  22  45  66  99 141 168 237 286 335 404
#     4  11  23  42  67 106 140 175 234 291 337 404
#     4   9  20  41  69  97 136 181 227 272 345 416
#
# _framework density 25.587942999999999
#
# number of rings (size 3 to 8) (size 9 to 14) (size 15 to 20)
#    0.000    1.750    0.000    4.125    1.750    2.000 
#   18.000    6.875    0.000    0.000    0.000    0.000 
#    0.000    0.000    0.000    0.000    0.000    0.000 
#
# Total GULP energy -89292.826487 kJ/mol
# GULP energy per Si atom -5580.801655 kJ/mol
# Density = 2.552970 g / cm^3
# Si number density = 25.587943 Si / 1000 Ang^3
#
#
#
# Elastic Constant Matrix: (Units=GPa)
#
#
# Indices 1 2 3 4 5 6 
#
# 1 97.0394 41.1352 37.9958 6.1013 -5.7598 -4.5775
# 2 41.1352 216.2049 65.1999 0.3312 -1.3534 -42.8746
# 3 37.9958 65.1999 102.6977 18.2500 4.1448 -23.1505
# 4 6.1013 0.3312 18.2500 60.0132 -2.3071 -8.3278
# 5 -5.7598 -1.3534 4.1448 -2.3071 43.0866 7.2227
# 6 -4.5775 -42.8746 -23.1505 -8.3278 7.2227 39.8795
#
#
#
# Elastic Compliance Matrix: (Units=1/GPa)
#
#
# Indices 1 2 3 4 5 6 
#
# 1 0.012823 -0.001788 -0.004469 -0.000331 0.002673 -0.003598
# 2 -0.001788 0.007008 -0.002660 0.001797 -0.000721 0.006291
# 3 -0.004469 -0.002660 0.014996 -0.003495 -0.003179 0.005179
# 4 -0.000331 0.001797 -0.003495 0.018270 0.000732 0.003548
# 5 0.002673 -0.000721 -0.003179 0.000732 0.025010 -0.006691
# 6 -0.003598 0.006291 0.005179 0.003548 -0.006691 0.036385
#
#
# Mechanical properties :
#
#
# Convention : Reuss Voigt Hill
#
# Bulk Modulus (GPa) = 58.84809 78.28932 68.56871
# Shear Modulus (GPa) = 36.23452 46.70326 41.46889
#
# Velocity S-wave (km/s) = 3.76716 4.27688 4.03009
# Velocity P-wave (km/s) = 6.47845 7.41967 6.96498
#
# Compressibility (1/GPa) = 0.01699290
#
# Stress axis : x y z
#
# Youngs Moduli (GPa) = 77.98633 142.69903 66.68442
#
# Poissons Ratio (x) = 0.25519 0.29801
# Poissons Ratio (y) = 0.13947 0.17735
# Poissons Ratio (z) = 0.34852 0.37951
#
# Static dielectric constant tensor:
#      x y z
#    x 2.242050 -0.059180 0.023470 
#    y -0.059180 2.050360 -0.034190 
#    z 0.023470 -0.034190 2.120690 
# 
# From -- ./inp_files/201779.got.cif
#   From: 2010.05.17/outbox.cif.g08.bks.cpg/sg2_101_cif.got.tgz:201779.got - 2010.06.03 11:33:40.
