data_PCOD9031064
_publ_section_title
;
Structure prediction by ZEFSAII (Michael W. Deem and Ramdas Pophale) SiO2 
 PCOD9031064
Probable space group: P -1
;
_chemical_formula_sum "Si O2"
_cell_formula_units_Z 14
_cell_length_a 11.107442
_cell_length_b 7.762313
_cell_length_c 8.328491
_cell_angle_alpha 126.861166
_cell_angle_beta 84.775963
_cell_angle_gamma 107.758468
_cell_volume 543.156594
_symmetry_space_group_name_H-M "P -1"
_symmetry_group_IT_number 2
_symmetry_cell_setting 'triclinic'
loop_
_space_group_symop_operation_xyz
x,y,z
-x,-y,-z
loop_
_atom_site_type_symbol
_atom_site_label
_atom_site_fract_x
_atom_site_fract_y
_atom_site_fract_z
Si Si1 0.857416 0.693369 0.859312
Si Si2 0.856926 0.920947 0.677286
Si Si3 0.425197 0.530975 0.362806
Si Si4 0.379854 0.023817 0.388214
Si Si5 0.774996 0.979502 0.272415
Si Si6 0.018135 0.686469 0.371950
Si Si7 0.521252 0.841828 0.048885
O O1 0.899162 0.899256 0.841411
O O2 0.725423 0.540455 0.699939
O O3 0.953739 0.548071 0.785228
O O4 0.823397 0.780505 0.082953
O O5 0.709356 0.905253 0.692754
O O6 0.884189 0.717565 0.457113
O O7 0.930575 0.149270 0.696736
O O8 0.500000 0.500000 0.500000
O O9 0.482431 0.800368 0.496538
O O10 0.480818 0.399905 0.150781
O O11 0.297850 0.042953 0.562583
O O12 0.413713 0.818873 0.184440
O O13 0.664854 0.975817 0.160536
O O14 0.894913 0.195893 0.418877
O O15 0.500000 0.000000 0.000000
#
# Coordination Sequence:
#
# PCOD9031064 Si02
#       7
#     2   2   2   2   2   2   2
#     4  11  22  42  66  93 127 167 214 257 317 383
#     4  10  22  43  64  93 127 164 219 266 300 387
#     4  11  21  37  60  91 123 162 206 251 312 380
#     4  11  21  39  59  87 129 164 202 262 313 365
#     4  10  24  39  59  94 127 162 217 260 305 387
#     4  10  23  43  67  89 127 171 209 267 323 352
#     4  11  21  35  59  88 119 161 205 247 314 380
#
# _framework density 25.775254
#
# number of rings (size 3 to 8) (size 9 to 14) (size 15 to 20)
#    0.000    1.429    2.857    2.571    0.000    6.286 
#    0.000   10.714    0.000    0.000    0.000    0.000 
#    0.000    0.000    0.000    0.000    0.000    0.000 
#
# Total GULP energy -78168.271885 kJ/mol
# GULP energy per Si atom -5583.447992 kJ/mol
# Density = 2.571659 g / cm^3
# Si number density = 25.775254 Si / 1000 Ang^3
#
#
#
# Elastic Constant Matrix: (Units=GPa)
#
#
# Indices 1 2 3 4 5 6 
#
# 1 122.7947 8.4361 54.7614 6.9363 -15.7001 -19.0210
# 2 8.4361 73.2227 43.6373 -4.0578 -14.6700 -25.0350
# 3 54.7614 43.6373 157.0425 2.8994 -33.5830 -18.6198
# 4 6.9363 -4.0578 2.8994 34.4928 -12.2729 -3.5883
# 5 -15.7001 -14.6700 -33.5830 -12.2729 56.5730 4.9720
# 6 -19.0210 -25.0350 -18.6198 -3.5883 4.9720 42.8534
#
#
#
# Elastic Compliance Matrix: (Units=1/GPa)
#
#
# Indices 1 2 3 4 5 6 
#
# 1 0.010421 0.002608 -0.003637 -0.000716 0.000866 0.004408
# 2 0.002608 0.021025 -0.004770 0.004733 0.003372 0.011373
# 3 -0.003637 -0.004770 0.009668 0.000605 0.003675 -0.000576
# 4 -0.000716 0.004733 0.000605 0.033013 0.008152 0.004529
# 5 0.000866 0.003372 0.003675 0.008152 0.022564 0.002016
# 6 0.004408 0.011373 -0.000576 0.004529 0.002016 0.031831
#
#
# Mechanical properties :
#
#
# Convention : Reuss Voigt Hill
#
# Bulk Modulus (GPa) = 33.87994 62.96996 48.42495
# Shear Modulus (GPa) = 33.34267 43.19884 38.27075
#
# Velocity S-wave (km/s) = 3.60056 4.09832 3.85747
# Velocity P-wave (km/s) = 5.51890 6.84678 6.21838
#
# Compressibility (1/GPa) = 0.02951599
#
# Stress axis : x y z
#
# Youngs Moduli (GPa) = 95.96371 47.56172 103.43682
#
# Poissons Ratio (x) = -0.12404 0.37623
# Poissons Ratio (y) = -0.25028 0.49335
# Poissons Ratio (z) = 0.34905 0.22685
#
# Static dielectric constant tensor:
#      x y z
#    x 2.083200 0.015890 -0.002900 
#    y 0.015890 2.246360 -0.040890 
#    z -0.002900 -0.040890 2.033590 
# 
# From -- ./inp_files/241344.got.cif
#   From: 2010.05.17/outbox.cif.g08.bks.cpg/sg2_121_cif.got.tgz:241344.got - 2010.06.03 11:33:40.
