data_PCOD9031851
_publ_section_title
;
Structure prediction by ZEFSAII (Michael W. Deem and Ramdas Pophale) SiO2 
 PCOD9031851
Probable space group: P -1
;
_chemical_formula_sum "Si O2"
_cell_formula_units_Z 14
_cell_length_a 12.751162
_cell_length_b 7.762605
_cell_length_c 8.422694
_cell_angle_alpha 102.973251
_cell_angle_beta 65.602004
_cell_angle_gamma 133.970204
_cell_volume 543.956753
_symmetry_space_group_name_H-M "P -1"
_symmetry_group_IT_number 2
_symmetry_cell_setting 'triclinic'
loop_
_space_group_symop_operation_xyz
x,y,z
-x,-y,-z
loop_
_atom_site_type_symbol
_atom_site_label
_atom_site_fract_x
_atom_site_fract_y
_atom_site_fract_z
Si Si1 0.869608 0.851185 0.186945
Si Si2 0.526534 0.144726 0.254345
Si Si3 0.070816 0.204990 0.367980
Si Si4 0.722399 0.115611 0.897820
Si Si5 0.056314 0.466052 0.798172
Si Si6 0.319974 0.689386 0.502172
Si Si7 0.673516 0.709943 0.001496
O O1 0.901505 0.693727 0.215983
O O2 0.707438 0.692649 0.158800
O O3 0.918882 0.060207 0.318662
O O4 0.000000 0.000000 0.000000
O O5 0.387381 0.067936 0.213616
O O6 0.586909 0.307692 0.409021
O O7 0.442708 0.889517 0.341013
O O8 0.652275 0.212493 0.055071
O O9 0.175443 0.453449 0.448842
O O10 0.205481 0.266066 0.182664
O O11 0.000000 0.000000 0.500000
O O12 0.719702 0.960389 0.998106
O O13 0.897683 0.318952 0.765232
O O14 0.213962 0.712283 0.678975
O O15 0.000000 0.500000 0.000000
O O16 0.500000 0.500000 0.000000
#
# Coordination Sequence:
#
# PCOD9031851 Si02
#       7
#     2   2   2   2   2   2   2
#     4  10  22  43  68  96 135 175 221 276 326 401
#     4  10  25  43  67  95 145 169 219 282 346 388
#     4  11  21  41  68  94 134 172 217 274 333 388
#     4  11  22  44  66 100 126 180 226 273 323 414
#     4  12  23  41  72  97 127 175 232 270 331 403
#     4  11  23  44  66  97 136 178 214 286 340 393
#     4  11  24  41  69  97 131 175 228 264 331 403
#
# _framework density 25.737341000000001
#
# number of rings (size 3 to 8) (size 9 to 14) (size 15 to 20)
#    0.000    1.143    5.714    0.857    2.000    2.857 
#    0.000   12.857    0.000    0.000    0.000    0.000 
#    0.000    0.000    0.000    0.000    0.000    0.000 
#
# Total GULP energy -78065.863662 kJ/mol
# GULP energy per Si atom -5576.133119 kJ/mol
# Density = 2.567876 g / cm^3
# Si number density = 25.737341 Si / 1000 Ang^3
#
#
#
# Elastic Constant Matrix: (Units=GPa)
#
#
# Indices 1 2 3 4 5 6 
#
# 1 108.8891 29.1003 30.1042 8.8041 24.6910 39.3276
# 2 29.1003 106.5011 30.1142 8.9850 7.8123 46.5900
# 3 30.1042 30.1142 95.1441 0.8349 22.2115 20.6444
# 4 8.8041 8.9850 0.8349 58.4165 16.1393 5.0544
# 5 24.6910 7.8123 22.2115 16.1393 35.4514 -0.4878
# 6 39.3276 46.5900 20.6444 5.0544 -0.4878 52.3776
#
#
#
# Elastic Compliance Matrix: (Units=1/GPa)
#
#
# Indices 1 2 3 4 5 6 
#
# 1 0.017048 0.003100 0.000355 0.002206 -0.014004 -0.016041
# 2 0.003100 0.016566 -0.001461 -0.000172 -0.005043 -0.016517
# 3 0.000355 -0.001461 0.014381 0.003307 -0.010511 -0.005052
# 4 0.002206 -0.000172 0.003307 0.020816 -0.013114 -0.004937
# 5 -0.014004 -0.005043 -0.010511 -0.013114 0.051915 0.020892
# 6 -0.016041 -0.016517 -0.005052 -0.004937 0.020892 0.048491
#
#
# Mechanical properties :
#
#
# Convention : Reuss Voigt Hill
#
# Bulk Modulus (GPa) = 19.23734 54.35243 36.79488
# Shear Modulus (GPa) = 27.38874 43.99681 35.69277
#
# Velocity S-wave (km/s) = 3.26569 4.13904 3.72803
# Velocity P-wave (km/s) = 4.65944 6.63371 5.73221
#
# Compressibility (1/GPa) = 0.05198224
#
# Stress axis : x y z
#
# Youngs Moduli (GPa) = 58.65960 60.36511 69.53382
#
# Poissons Ratio (x) = -0.18712 -0.02470
# Poissons Ratio (y) = -0.18183 0.10162
# Poissons Ratio (z) = -0.02084 0.08822
#
# Static dielectric constant tensor:
#      x y z
#    x 2.091250 0.049710 0.022100 
#    y 0.049710 2.193200 0.054320 
#    z 0.022100 0.054320 2.120260 
# 
# From -- ./inp_files/239640.got.cif
#   From: 2010.05.17/outbox.cif.g08.bks.cpg/sg2_120_cif.got.tgz:239640.got - 2010.06.03 11:33:40.
