data_PCOD9031066
_publ_section_title
;
Structure prediction by ZEFSAII (Michael W. Deem and Ramdas Pophale) SiO2 
 PCOD9031066
Probable space group: P -1
;
_chemical_formula_sum "Si O2"
_cell_formula_units_Z 16
_cell_length_a 8.411763
_cell_length_b 17.353717
_cell_length_c 6.534283
_cell_angle_alpha 123.420810
_cell_angle_beta 84.832711
_cell_angle_gamma 115.428496
_cell_volume 705.299662
_symmetry_space_group_name_H-M "P -1"
_symmetry_group_IT_number 2
_symmetry_cell_setting 'triclinic'
loop_
_space_group_symop_operation_xyz
x,y,z
-x,-y,-z
loop_
_atom_site_type_symbol
_atom_site_label
_atom_site_fract_x
_atom_site_fract_y
_atom_site_fract_z
Si Si1 0.152235 0.356565 0.173607
Si Si2 0.957195 0.169699 0.597305
Si Si3 0.517212 0.372403 0.024651
Si Si4 0.648127 0.963123 0.476633
Si Si5 0.177474 0.536514 0.165123
Si Si6 0.467644 0.781211 0.919009
Si Si7 0.159061 0.736721 0.615011
Si Si8 0.320563 0.188064 0.455536
O O1 0.145903 0.458703 0.240047
O O2 0.037887 0.317404 0.337300
O O3 0.362972 0.385096 0.185779
O O4 0.049851 0.264706 0.884839
O O5 0.844769 0.197666 0.483747
O O6 0.111606 0.155084 0.439573
O O7 0.835785 0.063494 0.571671
O O8 0.667539 0.461941 0.001881
O O9 0.410420 0.282818 0.741016
O O10 0.612011 0.323867 0.092940
O O11 0.640891 0.905300 0.604738
O O12 0.500000 0.000000 0.500000
O O13 0.601108 0.873935 0.182140
O O14 0.215487 0.649539 0.405849
O O15 0.000000 0.500000 0.000000
O O16 0.307640 0.797956 0.860607
O O17 0.591958 0.774763 0.717748
#
# Coordination Sequence:
#
# PCOD9031066 Si02
#       8
#     2   2   2   2   2   2   2   2
#     4  11  24  43  65  94 130 170 212 263 316 375
#     4  11  24  42  64  93 132 168 211 263 316 375
#     4  10  23  43  65  94 131 168 209 261 321 375
#     4  11  24  39  65  95 127 168 214 259 318 374
#     4  12  23  43  67  94 128 168 212 265 319 374
#     4  11  23  41  67  93 129 166 212 263 313 379
#     4  12  24  41  67  95 129 166 217 261 316 376
#     4  10  22  43  64  93 129 168 210 262 317 376
#
# _framework density 22.685393999999999
#
# number of rings (size 3 to 8) (size 9 to 14) (size 15 to 20)
#    0.000    1.000    2.500    4.125    1.750    3.500 
#    0.000    1.250    0.000    0.000    0.000    0.000 
#    0.000    0.000    0.000    0.000    0.000    0.000 
#
# Total GULP energy -89499.235868 kJ/mol
# GULP energy per Si atom -5593.702242 kJ/mol
# Density = 2.263376 g / cm^3
# Si number density = 22.685394 Si / 1000 Ang^3
#
#
#
# Elastic Constant Matrix: (Units=GPa)
#
#
# Indices 1 2 3 4 5 6 
#
# 1 64.1673 -9.6035 -1.1975 7.1365 -7.1070 12.5531
# 2 -9.6035 62.0077 -0.5079 -1.0027 3.8029 3.7086
# 3 -1.1975 -0.5079 39.6071 -7.8162 -2.7341 -2.2868
# 4 7.1365 -1.0027 -7.8162 22.5826 7.7442 -4.5864
# 5 -7.1070 3.8029 -2.7341 7.7442 36.0232 -8.6484
# 6 12.5531 3.7086 -2.2868 -4.5864 -8.6484 43.0211
#
#
#
# Elastic Compliance Matrix: (Units=1/GPa)
#
#
# Indices 1 2 3 4 5 6 
#
# 1 0.018503 0.002842 -0.001184 -0.008593 0.003696 -0.005880
# 2 0.002842 0.016838 0.000011 -0.000055 -0.001842 -0.002656
# 3 -0.001184 0.000011 0.027453 0.010366 0.000335 0.002976
# 4 -0.008593 -0.000055 0.010366 0.055822 -0.011284 0.006746
# 5 0.003696 -0.001842 0.000335 -0.011284 0.032183 0.004365
# 6 -0.005880 -0.002656 0.002976 0.006746 0.004365 0.026944
#
#
# Mechanical properties :
#
#
# Convention : Reuss Voigt Hill
#
# Bulk Modulus (GPa) = 15.12156 15.90715 15.51435
# Shear Modulus (GPa) = 25.45180 32.13144 28.79162
#
# Velocity S-wave (km/s) = 3.35318 3.76758 3.56641
# Velocity P-wave (km/s) = 4.65532 5.09446 4.87983
#
# Compressibility (1/GPa) = 0.06613074
#
# Stress axis : x y z
#
# Youngs Moduli (GPa) = 54.04590 59.38864 36.42586
#
# Poissons Ratio (x) = -0.16878 0.04313
# Poissons Ratio (y) = -0.15360 -0.00038
# Poissons Ratio (z) = 0.06400 -0.00063
#
# Static dielectric constant tensor:
#      x y z
#    x 1.867630 0.016330 0.007920 
#    y 0.016330 1.820630 0.041880 
#    z 0.007920 0.041880 1.885870 
# 
# From -- ./inp_files/39824.got.cif
#   From: 2010.05.17/outbox.cif.g08.bks.cpg/sg2_20_cif.got.tgz:39824.got - 2010.06.03 11:33:40.
