data_PCOD9031946
_publ_section_title
;
Structure prediction by ZEFSAII (Michael W. Deem and Ramdas Pophale) SiO2 
 PCOD9031946
Probable space group: P -1
;
_chemical_formula_sum "Si O2"
_cell_formula_units_Z 16
_cell_length_a 8.734980
_cell_length_b 26.516482
_cell_length_c 11.879968
_cell_angle_alpha 29.862621
_cell_angle_beta 39.403312
_cell_angle_gamma 30.282341
_cell_volume 687.779603
_symmetry_space_group_name_H-M "P -1"
_symmetry_group_IT_number 2
_symmetry_cell_setting 'triclinic'
loop_
_space_group_symop_operation_xyz
x,y,z
-x,-y,-z
loop_
_atom_site_type_symbol
_atom_site_label
_atom_site_fract_x
_atom_site_fract_y
_atom_site_fract_z
Si Si1 0.575520 0.894569 0.569931
Si Si2 0.779333 0.354191 0.362313
Si Si3 0.415699 0.279826 0.481782
Si Si4 0.253885 0.351717 0.678466
Si Si5 0.160126 0.617889 0.488794
Si Si6 0.300852 0.632333 0.998434
Si Si7 0.841453 0.199411 0.026237
Si Si8 0.314273 0.969273 0.334908
O O1 0.363616 0.847434 0.791533
O O2 0.501736 0.952116 0.372526
O O3 0.930594 0.772545 0.613378
O O4 0.500000 0.000000 0.500000
O O5 0.541706 0.337595 0.590864
O O6 0.916955 0.376881 0.347326
O O7 0.561796 0.480829 0.165332
O O8 0.409285 0.265177 0.645760
O O9 0.511027 0.160510 0.583374
O O10 0.067872 0.394326 0.427007
O O11 0.617487 0.318980 0.246679
O O12 0.000000 0.500000 0.500000
O O13 0.037702 0.325495 0.909515
O O14 0.500000 0.500000 0.500000
O O15 0.126961 0.737394 0.221814
O O16 0.296032 0.699825 0.986245
O O17 0.177866 0.084975 0.102059
O O18 0.000000 0.000000 0.500000
#
# Coordination Sequence:
#
# PCOD9031946 Si02
#       8
#     2   2   2   2   2   2   2   2
#     4  11  25  46  69 104 144 182 236 298 352 419
#     4  11  24  43  66 102 148 178 227 300 367 409
#     4  12  23  43  77  99 135 196 236 283 355 423
#     4  10  24  45  63 105 147 178 234 296 350 427
#     4  12  23  43  71 106 141 173 233 306 350 418
#     4  11  22  44  75 104 134 186 243 289 352 428
#     4  11  23  44  70 102 139 186 235 291 344 416
#     4  10  22  43  69 100 136 182 245 280 331 433
#
# _framework density 23.263266999999999
#
# number of rings (size 3 to 8) (size 9 to 14) (size 15 to 20)
#    0.000    1.000    6.250    0.750    5.250    3.500 
#    4.500    0.625    0.000    0.000    0.000    0.000 
#    0.000    0.000    0.000    0.000    0.000    0.000 
#
# Total GULP energy -89407.803736 kJ/mol
# GULP energy per Si atom -5587.987734 kJ/mol
# Density = 2.321032 g / cm^3
# Si number density = 23.263267 Si / 1000 Ang^3
#
#
#
# Elastic Constant Matrix: (Units=GPa)
#
#
# Indices 1 2 3 4 5 6 
#
# 1 88.5041 39.8970 20.5789 -15.0909 -4.6785 3.7502
# 2 39.8970 147.7369 43.6515 -12.0072 -2.8276 4.4335
# 3 20.5789 43.6515 100.6283 5.8800 -7.1303 -17.7182
# 4 -15.0909 -12.0072 5.8800 29.5505 -10.8829 -10.1906
# 5 -4.6785 -2.8276 -7.1303 -10.8829 37.7446 1.2464
# 6 3.7502 4.4335 -17.7182 -10.1906 1.2464 45.9334
#
#
#
# Elastic Compliance Matrix: (Units=1/GPa)
#
#
# Indices 1 2 3 4 5 6 
#
# 1 0.014508 -0.002581 -0.002076 0.008062 0.003539 -0.000044
# 2 -0.002581 0.008824 -0.003684 0.002658 0.000461 -0.001485
# 3 -0.002076 -0.003684 0.013058 -0.003171 0.000859 0.004835
# 4 0.008062 0.002658 -0.003171 0.047623 0.014065 0.008046
# 5 0.003539 0.000461 0.000859 0.014065 0.031110 0.002274
# 6 -0.000044 -0.001485 0.004835 0.008046 0.002274 0.025506
#
#
# Mechanical properties :
#
#
# Convention : Reuss Voigt Hill
#
# Bulk Modulus (GPa) = 50.73727 60.56936 55.65332
# Shear Modulus (GPa) = 30.51054 38.16183 34.33618
#
# Velocity S-wave (km/s) = 3.62544 4.05462 3.84602
# Velocity P-wave (km/s) = 6.27554 6.92914 6.61042
#
# Compressibility (1/GPa) = 0.01970938
#
# Stress axis : x y z
#
# Youngs Moduli (GPa) = 68.92590 113.33275 76.58361
#
# Poissons Ratio (x) = 0.29246 0.15896
# Poissons Ratio (y) = 0.17786 0.28213
# Poissons Ratio (z) = 0.14306 0.41751
#
# Static dielectric constant tensor:
#      x y z
#    x 1.984510 0.001830 0.021140 
#    y 0.001830 1.884660 -0.020760 
#    z 0.021140 -0.020760 1.944140 
# 
# From -- ./inp_files/407315.got.cif
#   From: 2010.05.17/outbox.cif.g08.bks.cpg/sg2_204_cif.got.tgz:407315.got - 2010.06.03 11:33:40.
