data_PCOD9031608
_publ_section_title
;
Structure prediction by ZEFSAII (Michael W. Deem and Ramdas Pophale) SiO2 
 PCOD9031608
Probable space group: P -1
;
_chemical_formula_sum "Si O2"
_cell_formula_units_Z 14
_cell_length_a 16.668566
_cell_length_b 9.192485
_cell_length_c 6.991651
_cell_angle_alpha 134.401568
_cell_angle_beta 97.513154
_cell_angle_gamma 58.902198
_cell_volume 607.040205
_symmetry_space_group_name_H-M "P -1"
_symmetry_group_IT_number 2
_symmetry_cell_setting 'triclinic'
loop_
_space_group_symop_operation_xyz
x,y,z
-x,-y,-z
loop_
_atom_site_type_symbol
_atom_site_label
_atom_site_fract_x
_atom_site_fract_y
_atom_site_fract_z
Si Si1 0.458743 0.508205 0.786812
Si Si2 0.424151 0.925582 0.884189
Si Si3 0.897991 0.249790 0.283629
Si Si4 0.966043 0.356548 0.738089
Si Si5 0.825621 0.113033 0.506443
Si Si6 0.249489 0.234377 0.863990
Si Si7 0.718581 0.512100 0.169704
O O1 0.424591 0.770838 0.919104
O O2 0.541749 0.272335 0.462611
O O3 0.368714 0.479677 0.744580
O O4 0.500000 0.500000 0.000000
O O5 0.314922 0.175631 0.019198
O O6 0.500000 0.000000 0.000000
O O7 0.934244 0.399303 0.544977
O O8 0.813629 0.400810 0.235883
O O9 0.850803 0.175609 0.366662
O O10 0.000000 0.000000 0.000000
O O11 0.064497 0.067740 0.522549
O O12 0.856778 0.482107 0.913651
O O13 0.000000 0.500000 0.000000
O O14 0.782910 0.950111 0.314231
O O15 0.746022 0.333464 0.828672
O O16 0.309582 0.227869 0.693355
#
# Coordination Sequence:
#
# PCOD9031608 Si02
#       7
#     2   2   2   2   2   2   2
#     4  11  26  48  72 102 135 181 230 281 345 411
#     4  11  26  47  72 101 139 176 226 290 345 403
#     4  12  23  42  72  99 136 185 232 276 333 406
#     4  10  22  43  67  95 140 183 218 276 339 396
#     4  11  23  46  66  97 146 180 223 283 336 398
#     4  11  24  44  68  98 140 180 219 285 343 398
#     4  12  25  42  72 102 136 182 232 278 339 406
#
# _framework density 23.062722000000001
#
# number of rings (size 3 to 8) (size 9 to 14) (size 15 to 20)
#    0.000    0.857    2.857    3.857    2.000    5.714 
#    5.143    4.286    0.000    0.000    0.000    0.000 
#    0.000    0.000    0.000    0.000    0.000    0.000 
#
# Total GULP energy -78184.183658 kJ/mol
# GULP energy per Si atom -5584.584547 kJ/mol
# Density = 2.301023 g / cm^3
# Si number density = 23.062722 Si / 1000 Ang^3
#
#
#
# Elastic Constant Matrix: (Units=GPa)
#
#
# Indices 1 2 3 4 5 6 
#
# 1 133.2767 57.9324 16.3149 -14.5320 12.9224 2.0888
# 2 57.9324 149.8022 18.5808 -32.8855 1.7726 -0.3136
# 3 16.3149 18.5808 95.5123 -20.8727 5.8288 5.7569
# 4 -14.5320 -32.8855 -20.8727 36.8215 -7.7696 0.8911
# 5 12.9224 1.7726 5.8288 -7.7696 38.3723 -8.4110
# 6 2.0888 -0.3136 5.7569 0.8911 -8.4110 43.7407
#
#
#
# Elastic Compliance Matrix: (Units=1/GPa)
#
#
# Indices 1 2 3 4 5 6 
#
# 1 0.009451 -0.003663 -0.000786 -0.000647 -0.003241 -0.000984
# 2 -0.003663 0.009775 0.000280 0.007950 0.002463 0.000520
# 3 -0.000786 0.000280 0.012173 0.006752 -0.000630 -0.001821
# 4 -0.000647 0.007950 0.006752 0.039252 0.006705 -0.000311
# 5 -0.003241 0.002463 -0.000630 0.006705 0.029772 0.005844
# 6 -0.000984 0.000520 -0.001821 -0.000311 0.005844 0.024282
#
#
# Mechanical properties :
#
#
# Convention : Reuss Voigt Hill
#
# Bulk Modulus (GPa) = 43.36551 62.69415 53.02983
# Shear Modulus (GPa) = 35.52885 42.83777 39.18331
#
# Velocity S-wave (km/s) = 3.92922 4.31449 4.12635
# Velocity P-wave (km/s) = 6.27926 7.21546 6.76358
#
# Compressibility (1/GPa) = 0.02305980
#
# Stress axis : x y z
#
# Youngs Moduli (GPa) = 105.81128 102.30666 82.14679
#
# Poissons Ratio (x) = 0.37477 0.06457
# Poissons Ratio (y) = 0.38761 -0.02299
# Poissons Ratio (z) = 0.08318 -0.02863
#
# Static dielectric constant tensor:
#      x y z
#    x 1.962190 0.075350 0.036260 
#    y 0.075350 1.922210 0.066550 
#    z 0.036260 0.066550 1.955010 
# 
# From -- ./inp_files/107616.got.cif
#   From: 2010.05.17/outbox.cif.g08.bks.cpg/sg2_54_cif.got.tgz:107616.got - 2010.06.03 11:33:40.
