data_PCOD9031809
_publ_section_title
;
Structure prediction by ZEFSAII (Michael W. Deem and Ramdas Pophale) SiO2 
 PCOD9031809
Probable space group: P -1
;
_chemical_formula_sum "Si O2"
_cell_formula_units_Z 16
_cell_length_a 11.416613
_cell_length_b 14.592739
_cell_length_c 9.327448
_cell_angle_alpha 39.745239
_cell_angle_beta 76.840433
_cell_angle_gamma 52.007116
_cell_volume 683.666180
_symmetry_space_group_name_H-M "P -1"
_symmetry_group_IT_number 2
_symmetry_cell_setting 'triclinic'
loop_
_space_group_symop_operation_xyz
x,y,z
-x,-y,-z
loop_
_atom_site_type_symbol
_atom_site_label
_atom_site_fract_x
_atom_site_fract_y
_atom_site_fract_z
Si Si1 0.728139 0.722821 0.186954
Si Si2 0.354093 0.564617 0.066611
Si Si3 0.964854 0.174628 0.720747
Si Si4 0.681405 0.689467 0.770189
Si Si5 0.123808 0.318355 0.511073
Si Si6 0.084862 0.030523 0.555765
Si Si7 0.309752 0.085409 0.291789
Si Si8 0.594526 0.554650 0.481327
O O1 0.767824 0.703902 0.366532
O O2 0.577614 0.730384 0.212269
O O3 0.924958 0.530433 0.309657
O O4 0.679469 0.905720 0.892403
O O5 0.267351 0.510351 0.061762
O O6 0.421878 0.445210 0.342308
O O7 0.500000 0.500000 0.000000
O O8 0.234193 0.800943 0.851557
O O9 0.792220 0.371906 0.603451
O O10 0.116745 0.155747 0.732538
O O11 0.960710 0.168843 0.556636
O O12 0.000000 0.000000 0.000000
O O13 0.790268 0.710189 0.624473
O O14 0.703593 0.736340 0.865760
O O15 0.483809 0.875194 0.560222
O O16 0.162671 0.105095 0.367523
O O17 0.000000 0.000000 0.500000
O O18 0.500000 0.500000 0.500000
#
# Coordination Sequence:
#
# PCOD9031809 Si02
#       8
#     2   2   2   2   2   2   2   2
#     4  10  24  42  68  99 132 170 227 279 333 401
#     4  12  26  47  69 100 141 180 226 284 344 405
#     4  11  24  45  68  96 136 184 227 281 334 402
#     4  11  24  45  69  94 138 179 224 278 342 401
#     4  10  22  43  68  94 130 178 224 275 336 396
#     4  12  28  44  68 105 140 179 230 281 342 403
#     4  11  26  44  66 103 135 178 227 279 337 404
#     4  11  26  44  70 102 135 180 228 277 347 405
#
# _framework density 23.403234000000001
#
# number of rings (size 3 to 8) (size 9 to 14) (size 15 to 20)
#    0.000    1.000    5.000    0.000    7.000    3.000 
#    0.000    0.000    0.000    0.000    0.000    0.000 
#    0.000    0.000    0.000    0.000    0.000    0.000 
#
# Total GULP energy -89338.042180 kJ/mol
# GULP energy per Si atom -5583.627636 kJ/mol
# Density = 2.334997 g / cm^3
# Si number density = 23.403234 Si / 1000 Ang^3
#
#
#
# Elastic Constant Matrix: (Units=GPa)
#
#
# Indices 1 2 3 4 5 6 
#
# 1 130.3523 10.1556 21.0525 12.4066 -27.1913 0.3369
# 2 10.1556 85.0332 2.2633 21.2491 -5.5658 -5.4375
# 3 21.0525 2.2633 71.7363 21.7565 -18.7055 -4.5117
# 4 12.4066 21.2491 21.7565 26.7817 0.5036 -13.1872
# 5 -27.1913 -5.5658 -18.7055 0.5036 39.0088 8.8769
# 6 0.3369 -5.4375 -4.5117 -13.1872 8.8769 31.3126
#
#
#
# Elastic Compliance Matrix: (Units=1/GPa)
#
#
# Indices 1 2 3 4 5 6 
#
# 1 0.010691 0.002363 0.003543 -0.014059 0.011581 -0.008398
# 2 0.002363 0.018909 0.010490 -0.030579 0.012416 -0.011628
# 3 0.003543 0.010490 0.031506 -0.045764 0.024172 -0.019803
# 4 -0.014059 -0.030579 -0.045764 0.135833 -0.051529 0.060061
# 5 0.011581 0.012416 0.024172 -0.051529 0.054965 -0.031769
# 6 -0.008398 -0.011628 -0.019803 0.060061 -0.031769 0.061455
#
#
# Mechanical properties :
#
#
# Convention : Reuss Voigt Hill
#
# Bulk Modulus (GPa) = 10.64971 39.34053 24.99512
# Shear Modulus (GPa) = 16.03259 36.33064 26.18161
#
# Velocity S-wave (km/s) = 2.62020 3.94430 3.34835
# Velocity P-wave (km/s) = 3.70329 6.13104 5.06478
#
# Compressibility (1/GPa) = 0.09389930
#
# Stress axis : x y z
#
# Youngs Moduli (GPa) = 93.53926 52.88443 31.74001
#
# Poissons Ratio (x) = -0.12497 -0.11247
# Poissons Ratio (y) = -0.22104 -0.33296
# Poissons Ratio (z) = -0.33145 -0.55477
#
# Static dielectric constant tensor:
#      x y z
#    x 1.920460 0.078120 -0.013330 
#    y 0.078120 1.902620 -0.148920 
#    z -0.013330 -0.148920 2.106280 
# 
# From -- ./inp_files/226676.got.cif
#   From: 2010.05.17/outbox.cif.g08.bks.cpg/sg2_114_cif.got.tgz:226676.got - 2010.06.03 11:33:40.
