data_PCOD9031900
_publ_section_title
;
Structure prediction by ZEFSAII (Michael W. Deem and Ramdas Pophale) SiO2 
 PCOD9031900
Probable space group: P -1
;
_chemical_formula_sum "Si O2"
_cell_formula_units_Z 14
_cell_length_a 31.440331
_cell_length_b 5.195259
_cell_length_c 12.200168
_cell_angle_alpha 116.981058
_cell_angle_beta 159.446870
_cell_angle_gamma 64.442615
_cell_volume 623.330576
_symmetry_space_group_name_H-M "P -1"
_symmetry_group_IT_number 2
_symmetry_cell_setting 'triclinic'
loop_
_space_group_symop_operation_xyz
x,y,z
-x,-y,-z
loop_
_atom_site_type_symbol
_atom_site_label
_atom_site_fract_x
_atom_site_fract_y
_atom_site_fract_z
Si Si1 0.062633 0.304399 0.707156
Si Si2 0.884918 0.705575 0.740070
Si Si3 0.383033 0.685031 0.289096
Si Si4 0.234776 0.164086 0.923455
Si Si5 0.475642 0.102174 0.781429
Si Si6 0.628392 0.651280 0.207676
Si Si7 0.029082 0.222007 0.272885
O O1 0.196120 0.244168 0.970444
O O2 0.000000 0.500000 0.500000
O O3 0.035401 0.482031 0.785194
O O4 0.000000 0.000000 0.500000
O O5 0.763498 0.595344 0.480128
O O6 0.882751 0.738575 0.610242
O O7 0.000000 0.500000 0.000000
O O8 0.923007 0.010183 0.942013
O O9 0.500000 0.500000 0.500000
O O10 0.418865 0.894994 0.514991
O O11 0.287418 0.450489 0.052491
O O12 0.326558 0.893016 0.099309
O O13 0.114476 0.093963 0.550695
O O14 0.381451 0.236413 0.668958
O O15 0.546739 0.367592 0.950790
O O16 0.570110 0.904247 0.040846
#
# Coordination Sequence:
#
# PCOD9031900 Si02
#       7
#     2   2   2   2   2   2   2
#     4  10  22  43  68  98 134 181 231 273 337 428
#     4  11  27  42  72 107 143 188 229 294 358 427
#     4  12  27  44  69 108 135 182 236 292 352 418
#     4  11  25  45  72  98 142 189 222 290 356 409
#     4  10  24  48  72 101 132 183 243 286 342 402
#     4  10  24  47  75  97 138 184 231 296 340 403
#     4  10  26  45  66 109 141 185 234 280 362 432
#
# _framework density 22.459992
#
# number of rings (size 3 to 8) (size 9 to 14) (size 15 to 20)
#    0.000    1.429    0.000    3.000   14.000    1.143 
#    0.000    0.000    0.000    0.000    0.000    0.000 
#    0.000    0.000    0.000    0.000    0.000    0.000 
#
# Total GULP energy -78345.574091 kJ/mol
# GULP energy per Si atom -5596.112435 kJ/mol
# Density = 2.240887 g / cm^3
# Si number density = 22.459992 Si / 1000 Ang^3
#
#
#
# Elastic Constant Matrix: (Units=GPa)
#
#
# Indices 1 2 3 4 5 6 
#
# 1 81.9313 29.4827 40.3826 9.8612 7.9711 -11.6070
# 2 29.4827 123.3732 11.7570 4.2903 -5.2434 -2.7428
# 3 40.3826 11.7570 42.8933 -11.7817 5.3678 -16.1509
# 4 9.8612 4.2903 -11.7817 42.5437 -0.5195 3.5894
# 5 7.9711 -5.2434 5.3678 -0.5195 35.3903 6.1610
# 6 -11.6070 -2.7428 -16.1509 3.5894 6.1610 28.3418
#
#
#
# Elastic Compliance Matrix: (Units=1/GPa)
#
#
# Indices 1 2 3 4 5 6 
#
# 1 0.033079 -0.004048 -0.036314 -0.016919 -0.001924 -0.004978
# 2 -0.004048 0.009061 0.000815 0.000351 0.002285 -0.000858
# 3 -0.036314 0.000815 0.075563 0.026939 -0.007372 0.026458
# 4 -0.016919 0.000351 0.026939 0.034493 -0.000445 0.004185
# 5 -0.001924 0.002285 -0.007372 -0.000445 0.032178 -0.011706
# 6 -0.004978 -0.000858 0.026458 0.004185 -0.011706 0.050254
#
#
# Mechanical properties :
#
#
# Convention : Reuss Voigt Hill
#
# Bulk Modulus (GPa) = 25.90074 45.71581 35.80828
# Shear Modulus (GPa) = 15.30959 32.36018 23.83488
#
# Velocity S-wave (km/s) = 2.61365 3.79989 3.26116
# Velocity P-wave (km/s) = 4.54590 6.29689 5.49163
#
# Compressibility (1/GPa) = 0.03860893
#
# Stress axis : x y z
#
# Youngs Moduli (GPa) = 30.23048 110.36151 13.23399
#
# Poissons Ratio (x) = 0.44680 0.48058
# Poissons Ratio (y) = 0.12239 -0.01079
# Poissons Ratio (z) = 1.09779 -0.08998
#
# Static dielectric constant tensor:
#      x y z
#    x 1.835620 -0.088940 0.055150 
#    y -0.088940 1.729440 0.089810 
#    z 0.055150 0.089810 1.708140 
# 
# From -- ./inp_files/363121.got.cif
#   From: 2010.05.17/outbox.cif.g08.bks.cpg/sg2_182_cif.got.tgz:363121.got - 2010.06.03 11:33:40.
