data_PCOD9031418
_publ_section_title
;
Structure prediction by ZEFSAII (Michael W. Deem and Ramdas Pophale) SiO2 
 PCOD9031418
Probable space group: P -1
;
_chemical_formula_sum "Si O2"
_cell_formula_units_Z 16
_cell_length_a 8.776258
_cell_length_b 14.568778
_cell_length_c 24.794616
_cell_angle_alpha 157.953036
_cell_angle_beta 46.419737
_cell_angle_gamma 121.813513
_cell_volume 785.804051
_symmetry_space_group_name_H-M "P -1"
_symmetry_group_IT_number 2
_symmetry_cell_setting 'triclinic'
loop_
_space_group_symop_operation_xyz
x,y,z
-x,-y,-z
loop_
_atom_site_type_symbol
_atom_site_label
_atom_site_fract_x
_atom_site_fract_y
_atom_site_fract_z
Si Si1 0.211350 0.847120 0.782238
Si Si2 0.890738 0.789270 0.422416
Si Si3 0.676390 0.062730 0.027800
Si Si4 0.687343 0.742704 0.955441
Si Si5 0.279588 0.564736 0.945964
Si Si6 0.761638 0.963974 0.316462
Si Si7 0.624435 0.626428 0.306630
Si Si8 0.526596 0.685649 0.513257
O O1 0.378725 0.751306 0.638809
O O2 0.301949 0.625726 0.687610
O O3 0.949263 0.904689 0.863351
O O4 0.232600 0.119804 0.941447
O O5 0.791522 0.723016 0.354049
O O6 0.687358 0.840679 0.543427
O O7 0.097000 0.532624 0.256961
O O8 0.000000 0.000000 0.500000
O O9 0.639419 0.956107 0.036092
O O10 0.500000 0.000000 0.000000
O O11 0.623510 0.372364 0.201281
O O12 0.471290 0.667304 0.972080
O O13 0.319787 0.277374 0.804907
O O14 0.296951 0.490453 0.836620
O O15 0.035685 0.795260 0.150761
O O16 0.630208 0.124368 0.490102
O O17 0.664828 0.199649 0.424385
#
# Coordination Sequence:
#
# PCOD9031418 Si02
#       8
#     2   2   2   2   2   2   2   2
#     4  11  23  43  68  95 134 175 213 286 334 395
#     4  11  23  42  69  98 128 171 227 273 325 410
#     4  12  23  41  70  98 131 172 221 275 337 406
#     4  12  22  40  65  98 130 169 227 266 340 394
#     4  11  24  44  64  97 136 178 224 279 330 406
#     4  10  23  43  66  94 135 176 225 277 330 399
#     4  11  22  44  69  94 131 180 218 279 341 389
#     4  10  22  43  66  96 133 170 223 275 337 390
#
# _framework density 20.36131
#
# number of rings (size 3 to 8) (size 9 to 14) (size 15 to 20)
#    0.000    1.000    3.750    4.500    0.000    0.000 
#   11.250    2.500    0.000    0.000    0.000    0.000 
#    0.000    0.000    0.000    0.000    0.000    0.000 
#
# Total GULP energy -89111.325749 kJ/mol
# GULP energy per Si atom -5569.457859 kJ/mol
# Density = 2.031497 g / cm^3
# Si number density = 20.361310 Si / 1000 Ang^3
#
#
#
# Elastic Constant Matrix: (Units=GPa)
#
#
# Indices 1 2 3 4 5 6 
#
# 1 91.7940 39.7282 30.0779 -1.0877 -5.3755 27.9045
# 2 39.7282 86.3012 30.7262 -5.9186 -7.8284 27.0458
# 3 30.0779 30.7262 114.4103 -0.1519 -25.5220 15.1072
# 4 -1.0877 -5.9186 -0.1519 29.4614 1.4271 -8.9868
# 5 -5.3755 -7.8284 -25.5220 1.4271 25.1159 2.7899
# 6 27.9045 27.0458 15.1072 -8.9868 2.7899 41.6170
#
#
#
# Elastic Compliance Matrix: (Units=1/GPa)
#
#
# Indices 1 2 3 4 5 6 
#
# 1 0.015710 -0.004243 -0.001643 -0.002748 0.001400 -0.007867
# 2 -0.004243 0.016871 -0.001631 0.000736 0.003496 -0.007603
# 3 -0.001643 -0.001631 0.012998 -0.002130 0.012900 -0.003882
# 4 -0.002748 0.000736 -0.002130 0.037503 -0.005835 0.010627
# 5 0.001400 0.003496 0.012900 -0.005835 0.056080 -0.012913
# 6 -0.007867 -0.007603 -0.003882 0.010627 -0.012913 0.038814
#
#
# Mechanical properties :
#
#
# Convention : Reuss Voigt Hill
#
# Bulk Modulus (GPa) = 32.73809 54.84111 43.78960
# Shear Modulus (GPa) = 24.60750 32.03707 28.32228
#
# Velocity S-wave (km/s) = 3.48018 3.97095 3.73364
# Velocity P-wave (km/s) = 5.68000 6.92943 6.33559
#
# Compressibility (1/GPa) = 0.03054546
#
# Stress axis : x y z
#
# Youngs Moduli (GPa) = 63.65559 59.27199 76.93607
#
# Poissons Ratio (x) = 0.25148 0.12640
# Poissons Ratio (y) = 0.27008 0.12547
# Poissons Ratio (z) = 0.10458 0.09666
#
# Static dielectric constant tensor:
#      x y z
#    x 1.872950 -0.014800 0.270960 
#    y -0.014800 1.755910 0.026280 
#    z 0.270960 0.026280 2.318500 
# 
# From -- ./inp_files/182725.got.cif
#   From: 2010.05.17/outbox.cif.g08.bks.cpg/sg2_92_cif.got.tgz:182725.got - 2010.06.03 11:33:40.
