data_PCOD9031028
_publ_section_title
;
Structure prediction by ZEFSAII (Michael W. Deem and Ramdas Pophale) SiO2 
 PCOD9031028
Probable space group: P -1
;
_chemical_formula_sum "Si O2"
_cell_formula_units_Z 16
_cell_length_a 8.623067
_cell_length_b 9.462219
_cell_length_c 13.412786
_cell_angle_alpha 97.415187
_cell_angle_beta 72.601951
_cell_angle_gamma 140.415153
_cell_volume 656.151155
_symmetry_space_group_name_H-M "P -1"
_symmetry_group_IT_number 2
_symmetry_cell_setting 'triclinic'
loop_
_space_group_symop_operation_xyz
x,y,z
-x,-y,-z
loop_
_atom_site_type_symbol
_atom_site_label
_atom_site_fract_x
_atom_site_fract_y
_atom_site_fract_z
Si Si1 0.969629 0.708514 0.256010
Si Si2 0.288398 0.685275 0.074490
Si Si3 0.426111 0.099647 0.764511
Si Si4 0.078928 0.236746 0.072160
Si Si5 0.905823 0.536598 0.609305
Si Si6 0.369656 0.755020 0.675341
Si Si7 0.910650 0.101322 0.526872
Si Si8 0.234500 0.066846 0.090324
O O1 0.124431 0.703706 0.151753
O O2 0.013312 0.766916 0.371520
O O3 0.070335 0.922372 0.206852
O O4 0.692493 0.440831 0.282556
O O5 0.467402 0.768640 0.140966
O O6 0.121483 0.432552 0.066863
O O7 0.495252 0.835460 0.959375
O O8 0.612350 0.298420 0.667318
O O9 0.455698 0.947987 0.742601
O O10 0.127604 0.923103 0.813659
O O11 0.294600 0.273163 0.072229
O O12 0.956359 0.107010 0.978811
O O13 0.000000 0.500000 0.500000
O O14 0.098341 0.623318 0.669293
O O15 0.962420 0.731096 0.574991
O O16 0.600216 0.897440 0.565158
O O17 0.000000 0.000000 0.500000
#
# Coordination Sequence:
#
# PCOD9031028 Si02
#       8
#     2   2   2   2   2   2   2   2
#     4  12  24  44  64 101 131 178 226 278 333 400
#     4  11  20  42  68  95 133 174 226 268 323 407
#     4  11  21  38  70  96 127 173 227 271 319 401
#     4  10  22  43  64 101 133 178 219 272 338 404
#     4  12  22  43  70  98 124 180 235 273 328 411
#     4  12  22  44  72  93 136 176 229 275 336 401
#     4  12  29  46  66 103 140 173 225 290 346 392
#     4  10  25  40  66  99 141 171 219 275 343 398
#
# _framework density 24.384623000000001
#
# number of rings (size 3 to 8) (size 9 to 14) (size 15 to 20)
#    0.000    0.750    6.250    1.125    0.000    5.000 
#    0.000    0.000    0.000    0.000    0.000    0.000 
#    0.000    0.000    0.000    0.000    0.000    0.000 
#
# Total GULP energy -89231.112372 kJ/mol
# GULP energy per Si atom -5576.944523 kJ/mol
# Density = 2.432912 g / cm^3
# Si number density = 24.384623 Si / 1000 Ang^3
#
#
#
# Elastic Constant Matrix: (Units=GPa)
#
#
# Indices 1 2 3 4 5 6 
#
# 1 46.0776 8.4305 2.6177 -3.7398 -5.8205 -18.3881
# 2 8.4305 111.2743 33.3616 -30.3593 6.4689 -18.8313
# 3 2.6177 33.3616 91.2373 -30.2493 7.8175 0.5495
# 4 -3.7398 -30.3593 -30.2493 51.6912 -6.6110 2.5602
# 5 -5.8205 6.4689 7.8175 -6.6110 25.6958 -6.8310
# 6 -18.3881 -18.8313 0.5495 2.5602 -6.8310 28.8604
#
#
#
# Elastic Compliance Matrix: (Units=1/GPa)
#
#
# Indices 1 2 3 4 5 6 
#
# 1 0.034536 0.002717 -0.002397 0.003385 0.015999 0.027309
# 2 0.002717 0.012889 -0.003173 0.005725 0.002546 0.010296
# 3 -0.002397 -0.003173 0.014651 0.006290 -0.004015 -0.005385
# 4 0.003385 0.005725 0.006290 0.027123 0.005640 0.004702
# 5 0.015999 0.002546 -0.004015 0.005640 0.050808 0.023457
# 6 0.027309 0.010296 -0.005385 0.004702 0.023457 0.064005
#
#
# Mechanical properties :
#
#
# Convention : Reuss Voigt Hill
#
# Bulk Modulus (GPa) = 17.73994 37.48987 27.61491
# Shear Modulus (GPa) = 21.88114 34.86144 28.37129
#
# Velocity S-wave (km/s) = 2.99880 3.78517 3.41470
# Velocity P-wave (km/s) = 4.39104 5.87462 5.18615
#
# Compressibility (1/GPa) = 0.05636998
#
# Stress axis : x y z
#
# Youngs Moduli (GPa) = 28.95564 77.58724 68.25337
#
# Poissons Ratio (x) = -0.21084 0.16363
# Poissons Ratio (y) = -0.07868 0.21655
# Poissons Ratio (z) = 0.06942 0.24617
#
# Static dielectric constant tensor:
#      x y z
#    x 2.033730 -0.003690 -0.019380 
#    y -0.003690 2.002320 -0.042670 
#    z -0.019380 -0.042670 1.976370 
# 
# From -- ./inp_files/495196.got.cif
#   From: 2010.05.17/outbox.cif.g08.bks.cpg/sg2_248_cif.got.tgz:495196.got - 2010.06.03 11:33:40.
