data_PCOD9031240
_publ_section_title
;
Structure prediction by ZEFSAII (Michael W. Deem and Ramdas Pophale) SiO2 
 PCOD9031240
Probable space group: P -1
;
_chemical_formula_sum "Si O2"
_cell_formula_units_Z 16
_cell_length_a 9.218049
_cell_length_b 18.267848
_cell_length_c 4.943155
_cell_angle_alpha 101.655635
_cell_angle_beta 105.421913
_cell_angle_gamma 56.073890
_cell_volume 664.322088
_symmetry_space_group_name_H-M "P -1"
_symmetry_group_IT_number 2
_symmetry_cell_setting 'triclinic'
loop_
_space_group_symop_operation_xyz
x,y,z
-x,-y,-z
loop_
_atom_site_type_symbol
_atom_site_label
_atom_site_fract_x
_atom_site_fract_y
_atom_site_fract_z
Si Si1 0.618934 0.377122 0.398357
Si Si2 0.959202 0.893019 0.964729
Si Si3 0.501954 0.195631 0.531409
Si Si4 0.256514 0.566274 0.997632
Si Si5 0.334350 0.389639 0.635688
Si Si6 0.709874 0.094986 0.037571
Si Si7 0.987415 0.216879 0.579138
Si Si8 0.887711 0.685207 0.641297
O O1 0.639160 0.405840 0.134050
O O2 0.433718 0.391966 0.416054
O O3 0.777414 0.275934 0.448324
O O4 0.675851 0.428285 0.671541
O O5 0.922124 0.867362 0.635933
O O6 0.806931 0.990424 0.052569
O O7 0.985122 0.818945 0.132664
O O8 0.141165 0.891700 0.018698
O O9 0.472887 0.286866 0.714595
O O10 0.554053 0.131495 0.764501
O O11 0.309298 0.232852 0.323485
O O12 0.642117 0.146635 0.324849
O O13 0.288883 0.473134 0.853337
O O14 0.050560 0.640346 0.894859
O O15 0.156305 0.388970 0.505849
O O16 0.056999 0.278634 0.558482
#
# Coordination Sequence:
#
# PCOD9031240 Si02
#       8
#     2   2   2   2   2   2   2   2
#     4  11  23  39  67  95 131 163 220 272 313 370
#     4  11  23  38  72  87 134 156 219 254 335 370
#     4  10  24  38  65  87 134 160 219 251 318 376
#     4  11  23  43  63  96 130 170 217 264 320 374
#     4  10  22  43  65  96 126 177 212 270 313 380
#     4  11  22  43  61 104 117 168 205 280 306 389
#     4  11  22  43  62  98 124 177 203 264 317 388
#     4   9  24  44  64  93 137 174 212 258 318 395
#
# _framework density 24.084702
#
# number of rings (size 3 to 8) (size 9 to 14) (size 15 to 20)
#    0.750    0.750    0.000    5.625    0.000    7.000 
#    0.000    6.875    0.000    0.000    0.000    0.000 
#    0.000    0.000    0.000    0.000    0.000    0.000 
#
# Total GULP energy -89443.837637 kJ/mol
# GULP energy per Si atom -5590.239852 kJ/mol
# Density = 2.402988 g / cm^3
# Si number density = 24.084702 Si / 1000 Ang^3
#
#
#
# Elastic Constant Matrix: (Units=GPa)
#
#
# Indices 1 2 3 4 5 6 
#
# 1 92.8275 40.1851 15.0998 -1.7317 7.8813 14.0691
# 2 40.1851 144.2055 40.2203 6.5793 -5.0137 -12.6388
# 3 15.0998 40.2203 82.6857 -3.8503 -6.0464 -10.3052
# 4 -1.7317 6.5793 -3.8503 39.9979 -7.1975 -2.1582
# 5 7.8813 -5.0137 -6.0464 -7.1975 22.3168 0.1154
# 6 14.0691 -12.6388 -10.3052 -2.1582 0.1154 24.4130
#
#
#
# Elastic Compliance Matrix: (Units=1/GPa)
#
#
# Indices 1 2 3 4 5 6 
#
# 1 0.016032 -0.005095 -0.002678 -0.000820 -0.007729 -0.013043
# 2 -0.005095 0.009908 -0.002907 -0.001265 0.002795 0.006714
# 3 -0.002678 -0.002907 0.015391 0.003192 0.005457 0.006792
# 4 -0.000820 -0.001265 0.003192 0.027417 0.009694 0.003543
# 5 -0.007729 0.002795 0.005457 0.009694 0.052726 0.008813
# 6 -0.013043 0.006714 0.006792 0.003543 0.008813 0.055093
#
#
# Mechanical properties :
#
#
# Convention : Reuss Voigt Hill
#
# Bulk Modulus (GPa) = 50.07304 56.74767 53.41035
# Shear Modulus (GPa) = 24.43966 32.29310 28.36638
#
# Velocity S-wave (km/s) = 3.18895 3.66568 3.43560
# Velocity P-wave (km/s) = 5.86470 6.44431 6.16133
#
# Compressibility (1/GPa) = 0.01997083
#
# Stress axis : x y z
#
# Youngs Moduli (GPa) = 62.37623 100.92390 64.97149
#
# Poissons Ratio (x) = 0.51420 0.17402
# Poissons Ratio (y) = 0.31780 0.18888
# Poissons Ratio (z) = 0.16707 0.29339
#
# Static dielectric constant tensor:
#      x y z
#    x 1.946420 -0.018550 0.026300 
#    y -0.018550 1.962800 0.023200 
#    z 0.026300 0.023200 1.875820 
# 
# From -- ./inp_files/47871.got.cif
#   From: 2010.05.17/outbox.cif.g08.bks.cpg/sg2_24_cif.got.tgz:47871.got - 2010.06.03 11:33:40.
