data_PCOD9031160
_publ_section_title
;
Structure prediction by ZEFSAII (Michael W. Deem and Ramdas Pophale) SiO2 
 PCOD9031160
Probable space group: P -1
;
_chemical_formula_sum "Si O2"
_cell_formula_units_Z 14
_cell_length_a 9.320517
_cell_length_b 8.648204
_cell_length_c 12.206395
_cell_angle_alpha 56.902411
_cell_angle_beta 72.386832
_cell_angle_gamma 54.265036
_cell_volume 668.880135
_symmetry_space_group_name_H-M "P -1"
_symmetry_group_IT_number 2
_symmetry_cell_setting 'triclinic'
loop_
_space_group_symop_operation_xyz
x,y,z
-x,-y,-z
loop_
_atom_site_type_symbol
_atom_site_label
_atom_site_fract_x
_atom_site_fract_y
_atom_site_fract_z
Si Si1 0.315983 0.667040 0.028028
Si Si2 0.003124 0.065444 0.102039
Si Si3 0.777479 0.906084 0.777193
Si Si4 0.135611 0.618644 0.303375
Si Si5 0.709314 0.351502 0.525989
Si Si6 0.406602 0.034888 0.891450
Si Si7 0.914891 0.478477 0.278510
O O1 0.263356 0.602680 0.179434
O O2 0.500000 0.500000 0.000000
O O3 0.173870 0.704140 0.952960
O O4 0.333533 0.876269 0.957258
O O5 0.156130 0.078701 0.121908
O O6 0.996027 0.878337 0.241206
O O7 0.000000 0.000000 0.000000
O O8 0.578336 0.954639 0.804106
O O9 0.934217 0.678035 0.782043
O O10 0.763983 0.107237 0.636073
O O11 0.240264 0.555218 0.416289
O O12 0.028597 0.509354 0.334275
O O13 0.500000 0.500000 0.500000
O O14 0.816783 0.363809 0.394515
O O15 0.243273 0.281956 0.815517
O O16 0.500000 0.000000 0.000000
#
# Coordination Sequence:
#
# PCOD9031160 Si02
#       7
#     2   2   2   2   2   2   2
#     4  11  23  39  64  96 132 170 219 266 329 400
#     4   9  19  39  62  85 129 171 201 259 328 383
#     4  11  25  43  67 100 131 170 227 269 328 401
#     4  10  22  43  65  89 131 175 215 267 334 393
#     4  11  23  45  71  92 130 175 223 277 334 387
#     4  12  25  41  65  99 136 171 216 272 332 388
#     4  12  25  43  69  96 132 177 221 275 330 390
#
# _framework density 20.930505
#
# number of rings (size 3 to 8) (size 9 to 14) (size 15 to 20)
#    0.000    1.143    2.857    4.286    4.000    0.571 
#    0.000    0.714    0.000    0.000    0.000    0.000 
#    0.000    0.000    0.000    0.000    0.000    0.000 
#
# Total GULP energy -78041.104013 kJ/mol
# GULP energy per Si atom -5574.364572 kJ/mol
# Density = 2.088287 g / cm^3
# Si number density = 20.930505 Si / 1000 Ang^3
#
#
#
# Elastic Constant Matrix: (Units=GPa)
#
#
# Indices 1 2 3 4 5 6 
#
# 1 135.7945 50.4569 33.8594 -6.4342 -1.2053 -12.2946
# 2 50.4569 101.2334 29.1438 6.0769 0.4219 -32.4515
# 3 33.8594 29.1438 69.2410 -4.0131 -9.3286 -11.9477
# 4 -6.4342 6.0769 -4.0131 14.9409 -5.3055 -0.5040
# 5 -1.2053 0.4219 -9.3286 -5.3055 50.6416 -0.4207
# 6 -12.2946 -32.4515 -11.9477 -0.5040 -0.4207 38.0678
#
#
#
# Elastic Compliance Matrix: (Units=1/GPa)
#
#
# Indices 1 2 3 4 5 6 
#
# 1 0.010077 -0.005233 -0.002675 0.005820 0.000384 -0.001965
# 2 -0.005233 0.018290 -0.003897 -0.011044 -0.002048 0.012509
# 3 -0.002675 -0.003897 0.018668 0.006983 0.004154 0.001812
# 4 0.005820 -0.011044 0.006983 0.079133 0.009773 -0.004188
# 5 0.000384 -0.002048 0.004154 0.009773 0.021562 0.000050
# 6 -0.001965 0.012509 0.001812 -0.004188 0.000050 0.036812
#
#
# Mechanical properties :
#
#
# Convention : Reuss Voigt Hill
#
# Bulk Modulus (GPa) = 42.69041 59.24322 50.96681
# Shear Modulus (GPa) = 23.15249 33.58398 28.36824
#
# Velocity S-wave (km/s) = 3.32951 4.01003 3.68551
# Velocity P-wave (km/s) = 5.93476 7.05738 6.52027
#
# Compressibility (1/GPa) = 0.02342446
#
# Stress axis : x y z
#
# Youngs Moduli (GPa) = 99.23784 54.67508 53.56897
#
# Poissons Ratio (x) = 0.28613 0.14330
# Poissons Ratio (y) = 0.51933 0.20874
# Poissons Ratio (z) = 0.26546 0.21305
#
# Static dielectric constant tensor:
#      x y z
#    x 1.826830 -0.090660 -0.002190 
#    y -0.090660 1.960400 0.018330 
#    z -0.002190 0.018330 1.783240 
# 
# From -- ./inp_files/342896.got.cif
#   From: 2010.05.17/outbox.cif.g08.bks.cpg/sg2_172_cif.got.tgz:342896.got - 2010.06.03 11:33:40.
