data_PCOD9031862
_publ_section_title
;
Structure prediction by ZEFSAII (Michael W. Deem and Ramdas Pophale) SiO2 
 PCOD9031862
Probable space group: P -1
;
_chemical_formula_sum "Si O2"
_cell_formula_units_Z 15
_cell_length_a 14.352338
_cell_length_b 11.253001
_cell_length_c 8.924181
_cell_angle_alpha 129.347337
_cell_angle_beta 111.741766
_cell_angle_gamma 107.930925
_cell_volume 678.200711
_symmetry_space_group_name_H-M "P -1"
_symmetry_group_IT_number 2
_symmetry_cell_setting 'triclinic'
loop_
_space_group_symop_operation_xyz
x,y,z
-x,-y,-z
loop_
_atom_site_type_symbol
_atom_site_label
_atom_site_fract_x
_atom_site_fract_y
_atom_site_fract_z
Si Si1 0.965318 0.062877 0.176146
Si Si2 0.225270 0.579700 0.828583
Si Si3 0.617368 0.690692 0.596084
Si Si4 0.668010 0.054286 0.276512
Si Si5 0.997739 0.627357 0.225290
Si Si6 0.470073 0.089841 0.241918
Si Si7 0.544623 0.407506 0.048993
Si Si8 0.000000 0.000000 0.500000
O O1 0.084077 0.342504 0.464776
O O2 0.988853 0.014088 0.316463
O O3 0.788030 0.906658 0.932541
O O4 0.000000 0.000000 0.000000
O O5 0.332537 0.561935 0.928561
O O6 0.147868 0.570588 0.915265
O O7 0.337605 0.819257 0.996435
O O8 0.500000 0.500000 0.500000
O O9 0.549173 0.775810 0.571081
O O10 0.619658 0.566491 0.369341
O O11 0.841083 0.217650 0.472303
O O12 0.628789 0.180161 0.413196
O O13 0.564802 0.913272 0.954550
O O14 0.603778 0.860806 0.205414
O O15 0.995578 0.804619 0.320335
O O16 0.000000 0.500000 0.000000
O O17 0.500000 0.500000 0.000000
#
# Coordination Sequence:
#
# PCOD9031862 Si02
#       8
#     2   2   2   2   2   2   2   1
#     4  11  24  44  72 107 146 188 251 297 370 443
#     4  10  24  45  67 104 140 188 237 305 366 429
#     4  12  25  42  69 106 135 190 246 288 360 446
#     4  10  23  43  66  98 135 187 227 296 363 425
#     4  11  26  45  69 104 142 187 248 292 377 441
#     4  10  22  43  68  96 142 177 238 296 356 434
#     4  11  25  43  69  99 145 183 237 296 358 430
#     4  10  26  44  72 102 150 190 230 318 364 420
#
# _framework density 22.117345
#
# number of rings (size 3 to 8) (size 9 to 14) (size 15 to 20)
#    0.000    1.333    2.667    1.600    3.733    7.467 
#    0.000    2.667    0.000    0.000    0.000    0.000 
#    0.000    0.000    0.000    0.000    0.000    0.000 
#
# Total GULP energy -83544.627185 kJ/mol
# GULP energy per Si atom -5569.641812 kJ/mol
# Density = 2.206700 g / cm^3
# Si number density = 22.117345 Si / 1000 Ang^3
#
#
#
# Elastic Constant Matrix: (Units=GPa)
#
#
# Indices 1 2 3 4 5 6 
#
# 1 143.2318 54.6999 27.2559 7.8916 -9.3945 13.9883
# 2 54.6999 89.6224 16.4716 -1.7315 7.1154 -9.1857
# 3 27.2559 16.4716 42.9024 -0.6589 -8.1143 4.0742
# 4 7.8916 -1.7315 -0.6589 25.0022 10.0219 -8.4363
# 5 -9.3945 7.1154 -8.1143 10.0219 47.2571 1.4333
# 6 13.9883 -9.1857 4.0742 -8.4363 1.4333 38.4155
#
#
#
# Elastic Compliance Matrix: (Units=1/GPa)
#
#
# Indices 1 2 3 4 5 6 
#
# 1 0.012646 -0.008723 -0.002928 -0.009914 0.005693 -0.008770
# 2 -0.008723 0.019217 -0.004215 0.010850 -0.007983 0.010899
# 3 -0.002928 -0.004215 0.028118 -0.001999 0.005413 -0.003565
# 4 -0.009914 0.010850 -0.001999 0.057105 -0.016652 0.019578
# 5 0.005693 -0.007983 0.005413 -0.016652 0.028236 -0.009266
# 6 -0.008770 0.010899 -0.003565 0.019578 -0.009266 0.036854
#
#
# Mechanical properties :
#
#
# Convention : Reuss Voigt Hill
#
# Bulk Modulus (GPa) = 35.39684 52.51238 43.95461
# Shear Modulus (GPa) = 22.38898 33.95690 28.17294
#
# Velocity S-wave (km/s) = 3.18509 3.92255 3.57290
# Velocity P-wave (km/s) = 5.43739 6.65653 6.07761
#
# Compressibility (1/GPa) = 0.02825111
#
# Stress axis : x y z
#
# Youngs Moduli (GPa) = 79.07602 52.03810 35.56381
#
# Poissons Ratio (x) = 0.45391 0.10413
# Poissons Ratio (y) = 0.68975 0.14989
# Poissons Ratio (z) = 0.23152 0.21932
#
# Static dielectric constant tensor:
#      x y z
#    x 1.850150 -0.001680 -0.026460 
#    y -0.001680 1.812820 -0.016400 
#    z -0.026460 -0.016400 1.854410 
# 
# From -- ./inp_files/308570.got.cif
#   From: 2010.05.17/outbox.cif.g08.bks.cpg/sg2_155_cif.got.tgz:308570.got - 2010.06.03 11:33:40.
