data_PCOD9031396
_publ_section_title
;
Structure prediction by ZEFSAII (Michael W. Deem and Ramdas Pophale) SiO2 
 PCOD9031396
Probable space group: P -1
;
_chemical_formula_sum "Si O2"
_cell_formula_units_Z 14
_cell_length_a 6.863342
_cell_length_b 10.422325
_cell_length_c 12.374620
_cell_angle_alpha 101.869240
_cell_angle_beta 130.986620
_cell_angle_gamma 84.849482
_cell_volume 652.682703
_symmetry_space_group_name_H-M "P -1"
_symmetry_group_IT_number 2
_symmetry_cell_setting 'triclinic'
loop_
_space_group_symop_operation_xyz
x,y,z
-x,-y,-z
loop_
_atom_site_type_symbol
_atom_site_label
_atom_site_fract_x
_atom_site_fract_y
_atom_site_fract_z
Si Si1 0.766295 0.583556 0.621716
Si Si2 0.602967 0.685083 0.131777
Si Si3 0.122204 0.521946 0.932266
Si Si4 0.760209 0.095599 0.423985
Si Si5 0.719298 0.869710 0.611597
Si Si6 0.284385 0.015095 0.832672
Si Si7 0.855534 0.682881 0.447013
O O1 0.500000 0.500000 0.500000
O O2 0.741769 0.736644 0.667698
O O3 0.890362 0.590224 0.547397
O O4 0.922029 0.521232 0.762104
O O5 0.700572 0.596189 0.055098
O O6 0.706183 0.833311 0.174022
O O7 0.696273 0.637972 0.275849
O O8 0.295524 0.658338 0.015938
O O9 0.000000 0.500000 0.000000
O O10 0.548020 0.075532 0.436294
O O11 0.883685 0.244073 0.491053
O O12 0.634965 0.065613 0.257132
O O13 0.000000 0.000000 0.500000
O O14 0.711424 0.800346 0.477946
O O15 0.986966 0.959337 0.738194
O O16 0.500000 0.000000 0.000000
#
# Coordination Sequence:
#
# PCOD9031396 Si02
#       7
#     2   2   2   2   2   2   2
#     4  10  22  43  66  95 131 174 222 271 333 390
#     4  11  24  44  67  96 133 178 220 277 329 394
#     4  11  26  44  65  98 134 173 226 272 330 402
#     4  11  22  42  66 100 133 173 224 275 330 400
#     4   9  24  42  67 101 134 170 224 278 328 397
#     4  11  24  43  67  98 137 176 222 271 337 399
#     4   9  22  41  63  98 127 174 221 275 330 389
#
# _framework density 21.449932
#
# number of rings (size 3 to 8) (size 9 to 14) (size 15 to 20)
#    0.857    0.857    1.429    1.714    2.000    5.714 
#    5.143    0.000    0.000    0.000    0.000    0.000 
#    0.000    0.000    0.000    0.000    0.000    0.000 
#
# Total GULP energy -78064.364370 kJ/mol
# GULP energy per Si atom -5576.026026 kJ/mol
# Density = 2.140111 g / cm^3
# Si number density = 21.449932 Si / 1000 Ang^3
#
#
#
# Elastic Constant Matrix: (Units=GPa)
#
#
# Indices 1 2 3 4 5 6 
#
# 1 178.1649 32.3272 63.2914 1.9252 4.8674 13.1466
# 2 32.3272 47.0568 6.9920 5.6220 13.5225 21.2781
# 3 63.2914 6.9920 137.1880 3.3483 -5.0585 14.6605
# 4 1.9252 5.6220 3.3483 34.3243 15.4345 0.8535
# 5 4.8674 13.5225 -5.0585 15.4345 33.7435 9.0083
# 6 13.1466 21.2781 14.6605 0.8535 9.0083 40.3032
#
#
#
# Elastic Compliance Matrix: (Units=1/GPa)
#
#
# Indices 1 2 3 4 5 6 
#
# 1 0.007748 -0.005628 -0.003508 0.000909 -0.000274 0.001762
# 2 -0.005628 0.034070 0.002242 -0.001647 -0.007691 -0.015213
# 3 -0.003508 0.002242 0.009415 -0.002443 0.003241 -0.004137
# 4 0.000909 -0.001647 -0.002443 0.037733 -0.018370 0.004769
# 5 -0.000274 -0.007691 0.003241 -0.018370 0.043334 -0.006326
# 6 0.001762 -0.015213 -0.004137 0.004769 -0.006326 0.035087
#
#
# Mechanical properties :
#
#
# Convention : Reuss Voigt Hill
#
# Bulk Modulus (GPa) = 26.70588 63.07007 44.88798
# Shear Modulus (GPa) = 25.81914 38.99414 32.40664
#
# Velocity S-wave (km/s) = 3.47319 4.26833 3.89112
# Velocity P-wave (km/s) = 5.34429 7.33203 6.41561
#
# Compressibility (1/GPa) = 0.03744493
#
# Stress axis : x y z
#
# Youngs Moduli (GPa) = 129.06810 29.35138 106.21691
#
# Poissons Ratio (x) = 0.16519 0.37263
# Poissons Ratio (y) = 0.72639 -0.23818
# Poissons Ratio (z) = 0.45280 -0.06582
#
# Static dielectric constant tensor:
#      x y z
#    x 1.801050 -0.017950 0.018610 
#    y -0.017950 1.924670 -0.042640 
#    z 0.018610 -0.042640 1.788720 
# 
# From -- ./inp_files/365143.got.cif
#   From: 2010.05.17/outbox.cif.g08.bks.cpg/sg2_183_cif.got.tgz:365143.got - 2010.06.03 11:33:40.
