data_PCOD9031867
_publ_section_title
;
Structure prediction by ZEFSAII (Michael W. Deem and Ramdas Pophale) SiO2 
 PCOD9031867
Probable space group: P -1
;
_chemical_formula_sum "Si O2"
_cell_formula_units_Z 14
_cell_length_a 9.233727
_cell_length_b 17.859209
_cell_length_c 12.471527
_cell_angle_alpha 139.329497
_cell_angle_beta 53.033387
_cell_angle_gamma 150.003019
_cell_volume 660.302360
_symmetry_space_group_name_H-M "P -1"
_symmetry_group_IT_number 2
_symmetry_cell_setting 'triclinic'
loop_
_space_group_symop_operation_xyz
x,y,z
-x,-y,-z
loop_
_atom_site_type_symbol
_atom_site_label
_atom_site_fract_x
_atom_site_fract_y
_atom_site_fract_z
Si Si1 0.117848 0.168345 0.690369
Si Si2 0.899901 0.801884 0.740024
Si Si3 0.647619 0.519768 0.212716
Si Si4 0.722758 0.965426 0.968495
Si Si5 0.127368 0.782609 0.007812
Si Si6 0.395098 0.632040 0.148323
Si Si7 0.816031 0.218841 0.584549
O O1 0.336183 0.351761 0.718314
O O2 0.289267 0.217591 0.774510
O O3 0.000000 0.000000 0.500000
O O4 0.856841 0.121146 0.795127
O O5 0.611111 0.619202 0.736478
O O6 0.822266 0.885598 0.810326
O O7 0.009656 0.761755 0.564645
O O8 0.155052 0.952060 0.877130
O O9 0.965105 0.671825 0.292673
O O10 0.601114 0.396798 0.010808
O O11 0.373923 0.808979 0.941998
O O12 0.839428 0.125599 0.013913
O O13 0.811362 0.567814 0.924992
O O14 0.257157 0.684893 0.296098
O O15 0.500000 0.000000 0.500000
#
# Coordination Sequence:
#
# PCOD9031867 Si02
#       7
#     2   2   2   2   2   2   2
#     4  11  24  41  70  99 135 174 227 281 334 397
#     4  11  25  43  69  99 137 176 225 277 338 391
#     4  11  24  46  69  97 137 182 225 274 341 398
#     4  10  23  41  70  96 134 175 224 279 333 403
#     4  10  22  43  68  97 129 179 226 269 340 401
#     4  11  24  44  70  97 137 178 225 272 342 406
#     4  12  28  42  68 104 140 175 228 279 335 395
#
# _framework density 21.202407999999998
#
# number of rings (size 3 to 8) (size 9 to 14) (size 15 to 20)
#    0.000    1.143    0.000    6.000   14.000    0.000 
#    2.571    1.429    0.000    0.000    0.000    0.000 
#    0.000    0.000    0.000    0.000    0.000    0.000 
#
# Total GULP energy -78280.557201 kJ/mol
# GULP energy per Si atom -5591.468371 kJ/mol
# Density = 2.115415 g / cm^3
# Si number density = 21.202408 Si / 1000 Ang^3
#
#
#
# Elastic Constant Matrix: (Units=GPa)
#
#
# Indices 1 2 3 4 5 6 
#
# 1 110.4743 39.3667 49.5820 -8.9048 -9.2139 11.5987
# 2 39.3667 85.8960 35.4074 -7.5350 3.8417 6.2449
# 3 49.5820 35.4074 134.9670 -2.1150 -25.6568 7.0571
# 4 -8.9048 -7.5350 -2.1150 27.4772 9.1225 -0.8616
# 5 -9.2139 3.8417 -25.6568 9.1225 35.0905 6.1732
# 6 11.5987 6.2449 7.0571 -0.8616 6.1732 29.1393
#
#
#
# Elastic Compliance Matrix: (Units=1/GPa)
#
#
# Indices 1 2 3 4 5 6 
#
# 1 0.012562 -0.004162 -0.002975 0.002020 0.001703 -0.003689
# 2 -0.004162 0.015902 -0.003986 0.005138 -0.007242 0.000900
# 3 -0.002975 -0.003986 0.011482 -0.004498 0.009736 -0.002938
# 4 0.002020 0.005138 -0.004498 0.043280 -0.015221 0.003689
# 5 0.001703 -0.007242 0.009736 -0.015221 0.042747 -0.010990
# 6 -0.003689 0.000900 -0.002938 0.003689 -0.010990 0.038742
#
#
# Mechanical properties :
#
#
# Convention : Reuss Voigt Hill
#
# Bulk Modulus (GPa) = 56.49639 64.44996 60.47318
# Shear Modulus (GPa) = 25.92545 32.14014 29.03280
#
# Velocity S-wave (km/s) = 3.50059 3.89764 3.70444
# Velocity P-wave (km/s) = 6.56071 7.12173 6.84697
#
# Compressibility (1/GPa) = 0.01770024
#
# Stress axis : x y z
#
# Youngs Moduli (GPa) = 79.60385 62.88665 87.09477
#
# Poissons Ratio (x) = 0.26173 0.25909
# Poissons Ratio (y) = 0.33130 0.34716
# Poissons Ratio (z) = 0.23680 0.25067
#
# Static dielectric constant tensor:
#      x y z
#    x 1.801000 0.003400 -0.001880 
#    y 0.003400 1.789830 -0.002580 
#    z -0.001880 -0.002580 1.747510 
# 
# From -- ./inp_files/156598.got.cif
#   From: 2010.05.17/outbox.cif.g08.bks.cpg/sg2_79_cif.got.tgz:156598.got - 2010.06.03 11:33:40.
