data_PCOD9031637
_publ_section_title
;
Structure prediction by ZEFSAII (Michael W. Deem and Ramdas Pophale) SiO2 
 PCOD9031637
Probable space group: P -1
;
_chemical_formula_sum "Si O2"
_cell_formula_units_Z 14
_cell_length_a 10.241611
_cell_length_b 16.037605
_cell_length_c 4.952148
_cell_angle_alpha 89.218470
_cell_angle_beta 93.267458
_cell_angle_gamma 139.437057
_cell_volume 527.525585
_symmetry_space_group_name_H-M "P -1"
_symmetry_group_IT_number 2
_symmetry_cell_setting 'triclinic'
loop_
_space_group_symop_operation_xyz
x,y,z
-x,-y,-z
loop_
_atom_site_type_symbol
_atom_site_label
_atom_site_fract_x
_atom_site_fract_y
_atom_site_fract_z
Si Si1 0.837905 0.375740 0.799033
Si Si2 0.808821 0.770720 0.330619
Si Si3 0.497245 0.284854 0.076325
Si Si4 0.680573 0.040341 0.169380
Si Si5 0.127493 0.308388 0.172038
Si Si6 0.811507 0.519857 0.429200
Si Si7 0.745619 0.963318 0.675435
O O1 0.797814 0.419149 0.548289
O O2 0.968127 0.363427 0.691409
O O3 0.639459 0.280980 0.961354
O O4 0.000000 0.500000 0.000000
O O5 0.778052 0.716998 0.622676
O O6 0.645161 0.747997 0.169689
O O7 0.835674 0.704445 0.128289
O O8 0.019841 0.921864 0.371630
O O9 0.635428 0.427630 0.194904
O O10 0.366985 0.178093 0.299546
O O11 0.359832 0.022723 0.543974
O O12 0.885695 0.193568 0.201205
O O13 0.500000 0.000000 0.000000
O O14 0.742338 0.997002 0.975968
O O15 0.210391 0.431437 0.319467
#
# Coordination Sequence:
#
# PCOD9031637 Si02
#       7
#     2   2   2   2   2   2   2
#     4   9  22  42  60  95 130 175 225 277 336 392
#     4  10  24  44  69  97 137 181 224 280 334 403
#     4  11  24  41  69  99 134 178 232 276 339 405
#     4  10  22  43  67  97 133 177 227 272 338 406
#     4  10  24  44  67  96 137 180 222 281 341 395
#     4  10  23  43  66  95 136 176 229 282 340 400
#     4  10  23  43  65 102 134 174 225 280 336 395
#
# _framework density 26.538996999999998
#
# number of rings (size 3 to 8) (size 9 to 14) (size 15 to 20)
#    0.000    2.000    0.000    0.857    8.000    4.571 
#    5.143    4.286    0.000    0.000    0.000    0.000 
#    0.000    0.000    0.000    0.000    0.000    0.000 
#
# Total GULP energy -78374.605314 kJ/mol
# GULP energy per Si atom -5598.186094 kJ/mol
# Density = 2.647859 g / cm^3
# Si number density = 26.538997 Si / 1000 Ang^3
#
#
#
# Elastic Constant Matrix: (Units=GPa)
#
#
# Indices 1 2 3 4 5 6 
#
# 1 102.4271 42.1390 30.5454 12.7611 14.2494 13.2530
# 2 42.1390 94.2434 35.7015 13.5927 7.0513 2.9459
# 3 30.5454 35.7015 141.4111 7.9511 9.5653 4.0107
# 4 12.7611 13.5927 7.9511 33.6638 1.8159 -0.7813
# 5 14.2494 7.0513 9.5653 1.8159 62.1133 14.6865
# 6 13.2530 2.9459 4.0107 -0.7813 14.6865 27.0689
#
#
#
# Elastic Compliance Matrix: (Units=1/GPa)
#
#
# Indices 1 2 3 4 5 6 
#
# 1 0.013311 -0.004812 -0.001282 -0.002873 -0.000957 -0.005367
# 2 -0.004812 0.014111 -0.002352 -0.003271 -0.000337 0.001258
# 3 -0.001282 -0.002352 0.008010 -0.000419 -0.000672 0.000049
# 4 -0.002873 -0.003271 -0.000419 0.032316 -0.000576 0.003070
# 5 -0.000957 -0.000337 -0.000672 -0.000576 0.018743 -0.009581
# 6 -0.005367 0.001258 0.000049 0.003070 -0.009581 0.044713
#
#
# Mechanical properties :
#
#
# Convention : Reuss Voigt Hill
#
# Bulk Modulus (GPa) = 53.93903 61.65039 57.79471
# Shear Modulus (GPa) = 32.40937 39.88225 36.14581
#
# Velocity S-wave (km/s) = 3.49836 3.88077 3.69452
# Velocity P-wave (km/s) = 6.05694 6.58491 6.32644
#
# Compressibility (1/GPa) = 0.01853945
#
# Stress axis : x y z
#
# Youngs Moduli (GPa) = 75.12842 70.86554 124.84611
#
# Poissons Ratio (x) = 0.34103 0.16002
# Poissons Ratio (y) = 0.36154 0.29365
# Poissons Ratio (z) = 0.09629 0.16668
#
# Static dielectric constant tensor:
#      x y z
#    x 2.154600 0.008060 -0.030390 
#    y 0.008060 2.120930 -0.016750 
#    z -0.030390 -0.016750 2.097810 
# 
# From -- ./inp_files/79848.got.cif
#   From: 2010.05.17/outbox.cif.g08.bks.cpg/sg2_40_cif.got.tgz:79848.got - 2010.06.03 11:33:40.
