data_PCOD9031256
_publ_section_title
;
Structure prediction by ZEFSAII (Michael W. Deem and Ramdas Pophale) SiO2 
 PCOD9031256
Probable space group: P -1
;
_chemical_formula_sum "Si O2"
_cell_formula_units_Z 12
_cell_length_a 13.553222
_cell_length_b 10.688229
_cell_length_c 13.178203
_cell_angle_alpha 145.741594
_cell_angle_beta 31.698145
_cell_angle_gamma 149.929654
_cell_volume 472.190209
_symmetry_space_group_name_H-M "P -1"
_symmetry_group_IT_number 2
_symmetry_cell_setting 'triclinic'
loop_
_space_group_symop_operation_xyz
x,y,z
-x,-y,-z
loop_
_atom_site_type_symbol
_atom_site_label
_atom_site_fract_x
_atom_site_fract_y
_atom_site_fract_z
Si Si1 0.873070 0.377593 0.901055
Si Si2 0.456084 0.363883 0.204132
Si Si3 0.254498 0.890380 0.374870
Si Si4 0.663512 0.440230 0.375058
Si Si5 0.721823 0.605893 0.941830
Si Si6 0.059350 0.982343 0.143555
O O1 0.832390 0.181036 0.712278
O O2 0.088576 0.406115 0.789199
O O3 0.616162 0.300862 0.087964
O O4 0.000332 0.690725 0.974951
O O5 0.330754 0.454007 0.446375
O O6 0.268652 0.131440 0.140281
O O7 0.630980 0.591577 0.125392
O O8 0.215613 0.614716 0.263747
O O9 0.131650 0.997002 0.619344
O O10 0.517321 0.121957 0.297760
O O11 0.500000 0.500000 0.500000
O O12 0.892812 0.866340 0.904090
O O13 0.500000 0.500000 0.000000
#
# Coordination Sequence:
#
# PCOD9031256 Si02
#       6
#     2   2   2   2   2   2
#     4  11  23  44  71  94 139 169 219 277 324 393
#     4  10  22  43  65  97 132 171 220 267 321 393
#     4  11  23  43  67 101 136 172 224 269 322 401
#     4  12  26  46  69  95 130 178 226 280 333 379
#     4   9  20  39  66  99 137 173 214 260 328 399
#     4  11  21  44  69 100 140 172 212 267 332 397
#
# _framework density 25.413488000000001
#
# number of rings (size 3 to 8) (size 9 to 14) (size 15 to 20)
#    0.000    1.333    3.333    3.500    0.000    4.000 
#    3.000    8.333    0.000    0.000    0.000    0.000 
#    0.000    0.000    0.000    0.000    0.000    0.000 
#
# Total GULP energy -66997.110999 kJ/mol
# GULP energy per Si atom -5583.092583 kJ/mol
# Density = 2.535565 g / cm^3
# Si number density = 25.413488 Si / 1000 Ang^3
#
#
#
# Elastic Constant Matrix: (Units=GPa)
#
#
# Indices 1 2 3 4 5 6 
#
# 1 78.2876 30.4388 14.8920 -12.8667 -13.9709 24.4840
# 2 30.4388 129.5565 40.2717 -2.9824 15.2928 7.8952
# 3 14.8920 40.2717 135.8566 -22.5131 19.8397 -1.9497
# 4 -12.8667 -2.9824 -22.5131 49.7653 8.8740 -8.8625
# 5 -13.9709 15.2928 19.8397 8.8740 45.2107 -5.8669
# 6 24.4840 7.8952 -1.9497 -8.8625 -5.8669 53.4128
#
#
#
# Elastic Compliance Matrix: (Units=1/GPa)
#
#
# Indices 1 2 3 4 5 6 
#
# 1 0.018214 -0.004104 -0.001617 0.001339 0.006574 -0.006858
# 2 -0.004104 0.009728 -0.002056 -0.000808 -0.003518 -0.000152
# 3 -0.001617 -0.002056 0.009708 0.005014 -0.004827 0.001701
# 4 0.001339 -0.000808 0.005014 0.024254 -0.005876 0.003068
# 5 0.006574 -0.003518 -0.004827 -0.005876 0.028546 -0.000509
# 6 -0.006858 -0.000152 0.001701 0.003068 -0.000509 0.022403
#
#
# Mechanical properties :
#
#
# Convention : Reuss Voigt Hill
#
# Bulk Modulus (GPa) = 45.25642 57.21174 51.23408
# Shear Modulus (GPa) = 36.82631 46.88431 41.85531
#
# Velocity S-wave (km/s) = 3.81082 4.29984 4.06269
# Velocity P-wave (km/s) = 6.09998 6.87115 6.49702
#
# Compressibility (1/GPa) = 0.02209631
#
# Stress axis : x y z
#
# Youngs Moduli (GPa) = 54.90163 102.79689 103.01084
#
# Poissons Ratio (x) = 0.42189 0.16652
# Poissons Ratio (y) = 0.22532 0.21181
# Poissons Ratio (z) = 0.08875 0.21137
#
# Static dielectric constant tensor:
#      x y z
#    x 2.122060 0.005260 -0.017330 
#    y 0.005260 2.106160 -0.012270 
#    z -0.017330 -0.012270 1.977930 
# 
# From -- ./inp_files/335034.got.cif
#   From: 2010.05.17/outbox.cif.g08.bks.cpg/sg2_168_cif.got.tgz:335034.got - 2010.06.03 11:33:40.
