data_PCOD9031972
_publ_section_title
;
Structure prediction by ZEFSAII (Michael W. Deem and Ramdas Pophale) SiO2 
 PCOD9031972
Probable space group: P -1
;
_chemical_formula_sum "Si O2"
_cell_formula_units_Z 16
_cell_length_a 18.972729
_cell_length_b 21.355693
_cell_length_c 9.341764
_cell_angle_alpha 36.872330
_cell_angle_beta 141.108427
_cell_angle_gamma 161.328975
_cell_volume 722.939417
_symmetry_space_group_name_H-M "P -1"
_symmetry_group_IT_number 2
_symmetry_cell_setting 'triclinic'
loop_
_space_group_symop_operation_xyz
x,y,z
-x,-y,-z
loop_
_atom_site_type_symbol
_atom_site_label
_atom_site_fract_x
_atom_site_fract_y
_atom_site_fract_z
Si Si1 0.205815 0.898331 0.779214
Si Si2 0.979930 0.472051 0.848930
Si Si3 0.752201 0.449593 0.318373
Si Si4 0.887079 0.745457 0.341340
Si Si5 0.986271 0.961643 0.832875
Si Si6 0.480036 0.294279 0.417989
Si Si7 0.428286 0.822997 0.737115
Si Si8 0.107275 0.893191 0.937682
O O1 0.070838 0.820042 0.567128
O O2 0.439894 0.142920 0.681530
O O3 0.177988 0.753804 0.021613
O O4 0.099238 0.871823 0.794471
O O5 0.878027 0.487553 0.573422
O O6 0.223589 0.650494 0.839370
O O7 0.000000 0.500000 0.000000
O O8 0.554829 0.351226 0.267108
O O9 0.657168 0.297184 0.325644
O O10 0.927561 0.668807 0.126556
O O11 0.668483 0.503989 0.418140
O O12 0.971383 0.858353 0.117269
O O13 0.855777 0.821385 0.253682
O O14 0.745880 0.823126 0.705431
O O15 0.053347 0.962670 0.789680
O O16 0.500000 0.000000 0.500000
O O17 0.646433 0.940632 0.925951
#
# Coordination Sequence:
#
# PCOD9031972 Si02
#       8
#     2   2   2   2   2   2   2   2
#     4  11  27  45  67 106 145 176 236 287 345 417
#     4  12  27  48  72 103 144 181 229 296 345 411
#     4  12  26  46  74 103 141 187 236 281 338 419
#     4  10  22  43  69 101 139 175 237 284 334 408
#     4  10  24  44  74 102 140 182 238 284 337 416
#     4  11  25  43  76 105 138 184 238 281 345 412
#     4  12  27  46  72 101 137 189 234 282 350 411
#     4  12  26  46  72 102 146 185 228 288 345 412
#
# _framework density 22.131868000000001
#
# number of rings (size 3 to 8) (size 9 to 14) (size 15 to 20)
#    0.000    0.750    3.750    2.250   10.500    2.500 
#    0.000    1.250    0.000    0.000    0.000    0.000 
#    0.000    0.000    0.000    0.000    0.000    0.000 
#
# Total GULP energy -89563.301583 kJ/mol
# GULP energy per Si atom -5597.706349 kJ/mol
# Density = 2.208149 g / cm^3
# Si number density = 22.131868 Si / 1000 Ang^3
#
#
#
# Elastic Constant Matrix: (Units=GPa)
#
#
# Indices 1 2 3 4 5 6 
#
# 1 102.0549 54.7619 -4.5076 -9.3527 8.0552 -12.3944
# 2 54.7619 141.1767 26.0874 -30.5133 7.4501 -16.9183
# 3 -4.5076 26.0874 60.2506 -13.3153 -3.0532 0.8911
# 4 -9.3527 -30.5133 -13.3153 35.6708 8.0706 3.4660
# 5 8.0552 7.4501 -3.0532 8.0706 19.0447 3.3620
# 6 -12.3944 -16.9183 0.8911 3.4660 3.3620 44.7260
#
#
#
# Elastic Compliance Matrix: (Units=1/GPa)
#
#
# Indices 1 2 3 4 5 6 
#
# 1 0.013309 -0.005101 0.003204 0.001016 -0.003888 0.001908
# 2 -0.005101 0.012726 -0.004260 0.009466 -0.008108 0.003361
# 3 0.003204 -0.004260 0.019750 0.004283 0.001944 -0.001595
# 4 0.001016 0.009466 0.004283 0.042755 -0.021937 0.002113
# 5 -0.003888 -0.008108 0.001944 -0.021937 0.068277 -0.007616
# 6 0.001908 0.003361 -0.001595 0.002113 -0.007616 0.024599
#
#
# Mechanical properties :
#
#
# Convention : Reuss Voigt Hill
#
# Bulk Modulus (GPa) = 29.87753 50.68507 40.28130
# Shear Modulus (GPa) = 24.40359 35.03100 29.71730
#
# Velocity S-wave (km/s) = 3.32421 3.98280 3.66831
# Velocity P-wave (km/s) = 5.31629 6.64088 6.01516
#
# Compressibility (1/GPa) = 0.03346996
#
# Stress axis : x y z
#
# Youngs Moduli (GPa) = 75.13668 78.58009 50.63191
#
# Poissons Ratio (x) = 0.40084 -0.16221
# Poissons Ratio (y) = 0.38328 0.21571
# Poissons Ratio (z) = -0.24072 0.33477
#
# Static dielectric constant tensor:
#      x y z
#    x 1.813270 0.004890 0.010780 
#    y 0.004890 1.812310 -0.005830 
#    z 0.010780 -0.005830 1.816250 
# 
# From -- ./inp_files/338093.got.cif
#   From: 2010.05.17/outbox.cif.g08.bks.cpg/sg2_170_cif.got.tgz:338093.got - 2010.06.03 11:33:40.
