data_PCOD9031924
_publ_section_title
;
Structure prediction by ZEFSAII (Michael W. Deem and Ramdas Pophale) SiO2 
 PCOD9031924
Probable space group: P -1
;
_chemical_formula_sum "Si O2"
_cell_formula_units_Z 14
_cell_length_a 21.814289
_cell_length_b 9.916935
_cell_length_c 6.775344
_cell_angle_alpha 93.153968
_cell_angle_beta 111.737311
_cell_angle_gamma 31.073800
_cell_volume 588.334583
_symmetry_space_group_name_H-M "P -1"
_symmetry_group_IT_number 2
_symmetry_cell_setting 'triclinic'
loop_
_space_group_symop_operation_xyz
x,y,z
-x,-y,-z
loop_
_atom_site_type_symbol
_atom_site_label
_atom_site_fract_x
_atom_site_fract_y
_atom_site_fract_z
Si Si1 0.317410 0.502317 0.330565
Si Si2 0.216127 0.337870 0.775307
Si Si3 0.856485 0.228633 0.206571
Si Si4 0.353766 0.738769 0.563092
Si Si5 0.311852 0.925656 0.120999
Si Si6 0.572299 0.931693 0.280483
Si Si7 0.863840 0.929287 0.330432
O O1 0.339612 0.611823 0.448510
O O2 0.340518 0.347068 0.515548
O O3 0.447460 0.228698 0.299682
O O4 0.156801 0.789333 0.041719
O O5 0.217262 0.488598 0.865320
O O6 0.309858 0.175032 0.671440
O O7 0.042048 0.613493 0.559852
O O8 0.293754 0.102074 0.011573
O O9 0.796487 0.204203 0.241061
O O10 0.000000 0.000000 0.500000
O O11 0.323369 0.899278 0.365522
O O12 0.531036 0.427878 0.802826
O O13 0.230423 0.972928 0.605809
O O14 0.170487 0.093284 0.905609
O O15 0.500000 0.000000 0.000000
#
# Coordination Sequence:
#
# PCOD9031924 Si02
#       7
#     2   2   2   2   2   2   2
#     4  11  23  42  72 104 133 181 231 279 348 399
#     4  11  24  44  70  99 136 177 225 283 339 403
#     4  10  22  43  68  99 137 172 227 278 339 409
#     4  11  25  43  71  99 135 177 232 283 333 415
#     4  11  25  44  67 100 135 179 231 275 345 405
#     4  11  23  41  70 103 141 174 226 291 338 408
#     4  11  24  48  67  97 139 182 223 281 344 404
#
# _framework density 23.795981000000001
#
# number of rings (size 3 to 8) (size 9 to 14) (size 15 to 20)
#    0.000    1.143    2.857    2.571    4.000    2.857 
#    5.143    4.286    0.000    0.000    0.000    0.000 
#    0.000    0.000    0.000    0.000    0.000    0.000 
#
# Total GULP energy -78235.771567 kJ/mol
# GULP energy per Si atom -5588.269398 kJ/mol
# Density = 2.374182 g / cm^3
# Si number density = 23.795981 Si / 1000 Ang^3
#
#
#
# Elastic Constant Matrix: (Units=GPa)
#
#
# Indices 1 2 3 4 5 6 
#
# 1 113.4212 19.4266 49.4053 -11.7907 -41.0987 -11.6195
# 2 19.4266 37.4193 25.7857 -1.2545 -14.1050 -3.9360
# 3 49.4053 25.7857 137.6009 -8.9137 -27.4927 -12.9276
# 4 -11.7907 -1.2545 -8.9137 20.9865 4.0761 5.9143
# 5 -41.0987 -14.1050 -27.4927 4.0761 60.8462 -0.8845
# 6 -11.6195 -3.9360 -12.9276 5.9143 -0.8845 42.2576
#
#
#
# Elastic Compliance Matrix: (Units=1/GPa)
#
#
# Indices 1 2 3 4 5 6 
#
# 1 0.013628 -0.002197 -0.002523 0.004386 0.007296 0.002310
# 2 -0.002197 0.032636 -0.004499 -0.002436 0.004234 0.001489
# 3 -0.002523 -0.004499 0.009572 0.001634 0.001492 0.001618
# 4 0.004386 -0.002436 0.001634 0.052404 -0.000460 -0.005865
# 5 0.007296 0.004234 0.001492 -0.000460 0.023099 0.003405
# 6 0.002310 0.001489 0.001618 -0.005865 0.003405 0.025825
#
#
# Mechanical properties :
#
#
# Convention : Reuss Voigt Hill
#
# Bulk Modulus (GPa) = 26.73850 53.07518 39.90684
# Shear Modulus (GPa) = 26.58615 37.73964 32.16289
#
# Velocity S-wave (km/s) = 3.34616 3.98674 3.68041
# Velocity P-wave (km/s) = 5.11762 6.59885 5.90486
#
# Compressibility (1/GPa) = 0.03739925
#
# Stress axis : x y z
#
# Youngs Moduli (GPa) = 73.37839 30.64129 104.46831
#
# Poissons Ratio (x) = 0.06731 0.26354
# Poissons Ratio (y) = 0.16118 0.47001
# Poissons Ratio (z) = 0.18511 0.13786
#
# Static dielectric constant tensor:
#      x y z
#    x 1.881700 0.008630 0.016880 
#    y 0.008630 2.061560 0.053610 
#    z 0.016880 0.053610 1.980780 
# 
# From -- ./inp_files/123660.got.cif
#   From: 2010.05.17/outbox.cif.g08.bks.cpg/sg2_62_cif.got.tgz:123660.got - 2010.06.03 11:33:40.
