data_PCOD9031166
_publ_section_title
;
Structure prediction by ZEFSAII (Michael W. Deem and Ramdas Pophale) SiO2 
 PCOD9031166
Probable space group: P -1
;
_chemical_formula_sum "Si O2"
_cell_formula_units_Z 16
_cell_length_a 9.938090
_cell_length_b 25.567685
_cell_length_c 23.470311
_cell_angle_alpha 16.508290
_cell_angle_beta 25.288905
_cell_angle_gamma 25.128567
_cell_volume 686.601542
_symmetry_space_group_name_H-M "P -1"
_symmetry_group_IT_number 2
_symmetry_cell_setting 'triclinic'
loop_
_space_group_symop_operation_xyz
x,y,z
-x,-y,-z
loop_
_atom_site_type_symbol
_atom_site_label
_atom_site_fract_x
_atom_site_fract_y
_atom_site_fract_z
Si Si1 0.457377 0.689293 0.508338
Si Si2 0.165039 0.198016 0.572748
Si Si3 0.317984 0.896816 0.223682
Si Si4 0.312748 0.780791 0.820811
Si Si5 0.326865 0.327163 0.991715
Si Si6 0.462593 0.505339 0.868786
Si Si7 0.209086 0.079541 0.795037
Si Si8 0.769487 0.983067 0.493483
O O1 0.475316 0.766867 0.355499
O O2 0.411662 0.480315 0.755583
O O3 0.138735 0.841278 0.504329
O O4 0.746271 0.731485 0.389710
O O5 0.296190 0.368981 0.365036
O O6 0.885734 0.226759 0.602158
O O7 0.026821 0.125593 0.756713
O O8 0.509738 0.041001 0.583367
O O9 0.028009 0.078030 0.171082
O O10 0.500000 0.000000 0.000000
O O11 0.616242 0.858170 0.640471
O O12 0.262285 0.814917 0.737375
O O13 0.408331 0.588225 0.021653
O O14 0.480790 0.362307 0.957382
O O15 0.469136 0.107220 0.145762
O O16 0.930308 0.381990 0.094466
O O17 0.000000 0.000000 0.000000
#
# Coordination Sequence:
#
# PCOD9031166 Si02
#       8
#     2   2   2   2   2   2   2   2
#     4  11  22  43  67  99 131 169 222 271 329 389
#     4  11  23  40  66  97 129 172 220 271 326 390
#     4  10  22  43  65  90 131 183 219 263 319 385
#     4   9  18  35  60  89 130 167 207 264 325 381
#     4  11  24  41  69 100 135 169 211 279 331 389
#     4  11  22  39  65 106 133 160 218 274 338 389
#     4  12  27  46  66  92 132 181 225 261 323 393
#     4   9  18  35  62  92 126 165 208 265 332 379
#
# _framework density 23.303180999999999
#
# number of rings (size 3 to 8) (size 9 to 14) (size 15 to 20)
#    0.000    1.500    2.500    3.750    1.750    2.000 
#    6.750    0.625    0.000    0.000    0.000    0.000 
#    0.000    0.000    0.000    0.000    0.000    0.000 
#
# Total GULP energy -89196.051575 kJ/mol
# GULP energy per Si atom -5574.753223 kJ/mol
# Density = 2.325014 g / cm^3
# Si number density = 23.303181 Si / 1000 Ang^3
#
#
#
# Elastic Constant Matrix: (Units=GPa)
#
#
# Indices 1 2 3 4 5 6 
#
# 1 83.8458 8.1927 36.0743 1.2868 7.8343 14.9356
# 2 8.1927 6.6339 -5.4403 3.9804 1.1371 5.7000
# 3 36.0743 -5.4403 81.0696 4.5820 3.3898 5.5165
# 4 1.2868 3.9804 4.5820 34.9975 3.2081 2.9181
# 5 7.8343 1.1371 3.3898 3.2081 41.0527 -2.3337
# 6 14.9356 5.7000 5.5165 2.9181 -2.3337 11.8825
#
#
#
# Elastic Compliance Matrix: (Units=1/GPa)
#
#
# Indices 1 2 3 4 5 6 
#
# 1 0.021583 -0.030384 -0.011167 0.005200 -0.003290 -0.009292
# 2 -0.030384 0.416914 0.056758 -0.036859 -0.017938 -0.182624
# 3 -0.011167 0.056758 0.023135 -0.006996 -0.002091 -0.022624
# 4 0.005200 -0.036859 -0.006996 0.033147 -0.001647 0.005929
# 5 -0.003290 -0.017938 -0.002091 -0.001647 0.026888 0.019396
# 6 -0.009292 -0.182624 -0.022624 0.005929 0.019396 0.196299
#
#
# Mechanical properties :
#
#
# Convention : Reuss Voigt Hill
#
# Bulk Modulus (GPa) = 2.03233 27.68920 14.86076
# Shear Modulus (GPa) = 5.87153 26.43469 16.15311
#
# Velocity S-wave (km/s) = 1.58905 3.37171 2.63567
# Velocity P-wave (km/s) = 2.05932 5.20249 3.95643
#
# Compressibility (1/GPa) = 0.49204622
#
# Stress axis : x y z
#
# Youngs Moduli (GPa) = 46.33310 2.39858 43.22403
#
# Poissons Ratio (x) = 0.07288 0.48268
# Poissons Ratio (y) = 1.40779 -2.45332
# Poissons Ratio (z) = 0.51740 -0.13614
#
# Static dielectric constant tensor:
#      x y z
#    x 1.902420 0.071030 0.060880 
#    y 0.071030 1.727540 0.126670 
#    z 0.060880 0.126670 2.014790 
# 
# From -- ./inp_files/591932.got.cif
#   From: 2010.05.17/outbox.cif.g08.bks.cpg/sg2_296_cif.got.tgz:591932.got - 2010.06.03 11:33:40.
