data_PCOD9031833
_publ_section_title
;
Structure prediction by ZEFSAII (Michael W. Deem and Ramdas Pophale) SiO2 
 PCOD9031833
Probable space group: P -1
;
_chemical_formula_sum "Si O2"
_cell_formula_units_Z 14
_cell_length_a 8.622725
_cell_length_b 9.057913
_cell_length_c 20.448307
_cell_angle_alpha 44.748022
_cell_angle_beta 145.883094
_cell_angle_gamma 123.252234
_cell_volume 627.434097
_symmetry_space_group_name_H-M "P -1"
_symmetry_group_IT_number 2
_symmetry_cell_setting 'triclinic'
loop_
_space_group_symop_operation_xyz
x,y,z
-x,-y,-z
loop_
_atom_site_type_symbol
_atom_site_label
_atom_site_fract_x
_atom_site_fract_y
_atom_site_fract_z
Si Si1 0.272638 0.369064 0.549693
Si Si2 0.173305 0.036974 0.986439
Si Si3 0.265694 0.116767 0.333250
Si Si4 0.330628 0.559078 0.653426
Si Si5 0.332772 0.703535 0.909935
Si Si6 0.423644 0.764531 0.065406
Si Si7 0.229771 0.778480 0.314006
O O1 0.357677 0.458056 0.622082
O O2 0.252097 0.564791 0.430510
O O3 0.498529 0.208972 0.641744
O O4 0.965618 0.306699 0.479276
O O5 0.019854 0.208775 0.829713
O O6 0.470625 0.107121 0.089075
O O7 0.189220 0.820522 0.019629
O O8 0.000000 0.000000 0.000000
O O9 0.416534 0.302360 0.294576
O O10 0.986438 0.213656 0.242885
O O11 0.500000 0.000000 0.500000
O O12 0.192179 0.958994 0.299535
O O13 0.345597 0.375401 0.770038
O O14 0.500000 0.500000 0.000000
O O15 0.332282 0.660023 0.001198
O O16 0.500000 0.000000 0.000000
#
# Coordination Sequence:
#
# PCOD9031833 Si02
#       7
#     2   2   2   2   2   2   2
#     4  10  23  41  72 101 136 184 238 285 347 439
#     4  11  24  42  71 101 134 184 242 285 345 432
#     4  12  27  45  70 103 147 184 233 300 360 417
#     4  11  24  42  70 102 139 182 238 290 354 426
#     4  11  27  45  70 100 146 190 231 299 364 414
#     4  10  22  43  68  95 134 182 234 288 348 415
#     4  11  23  45  69 101 141 187 228 294 360 417
#
# _framework density 22.313099000000001
#
# number of rings (size 3 to 8) (size 9 to 14) (size 15 to 20)
#    0.000    1.143    2.857    2.571    6.000    4.571 
#    0.000    0.000    0.000    0.000    0.000    0.000 
#    0.000    0.000    0.000    0.000    0.000    0.000 
#
# Total GULP energy -78128.276448 kJ/mol
# GULP energy per Si atom -5580.591175 kJ/mol
# Density = 2.226231 g / cm^3
# Si number density = 22.313099 Si / 1000 Ang^3
#
#
#
# Elastic Constant Matrix: (Units=GPa)
#
#
# Indices 1 2 3 4 5 6 
#
# 1 131.9831 27.2334 39.9817 -0.0809 20.8786 -19.6074
# 2 27.2334 57.3324 17.2388 0.5826 20.8124 -1.0830
# 3 39.9817 17.2388 116.3248 3.2167 11.8383 -0.8434
# 4 -0.0809 0.5826 3.2167 24.0763 -2.3699 8.7507
# 5 20.8786 20.8124 11.8383 -2.3699 44.3212 -6.1675
# 6 -19.6074 -1.0830 -0.8434 8.7507 -6.1675 42.3622
#
#
#
# Elastic Compliance Matrix: (Units=1/GPa)
#
#
# Indices 1 2 3 4 5 6 
#
# 1 0.010024 -0.003131 -0.002710 -0.001358 -0.001974 0.004498
# 2 -0.003131 0.022604 -0.001349 -0.000503 -0.009101 -0.002119
# 3 -0.002710 -0.001349 0.009842 -0.001012 -0.000914 -0.001017
# 4 -0.001358 -0.000503 -0.001012 0.045430 0.002222 -0.009722
# 5 -0.001974 -0.009101 -0.000914 0.002222 0.028480 0.002523
# 6 0.004498 -0.002119 -0.001017 -0.009722 0.002523 0.027989
#
#
# Mechanical properties :
#
#
# Convention : Reuss Voigt Hill
#
# Bulk Modulus (GPa) = 35.60099 52.72756 44.16428
# Shear Modulus (GPa) = 29.74226 36.89772 33.31999
#
# Velocity S-wave (km/s) = 3.65492 4.07090 3.86851
# Velocity P-wave (km/s) = 5.81387 6.76597 6.30791
#
# Compressibility (1/GPa) = 0.02808910
#
# Stress axis : x y z
#
# Youngs Moduli (GPa) = 99.76551 44.24041 101.60901
#
# Poissons Ratio (x) = 0.13851 0.27537
# Poissons Ratio (y) = 0.31236 0.13706
# Poissons Ratio (z) = 0.27037 0.05968
#
# Static dielectric constant tensor:
#      x y z
#    x 1.891270 0.002250 0.056080 
#    y 0.002250 1.821960 -0.022910 
#    z 0.056080 -0.022910 1.940310 
# 
# From -- ./inp_files/311109.got.cif
#   From: 2010.05.17/outbox.cif.g08.bks.cpg/sg2_156_cif.got.tgz:311109.got - 2010.06.03 11:33:40.
