data_PCOD9031384
_publ_section_title
;
Structure prediction by ZEFSAII (Michael W. Deem and Ramdas Pophale) SiO2 
 PCOD9031384
Probable space group: P -1
;
_chemical_formula_sum "Si O2"
_cell_formula_units_Z 14
_cell_length_a 7.478770
_cell_length_b 8.162103
_cell_length_c 13.621670
_cell_angle_alpha 80.698320
_cell_angle_beta 108.605862
_cell_angle_gamma 132.138363
_cell_volume 582.726483
_symmetry_space_group_name_H-M "P -1"
_symmetry_group_IT_number 2
_symmetry_cell_setting 'triclinic'
loop_
_space_group_symop_operation_xyz
x,y,z
-x,-y,-z
loop_
_atom_site_type_symbol
_atom_site_label
_atom_site_fract_x
_atom_site_fract_y
_atom_site_fract_z
Si Si1 0.913349 0.848292 0.865979
Si Si2 0.310154 0.416051 0.348239
Si Si3 0.427466 0.777085 0.804975
Si Si4 0.135831 0.688617 0.586865
Si Si5 0.295484 0.135804 0.528171
Si Si6 0.261942 0.479638 0.983698
Si Si7 0.541541 0.892462 0.105881
O O1 0.789116 0.678942 0.768427
O O2 0.707859 0.868593 0.849361
O O3 0.940617 0.758034 0.979996
O O4 0.196166 0.053464 0.864359
O O5 0.375664 0.282022 0.429780
O O6 0.542886 0.678728 0.376466
O O7 0.081618 0.363839 0.375241
O O8 0.307748 0.678454 0.688501
O O9 0.250192 0.585279 0.874528
O O10 0.443125 0.982313 0.809466
O O11 0.000000 0.500000 0.500000
O O12 0.298835 0.938648 0.550338
O O13 0.000000 0.000000 0.500000
O O14 0.500000 0.500000 0.000000
O O15 0.324665 0.636882 0.070641
O O16 0.500000 0.000000 0.000000
#
# Coordination Sequence:
#
# PCOD9031384 Si02
#       7
#     2   2   2   2   2   2   2
#     4  11  23  42  69  96 136 176 219 278 337 401
#     4  10  22  43  67  97 129 180 232 269 348 404
#     4  10  23  42  63 101 133 174 226 272 336 402
#     4  11  24  44  65  97 142 172 227 287 334 399
#     4   9  22  41  66  89 132 173 225 278 334 391
#     4   9  22  42  66  96 134 172 219 270 339 398
#     4  10  22  43  66  94 135 169 225 273 329 404
#
# _framework density 24.024994
#
# number of rings (size 3 to 8) (size 9 to 14) (size 15 to 20)
#    0.000    2.000    1.429    0.000    8.000    8.000 
#    2.571    1.429    0.000    0.000    0.000    0.000 
#    0.000    0.000    0.000    0.000    0.000    0.000 
#
# Total GULP energy -78222.817899 kJ/mol
# GULP energy per Si atom -5587.344136 kJ/mol
# Density = 2.397031 g / cm^3
# Si number density = 24.024994 Si / 1000 Ang^3
#
#
#
# Elastic Constant Matrix: (Units=GPa)
#
#
# Indices 1 2 3 4 5 6 
#
# 1 74.5988 20.9390 21.9911 -1.6964 -8.3773 16.9467
# 2 20.9390 115.0831 58.5288 9.7079 4.5054 -12.8661
# 3 21.9911 58.5288 142.0994 15.8834 -1.0109 -13.4924
# 4 -1.6964 9.7079 15.8834 40.3387 -3.1624 6.1010
# 5 -8.3773 4.5054 -1.0109 -3.1624 37.6527 5.8629
# 6 16.9467 -12.8661 -13.4924 6.1010 5.8629 26.6157
#
#
#
# Elastic Compliance Matrix: (Units=1/GPa)
#
#
# Indices 1 2 3 4 5 6 
#
# 1 0.023035 -0.005763 -0.004325 0.008453 0.010116 -0.023811
# 2 -0.005763 0.012991 -0.003041 -0.004132 -0.004890 0.010431
# 3 -0.004325 -0.003041 0.010250 -0.004856 -0.001981 0.008029
# 4 0.008453 -0.004132 -0.004856 0.031506 0.007816 -0.018785
# 5 0.010116 -0.004890 -0.001981 0.007816 0.032933 -0.018855
# 6 -0.023811 0.010431 0.008029 -0.018785 -0.018855 0.070305
#
#
# Mechanical properties :
#
#
# Convention : Reuss Voigt Hill
#
# Bulk Modulus (GPa) = 49.95462 59.41102 54.68282
# Shear Modulus (GPa) = 23.36988 36.27625 29.82307
#
# Velocity S-wave (km/s) = 3.12225 3.89001 3.52708
# Velocity P-wave (km/s) = 5.81686 6.70513 6.27673
#
# Compressibility (1/GPa) = 0.02001817
#
# Stress axis : x y z
#
# Youngs Moduli (GPa) = 43.41259 76.97727 97.55699
#
# Poissons Ratio (x) = 0.44359 0.42193
# Poissons Ratio (y) = 0.25017 0.29671
# Poissons Ratio (z) = 0.18776 0.23412
#
# Static dielectric constant tensor:
#      x y z
#    x 1.962490 -0.031530 -0.002160 
#    y -0.031530 1.952460 -0.015970 
#    z -0.002160 -0.015970 1.915570 
# 
# From -- ./inp_files/494930.got.cif
#   From: 2010.05.17/outbox.cif.g08.bks.cpg/sg2_248_cif.got.tgz:494930.got - 2010.06.03 11:33:40.
