data_PCOD9031106
_publ_section_title
;
Structure prediction by ZEFSAII (Michael W. Deem and Ramdas Pophale) SiO2 
 PCOD9031106
Probable space group: P -1
;
_chemical_formula_sum "Si O2"
_cell_formula_units_Z 16
_cell_length_a 15.015748
_cell_length_b 14.327799
_cell_length_c 5.776937
_cell_angle_alpha 72.085127
_cell_angle_beta 115.999920
_cell_angle_gamma 136.375196
_cell_volume 770.616150
_symmetry_space_group_name_H-M "P -1"
_symmetry_group_IT_number 2
_symmetry_cell_setting 'triclinic'
loop_
_space_group_symop_operation_xyz
x,y,z
-x,-y,-z
loop_
_atom_site_type_symbol
_atom_site_label
_atom_site_fract_x
_atom_site_fract_y
_atom_site_fract_z
Si Si1 0.758522 0.817126 0.375717
Si Si2 0.283684 0.411899 0.300738
Si Si3 0.468687 0.697369 0.047952
Si Si4 0.998504 0.078481 0.733810
Si Si5 0.778231 0.258949 0.677946
Si Si6 0.034686 0.304028 0.822571
Si Si7 0.740466 0.451359 0.435372
Si Si8 0.369115 0.842762 0.930872
O O1 0.694476 0.688190 0.562953
O O2 0.629969 0.792108 0.164407
O O3 0.850629 0.825495 0.281272
O O4 0.873490 0.961019 0.519003
O O5 0.391367 0.545810 0.164929
O O6 0.282430 0.472679 0.486158
O O7 0.127706 0.315407 0.111567
O O8 0.408444 0.671767 0.744456
O O9 0.415588 0.759505 0.068100
O O10 0.973839 0.172593 0.710023
O O11 0.000000 0.000000 0.000000
O O12 0.796865 0.387796 0.640809
O O13 0.698480 0.192429 0.382473
O O14 0.917819 0.295510 0.780615
O O15 0.717239 0.187735 0.914044
O O16 0.147245 0.441593 0.705782
O O17 0.500000 0.000000 0.000000
#
# Coordination Sequence:
#
# PCOD9031106 Si02
#       8
#     2   2   2   2   2   2   2   2
#     4  11  24  41  68  91 131 174 219 274 334 396
#     4  11  21  42  67  93 132 165 225 277 328 401
#     4  10  24  42  65  97 128 176 217 278 339 391
#     4  11  24  43  60  96 131 168 224 272 323 408
#     4  11  25  44  71 100 135 180 225 279 343 395
#     4  11  24  40  67  97 131 176 218 277 340 395
#     4  10  22  43  64  97 134 166 224 279 325 408
#     4  11  25  46  66 100 138 177 232 276 329 415
#
# _framework density 20.762605000000001
#
# number of rings (size 3 to 8) (size 9 to 14) (size 15 to 20)
#    0.000    1.250    3.750    1.125    3.500    3.000 
#    0.000    0.000    0.000    0.000    0.000    0.000 
#    0.000    0.000    0.000    0.000    0.000    0.000 
#
# Total GULP energy -89162.467062 kJ/mol
# GULP energy per Si atom -5572.654191 kJ/mol
# Density = 2.071535 g / cm^3
# Si number density = 20.762605 Si / 1000 Ang^3
#
#
#
# Elastic Constant Matrix: (Units=GPa)
#
#
# Indices 1 2 3 4 5 6 
#
# 1 109.0007 -26.9653 -95.9547 -34.7079 -64.1573 -67.5202
# 2 -26.9653 72.2216 87.5184 50.9514 61.9552 54.6836
# 3 -95.9547 87.5184 356.9349 160.7880 213.1425 214.2218
# 4 -34.7079 50.9514 160.7880 95.4339 105.2738 97.4143
# 5 -64.1573 61.9552 213.1425 105.2738 173.8160 140.1784
# 6 -67.5202 54.6836 214.2218 97.4143 140.1784 163.5177
#
#
#
# Elastic Compliance Matrix: (Units=1/GPa)
#
#
# Indices 1 2 3 4 5 6 
#
# 1 0.013349 0.001931 0.003085 -0.006885 0.002115 0.003112
# 2 0.001931 0.022808 0.001212 -0.011230 -0.002295 0.000239
# 3 0.003085 0.001212 0.023294 -0.018676 -0.005212 -0.014055
# 4 -0.006885 -0.011230 -0.018676 0.055619 -0.009945 0.000770
# 5 0.002115 -0.002295 -0.005212 -0.009945 0.026433 -0.008267
# 6 0.003112 0.000239 -0.014055 0.000770 -0.008267 0.032363
#
#
# Mechanical properties :
#
#
# Convention : Reuss Voigt Hill
#
# Bulk Modulus (GPa) = 13.90642 51.92821 32.91732
# Shear Modulus (GPa) = 26.97180 124.79077 75.88128
#
# Velocity S-wave (km/s) = 3.60815 7.76106 6.05198
# Velocity P-wave (km/s) = 4.90619 10.26532 8.04511
#
# Compressibility (1/GPa) = 0.07190923
#
# Stress axis : x y z
#
# Youngs Moduli (GPa) = 74.91313 43.84334 42.92931
#
# Poissons Ratio (x) = -0.08467 -0.13246
# Poissons Ratio (y) = -0.14467 -0.05204
# Poissons Ratio (z) = -0.23114 -0.05315
#
# Static dielectric constant tensor:
#      x y z
#    x 1.527180 0.101750 -0.034480 
#    y 0.101750 1.708770 -0.032060 
#    z -0.034480 -0.032060 1.829330 
# 
# From -- ./inp_files/69277.got.cif
#   From: 2010.05.17/outbox.cif.g08.bks.cpg/sg2_35_cif.got.tgz:69277.got - 2010.06.03 11:33:40.
