data_PCOD9031764
_publ_section_title
;
Structure prediction by ZEFSAII (Michael W. Deem and Ramdas Pophale) SiO2 
 PCOD9031764
Probable space group: P -1
;
_chemical_formula_sum "Si O2"
_cell_formula_units_Z 16
_cell_length_a 14.419785
_cell_length_b 10.855910
_cell_length_c 7.411118
_cell_angle_alpha 50.250197
_cell_angle_beta 95.911245
_cell_angle_gamma 124.989470
_cell_volume 663.636428
_symmetry_space_group_name_H-M "P -1"
_symmetry_group_IT_number 2
_symmetry_cell_setting 'triclinic'
loop_
_space_group_symop_operation_xyz
x,y,z
-x,-y,-z
loop_
_atom_site_type_symbol
_atom_site_label
_atom_site_fract_x
_atom_site_fract_y
_atom_site_fract_z
Si Si1 0.666942 0.093750 0.083736
Si Si2 0.927028 0.663409 0.080155
Si Si3 0.024735 0.625786 0.700821
Si Si4 0.175201 0.993016 0.627255
Si Si5 0.423929 0.465118 0.194070
Si Si6 0.432295 0.637093 0.483832
Si Si7 0.807992 0.545431 0.531389
Si Si8 0.658137 0.322315 0.187167
O O1 0.764774 0.064529 0.167957
O O2 0.649611 0.149113 0.231907
O O3 0.539517 0.869670 0.202655
O O4 0.726759 0.287882 0.775583
O O5 0.953402 0.506558 0.290027
O O6 0.884742 0.686380 0.239218
O O7 0.805305 0.520805 0.061998
O O8 0.042260 0.879914 0.800248
O O9 0.141970 0.867501 0.549653
O O10 0.915235 0.619655 0.624923
O O11 0.000000 0.500000 0.000000
O O12 0.281273 0.240971 0.375918
O O13 0.503128 0.455718 0.362432
O O14 0.500000 0.500000 0.000000
O O15 0.411331 0.639028 0.001020
O O16 0.310808 0.471243 0.491313
O O17 0.392951 0.689598 0.611867
#
# Coordination Sequence:
#
# PCOD9031764 Si02
#       8
#     2   2   2   2   2   2   2   2
#     4  11  18  33  56  83 112 142 187 228 270 326
#     4  10  19  32  53  87 117 141 179 226 280 330
#     4  10  17  32  53  84 111 137 177 229 269 324
#     4  10  19  34  59  85 109 143 188 227 271 328
#     4   9  20  39  59  79 110 146 188 229 272 323
#     4   9  21  35  55  82 110 147 188 224 275 328
#     4  11  20  32  54  84 119 145 171 233 286 319
#     4  10  19  35  58  81 109 147 184 234 271 317
#
# _framework density 24.109584999999999
#
# number of rings (size 3 to 8) (size 9 to 14) (size 15 to 20)
#    0.000    2.000    3.750    1.875    0.000    0.500 
#    0.000    0.625    0.000   12.000    0.000    0.000 
#    0.000    0.000    0.000    0.000    0.000    0.000 
#
# Total GULP energy -89109.199458 kJ/mol
# GULP energy per Si atom -5569.324966 kJ/mol
# Density = 2.405471 g / cm^3
# Si number density = 24.109585 Si / 1000 Ang^3
#
#
#
# Elastic Constant Matrix: (Units=GPa)
#
#
# Indices 1 2 3 4 5 6 
#
# 1 76.7808 40.0902 19.2589 -3.4069 0.3509 40.5905
# 2 40.0902 76.3924 11.2870 2.6601 -11.2876 25.6742
# 3 19.2589 11.2870 53.8473 0.3804 -13.5418 3.4503
# 4 -3.4069 2.6601 0.3804 23.8022 10.7962 -6.0770
# 5 0.3509 -11.2876 -13.5418 10.7962 42.8363 9.1654
# 6 40.5905 25.6742 3.4503 -6.0770 9.1654 40.3440
#
#
#
# Elastic Compliance Matrix: (Units=1/GPa)
#
#
# Indices 1 2 3 4 5 6 
#
# 1 0.034867 -0.005560 -0.008315 -0.004104 0.003557 -0.032257
# 2 -0.005560 0.022711 0.001354 -0.012554 0.012557 -0.013719
# 3 -0.008315 0.001354 0.023204 -0.004750 0.008335 0.002911
# 4 -0.004104 -0.012554 -0.004750 0.061966 -0.026351 0.027845
# 5 0.003557 0.012557 0.008335 -0.026351 0.041390 -0.025655
# 6 -0.032257 -0.013719 0.002911 0.027845 -0.025655 0.075745
#
#
# Mechanical properties :
#
#
# Convention : Reuss Voigt Hill
#
# Bulk Modulus (GPa) = 17.94012 38.69920 28.31966
# Shear Modulus (GPa) = 16.47411 30.48880 23.48146
#
# Velocity S-wave (km/s) = 2.61684 3.55997 3.12420
# Velocity P-wave (km/s) = 4.07280 5.74317 4.97854
#
# Compressibility (1/GPa) = 0.05574098
#
# Stress axis : x y z
#
# Youngs Moduli (GPa) = 28.68014 44.03084 43.09568
#
# Poissons Ratio (x) = 0.24481 0.35833
# Poissons Ratio (y) = 0.15946 -0.05834
# Poissons Ratio (z) = 0.23847 -0.05961
#
# Static dielectric constant tensor:
#      x y z
#    x 2.082710 -0.090650 -0.022830 
#    y -0.090650 2.000650 0.020480 
#    z -0.022830 0.020480 1.935750 
# 
# From -- ./inp_files/310795.got.cif
#   From: 2010.05.17/outbox.cif.g08.bks.cpg/sg2_156_cif.got.tgz:310795.got - 2010.06.03 11:33:40.
