data_PCOD9031212
_publ_section_title
;
Structure prediction by ZEFSAII (Michael W. Deem and Ramdas Pophale) SiO2 
 PCOD9031212
Probable space group: P -1
;
_chemical_formula_sum "Si O2"
_cell_formula_units_Z 12
_cell_length_a 12.579086
_cell_length_b 15.885119
_cell_length_c 9.127790
_cell_angle_alpha 51.101531
_cell_angle_beta 62.311517
_cell_angle_gamma 23.308792
_cell_volume 523.183894
_symmetry_space_group_name_H-M "P -1"
_symmetry_group_IT_number 2
_symmetry_cell_setting 'triclinic'
loop_
_space_group_symop_operation_xyz
x,y,z
-x,-y,-z
loop_
_atom_site_type_symbol
_atom_site_label
_atom_site_fract_x
_atom_site_fract_y
_atom_site_fract_z
Si Si1 0.360609 0.920127 0.529737
Si Si2 0.406495 0.860671 0.884433
Si Si3 0.045710 0.572433 0.806305
Si Si4 0.941672 0.426353 0.555599
Si Si5 0.185219 0.765734 0.346392
Si Si6 0.736297 0.267762 0.990267
O O1 0.498907 0.832782 0.695971
O O2 0.619645 0.657427 0.560707
O O3 0.234300 0.127093 0.303365
O O4 0.058920 0.102934 0.555243
O O5 0.647571 0.643565 0.088524
O O6 0.335414 0.795953 0.946726
O O7 0.170019 0.146371 0.766964
O O8 0.052905 0.569221 0.629208
O O9 0.000000 0.500000 0.000000
O O10 0.000000 0.500000 0.500000
O O11 0.500000 0.500000 0.500000
O O12 0.229857 0.697416 0.221419
O O13 0.037847 0.005324 0.170119
O O14 0.500000 0.500000 0.000000
#
# Coordination Sequence:
#
# PCOD9031212 Si02
#       6
#     2   2   2   2   2   2
#     4  10  23  41  64  95 130 172 217 268 331 391
#     4  10  23  43  65  95 135 171 219 275 326 391
#     4  11  23  41  66  98 133 171 221 275 329 396
#     4  11  24  43  68  97 133 175 219 271 333 396
#     4  10  22  43  65  94 133 169 218 276 325 389
#     4  10  23  43  68  96 130 176 223 271 330 391
#
# _framework density 22.936487
#
# number of rings (size 3 to 8) (size 9 to 14) (size 15 to 20)
#    0.000    1.667    0.000    3.000    0.000   18.000 
#    0.000   10.000    0.000    0.000    0.000    0.000 
#    0.000    0.000    0.000    0.000    0.000    0.000 
#
# Total GULP energy -66854.633579 kJ/mol
# GULP energy per Si atom -5571.219465 kJ/mol
# Density = 2.288428 g / cm^3
# Si number density = 22.936487 Si / 1000 Ang^3
#
#
#
# Elastic Constant Matrix: (Units=GPa)
#
#
# Indices 1 2 3 4 5 6 
#
# 1 86.2761 31.7076 24.4089 -18.4670 -0.3200 8.6017
# 2 31.7076 182.0801 37.7087 -18.3871 -0.7432 17.3821
# 3 24.4089 37.7087 113.5899 -27.9891 11.8398 11.8798
# 4 -18.4670 -18.3871 -27.9891 37.3003 -7.5388 -12.2639
# 5 -0.3200 -0.7432 11.8398 -7.5388 37.5775 -9.4627
# 6 8.6017 17.3821 11.8798 -12.2639 -9.4627 32.2345
#
#
#
# Elastic Compliance Matrix: (Units=1/GPa)
#
#
# Indices 1 2 3 4 5 6 
#
# 1 0.013681 -0.001585 -0.001265 0.005445 0.001632 0.000221
# 2 -0.001585 0.006328 -0.001397 0.000578 0.000108 -0.002224
# 3 -0.001265 -0.001397 0.011541 0.006241 -0.002830 -0.001619
# 4 0.005445 0.000578 0.006241 0.041306 0.010055 0.014603
# 5 0.001632 0.000108 -0.002830 0.010055 0.033084 0.014088
# 6 0.000221 -0.002224 -0.001619 0.014603 0.014088 0.042451
#
#
# Mechanical properties :
#
#
# Convention : Reuss Voigt Hill
#
# Bulk Modulus (GPa) = 43.37103 63.28851 53.32977
# Shear Modulus (GPa) = 30.38208 40.63052 35.50630
#
# Velocity S-wave (km/s) = 3.64348 4.21341 3.93877
# Velocity P-wave (km/s) = 6.05394 7.16403 6.63225
#
# Compressibility (1/GPa) = 0.02305687
#
# Stress axis : x y z
#
# Youngs Moduli (GPa) = 73.09621 158.01889 86.64548
#
# Poissons Ratio (x) = 0.25045 0.10962
# Poissons Ratio (y) = 0.11585 0.12101
# Poissons Ratio (z) = 0.09248 0.22069
#
# Static dielectric constant tensor:
#      x y z
#    x 2.069780 -0.130570 -0.060480 
#    y -0.130570 1.931840 -0.022510 
#    z -0.060480 -0.022510 1.998020 
# 
# From -- ./inp_files/316996.got.cif
#   From: 2010.05.17/outbox.cif.g08.bks.cpg/sg2_159_cif.got.tgz:316996.got - 2010.06.03 11:33:40.
