data_PCOD9031269
_publ_section_title
;
Structure prediction by ZEFSAII (Michael W. Deem and Ramdas Pophale) SiO2 
 PCOD9031269
Probable space group: P -1
;
_chemical_formula_sum "Si O2"
_cell_formula_units_Z 14
_cell_length_a 16.840887
_cell_length_b 7.986860
_cell_length_c 15.047098
_cell_angle_alpha 105.935460
_cell_angle_beta 28.299132
_cell_angle_gamma 89.534064
_cell_volume 771.666718
_symmetry_space_group_name_H-M "P -1"
_symmetry_group_IT_number 2
_symmetry_cell_setting 'triclinic'
loop_
_space_group_symop_operation_xyz
x,y,z
-x,-y,-z
loop_
_atom_site_type_symbol
_atom_site_label
_atom_site_fract_x
_atom_site_fract_y
_atom_site_fract_z
Si Si1 0.968144 0.971218 0.130294
Si Si2 0.080040 0.686687 0.638034
Si Si3 0.486343 0.884211 0.411529
Si Si4 0.372770 0.566585 0.725667
Si Si5 0.358328 0.156089 0.939431
Si Si6 0.468625 0.298113 0.249449
Si Si7 0.461902 0.572787 0.148979
O O1 0.144027 0.742729 0.954669
O O2 0.976400 0.139806 0.206562
O O3 0.746323 0.020279 0.365661
O O4 0.000000 0.000000 0.000000
O O5 0.228879 0.458929 0.501183
O O6 0.225728 0.699626 0.425590
O O7 0.880581 0.720864 0.798912
O O8 0.591723 0.641687 0.296295
O O9 0.587508 0.901227 0.226208
O O10 0.500000 0.000000 0.500000
O O11 0.500000 0.500000 0.500000
O O12 0.456836 0.659361 0.726125
O O13 0.445849 0.292390 0.900705
O O14 0.458606 0.939932 0.861903
O O15 0.548312 0.377053 0.103007
O O16 0.500000 0.500000 0.000000
#
# Coordination Sequence:
#
# PCOD9031269 Si02
#       7
#     2   2   2   2   2   2   2
#     4  12  21  38  65  91 136 175 214 276 321 381
#     4  10  22  43  65  98 132 167 220 273 323 385
#     4  12  24  38  60  98 133 177 222 262 328 397
#     4  12  21  38  65  91 136 175 214 276 321 381
#     4  12  22  42  72  95 135 173 217 271 333 393
#     4  10  22  43  65  98 132 167 220 273 323 385
#     4  10  24  48  69  97 138 168 220 282 324 388
#
# _framework density 18.142545999999999
#
# number of rings (size 3 to 8) (size 9 to 14) (size 15 to 20)
#    0.857    0.000    7.143    1.714    0.000    2.857 
#    2.571    0.714    0.000    0.000    0.000    0.000 
#    0.000    0.000    0.000    0.000    0.000    0.000 
#
# Total GULP energy -78136.470657 kJ/mol
# GULP energy per Si atom -5581.176475 kJ/mol
# Density = 1.810125 g / cm^3
# Si number density = 18.142546 Si / 1000 Ang^3
#
#
#
# Elastic Constant Matrix: (Units=GPa)
#
#
# Indices 1 2 3 4 5 6 
#
# 1 92.4640 51.4016 58.2464 -0.8578 8.8246 0.0244
# 2 51.4016 136.3800 58.0240 6.1489 -15.4457 -5.4247
# 3 58.2464 58.0240 125.7017 0.1604 -29.1045 -3.1720
# 4 -0.8578 6.1489 0.1604 32.4315 -8.7054 -11.6638
# 5 8.8246 -15.4457 -29.1045 -8.7054 49.4257 3.4896
# 6 0.0244 -5.4247 -3.1720 -11.6638 3.4896 27.2253
#
#
#
# Elastic Compliance Matrix: (Units=1/GPa)
#
#
# Indices 1 2 3 4 5 6 
#
# 1 0.021036 -0.004856 -0.010220 -0.002157 -0.011557 -0.001620
# 2 -0.004856 0.010353 -0.001860 -0.000949 0.002763 0.001090
# 3 -0.010220 -0.001860 0.016204 0.003624 0.011308 0.001629
# 4 -0.002157 -0.000949 0.003624 0.038759 0.007932 0.015824
# 5 -0.011557 0.002763 0.011308 0.007932 0.031124 0.001287
# 6 -0.001620 0.001090 0.001629 0.015824 0.001287 0.043753
#
#
# Mechanical properties :
#
#
# Convention : Reuss Voigt Hill
#
# Bulk Modulus (GPa) = 72.88192 76.65441 74.76816
# Shear Modulus (GPa) = 25.04051 34.27475 29.65763
#
# Velocity S-wave (km/s) = 3.71915 4.35120 4.04753
# Velocity P-wave (km/s) = 7.66171 8.22112 7.94634
#
# Compressibility (1/GPa) = 0.01372082
#
# Stress axis : x y z
#
# Youngs Moduli (GPa) = 47.53798 96.58662 61.71193
#
# Poissons Ratio (x) = 0.46907 0.63067
# Poissons Ratio (y) = 0.23087 0.11481
# Poissons Ratio (z) = 0.48582 0.17968
#
# Static dielectric constant tensor:
#      x y z
#    x 1.607530 -0.006190 -0.006490 
#    y -0.006190 1.622060 -0.003290 
#    z -0.006490 -0.003290 1.620780 
# 
# From -- ./inp_files/227086.got.cif
#   From: 2010.05.17/outbox.cif.g08.bks.cpg/sg2_114_cif.got.tgz:227086.got - 2010.06.03 11:33:40.
