data_PCOD9031704
_publ_section_title
;
Structure prediction by ZEFSAII (Michael W. Deem and Ramdas Pophale) SiO2 
 PCOD9031704
Probable space group: P -1
;
_chemical_formula_sum "Si O2"
_cell_formula_units_Z 16
_cell_length_a 12.384257
_cell_length_b 12.595233
_cell_length_c 9.033144
_cell_angle_alpha 46.422223
_cell_angle_beta 46.500611
_cell_angle_gamma 65.036612
_cell_volume 736.729968
_symmetry_space_group_name_H-M "P -1"
_symmetry_group_IT_number 2
_symmetry_cell_setting 'triclinic'
loop_
_space_group_symop_operation_xyz
x,y,z
-x,-y,-z
loop_
_atom_site_type_symbol
_atom_site_label
_atom_site_fract_x
_atom_site_fract_y
_atom_site_fract_z
Si Si1 0.870172 0.571528 0.416829
Si Si2 0.887830 0.827891 0.374703
Si Si3 0.862449 0.569825 0.863800
Si Si4 0.813383 0.709775 0.065973
Si Si5 0.547619 0.851913 0.670626
Si Si6 0.376545 0.074007 0.140977
Si Si7 0.887592 0.116148 0.253589
Si Si8 0.288292 0.644866 0.984179
O O1 0.934428 0.711074 0.322614
O O2 0.797550 0.444758 0.713868
O O3 0.000768 0.509680 0.256264
O O4 0.759520 0.632937 0.343774
O O5 0.883865 0.733684 0.620277
O O6 0.718418 0.844092 0.474267
O O7 0.950401 0.991509 0.207957
O O8 0.848680 0.585707 0.034607
O O9 0.715913 0.480246 0.017802
O O10 0.696820 0.807672 0.005653
O O11 0.970583 0.804350 0.869583
O O12 0.546631 0.860929 0.841865
O O13 0.500000 0.000000 0.500000
O O14 0.443145 0.716441 0.833485
O O15 0.236430 0.963078 0.440897
O O16 0.500000 0.000000 0.000000
O O17 0.793671 0.223690 0.141082
#
# Coordination Sequence:
#
# PCOD9031704 Si02
#       8
#     2   2   2   2   2   2   2   2
#     4  11  26  42  67 105 138 182 229 288 338 413
#     4  10  22  43  68 100 136 173 239 288 337 408
#     4  11  23  46  64  97 148 176 226 278 350 414
#     4  12  25  46  72 101 147 186 222 287 354 419
#     4  11  22  45  71  95 135 183 228 289 343 403
#     4  11  26  47  68 107 140 175 232 291 346 414
#     4  11  23  44  77 102 135 186 230 289 358 390
#     4  11  23  43  72 101 133 185 236 280 342 407
#
# _framework density 21.717590999999999
#
# number of rings (size 3 to 8) (size 9 to 14) (size 15 to 20)
#    0.000    1.000    6.250    2.250    1.750    3.500 
#    2.250    0.625    0.000    0.000    0.000    0.000 
#    0.000    0.000    0.000    0.000    0.000    0.000 
#
# Total GULP energy -89331.026306 kJ/mol
# GULP energy per Si atom -5583.189144 kJ/mol
# Density = 2.166816 g / cm^3
# Si number density = 21.717591 Si / 1000 Ang^3
#
#
#
# Elastic Constant Matrix: (Units=GPa)
#
#
# Indices 1 2 3 4 5 6 
#
# 1 141.9278 41.2069 38.2642 -3.6038 14.5899 17.6624
# 2 41.2069 111.5538 34.7302 3.5999 -2.0202 16.8772
# 3 38.2642 34.7302 62.7546 -12.8965 16.7491 5.0955
# 4 -3.6038 3.5999 -12.8965 38.2991 0.1466 0.5945
# 5 14.5899 -2.0202 16.7491 0.1466 52.8267 -12.9633
# 6 17.6624 16.8772 5.0955 0.5945 -12.9633 53.0127
#
#
#
# Elastic Compliance Matrix: (Units=1/GPa)
#
#
# Indices 1 2 3 4 5 6 
#
# 1 0.009136 -0.001806 -0.003875 -0.000228 -0.001997 -0.002582
# 2 -0.001806 0.012276 -0.007019 -0.003668 0.002732 -0.001922
# 3 -0.003875 -0.007019 0.026226 0.009172 -0.007785 -0.001002
# 4 -0.000228 -0.003668 0.009172 0.029546 -0.003255 -0.000765
# 5 -0.001997 0.002732 -0.007785 -0.003255 0.023623 0.006357
# 6 -0.002582 -0.001922 -0.001002 -0.000765 0.006357 0.021995
#
#
# Mechanical properties :
#
#
# Convention : Reuss Voigt Hill
#
# Bulk Modulus (GPa) = 44.97106 60.51541 52.74323
# Shear Modulus (GPa) = 32.13056 42.29669 37.21362
#
# Velocity S-wave (km/s) = 3.85056 4.41792 4.14396
# Velocity P-wave (km/s) = 6.36563 7.34502 6.87279
#
# Compressibility (1/GPa) = 0.02223652
#
# Stress axis : x y z
#
# Youngs Moduli (GPa) = 109.45938 81.46302 38.12957
#
# Poissons Ratio (x) = 0.14716 0.14775
# Poissons Ratio (y) = 0.19773 0.26764
# Poissons Ratio (z) = 0.42416 0.57180
#
# Static dielectric constant tensor:
#      x y z
#    x 1.817860 -0.034800 0.019350 
#    y -0.034800 1.853410 -0.008190 
#    z 0.019350 -0.008190 1.827240 
# 
# From -- ./inp_files/184237.got.cif
#   From: 2010.05.17/outbox.cif.g08.bks.cpg/sg2_93_cif.got.tgz:184237.got - 2010.06.03 11:33:40.
