data_PCOD9031130
_publ_section_title
;
Structure prediction by ZEFSAII (Michael W. Deem and Ramdas Pophale) SiO2 
 PCOD9031130
Probable space group: P -1
;
_chemical_formula_sum "Si O2"
_cell_formula_units_Z 16
_cell_length_a 17.455802
_cell_length_b 11.260233
_cell_length_c 6.366068
_cell_angle_alpha 70.489845
_cell_angle_beta 132.053403
_cell_angle_gamma 129.417039
_cell_volume 708.621684
_symmetry_space_group_name_H-M "P -1"
_symmetry_group_IT_number 2
_symmetry_cell_setting 'triclinic'
loop_
_space_group_symop_operation_xyz
x,y,z
-x,-y,-z
loop_
_atom_site_type_symbol
_atom_site_label
_atom_site_fract_x
_atom_site_fract_y
_atom_site_fract_z
Si Si1 0.724914 0.262588 0.371372
Si Si2 0.855974 0.616909 0.358512
Si Si3 0.713526 0.000321 0.281465
Si Si4 0.546283 0.728575 0.463166
Si Si5 0.498833 0.858304 0.664705
Si Si6 0.991698 0.139556 0.834124
Si Si7 0.602146 0.549487 0.973690
Si Si8 0.055602 0.682354 0.004928
O O1 0.805997 0.438914 0.331424
O O2 0.596394 0.217537 0.269335
O O3 0.799335 0.244492 0.709662
O O4 0.706839 0.144956 0.230334
O O5 0.887425 0.729088 0.156356
O O6 0.738577 0.597990 0.277387
O O7 0.991156 0.696782 0.674885
O O8 0.642545 0.883577 0.416696
O O9 0.635793 0.918496 0.975591
O O10 0.857567 0.056692 0.514047
O O11 0.463880 0.748704 0.466243
O O12 0.616958 0.680424 0.772730
O O13 0.459052 0.594753 0.214346
O O14 0.500000 0.000000 0.500000
O O15 0.983308 0.243101 0.934418
O O16 0.000000 0.000000 0.000000
O O17 0.500000 0.500000 0.000000
O O18 0.000000 0.500000 0.000000
#
# Coordination Sequence:
#
# PCOD9031130 Si02
#       8
#     2   2   2   2   2   2   2   2
#     4  10  22  43  65 101 140 176 227 275 341 408
#     4  11  24  43  71  95 133 177 224 281 340 397
#     4  11  24  42  65 100 141 176 230 277 342 409
#     4  11  24  43  66  98 137 177 223 284 342 402
#     4  12  25  40  70 102 137 178 220 282 344 404
#     4  11  26  45  69 100 135 183 231 279 336 409
#     4  11  25  44  69  98 134 178 228 283 341 407
#     4   9  23  43  65 100 137 175 228 277 334 407
#
# _framework density 22.579042999999999
#
# number of rings (size 3 to 8) (size 9 to 14) (size 15 to 20)
#    0.000    1.250    1.250    3.375    3.500   11.000 
#    0.000    0.000    0.000    0.000    0.000    0.000 
#    0.000    0.000    0.000    0.000    0.000    0.000 
#
# Total GULP energy -89337.288813 kJ/mol
# GULP energy per Si atom -5583.580551 kJ/mol
# Density = 2.252765 g / cm^3
# Si number density = 22.579043 Si / 1000 Ang^3
#
#
#
# Elastic Constant Matrix: (Units=GPa)
#
#
# Indices 1 2 3 4 5 6 
#
# 1 97.1232 55.2264 32.9651 -2.6016 9.3908 -15.7261
# 2 55.2264 118.3794 47.7121 -18.4094 -0.6356 -0.4772
# 3 32.9651 47.7121 93.4855 -8.6248 3.8886 -10.2264
# 4 -2.6016 -18.4094 -8.6248 41.0741 -6.6626 -6.4433
# 5 9.3908 -0.6356 3.8886 -6.6626 22.8424 2.3338
# 6 -15.7261 -0.4772 -10.2264 -6.4433 2.3338 34.9303
#
#
#
# Elastic Compliance Matrix: (Units=1/GPa)
#
#
# Indices 1 2 3 4 5 6 
#
# 1 0.017212 -0.008095 -0.001048 -0.003024 -0.008757 0.007359
# 2 -0.008095 0.015185 -0.005132 0.005621 0.006708 -0.004351
# 3 -0.001048 -0.005132 0.014295 0.000885 -0.002292 0.003960
# 4 -0.003024 0.005621 0.000885 0.028950 0.009316 0.003692
# 5 -0.008757 0.006708 -0.002292 0.009316 0.051309 -0.006232
# 6 0.007359 -0.004351 0.003960 0.003692 -0.006232 0.034139
#
#
# Mechanical properties :
#
#
# Convention : Reuss Voigt Hill
#
# Bulk Modulus (GPa) = 55.11617 64.53282 59.82449
# Shear Modulus (GPa) = 25.55090 31.30834 28.42962
#
# Velocity S-wave (km/s) = 3.36761 3.72776 3.55225
# Velocity P-wave (km/s) = 6.29161 6.86813 6.58618
#
# Compressibility (1/GPa) = 0.01814350
#
# Stress axis : x y z
#
# Youngs Moduli (GPa) = 58.09831 65.85450 69.95227
#
# Poissons Ratio (x) = 0.53311 0.07328
# Poissons Ratio (y) = 0.47032 0.35898
# Poissons Ratio (z) = 0.06086 0.33795
#
# Static dielectric constant tensor:
#      x y z
#    x 1.557960 0.078910 0.096370 
#    y 0.078910 1.808230 -0.041860 
#    z 0.096370 -0.041860 1.852150 
# 
# From -- ./inp_files/109646.got.cif
#   From: 2010.05.17/outbox.cif.g08.bks.cpg/sg2_55_cif.got.tgz:109646.got - 2010.06.03 11:33:40.
