data_PCOD9031717
_publ_section_title
;
Structure prediction by ZEFSAII (Michael W. Deem and Ramdas Pophale) SiO2 
 PCOD9031717
Probable space group: P -1
;
_chemical_formula_sum "Si O2"
_cell_formula_units_Z 16
_cell_length_a 7.929141
_cell_length_b 5.052467
_cell_length_c 15.026267
_cell_angle_alpha 96.579493
_cell_angle_beta 95.091785
_cell_angle_gamma 104.277508
_cell_volume 575.245995
_symmetry_space_group_name_H-M "P -1"
_symmetry_group_IT_number 2
_symmetry_cell_setting 'triclinic'
loop_
_space_group_symop_operation_xyz
x,y,z
-x,-y,-z
loop_
_atom_site_type_symbol
_atom_site_label
_atom_site_fract_x
_atom_site_fract_y
_atom_site_fract_z
Si Si1 0.726188 0.400782 0.056899
Si Si2 0.077253 0.818639 0.067926
Si Si3 0.371645 0.612861 0.282067
Si Si4 0.639467 0.909856 0.162367
Si Si5 0.530731 0.811472 0.606889
Si Si6 0.962600 0.222985 0.747050
Si Si7 0.878942 0.822106 0.562562
Si Si8 0.833282 0.325357 0.331916
O O1 0.671359 0.681974 0.084010
O O2 0.937941 0.527566 0.077967
O O3 0.742062 0.238672 0.959897
O O4 0.000000 0.000000 0.000000
O O5 0.077106 0.948210 0.169981
O O6 0.632245 0.172001 0.112964
O O7 0.481925 0.742967 0.207435
O O8 0.417645 0.341767 0.309255
O O9 0.171195 0.582212 0.248799
O O10 0.427444 0.857339 0.368199
O O11 0.780336 0.060685 0.252474
O O12 0.320097 0.709621 0.603204
O O13 0.667477 0.744233 0.538141
O O14 0.143635 0.426359 0.727998
O O15 0.898960 0.021046 0.655581
O O16 0.988486 0.618264 0.599303
O O17 0.000000 0.000000 0.500000
#
# Coordination Sequence:
#
# PCOD9031717 Si02
#       8
#     2   2   2   2   2   2   2   2
#     4  11  22  37  62  96 136 176 232 297 339 413
#     4  11  23  39  65 102 139 184 240 297 349 426
#     4  10  22  43  68 100 144 182 237 297 353 426
#     4  11  21  39  68  99 132 185 235 287 350 417
#     4  10  23  43  70 106 143 186 236 293 354 432
#     4  11  24  46  71 101 139 193 239 289 368 427
#     4  11  26  46  71 108 148 185 238 303 356 430
#     4  11  23  41  75 101 141 195 240 285 366 423
#
# _framework density 27.814185999999999
#
# number of rings (size 3 to 8) (size 9 to 14) (size 15 to 20)
#    0.000    1.250    3.750    2.250    3.500    1.000 
#    0.000    1.875    0.000    0.000    0.000    0.000 
#    0.000    0.000    0.000    0.000    0.000    0.000 
#
# Total GULP energy -89277.636098 kJ/mol
# GULP energy per Si atom -5579.852256 kJ/mol
# Density = 2.775088 g / cm^3
# Si number density = 27.814186 Si / 1000 Ang^3
#
#
#
# Elastic Constant Matrix: (Units=GPa)
#
#
# Indices 1 2 3 4 5 6 
#
# 1 100.6667 20.6169 20.8282 -8.9478 -20.2107 9.1963
# 2 20.6169 162.4195 38.7636 -10.3227 2.5398 -1.3923
# 3 20.8282 38.7636 141.8750 -8.1351 -19.9460 0.1054
# 4 -8.9478 -10.3227 -8.1351 56.8366 0.4120 -11.8215
# 5 -20.2107 2.5398 -19.9460 0.4120 40.6155 -18.3710
# 6 9.1963 -1.3923 0.1054 -11.8215 -18.3710 38.6276
#
#
#
# Elastic Compliance Matrix: (Units=1/GPa)
#
#
# Indices 1 2 3 4 5 6 
#
# 1 0.011565 -0.001355 -0.000420 0.001565 0.005819 0.000445
# 2 -0.001355 0.006870 -0.001942 0.000723 -0.002172 -0.000236
# 3 -0.000420 -0.001942 0.008480 0.001382 0.005424 0.003009
# 4 0.001565 0.000723 0.001382 0.019800 0.004833 0.008008
# 5 0.005819 -0.002172 0.005424 0.004833 0.038563 0.018341
# 6 0.000445 -0.000236 0.003009 0.008008 0.018341 0.036939
#
#
# Mechanical properties :
#
#
# Convention : Reuss Voigt Hill
#
# Bulk Modulus (GPa) = 51.33248 62.81984 57.07616
# Shear Modulus (GPa) = 36.72513 48.86609 42.79561
#
# Velocity S-wave (km/s) = 3.63764 4.19606 3.92679
# Velocity P-wave (km/s) = 6.01155 6.79047 6.41285
#
# Compressibility (1/GPa) = 0.01948084
#
# Stress axis : x y z
#
# Youngs Moduli (GPa) = 86.46826 145.55419 117.92132
#
# Poissons Ratio (x) = 0.19730 0.04953
# Poissons Ratio (y) = 0.11721 0.22898
# Poissons Ratio (z) = 0.03632 0.28264
#
# Static dielectric constant tensor:
#      x y z
#    x 2.462320 0.014600 0.164960 
#    y 0.014600 2.117150 0.182350 
#    z 0.164960 0.182350 2.623020 
# 
# From -- ./inp_files/552930.got.cif
#   From: 2010.05.17/outbox.cif.g08.bks.cpg/sg2_277_cif.got.tgz:552930.got - 2010.06.03 11:33:40.
