data_PCOD9031504
_publ_section_title
;
Structure prediction by ZEFSAII (Michael W. Deem and Ramdas Pophale) SiO2 
 PCOD9031504
Probable space group: P -1
;
_chemical_formula_sum "Si O2"
_cell_formula_units_Z 16
_cell_length_a 8.073190
_cell_length_b 19.823808
_cell_length_c 10.817680
_cell_angle_alpha 141.093875
_cell_angle_beta 69.862919
_cell_angle_gamma 136.584698
_cell_volume 641.925984
_symmetry_space_group_name_H-M "P -1"
_symmetry_group_IT_number 2
_symmetry_cell_setting 'triclinic'
loop_
_space_group_symop_operation_xyz
x,y,z
-x,-y,-z
loop_
_atom_site_type_symbol
_atom_site_label
_atom_site_fract_x
_atom_site_fract_y
_atom_site_fract_z
Si Si1 0.187612 0.927828 0.548199
Si Si2 0.688642 0.253990 0.008899
Si Si3 0.445543 0.624208 0.588924
Si Si4 0.041888 0.255877 0.263157
Si Si5 0.921043 0.013607 0.755643
Si Si6 0.438129 0.922857 0.683102
Si Si7 0.668496 0.442894 0.746481
Si Si8 0.250317 0.279272 0.842407
O O1 0.243991 0.852369 0.512456
O O2 0.029703 0.827413 0.319543
O O3 0.984240 0.922644 0.650693
O O4 0.488643 0.129879 0.767124
O O5 0.566733 0.289545 0.179616
O O6 0.003798 0.429272 0.139509
O O7 0.651543 0.125828 0.913926
O O8 0.180985 0.421428 0.393302
O O9 0.718747 0.679679 0.616764
O O10 0.421319 0.654461 0.498360
O O11 0.769253 0.164861 0.275060
O O12 0.965151 0.119645 0.002586
O O13 0.148665 0.146537 0.779559
O O14 0.623743 0.905304 0.618209
O O15 0.488268 0.354640 0.792927
O O16 0.654564 0.565431 0.897703
#
# Coordination Sequence:
#
# PCOD9031504 Si02
#       8
#     2   2   2   2   2   2   2   2
#     4  10  24  43  67  97 133 176 223 276 333 391
#     4  10  22  43  67 102 133 166 226 283 333 390
#     4  11  22  40  67  96 142 171 216 288 338 394
#     4  11  22  39  64 100 134 175 222 274 341 401
#     4  12  22  43  65  95 136 174 223 279 328 397
#     4  10  23  41  68  99 132 175 223 278 336 399
#     4  11  23  40  68  97 132 184 221 270 340 401
#     4  11  23  43  65  95 137 181 225 267 332 406
#
# _framework density 24.924990999999999
#
# number of rings (size 3 to 8) (size 9 to 14) (size 15 to 20)
#    0.750    0.500    3.750    1.875    0.000    6.000 
#    0.000    0.625    0.000    0.000    0.000    0.000 
#    0.000    0.000    0.000    0.000    0.000    0.000 
#
# Total GULP energy -89479.035370 kJ/mol
# GULP energy per Si atom -5592.439711 kJ/mol
# Density = 2.486826 g / cm^3
# Si number density = 24.924991 Si / 1000 Ang^3
#
#
#
# Elastic Constant Matrix: (Units=GPa)
#
#
# Indices 1 2 3 4 5 6 
#
# 1 93.6553 36.3932 -8.7028 10.3591 1.1052 9.5715
# 2 36.3932 173.2090 12.0857 2.0576 11.8138 26.7084
# 3 -8.7028 12.0857 53.5044 -5.6501 -7.6033 -3.2010
# 4 10.3591 2.0576 -5.6501 21.5819 13.2818 11.6939
# 5 1.1052 11.8138 -7.6033 13.2818 43.8153 -3.3643
# 6 9.5715 26.7084 -3.2010 11.6939 -3.3643 31.3735
#
#
#
# Elastic Compliance Matrix: (Units=1/GPa)
#
#
# Indices 1 2 3 4 5 6 
#
# 1 0.013022 -0.003655 0.002743 -0.009791 0.004372 0.003537
# 2 -0.003655 0.008869 -0.003152 0.010528 -0.006914 -0.011422
# 3 0.002743 -0.003152 0.020733 -0.001598 0.005256 0.005121
# 4 -0.009791 0.010528 -0.001598 0.096390 -0.035611 -0.045884
# 5 0.004372 -0.006914 0.005256 -0.035611 0.038007 0.022437
# 6 0.003537 -0.011422 0.005121 -0.045884 0.022437 0.060550
#
#
# Mechanical properties :
#
#
# Convention : Reuss Voigt Hill
#
# Bulk Modulus (GPa) = 28.98883 44.43564 36.71223
# Shear Modulus (GPa) = 19.44032 38.06033 28.75033
#
# Velocity S-wave (km/s) = 2.79579 3.91192 3.39997
# Velocity P-wave (km/s) = 4.69868 6.18632 5.49310
#
# Compressibility (1/GPa) = 0.03449605
#
# Stress axis : x y z
#
# Youngs Moduli (GPa) = 76.79025 112.75162 48.23283
#
# Poissons Ratio (x) = 0.41208 -0.13229
# Poissons Ratio (y) = 0.28065 0.15203
# Poissons Ratio (z) = -0.21062 0.35540
#
# Static dielectric constant tensor:
#      x y z
#    x 1.951700 0.001870 0.005170 
#    y 0.001870 1.980140 0.054440 
#    z 0.005170 0.054440 2.005530 
# 
# From -- ./inp_files/406690.got.cif
#   From: 2010.05.17/outbox.cif.g08.bks.cpg/sg2_204_cif.got.tgz:406690.got - 2010.06.03 11:33:40.
