data_PCOD9031307
_publ_section_title
;
Structure prediction by ZEFSAII (Michael W. Deem and Ramdas Pophale) SiO2 
 PCOD9031307
Probable space group: P -1
;
_chemical_formula_sum "Si O2"
_cell_formula_units_Z 16
_cell_length_a 11.805493
_cell_length_b 13.844445
_cell_length_c 5.309372
_cell_angle_alpha 121.067305
_cell_angle_beta 88.011420
_cell_angle_gamma 75.016600
_cell_volume 703.047211
_symmetry_space_group_name_H-M "P -1"
_symmetry_group_IT_number 2
_symmetry_cell_setting 'triclinic'
loop_
_space_group_symop_operation_xyz
x,y,z
-x,-y,-z
loop_
_atom_site_type_symbol
_atom_site_label
_atom_site_fract_x
_atom_site_fract_y
_atom_site_fract_z
Si Si1 0.175398 0.023523 0.725140
Si Si2 0.373810 0.325971 0.731111
Si Si3 0.459732 0.944225 0.673178
Si Si4 0.933134 0.721215 0.706728
Si Si5 0.166796 0.654781 0.902971
Si Si6 0.617169 0.531889 0.586289
Si Si7 0.135613 0.444079 0.835467
Si Si8 0.032338 0.865574 0.501408
O O1 0.092441 0.056070 0.518141
O O2 0.317690 0.963123 0.667173
O O3 0.102223 0.942445 0.746608
O O4 0.152217 0.154724 0.015156
O O5 0.464406 0.194657 0.529918
O O6 0.371998 0.382134 0.528519
O O7 0.235342 0.337691 0.825673
O O8 0.402486 0.401621 0.056403
O O9 0.500000 0.000000 0.500000
O O10 0.500000 0.000000 0.000000
O O11 0.872562 0.623627 0.512768
O O12 0.040859 0.660277 0.801145
O O13 0.995449 0.767982 0.532679
O O14 0.271974 0.591981 0.616132
O O15 0.186409 0.554301 0.980139
O O16 0.134782 0.787291 0.192088
O O17 0.500000 0.500000 0.500000
O O18 0.000000 0.500000 0.000000
#
# Coordination Sequence:
#
# PCOD9031307 Si02
#       8
#     2   2   2   2   2   2   2   2
#     4  10  25  42  67  98 138 175 240 287 349 415
#     4  11  26  45  66 105 136 183 235 282 350 417
#     4  12  28  49  74 103 141 192 243 293 352 417
#     4  11  21  39  67  98 131 176 222 283 352 410
#     4  10  23  38  64 101 131 173 226 275 347 419
#     4  11  25  45  69  98 141 181 229 283 348 420
#     4  11  21  38  66  95 137 172 220 280 345 409
#     4  10  22  43  66 102 133 180 225 294 352 415
#
# _framework density 22.758073
#
# number of rings (size 3 to 8) (size 9 to 14) (size 15 to 20)
#    0.000    1.250    1.250    3.375    7.000    3.000 
#    0.000    0.000    0.000    0.000    0.000    0.000 
#    0.000    0.000    0.000    0.000    0.000    0.000 
#
# Total GULP energy -89132.429496 kJ/mol
# GULP energy per Si atom -5570.776843 kJ/mol
# Density = 2.270627 g / cm^3
# Si number density = 22.758073 Si / 1000 Ang^3
#
#
#
# Elastic Constant Matrix: (Units=GPa)
#
#
# Indices 1 2 3 4 5 6 
#
# 1 140.0357 33.6009 63.8003 22.6611 -12.9991 -34.5084
# 2 33.6009 80.8226 40.1753 19.2117 -8.1560 -19.7447
# 3 63.8003 40.1753 116.8392 17.8777 -3.4584 -24.6643
# 4 22.6611 19.2117 17.8777 43.1528 -14.8300 -12.3149
# 5 -12.9991 -8.1560 -3.4584 -14.8300 26.0247 9.1230
# 6 -34.5084 -19.7447 -24.6643 -12.3149 9.1230 40.2769
#
#
#
# Elastic Compliance Matrix: (Units=1/GPa)
#
#
# Indices 1 2 3 4 5 6 
#
# 1 0.011082 -0.000483 -0.004404 -0.001489 0.001966 0.005660
# 2 -0.000483 0.016532 -0.003957 -0.004124 0.000716 0.003844
# 3 -0.004404 -0.003957 0.013034 -0.001860 -0.003654 0.002527
# 4 -0.001489 -0.004124 -0.001860 0.032459 0.015522 0.001973
# 5 0.001966 0.000716 -0.003654 0.015522 0.050400 -0.006872
# 6 0.005660 0.003844 0.002527 0.001973 -0.006872 0.035270
#
#
# Mechanical properties :
#
#
# Convention : Reuss Voigt Hill
#
# Bulk Modulus (GPa) = 43.55442 68.09450 55.82446
# Shear Modulus (GPa) = 27.15633 35.23228 31.19431
#
# Velocity S-wave (km/s) = 3.45811 3.93889 3.70630
# Velocity P-wave (km/s) = 5.92657 7.11846 6.54968
#
# Compressibility (1/GPa) = 0.02295978
#
# Stress axis : x y z
#
# Youngs Moduli (GPa) = 90.23828 60.48760 76.71981
#
# Poissons Ratio (x) = 0.02919 0.33790
# Poissons Ratio (y) = 0.04355 0.30361
# Poissons Ratio (z) = 0.39744 0.23937
#
# Static dielectric constant tensor:
#      x y z
#    x 1.878790 0.033730 -0.040250 
#    y 0.033730 1.985810 -0.013730 
#    z -0.040250 -0.013730 1.922180 
# 
# From -- ./inp_files/78780.got.cif
#   From: 2010.05.17/outbox.cif.g08.bks.cpg/sg2_40_cif.got.tgz:78780.got - 2010.06.03 11:33:40.
