data_PCOD9031371
_publ_section_title
;
Structure prediction by ZEFSAII (Michael W. Deem and Ramdas Pophale) SiO2 
 PCOD9031371
Probable space group: P -1
;
_chemical_formula_sum "Si O2"
_cell_formula_units_Z 16
_cell_length_a 9.094309
_cell_length_b 13.782275
_cell_length_c 17.187964
_cell_angle_alpha 41.690807
_cell_angle_beta 138.606822
_cell_angle_gamma 145.946225
_cell_volume 750.690740
_symmetry_space_group_name_H-M "P -1"
_symmetry_group_IT_number 2
_symmetry_cell_setting 'triclinic'
loop_
_space_group_symop_operation_xyz
x,y,z
-x,-y,-z
loop_
_atom_site_type_symbol
_atom_site_label
_atom_site_fract_x
_atom_site_fract_y
_atom_site_fract_z
Si Si1 0.134978 0.636731 0.777108
Si Si2 0.046570 0.173286 0.322070
Si Si3 0.828771 0.772172 0.835558
Si Si4 0.344824 0.021507 0.995503
Si Si5 0.524880 0.662718 0.038099
Si Si6 0.093689 0.717521 0.194634
Si Si7 0.481493 0.159304 0.591020
Si Si8 0.537829 0.096267 0.375843
O O1 0.172744 0.752332 0.645541
O O2 0.956965 0.660190 0.752588
O O3 0.004534 0.434605 0.818534
O O4 0.423953 0.713236 0.891555
O O5 0.017772 0.148676 0.233389
O O6 0.334507 0.213427 0.441495
O O7 0.781017 0.993029 0.367392
O O8 0.699257 0.558790 0.913467
O O9 0.584068 0.792547 0.728458
O O10 0.029991 0.898420 0.910155
O O11 0.464647 0.223753 0.951866
O O12 0.318464 0.914739 0.126488
O O13 0.500000 0.000000 0.000000
O O14 0.827450 0.706892 0.121995
O O15 0.255342 0.692989 0.340345
O O16 0.594074 0.066659 0.641719
O O17 0.500000 0.000000 0.500000
#
# Coordination Sequence:
#
# PCOD9031371 Si02
#       8
#     2   2   2   2   2   2   2   2
#     4  11  23  42  67  97 135 179 222 272 343 399
#     4  10  23  42  66  94 135 183 219 273 339 401
#     4  12  23  43  70 102 134 174 227 280 339 393
#     4  12  26  41  66 102 136 177 225 278 336 402
#     4  12  25  45  69 101 139 178 221 283 341 400
#     4  12  23  43  67  98 134 179 228 277 333 405
#     4  10  22  43  66  93 133 180 230 267 334 409
#     4  11  21  41  67  94 124 174 225 271 330 394
#
# _framework density 21.313703
#
# number of rings (size 3 to 8) (size 9 to 14) (size 15 to 20)
#    0.000    0.750    3.750    5.250    1.750    1.500 
#    0.000    3.750    0.000    0.000    0.000    0.000 
#    0.000    0.000    0.000    0.000    0.000    0.000 
#
# Total GULP energy -89278.311809 kJ/mol
# GULP energy per Si atom -5579.894488 kJ/mol
# Density = 2.126519 g / cm^3
# Si number density = 21.313703 Si / 1000 Ang^3
#
#
#
# Elastic Constant Matrix: (Units=GPa)
#
#
# Indices 1 2 3 4 5 6 
#
# 1 66.1785 22.9476 9.4322 2.0778 -0.5456 -23.5986
# 2 22.9476 106.0606 34.0813 14.1831 12.4888 -29.6691
# 3 9.4322 34.0813 98.5861 13.7271 -1.4074 -2.3829
# 4 2.0778 14.1831 13.7271 30.5365 -0.5730 0.6346
# 5 -0.5456 12.4888 -1.4074 -0.5730 30.5090 -7.7536
# 6 -23.5986 -29.6691 -2.3829 0.6346 -7.7536 33.9328
#
#
#
# Elastic Compliance Matrix: (Units=1/GPa)
#
#
# Indices 1 2 3 4 5 6 
#
# 1 0.020871 -0.000181 -0.001372 -0.000957 0.004241 0.015247
# 2 -0.000181 0.015480 -0.004309 -0.005564 -0.003488 0.012413
# 3 -0.001372 -0.004309 0.012154 -0.003271 0.001349 -0.003499
# 4 -0.000957 -0.005564 -0.003271 0.037019 0.001237 -0.006169
# 5 0.004241 -0.003488 0.001349 0.001237 0.036478 0.008306
# 6 0.015247 0.012413 -0.003499 -0.006169 0.008306 0.052694
#
#
# Mechanical properties :
#
#
# Convention : Reuss Voigt Hill
#
# Bulk Modulus (GPa) = 27.18822 44.86081 36.02452
# Shear Modulus (GPa) = 25.16608 32.61992 28.89300
#
# Velocity S-wave (km/s) = 3.43993 3.91636 3.68585
# Velocity P-wave (km/s) = 5.34428 6.44547 5.92053
#
# Compressibility (1/GPa) = 0.03678064
#
# Stress axis : x y z
#
# Youngs Moduli (GPa) = 47.91360 64.60121 82.27426
#
# Poissons Ratio (x) = 0.01171 0.11287
# Poissons Ratio (y) = 0.00868 0.35452
# Poissons Ratio (z) = 0.06573 0.27837
#
# Static dielectric constant tensor:
#      x y z
#    x 1.815720 0.030310 0.005590 
#    y 0.030310 1.793580 -0.001430 
#    z 0.005590 -0.001430 1.796920 
# 
# From -- ./inp_files/399452.got.cif
#   From: 2010.05.17/outbox.cif.g08.bks.cpg/sg2_200_cif.got.tgz:399452.got - 2010.06.03 11:33:40.
