data_PCOD9031237
_publ_section_title
;
Structure prediction by ZEFSAII (Michael W. Deem and Ramdas Pophale) SiO2 
 PCOD9031237
Probable space group: P -1
;
_chemical_formula_sum "Si O2"
_cell_formula_units_Z 15
_cell_length_a 10.427023
_cell_length_b 12.527424
_cell_length_c 7.281722
_cell_angle_alpha 60.592174
_cell_angle_beta 61.193203
_cell_angle_gamma 86.924515
_cell_volume 704.902799
_symmetry_space_group_name_H-M "P -1"
_symmetry_group_IT_number 2
_symmetry_cell_setting 'triclinic'
loop_
_space_group_symop_operation_xyz
x,y,z
-x,-y,-z
loop_
_atom_site_type_symbol
_atom_site_label
_atom_site_fract_x
_atom_site_fract_y
_atom_site_fract_z
Si Si1 0.870921 0.375229 0.902062
Si Si2 0.689541 0.299714 0.446948
Si Si3 0.977634 0.003425 0.729342
Si Si4 0.483826 0.048815 0.672976
Si Si5 0.753999 0.176557 0.850890
Si Si6 0.500000 0.500000 0.500000
Si Si7 0.208951 0.435712 0.484348
Si Si8 0.200399 0.157252 0.720869
O O1 0.808906 0.241998 0.951295
O O2 0.795105 0.472403 0.761188
O O3 0.814206 0.361343 0.160322
O O4 0.949630 0.579239 0.285759
O O5 0.627279 0.151526 0.559010
O O6 0.754351 0.287873 0.614219
O O7 0.562142 0.378819 0.475182
O O8 0.869207 0.096227 0.772327
O O9 0.128074 0.060535 0.691872
O O10 0.000000 0.000000 0.500000
O O11 0.899485 0.874082 0.997542
O O12 0.357264 0.128179 0.686531
O O13 0.500000 0.000000 0.500000
O O14 0.410296 0.920437 0.942631
O O15 0.353788 0.471803 0.484412
O O16 0.206123 0.295954 0.531983
#
# Coordination Sequence:
#
# PCOD9031237 Si02
#       8
#     2   2   2   2   2   1   2   2
#     4  11  25  47  75  97 140 189 232 284 358 407
#     4  12  26  46  72 101 140 186 231 293 345 418
#     4  10  23  39  67 102 131 176 220 286 350 413
#     4  11  23  42  70 100 137 184 223 284 358 413
#     4  11  23  43  68 104 137 176 233 284 343 429
#     4  12  26  48  70 102 142 178 246 286 348 412
#     4  11  24  49  69 103 141 185 236 295 337 424
#     4  10  22  43  65  95 141 172 228 283 343 417
#
# _framework density 21.279530999999999
#
# number of rings (size 3 to 8) (size 9 to 14) (size 15 to 20)
#    0.000    1.067    5.333    0.400    3.733    1.067 
#    4.800    0.000    0.000    0.000    0.000    0.000 
#    0.000    0.000    0.000    0.000    0.000    0.000 
#
# Total GULP energy -83539.223111 kJ/mol
# GULP energy per Si atom -5569.281541 kJ/mol
# Density = 2.123110 g / cm^3
# Si number density = 21.279531 Si / 1000 Ang^3
#
#
#
# Elastic Constant Matrix: (Units=GPa)
#
#
# Indices 1 2 3 4 5 6 
#
# 1 59.5561 -23.3641 10.4551 -7.9236 11.7397 -4.4032
# 2 -23.3641 67.3365 21.5773 -2.9333 -1.3303 -11.4603
# 3 10.4551 21.5773 115.3650 1.2622 10.4230 -4.0652
# 4 -7.9236 -2.9333 1.2622 28.0561 3.9454 10.5271
# 5 11.7397 -1.3303 10.4230 3.9454 18.3373 -6.0630
# 6 -4.4032 -11.4603 -4.0652 10.5271 -6.0630 32.6725
#
#
#
# Elastic Compliance Matrix: (Units=1/GPa)
#
#
# Indices 1 2 3 4 5 6 
#
# 1 0.025955 0.010088 -0.002858 0.010788 -0.016536 0.000136
# 2 0.010088 0.021172 -0.004605 0.002597 -0.000453 0.007292
# 3 -0.002858 -0.004605 0.010163 -0.000565 -0.004626 -0.001412
# 4 0.010788 0.002597 -0.000565 0.048806 -0.022733 -0.017649
# 5 -0.016536 -0.000453 -0.004626 -0.022733 0.078890 0.019001
# 6 0.000136 0.007292 -0.001412 -0.017649 0.019001 0.042220
#
#
# Mechanical properties :
#
#
# Convention : Reuss Voigt Hill
#
# Bulk Modulus (GPa) = 15.98962 28.84379 22.41671
# Shear Modulus (GPa) = 20.59292 31.38579 25.98935
#
# Velocity S-wave (km/s) = 3.11422 3.84465 3.49855
# Velocity P-wave (km/s) = 4.52344 5.76997 5.18431
#
# Compressibility (1/GPa) = 0.06254056
#
# Stress axis : x y z
#
# Youngs Moduli (GPa) = 38.52779 47.23233 98.39816
#
# Poissons Ratio (x) = -0.47649 0.28125
# Poissons Ratio (y) = -0.38868 0.45309
# Poissons Ratio (z) = 0.11012 0.21749
#
# Static dielectric constant tensor:
#      x y z
#    x 1.746260 0.031700 -0.001150 
#    y 0.031700 1.776540 -0.048340 
#    z -0.001150 -0.048340 1.747170 
# 
# From -- ./inp_files/69041.got.cif
#   From: 2010.05.17/outbox.cif.g08.bks.cpg/sg2_35_cif.got.tgz:69041.got - 2010.06.03 11:33:40.
