data_PCOD9031778
_publ_section_title
;
Structure prediction by ZEFSAII (Michael W. Deem and Ramdas Pophale) SiO2 
 PCOD9031778
Probable space group: P -1
;
_chemical_formula_sum "Si O2"
_cell_formula_units_Z 16
_cell_length_a 8.062479
_cell_length_b 14.804625
_cell_length_c 11.392261
_cell_angle_alpha 105.970789
_cell_angle_beta 127.693325
_cell_angle_gamma 45.912430
_cell_volume 745.370973
_symmetry_space_group_name_H-M "P -1"
_symmetry_group_IT_number 2
_symmetry_cell_setting 'triclinic'
loop_
_space_group_symop_operation_xyz
x,y,z
-x,-y,-z
loop_
_atom_site_type_symbol
_atom_site_label
_atom_site_fract_x
_atom_site_fract_y
_atom_site_fract_z
Si Si1 0.316117 0.018279 0.092714
Si Si2 0.926178 0.211566 0.359360
Si Si3 0.254294 0.814190 0.956260
Si Si4 0.762020 0.616913 0.279977
Si Si5 0.199899 0.646405 0.415498
Si Si6 0.787661 0.055930 0.538098
Si Si7 0.191475 0.321943 0.421102
Si Si8 0.078650 0.136622 0.790972
O O1 0.305422 0.909996 0.022853
O O2 0.654815 0.940748 0.215829
O O3 0.202325 0.111389 0.964424
O O4 0.081228 0.104473 0.124356
O O5 0.798402 0.275864 0.454142
O O6 0.025433 0.280469 0.376522
O O7 0.712713 0.231334 0.178711
O O8 0.185688 0.056860 0.440026
O O9 0.475546 0.699694 0.105209
O O10 0.704064 0.656945 0.406898
O O11 0.944805 0.650469 0.327459
O O12 0.973281 0.460802 0.311686
O O13 0.500000 0.500000 0.500000
O O14 0.144601 0.715612 0.294444
O O15 0.469256 0.195860 0.427124
O O16 0.929367 0.082089 0.703696
O O17 0.000000 0.000000 0.500000
#
# Coordination Sequence:
#
# PCOD9031778 Si02
#       8
#     2   2   2   2   2   2   2   2
#     4  10  23  37  64  93 130 169 209 263 316 379
#     4  11  25  40  64  99 129 164 215 266 323 373
#     4  11  22  41  65  93 130 167 213 261 317 378
#     4  10  22  43  68  90 122 178 219 255 312 388
#     4  11  23  42  67  92 130 169 216 262 319 385
#     4  12  23  37  64  96 132 161 209 270 322 368
#     4  10  24  43  65  93 128 169 221 262 311 382
#     4  11  21  40  62  96 126 170 214 254 321 381
#
# _framework density 21.465823
#
# number of rings (size 3 to 8) (size 9 to 14) (size 15 to 20)
#    0.000    1.250    3.750    1.875    3.500    2.500 
#    0.000    0.625    0.000    0.000    0.000    0.000 
#    0.000    0.000    0.000    0.000    0.000    0.000 
#
# Total GULP energy -89395.645433 kJ/mol
# GULP energy per Si atom -5587.227840 kJ/mol
# Density = 2.141697 g / cm^3
# Si number density = 21.465823 Si / 1000 Ang^3
#
#
#
# Elastic Constant Matrix: (Units=GPa)
#
#
# Indices 1 2 3 4 5 6 
#
# 1 43.5459 18.9545 6.6181 -6.7044 -4.9860 10.0314
# 2 18.9545 133.8467 43.5050 -28.6282 -9.8835 16.1092
# 3 6.6181 43.5050 77.3083 -23.4795 -9.5341 8.1087
# 4 -6.7044 -28.6282 -23.4795 29.9024 10.8570 -1.0329
# 5 -4.9860 -9.8835 -9.5341 10.8570 27.3098 -9.0483
# 6 10.0314 16.1092 8.1087 -1.0329 -9.0483 33.5637
#
#
#
# Elastic Compliance Matrix: (Units=1/GPa)
#
#
# Indices 1 2 3 4 5 6 
#
# 1 0.026029 -0.002332 0.001069 0.004044 0.000464 -0.006669
# 2 -0.002332 0.010925 -0.003381 0.007922 -0.002148 -0.004065
# 3 0.001069 -0.003381 0.018519 0.011468 -0.000062 -0.002834
# 4 0.004044 0.007922 0.011468 0.057415 -0.018897 -0.011109
# 5 0.000464 -0.002148 -0.000062 -0.018897 0.047792 0.013210
# 6 -0.006669 -0.004065 -0.002834 -0.011109 0.013210 0.037643
#
#
# Mechanical properties :
#
#
# Convention : Reuss Voigt Hill
#
# Bulk Modulus (GPa) = 21.65181 43.65069 32.65125
# Shear Modulus (GPa) = 22.42086 30.53006 26.47546
#
# Velocity S-wave (km/s) = 3.23536 3.77538 3.51576
# Velocity P-wave (km/s) = 4.90564 6.27565 5.63246
#
# Compressibility (1/GPa) = 0.04618552
#
# Stress axis : x y z
#
# Youngs Moduli (GPa) = 38.41907 91.52915 53.99771
#
# Poissons Ratio (x) = 0.21340 -0.05771
# Poissons Ratio (y) = 0.08958 0.18258
# Poissons Ratio (z) = -0.04106 0.30949
#
# Static dielectric constant tensor:
#      x y z
#    x 1.807650 -0.025350 0.006220 
#    y -0.025350 1.774400 0.012530 
#    z 0.006220 0.012530 1.792580 
# 
# From -- ./inp_files/184128.got.cif
#   From: 2010.05.17/outbox.cif.g08.bks.cpg/sg2_93_cif.got.tgz:184128.got - 2010.06.03 11:33:40.
