data_PCOD9031631
_publ_section_title
;
Structure prediction by ZEFSAII (Michael W. Deem and Ramdas Pophale) SiO2 
 PCOD9031631
Probable space group: P -1
;
_chemical_formula_sum "Si O2"
_cell_formula_units_Z 16
_cell_length_a 13.046796
_cell_length_b 11.444022
_cell_length_c 11.632793
_cell_angle_alpha 31.485271
_cell_angle_beta 121.508130
_cell_angle_gamma 102.075992
_cell_volume 655.319625
_symmetry_space_group_name_H-M "P -1"
_symmetry_group_IT_number 2
_symmetry_cell_setting 'triclinic'
loop_
_space_group_symop_operation_xyz
x,y,z
-x,-y,-z
loop_
_atom_site_type_symbol
_atom_site_label
_atom_site_fract_x
_atom_site_fract_y
_atom_site_fract_z
Si Si1 0.231935 0.334136 0.211123
Si Si2 0.870400 0.226823 0.382435
Si Si3 0.114854 0.547366 0.584273
Si Si4 0.640464 0.030194 0.779101
Si Si5 0.820613 0.263112 0.759906
Si Si6 0.042736 0.678841 0.993802
Si Si7 0.380740 0.788920 0.644651
Si Si8 0.547773 0.724666 0.328699
O O1 0.084352 0.371151 0.045162
O O2 0.355748 0.041738 0.492343
O O3 0.230854 0.566641 0.946027
O O4 0.186577 0.428966 0.236164
O O5 0.937884 0.337741 0.416223
O O6 0.764964 0.196670 0.429818
O O7 0.988733 0.930192 0.666926
O O8 0.132157 0.719048 0.354155
O O9 0.000000 0.500000 0.500000
O O10 0.270389 0.285070 0.914238
O O11 0.754765 0.081046 0.866912
O O12 0.606553 0.158684 0.525206
O O13 0.501250 0.158644 0.668861
O O14 0.692280 0.541012 0.498377
O O15 0.936341 0.219223 0.958785
O O16 0.500000 0.500000 0.000000
O O17 0.500000 0.500000 0.500000
O O18 0.500000 0.000000 0.000000
#
# Coordination Sequence:
#
# PCOD9031631 Si02
#       8
#     2   2   2   2   2   2   2   2
#     4  10  22  45  64  95 135 178 224 295 343 429
#     4  11  22  41  67  94 135 176 227 290 348 421
#     4  12  23  36  68 104 137 176 219 287 368 429
#     4  11  23  44  65  97 142 176 234 300 354 428
#     4  11  23  41  64 101 135 179 230 287 361 434
#     4  10  23  41  66  97 134 176 229 280 358 429
#     4  11  25  44  66  98 132 182 239 288 355 417
#     4  10  22  43  67  96 142 192 233 292 361 436
#
# _framework density 24.415568
#
# number of rings (size 3 to 8) (size 9 to 14) (size 15 to 20)
#    0.000    1.250    3.750    1.875    1.750    2.500 
#    6.750    0.000    0.000    0.000    0.000    0.000 
#    0.000    0.000    0.000    0.000    0.000    0.000 
#
# Total GULP energy -89175.431150 kJ/mol
# GULP energy per Si atom -5573.464447 kJ/mol
# Density = 2.436000 g / cm^3
# Si number density = 24.415568 Si / 1000 Ang^3
#
#
#
# Elastic Constant Matrix: (Units=GPa)
#
#
# Indices 1 2 3 4 5 6 
#
# 1 74.4488 17.1537 19.2377 -1.2730 -4.1960 -21.5227
# 2 17.1537 93.3870 23.1451 -5.0798 -11.9198 -16.1216
# 3 19.2377 23.1451 143.9933 -24.6028 0.2295 -25.0914
# 4 -1.2730 -5.0798 -24.6028 35.8070 -14.5270 3.6891
# 5 -4.1960 -11.9198 0.2295 -14.5270 42.0444 3.4656
# 6 -21.5227 -16.1216 -25.0914 3.6891 3.4656 40.8404
#
#
#
# Elastic Compliance Matrix: (Units=1/GPa)
#
#
# Indices 1 2 3 4 5 6 
#
# 1 0.016141 -0.001490 -0.000747 -0.000804 0.000296 0.007507
# 2 -0.001490 0.012347 -0.000858 0.002396 0.003936 0.003011
# 3 -0.000747 -0.000858 0.008943 0.006153 0.001423 0.004086
# 4 -0.000804 0.002396 0.006153 0.038074 0.013746 -0.000303
# 5 0.000296 0.003936 0.001423 0.013746 0.029769 -0.001184
# 6 0.007507 0.003011 0.004086 -0.000303 -0.001184 0.032269
#
#
# Mechanical properties :
#
#
# Convention : Reuss Voigt Hill
#
# Bulk Modulus (GPa) = 32.00694 47.87801 39.94248
# Shear Modulus (GPa) = 32.43660 40.55788 36.49724
#
# Velocity S-wave (km/s) = 3.64884 4.08014 3.87050
# Velocity P-wave (km/s) = 5.55786 6.46907 6.03070
#
# Compressibility (1/GPa) = 0.03124323
#
# Stress axis : x y z
#
# Youngs Moduli (GPa) = 61.95216 80.99164 111.81399
#
# Poissons Ratio (x) = 0.12067 0.08350
# Poissons Ratio (y) = 0.09230 0.09591
# Poissons Ratio (z) = 0.04626 0.06947
#
# Static dielectric constant tensor:
#      x y z
#    x 1.957550 0.070550 0.011890 
#    y 0.070550 2.295770 0.088010 
#    z 0.011890 0.088010 2.052060 
# 
# From -- ./inp_files/95222.got.cif
#   From: 2010.05.17/outbox.cif.g08.bks.cpg/sg2_48_cif.got.tgz:95222.got - 2010.06.03 11:33:40.
