data_PCOD9031910
_publ_section_title
;
Structure prediction by ZEFSAII (Michael W. Deem and Ramdas Pophale) SiO2 
 PCOD9031910
Probable space group: P -1
;
_chemical_formula_sum "Si O2"
_cell_formula_units_Z 16
_cell_length_a 17.721708
_cell_length_b 11.860975
_cell_length_c 8.757698
_cell_angle_alpha 54.351122
_cell_angle_beta 147.542216
_cell_angle_gamma 128.850979
_cell_volume 763.054641
_symmetry_space_group_name_H-M "P -1"
_symmetry_group_IT_number 2
_symmetry_cell_setting 'triclinic'
loop_
_space_group_symop_operation_xyz
x,y,z
-x,-y,-z
loop_
_atom_site_type_symbol
_atom_site_label
_atom_site_fract_x
_atom_site_fract_y
_atom_site_fract_z
Si Si1 0.922899 0.197598 0.701099
Si Si2 0.611851 0.155025 0.117665
Si Si3 0.897735 0.359211 0.842238
Si Si4 0.142893 0.957221 0.831495
Si Si5 0.544174 0.910725 0.782774
Si Si6 0.191669 0.125386 0.097221
Si Si7 0.420498 0.604760 0.699396
Si Si8 0.496551 0.647951 0.452378
O O1 0.787757 0.205075 0.361083
O O2 0.945233 0.308154 0.797444
O O3 0.860975 0.026814 0.779999
O O4 0.071797 0.209468 0.854976
O O5 0.576761 0.137020 0.252887
O O6 0.566518 0.272011 0.848466
O O7 0.500000 0.000000 0.000000
O O8 0.742095 0.393653 0.526787
O O9 0.883498 0.211449 0.033757
O O10 0.000000 0.500000 0.000000
O O11 0.000000 0.000000 0.500000
O O12 0.291101 0.004979 0.942880
O O13 0.191587 0.060269 0.981083
O O14 0.535941 0.758945 0.815664
O O15 0.500000 0.000000 0.500000
O O16 0.346994 0.234510 0.328941
O O17 0.410702 0.599871 0.503080
O O18 0.500000 0.500000 0.000000
O O19 0.500000 0.500000 0.500000
#
# Coordination Sequence:
#
# PCOD9031910 Si02
#       8
#     2   2   2   2   2   2   2   2
#     4  10  22  43  68  98 139 178 227 279 344 408
#     4  12  24  41  71 102 134 179 228 283 344 408
#     4  11  26  44  68 103 140 183 234 288 351 413
#     4  11  25  42  70 102 138 182 236 287 343 418
#     4  12  22  45  72 100 135 181 239 289 338 406
#     4  10  22  44  66  99 138 182 224 283 338 412
#     4  12  26  47  72  95 139 189 234 290 348 410
#     4  12  27  44  67 103 140 177 232 285 347 412
#
# _framework density 20.968354000000001
#
# number of rings (size 3 to 8) (size 9 to 14) (size 15 to 20)
#    0.000    0.750    5.000    2.250    5.250    1.000 
#    0.000    0.625    0.000    0.000    0.000    0.000 
#    0.000    0.000    0.000    0.000    0.000    0.000 
#
# Total GULP energy -89178.411655 kJ/mol
# GULP energy per Si atom -5573.650728 kJ/mol
# Density = 2.092063 g / cm^3
# Si number density = 20.968354 Si / 1000 Ang^3
#
#
#
# Elastic Constant Matrix: (Units=GPa)
#
#
# Indices 1 2 3 4 5 6 
#
# 1 69.3746 23.7706 20.4807 -10.2872 8.1611 -10.2203
# 2 23.7706 134.7983 62.1338 -7.0849 0.5431 -29.8269
# 3 20.4807 62.1338 160.0121 -16.3165 18.3234 7.6992
# 4 -10.2872 -7.0849 -16.3165 47.4514 3.4576 -2.8736
# 5 8.1611 0.5431 18.3234 3.4576 34.1453 3.0517
# 6 -10.2203 -29.8269 7.6992 -2.8736 3.0517 29.2116
#
#
#
# Elastic Compliance Matrix: (Units=1/GPa)
#
#
# Indices 1 2 3 4 5 6 
#
# 1 0.017081 -0.000793 -0.001296 0.003838 -0.004330 0.006338
# 2 -0.000793 0.013797 -0.006145 0.000567 0.001844 0.015293
# 3 -0.001296 -0.006145 0.009921 0.002003 -0.004343 -0.008692
# 4 0.003838 0.000567 0.002003 0.023277 -0.004732 0.004178
# 5 -0.004330 0.001844 -0.004343 -0.004732 0.033319 -0.002434
# 6 0.006338 0.015293 -0.008692 0.004178 -0.002434 0.055022
#
#
# Mechanical properties :
#
#
# Convention : Reuss Voigt Hill
#
# Bulk Modulus (GPa) = 41.10016 64.10614 52.60315
# Shear Modulus (GPa) = 28.24904 39.34834 33.79869
#
# Velocity S-wave (km/s) = 3.67444 4.33663 4.01919
# Velocity P-wave (km/s) = 6.13560 7.46420 6.83227
#
# Compressibility (1/GPa) = 0.02433081
#
# Stress axis : x y z
#
# Youngs Moduli (GPa) = 58.54443 72.47847 100.79205
#
# Poissons Ratio (x) = 0.05749 0.13063
# Poissons Ratio (y) = 0.04644 0.61939
# Poissons Ratio (z) = 0.07588 0.44539
#
# Static dielectric constant tensor:
#      x y z
#    x 1.656720 -0.042110 0.108190 
#    y -0.042110 1.721740 0.002750 
#    z 0.108190 0.002750 1.753200 
# 
# From -- ./inp_files/332991.got.cif
#   From: 2010.05.17/outbox.cif.g08.bks.cpg/sg2_167_cif.got.tgz:332991.got - 2010.06.03 11:33:40.
