data_PCOD9031981
_publ_section_title
;
Structure prediction by ZEFSAII (Michael W. Deem and Ramdas Pophale) SiO2 
 PCOD9031981
Probable space group: P -1
;
_chemical_formula_sum "Si O2"
_cell_formula_units_Z 16
_cell_length_a 7.356483
_cell_length_b 8.915808
_cell_length_c 13.586312
_cell_angle_alpha 110.829270
_cell_angle_beta 71.759601
_cell_angle_gamma 69.908598
_cell_volume 679.303417
_symmetry_space_group_name_H-M "P -1"
_symmetry_group_IT_number 2
_symmetry_cell_setting 'triclinic'
loop_
_space_group_symop_operation_xyz
x,y,z
-x,-y,-z
loop_
_atom_site_type_symbol
_atom_site_label
_atom_site_fract_x
_atom_site_fract_y
_atom_site_fract_z
Si Si1 0.894058 0.083770 0.931549
Si Si2 0.571985 0.492706 0.625901
Si Si3 0.824734 0.829244 0.745298
Si Si4 0.737473 0.856292 0.379866
Si Si5 0.967285 0.077779 0.416160
Si Si6 0.000101 0.623952 0.118369
Si Si7 0.394181 0.346229 0.139078
Si Si8 0.777506 0.565233 0.441387
O O1 0.974676 0.214438 0.900437
O O2 0.940306 0.906920 0.816891
O O3 0.627624 0.222699 0.016364
O O4 0.000000 0.000000 0.000000
O O5 0.772212 0.291448 0.510320
O O6 0.579202 0.539125 0.748644
O O7 0.616948 0.626880 0.578032
O O8 0.355147 0.487484 0.628085
O O9 0.651411 0.805083 0.833956
O O10 0.810539 0.948309 0.679000
O O11 0.986954 0.620359 0.630718
O O12 0.834800 0.711477 0.420036
O O13 0.776109 0.729571 0.247826
O O14 0.500000 0.000000 0.500000
O O15 0.864970 0.964066 0.356453
O O16 0.000000 0.000000 0.500000
O O17 0.198409 0.488191 0.130581
O O18 0.000000 0.500000 0.000000
#
# Coordination Sequence:
#
# PCOD9031981 Si02
#       8
#     2   2   2   2   2   2   2   2
#     4  12  27  49  75 103 144 193 258 313 373 449
#     4  10  23  40  70 103 140 190 238 302 371 444
#     4  11  24  44  68  99 143 188 240 303 364 446
#     4  12  24  45  74 109 144 195 251 305 371 453
#     4  11  24  41  64 103 146 181 233 302 368 437
#     4  12  28  51  76 109 156 200 250 315 384 449
#     4  12  26  47  76 106 146 202 255 306 383 454
#     4  10  22  43  69 101 148 187 243 298 385 432
#
# _framework density 23.553540999999999
#
# number of rings (size 3 to 8) (size 9 to 14) (size 15 to 20)
#    0.000    0.750    3.750    3.000    3.500    2.000 
#    2.250    0.000    0.000    0.000    0.000    0.000 
#    0.000    0.000    0.000    0.000    0.000    0.000 
#
# Total GULP energy -89325.840192 kJ/mol
# GULP energy per Si atom -5582.865012 kJ/mol
# Density = 2.349993 g / cm^3
# Si number density = 23.553541 Si / 1000 Ang^3
#
#
#
# Elastic Constant Matrix: (Units=GPa)
#
#
# Indices 1 2 3 4 5 6 
#
# 1 69.6894 25.7593 23.1350 -9.7807 9.0651 4.7437
# 2 25.7593 109.2832 39.5977 -18.7134 -9.0283 18.1257
# 3 23.1350 39.5977 111.9161 -10.3173 10.4764 -2.0504
# 4 -9.7807 -18.7134 -10.3173 43.1529 4.2833 -2.1994
# 5 9.0651 -9.0283 10.4764 4.2833 47.7184 -6.4319
# 6 4.7437 18.1257 -2.0504 -2.1994 -6.4319 39.5690
#
#
#
# Elastic Compliance Matrix: (Units=1/GPa)
#
#
# Indices 1 2 3 4 5 6 
#
# 1 0.017005 -0.003016 -0.001897 0.002404 -0.003767 -0.001234
# 2 -0.003016 0.013003 -0.004027 0.003441 0.002916 -0.005138
# 3 -0.001897 -0.004027 0.011117 0.000857 -0.002613 0.002271
# 4 0.002404 0.003441 0.000857 0.025613 -0.002399 -0.000786
# 5 -0.003767 0.002916 -0.002613 -0.002399 0.023369 0.002646
# 6 -0.001234 -0.005138 0.002271 -0.000786 0.002646 0.028278
#
#
# Mechanical properties :
#
#
# Convention : Reuss Voigt Hill
#
# Bulk Modulus (GPa) = 43.01755 51.98586 47.50170
# Shear Modulus (GPa) = 34.71883 39.58119 37.15001
#
# Velocity S-wave (km/s) = 3.84349 4.10381 3.97578
# Velocity P-wave (km/s) = 6.16441 6.67640 6.42550
#
# Compressibility (1/GPa) = 0.02324633
#
# Stress axis : x y z
#
# Youngs Moduli (GPa) = 58.80570 76.90553 89.94931
#
# Poissons Ratio (x) = 0.23195 0.17059
# Poissons Ratio (y) = 0.17736 0.36223
# Poissons Ratio (z) = 0.11153 0.30970
#
# Static dielectric constant tensor:
#      x y z
#    x 1.950430 0.021820 0.027700 
#    y 0.021820 2.097770 -0.004980 
#    z 0.027700 -0.004980 1.896530 
# 
# From -- ./inp_files/382913.got.cif
#   From: 2010.05.17/outbox.cif.g08.bks.cpg/sg2_192_cif.got.tgz:382913.got - 2010.06.03 11:33:40.
