data_PCOD9031458
_publ_section_title
;
Structure prediction by ZEFSAII (Michael W. Deem and Ramdas Pophale) SiO2 
 PCOD9031458
Probable space group: P -1
;
_chemical_formula_sum "Si O2"
_cell_formula_units_Z 14
_cell_length_a 11.562446
_cell_length_b 8.487264
_cell_length_c 7.904736
_cell_angle_alpha 93.285919
_cell_angle_beta 74.469570
_cell_angle_gamma 53.036659
_cell_volume 572.668975
_symmetry_space_group_name_H-M "P -1"
_symmetry_group_IT_number 2
_symmetry_cell_setting 'triclinic'
loop_
_space_group_symop_operation_xyz
x,y,z
-x,-y,-z
loop_
_atom_site_type_symbol
_atom_site_label
_atom_site_fract_x
_atom_site_fract_y
_atom_site_fract_z
Si Si1 0.108335 0.539220 0.043759
Si Si2 0.496314 0.083984 0.321472
Si Si3 0.842568 0.703606 0.672040
Si Si4 0.194367 0.021628 0.758941
Si Si5 0.292794 0.603414 0.744387
Si Si6 0.842847 0.043552 0.612280
Si Si7 0.623078 0.464744 0.657430
O O1 0.175190 0.400932 0.173271
O O2 0.983788 0.778091 0.152657
O O3 0.233271 0.508533 0.868333
O O4 0.000000 0.500000 0.000000
O O5 0.336890 0.138566 0.316632
O O6 0.452762 0.299934 0.291939
O O7 0.500000 0.000000 0.500000
O O8 0.685960 0.946713 0.213077
O O9 0.000000 0.500000 0.500000
O O10 0.875155 0.861928 0.700875
O O11 0.217439 0.835250 0.830765
O O12 0.226073 0.963473 0.542196
O O13 0.477887 0.470598 0.682313
O O14 0.267820 0.601413 0.554287
O O15 0.726640 0.279655 0.738401
O O16 0.000000 0.000000 0.500000
#
# Coordination Sequence:
#
# PCOD9031458 Si02
#       7
#     2   2   2   2   2   2   2
#     4  12  27  42  66 100 142 176 221 281 338 399
#     4  11  21  40  72  98 133 170 229 281 331 398
#     4  12  25  43  66 102 134 180 227 275 342 396
#     4  10  22  43  66  98 131 183 216 275 342 393
#     4   9  21  41  66  92 132 171 223 266 330 402
#     4  11  22  38  69 100 134 173 230 275 323 409
#     4   9  21  39  69  97 122 177 223 269 332 399
#
# _framework density 24.446932
#
# number of rings (size 3 to 8) (size 9 to 14) (size 15 to 20)
#    0.000    1.429    2.857    2.143    8.000    0.000 
#    0.000    5.714    0.000    0.000    0.000    0.000 
#    0.000    0.000    0.000    0.000    0.000    0.000 
#
# Total GULP energy -77945.062286 kJ/mol
# GULP energy per Si atom -5567.504449 kJ/mol
# Density = 2.439129 g / cm^3
# Si number density = 24.446932 Si / 1000 Ang^3
#
#
#
# Elastic Constant Matrix: (Units=GPa)
#
#
# Indices 1 2 3 4 5 6 
#
# 1 103.5293 19.0180 32.5812 -11.9644 -41.1607 -12.0828
# 2 19.0180 132.5836 29.9950 -14.8799 -19.7800 -5.9527
# 3 32.5812 29.9950 72.5977 -31.9295 -33.1917 7.6257
# 4 -11.9644 -14.8799 -31.9295 30.1391 15.4456 -7.7260
# 5 -41.1607 -19.7800 -33.1917 15.4456 35.6604 -10.9556
# 6 -12.0828 -5.9527 7.6257 -7.7260 -10.9556 44.2660
#
#
#
# Elastic Compliance Matrix: (Units=1/GPa)
#
#
# Indices 1 2 3 4 5 6 
#
# 1 0.025625 0.002015 0.003445 -0.001226 0.039414 0.016213
# 2 0.002015 0.008867 -0.001390 0.001330 0.006553 0.003836
# 3 0.003445 -0.001390 0.036500 0.026841 0.027374 0.005925
# 4 -0.001226 0.001330 0.026841 0.064167 -0.001639 0.006014
# 5 0.039414 0.006553 0.027374 -0.001639 0.114071 0.034870
# 6 0.016213 0.003836 0.005925 0.006014 0.034870 0.036191
#
#
# Mechanical properties :
#
#
# Convention : Reuss Voigt Hill
#
# Bulk Modulus (GPa) = 12.63680 52.43321 32.53500
# Shear Modulus (GPa) = 16.46587 37.15421 26.81004
#
# Velocity S-wave (km/s) = 2.59807 3.90268 3.31518
# Velocity P-wave (km/s) = 3.76567 6.46546 5.29067
#
# Compressibility (1/GPa) = 0.07913394
#
# Stress axis : x y z
#
# Youngs Moduli (GPa) = 39.02395 112.77860 27.39691
#
# Poissons Ratio (x) = -0.22729 -0.09438
# Poissons Ratio (y) = -0.07865 0.03807
# Poissons Ratio (z) = -0.13443 0.15672
#
# Static dielectric constant tensor:
#      x y z
#    x 1.909360 -0.056990 -0.052800 
#    y -0.056990 2.131300 0.064930 
#    z -0.052800 0.064930 1.860460 
# 
# From -- ./inp_files/216749.got.cif
#   From: 2010.05.17/outbox.cif.g08.bks.cpg/sg2_109_cif.got.tgz:216749.got - 2010.06.03 11:33:40.
