data_PCOD9031227
_publ_section_title
;
Structure prediction by ZEFSAII (Michael W. Deem and Ramdas Pophale) SiO2 
 PCOD9031227
Probable space group: P -1
;
_chemical_formula_sum "Si O2"
_cell_formula_units_Z 16
_cell_length_a 25.340981
_cell_length_b 12.551636
_cell_length_c 12.142800
_cell_angle_alpha 146.239675
_cell_angle_beta 144.814045
_cell_angle_gamma 22.128267
_cell_volume 787.707833
_symmetry_space_group_name_H-M "P -1"
_symmetry_group_IT_number 2
_symmetry_cell_setting 'triclinic'
loop_
_space_group_symop_operation_xyz
x,y,z
-x,-y,-z
loop_
_atom_site_type_symbol
_atom_site_label
_atom_site_fract_x
_atom_site_fract_y
_atom_site_fract_z
Si Si1 0.822991 0.104031 0.075058
Si Si2 0.347501 0.683068 0.450547
Si Si3 0.649951 0.992914 0.748793
Si Si4 0.166497 0.288134 0.788094
Si Si5 0.906086 0.503954 0.911187
Si Si6 0.425787 0.137422 0.111728
Si Si7 0.083732 0.058975 0.156788
Si Si8 0.579733 0.771193 0.278626
O O1 0.728537 0.064653 0.910062
O O2 0.851447 0.066891 0.962252
O O3 0.735092 0.427841 0.240808
O O4 0.982463 0.844727 0.175377
O O5 0.500000 0.500000 0.500000
O O6 0.392887 0.401688 0.327742
O O7 0.269065 0.949780 0.632611
O O8 0.220759 0.869447 0.304953
O O9 0.766363 0.688164 0.759547
O O10 0.597444 0.950124 0.519727
O O11 0.515966 0.212726 0.792966
O O12 0.025613 0.581341 0.730770
O O13 0.128006 0.341283 0.896994
O O14 0.270418 0.300952 0.968577
O O15 0.000000 0.500000 0.000000
O O16 0.512606 0.891783 0.145570
O O17 0.500000 0.000000 0.000000
O O18 0.000000 0.000000 0.000000
#
# Coordination Sequence:
#
# PCOD9031227 Si02
#       8
#     2   2   2   2   2   2   2   2
#     4  10  23  41  68  91 128 178 214 272 332 395
#     4  12  26  42  69 101 128 182 226 268 338 404
#     4  10  22  43  65  95 132 166 223 276 327 398
#     4  11  23  44  67  94 134 175 218 280 328 401
#     4   9  20  44  63  90 125 167 220 268 326 381
#     4  12  24  42  67  97 138 171 218 279 331 397
#     4  11  24  45  66  98 141 175 223 275 334 397
#     4  11  24  40  66  99 130 170 220 276 332 391
#
# _framework density 20.312100000000001
#
# number of rings (size 3 to 8) (size 9 to 14) (size 15 to 20)
#    0.000    1.250    3.750    1.500    1.750    0.500 
#   15.750    0.000    0.000    0.000    0.000    0.000 
#    0.000    0.000    0.000    0.000    0.000    0.000 
#
# Total GULP energy -89181.107574 kJ/mol
# GULP energy per Si atom -5573.819223 kJ/mol
# Density = 2.026587 g / cm^3
# Si number density = 20.312100 Si / 1000 Ang^3
#
#
#
# Elastic Constant Matrix: (Units=GPa)
#
#
# Indices 1 2 3 4 5 6 
#
# 1 111.4346 32.6354 29.1140 11.0039 -18.7398 -14.3728
# 2 32.6354 111.9612 25.5113 7.5140 -20.8429 -18.6669
# 3 29.1140 25.5113 32.6794 0.0130 -4.2098 -5.9515
# 4 11.0039 7.5140 0.0130 45.3889 2.5758 -6.4237
# 5 -18.7398 -20.8429 -4.2098 2.5758 24.6683 -0.0280
# 6 -14.3728 -18.6669 -5.9515 -6.4237 -0.0280 28.3668
#
#
#
# Elastic Compliance Matrix: (Units=1/GPa)
#
#
# Indices 1 2 3 4 5 6 
#
# 1 0.014377 0.001536 -0.011725 -0.003627 0.010603 0.005024
# 2 0.001536 0.014322 -0.009621 -0.002329 0.011878 0.007669
# 3 -0.011725 -0.009621 0.047091 0.004774 -0.009500 -0.001320
# 4 -0.003627 -0.002329 0.004774 0.024096 -0.006421 0.003081
# 5 0.010603 0.011878 -0.009500 -0.006421 0.057689 0.009798
# 6 0.005024 0.007669 -0.001320 0.003081 0.009798 0.043275
#
#
# Mechanical properties :
#
#
# Convention : Reuss Voigt Hill
#
# Bulk Modulus (GPa) = 27.64795 47.84407 37.74601
# Shear Modulus (GPa) = 19.79988 30.93909 25.36949
#
# Velocity S-wave (km/s) = 3.12554 3.90703 3.53793
# Velocity P-wave (km/s) = 5.16396 6.63015 5.94244
#
# Compressibility (1/GPa) = 0.03616905
#
# Stress axis : x y z
#
# Youngs Moduli (GPa) = 69.55764 69.82030 21.23559
#
# Poissons Ratio (x) = -0.10724 0.24898
# Poissons Ratio (y) = -0.10683 0.20432
# Poissons Ratio (z) = 0.81555 0.67178
#
# Static dielectric constant tensor:
#      x y z
#    x 1.732160 0.052940 0.006150 
#    y 0.052940 1.828270 -0.017230 
#    z 0.006150 -0.017230 1.735710 
# 
# From -- ./inp_files/474880.got.cif
#   From: 2010.05.17/outbox.cif.g08.bks.cpg/sg2_238_cif.got.tgz:474880.got - 2010.06.03 11:33:40.
