data_PCOD9031976
_publ_section_title
;
Structure prediction by ZEFSAII (Michael W. Deem and Ramdas Pophale) SiO2 
 PCOD9031976
Probable space group: P -1
;
_chemical_formula_sum "Si O2"
_cell_formula_units_Z 14
_cell_length_a 8.807839
_cell_length_b 23.772141
_cell_length_c 8.890507
_cell_angle_alpha 150.739484
_cell_angle_beta 130.328579
_cell_angle_gamma 38.906193
_cell_volume 568.382753
_symmetry_space_group_name_H-M "P -1"
_symmetry_group_IT_number 2
_symmetry_cell_setting 'triclinic'
loop_
_space_group_symop_operation_xyz
x,y,z
-x,-y,-z
loop_
_atom_site_type_symbol
_atom_site_label
_atom_site_fract_x
_atom_site_fract_y
_atom_site_fract_z
Si Si1 0.414421 0.945393 0.684101
Si Si2 0.070911 0.231727 0.568119
Si Si3 0.886155 0.530896 0.162778
Si Si4 0.341824 0.716557 0.151031
Si Si5 0.745380 0.981232 0.561690
Si Si6 0.344922 0.717134 0.794515
Si Si7 0.857763 0.450822 0.385922
O O1 0.666849 0.836342 0.502075
O O2 0.291269 0.869711 0.492991
O O3 0.239113 0.048021 0.676777
O O4 0.500000 0.000000 0.000000
O O5 0.072165 0.129943 0.455819
O O6 0.875405 0.270693 0.404523
O O7 0.998248 0.375414 0.933360
O O8 0.599700 0.617806 0.168250
O O9 0.978425 0.608053 0.496434
O O10 0.000000 0.500000 0.000000
O O11 0.364025 0.690441 0.923535
O O12 0.181620 0.661686 0.969805
O O13 0.500000 0.000000 0.500000
O O14 0.705225 0.130503 0.900778
O O15 0.593496 0.589396 0.582343
O O16 0.000000 0.500000 0.500000
#
# Coordination Sequence:
#
# PCOD9031976 Si02
#       7
#     2   2   2   2   2   2   2
#     4  10  22  43  69 101 140 184 233 289 347 412
#     4  11  21  40  70 101 134 183 234 288 343 411
#     4  12  21  43  74  99 134 184 239 283 341 430
#     4  11  23  44  73 101 135 188 240 280 348 431
#     4   9  20  40  63  97 136 179 233 280 340 416
#     4  11  21  42  73  98 133 189 243 275 346 431
#     4  12  26  43  67 106 144 178 229 302 358 399
#
# _framework density 24.631288999999999
#
# number of rings (size 3 to 8) (size 9 to 14) (size 15 to 20)
#    0.000    1.143    4.286    3.429    0.000    0.571 
#    7.714    5.714    0.000    0.000    0.000    3.000 
#    0.000    0.000    0.000    0.000    0.000    0.000 
#
# Total GULP energy -78338.100929 kJ/mol
# GULP energy per Si atom -5595.578638 kJ/mol
# Density = 2.457523 g / cm^3
# Si number density = 24.631289 Si / 1000 Ang^3
#
#
#
# Elastic Constant Matrix: (Units=GPa)
#
#
# Indices 1 2 3 4 5 6 
#
# 1 107.2949 34.1530 45.9558 -0.6123 32.6990 12.6147
# 2 34.1530 131.1024 43.6766 -9.6744 10.8961 -8.9705
# 3 45.9558 43.6766 127.9626 -18.9062 25.5436 2.6539
# 4 -0.6123 -9.6744 -18.9062 51.0110 -4.6070 14.9338
# 5 32.6990 10.8961 25.5436 -4.6070 36.7537 -4.8695
# 6 12.6147 -8.9705 2.6539 14.9338 -4.8695 39.8812
#
#
#
# Elastic Compliance Matrix: (Units=1/GPa)
#
#
# Indices 1 2 3 4 5 6 
#
# 1 0.015817 -0.002875 -0.002040 -0.000217 -0.012755 -0.006990
# 2 -0.002875 0.009316 -0.002646 -0.000074 0.002085 0.003463
# 3 -0.002040 -0.002646 0.011084 0.003944 -0.004977 -0.002772
# 4 -0.000217 -0.000074 0.003944 0.023662 -0.000774 -0.009165
# 5 -0.012755 0.002085 -0.004977 -0.000774 0.042669 0.010334
# 6 -0.006990 0.003463 -0.002772 -0.009165 0.010334 0.032943
#
#
# Mechanical properties :
#
#
# Convention : Reuss Voigt Hill
#
# Bulk Modulus (GPa) = 47.40461 68.21452 57.80957
# Shear Modulus (GPa) = 31.71671 41.70083 36.70877
#
# Velocity S-wave (km/s) = 3.59229 4.11907 3.86467
# Velocity P-wave (km/s) = 6.04099 7.09766 6.59053
#
# Compressibility (1/GPa) = 0.02109499
#
# Stress axis : x y z
#
# Youngs Moduli (GPa) = 63.22400 107.33716 90.21732
#
# Poissons Ratio (x) = 0.30859 0.18405
# Poissons Ratio (y) = 0.18177 0.23874
# Poissons Ratio (z) = 0.12898 0.28405
#
# Static dielectric constant tensor:
#      x y z
#    x 2.059040 0.081090 -0.084960 
#    y 0.081090 2.048210 0.006900 
#    z -0.084960 0.006900 2.095450 
# 
# From -- ./inp_files/226819.got.cif
#   From: 2010.05.17/outbox.cif.g08.bks.cpg/sg2_114_cif.got.tgz:226819.got - 2010.06.03 11:33:40.
