data_PCOD9031549
_publ_section_title
;
Structure prediction by ZEFSAII (Michael W. Deem and Ramdas Pophale) SiO2 
 PCOD9031549
Probable space group: P -1
;
_chemical_formula_sum "Si O2"
_cell_formula_units_Z 16
_cell_length_a 14.112479
_cell_length_b 8.390658
_cell_length_c 14.412948
_cell_angle_alpha 92.024945
_cell_angle_beta 132.979034
_cell_angle_gamma 50.300895
_cell_volume 675.723222
_symmetry_space_group_name_H-M "P -1"
_symmetry_group_IT_number 2
_symmetry_cell_setting 'triclinic'
loop_
_space_group_symop_operation_xyz
x,y,z
-x,-y,-z
loop_
_atom_site_type_symbol
_atom_site_label
_atom_site_fract_x
_atom_site_fract_y
_atom_site_fract_z
Si Si1 0.931026 0.404135 0.600100
Si Si2 0.272504 0.401854 0.334933
Si Si3 0.909941 0.934476 0.988443
Si Si4 0.419917 0.717338 0.882498
Si Si5 0.334133 0.785667 0.458670
Si Si6 0.647179 0.424105 0.346510
Si Si7 0.956529 0.678136 0.846336
Si Si8 0.256311 0.323695 0.882397
O O1 0.034153 0.482127 0.674976
O O2 0.743846 0.581892 0.563821
O O3 0.798584 0.431467 0.434586
O O4 0.184954 0.050587 0.770227
O O5 0.482733 0.256902 0.409898
O O6 0.244367 0.247857 0.285647
O O7 0.047849 0.751123 0.169891
O O8 0.991911 0.706468 0.971760
O O9 0.627750 0.240110 0.815835
O O10 0.000000 0.000000 0.000000
O O11 0.353725 0.700734 0.740893
O O12 0.500000 0.500000 0.000000
O O13 0.650754 0.593643 0.035771
O O14 0.500000 0.500000 0.500000
O O15 0.271628 0.757299 0.510148
O O16 0.126119 0.084731 0.266387
O O17 0.171794 0.366717 0.930857
O O18 0.500000 0.000000 0.000000
#
# Coordination Sequence:
#
# PCOD9031549 Si02
#       8
#     2   2   2   2   2   2   2   2
#     4  10  22  43  67  91 134 175 223 282 337 397
#     4  11  22  40  64  95 135 182 221 276 334 404
#     4  12  22  38  62  99 136 180 226 273 331 401
#     4  11  24  43  70  95 128 176 232 284 337 401
#     4  12  22  40  65  97 141 177 218 278 339 406
#     4  12  24  40  69 103 136 175 231 279 338 402
#     4  11  23  39  65  93 137 177 224 275 341 400
#     4   9  22  44  68  91 128 177 223 277 336 399
#
# _framework density 23.678332000000001
#
# number of rings (size 3 to 8) (size 9 to 14) (size 15 to 20)
#    0.000    1.000    3.750    2.625    1.750    1.000 
#    0.000    0.625   13.750    0.000    0.000    0.000 
#    0.000    0.000    0.000    0.000    0.000    0.000 
#
# Total GULP energy -89176.830149 kJ/mol
# GULP energy per Si atom -5573.551884 kJ/mol
# Density = 2.362444 g / cm^3
# Si number density = 23.678332 Si / 1000 Ang^3
#
#
#
# Elastic Constant Matrix: (Units=GPa)
#
#
# Indices 1 2 3 4 5 6 
#
# 1 37.5702 16.2414 20.9620 20.1834 13.7360 -6.4959
# 2 16.2414 94.7489 18.9016 22.3586 8.2799 -12.2904
# 3 20.9620 18.9016 72.4495 7.5573 23.8996 6.2163
# 4 20.1834 22.3586 7.5573 57.8461 7.8228 15.0917
# 5 13.7360 8.2799 23.8996 7.8228 52.2238 2.3446
# 6 -6.4959 -12.2904 6.2163 15.0917 2.3446 29.7638
#
#
#
# Elastic Compliance Matrix: (Units=1/GPa)
#
#
# Indices 1 2 3 4 5 6 
#
# 1 0.054068 0.004095 -0.014759 -0.025582 -0.005630 0.029989
# 2 0.004095 0.014952 -0.005110 -0.009956 -0.000210 0.013200
# 3 -0.014759 -0.005110 0.021625 0.008694 -0.005887 -0.013793
# 4 -0.025582 -0.009956 0.008694 0.036773 0.000174 -0.030170
# 5 -0.005630 -0.000210 -0.005887 0.000174 0.023421 -0.002019
# 6 0.029989 0.013200 -0.013793 -0.030170 -0.002019 0.063931
#
#
# Mechanical properties :
#
#
# Convention : Reuss Voigt Hill
#
# Bulk Modulus (GPa) = 16.92167 35.21985 26.07076
# Shear Modulus (GPa) = 18.79574 37.87764 28.33669
#
# Velocity S-wave (km/s) = 2.82049 4.00393 3.46314
# Velocity P-wave (km/s) = 4.21532 6.02345 5.19860
#
# Compressibility (1/GPa) = 0.05909583
#
# Stress axis : x y z
#
# Youngs Moduli (GPa) = 18.49507 66.88273 46.24287
#
# Poissons Ratio (x) = -0.27390 0.68252
# Poissons Ratio (y) = -0.07574 0.23632
# Poissons Ratio (z) = 0.27298 0.34179
#
# Static dielectric constant tensor:
#      x y z
#    x 2.008840 -0.026560 -0.008320 
#    y -0.026560 1.956210 -0.065830 
#    z -0.008320 -0.065830 1.667010 
# 
# From -- ./inp_files/398733.got.cif
#   From: 2010.05.17/outbox.cif.g08.bks.cpg/sg2_200_cif.got.tgz:398733.got - 2010.06.03 11:33:40.
