data_PCOD9031895
_publ_section_title
;
Structure prediction by ZEFSAII (Michael W. Deem and Ramdas Pophale) SiO2 
 PCOD9031895
Probable space group: P -1
;
_chemical_formula_sum "Si O2"
_cell_formula_units_Z 15
_cell_length_a 17.723464
_cell_length_b 9.052514
_cell_length_c 9.792257
_cell_angle_alpha 58.699854
_cell_angle_beta 43.683648
_cell_angle_gamma 34.749694
_cell_volume 607.279821
_symmetry_space_group_name_H-M "P -1"
_symmetry_group_IT_number 2
_symmetry_cell_setting 'triclinic'
loop_
_space_group_symop_operation_xyz
x,y,z
-x,-y,-z
loop_
_atom_site_type_symbol
_atom_site_label
_atom_site_fract_x
_atom_site_fract_y
_atom_site_fract_z
Si Si1 0.287981 0.487220 0.727434
Si Si2 0.362249 0.468088 0.110169
Si Si3 0.166398 0.759666 0.483981
Si Si4 0.134142 0.523202 0.183377
Si Si5 0.728414 0.036182 0.075168
Si Si6 0.500000 0.000000 0.500000
Si Si7 0.259847 0.025369 0.205218
Si Si8 0.851545 0.036292 0.194209
O O1 0.163739 0.658449 0.676678
O O2 0.297655 0.668306 0.693964
O O3 0.449817 0.209884 0.581922
O O4 0.216718 0.457733 0.957530
O O5 0.295732 0.513928 0.328563
O O6 0.224411 0.546935 0.155815
O O7 0.365758 0.671049 0.983252
O O8 0.543520 0.178012 0.979097
O O9 0.239101 0.861144 0.373230
O O10 0.000000 0.000000 0.500000
O O11 0.178803 0.274394 0.276069
O O12 0.939678 0.795447 0.293684
O O13 0.625299 0.989354 0.267754
O O14 0.819416 0.983588 0.118786
O O15 0.822802 0.884986 0.881719
O O16 0.000000 0.000000 0.000000
#
# Coordination Sequence:
#
# PCOD9031895 Si02
#       8
#     2   2   2   2   2   1   2   2
#     4  11  23  44  67  98 139 172 229 284 337 406
#     4  11  22  46  70  93 142 188 226 275 357 424
#     4  11  25  42  68  97 142 180 224 283 355 409
#     4  11  23  44  76  96 132 179 242 277 336 411
#     4  11  22  41  68  99 136 182 222 288 336 422
#     4  12  24  40  64 108 134 168 234 286 340 384
#     4  11  24  43  68 103 135 185 231 279 352 414
#     4  10  22  43  68  98 131 180 231 278 346 404
#
# _framework density 24.700310999999999
#
# number of rings (size 3 to 8) (size 9 to 14) (size 15 to 20)
#    0.000    1.067    4.000    4.400    5.600    2.133 
#    2.400    2.667    0.000    0.000    0.000    0.000 
#    0.000    0.000    0.000    0.000    0.000    0.000 
#
# Total GULP energy -83627.602366 kJ/mol
# GULP energy per Si atom -5575.173491 kJ/mol
# Density = 2.464409 g / cm^3
# Si number density = 24.700311 Si / 1000 Ang^3
#
#
#
# Elastic Constant Matrix: (Units=GPa)
#
#
# Indices 1 2 3 4 5 6 
#
# 1 88.4316 3.7074 17.0109 -18.9595 4.6844 -3.3482
# 2 3.7074 71.2974 -7.4153 13.8266 -7.3276 24.9509
# 3 17.0109 -7.4153 114.7336 -7.9394 19.3773 8.6229
# 4 -18.9595 13.8266 -7.9394 31.7123 3.4939 4.1099
# 5 4.6844 -7.3276 19.3773 3.4939 23.0861 -4.9947
# 6 -3.3482 24.9509 8.6229 4.1099 -4.9947 39.9191
#
#
#
# Elastic Compliance Matrix: (Units=1/GPa)
#
#
# Indices 1 2 3 4 5 6 
#
# 1 0.014190 -0.004109 -0.001134 0.010144 -0.004242 0.002428
# 2 -0.004109 0.021185 0.001242 -0.010417 0.005475 -0.012097
# 3 -0.001134 0.001242 0.011350 0.003426 -0.010500 -0.004989
# 4 0.010144 -0.010417 0.003426 0.044626 -0.014960 0.000156
# 5 -0.004242 0.005475 -0.010500 -0.014960 0.058584 0.007361
# 6 0.002428 -0.012097 -0.004989 0.000156 0.007361 0.034798
#
#
# Mechanical properties :
#
#
# Convention : Reuss Voigt Hill
#
# Bulk Modulus (GPa) = 25.82387 33.45209 29.63798
# Shear Modulus (GPa) = 24.31435 36.35414 30.33425
#
# Velocity S-wave (km/s) = 3.14088 3.84058 3.50822
# Velocity P-wave (km/s) = 4.86118 5.76535 5.33246
#
# Compressibility (1/GPa) = 0.03872387
#
# Stress axis : x y z
#
# Youngs Moduli (GPa) = 70.47277 47.20386 88.10935
#
# Poissons Ratio (x) = 0.19394 0.09988
# Poissons Ratio (y) = 0.28954 -0.10943
# Poissons Ratio (z) = 0.07988 -0.05862
#
# Static dielectric constant tensor:
#      x y z
#    x 1.950520 -0.035330 0.020630 
#    y -0.035330 2.059750 0.002430 
#    z 0.020630 0.002430 1.951650 
# 
# From -- ./inp_files/327279.got.cif
#   From: 2010.05.17/outbox.cif.g08.bks.cpg/sg2_164_cif.got.tgz:327279.got - 2010.06.03 11:33:40.
