data_PCOD9031070
_publ_section_title
;
Structure prediction by ZEFSAII (Michael W. Deem and Ramdas Pophale) SiO2 
 PCOD9031070
Probable space group: P -1
;
_chemical_formula_sum "Si O2"
_cell_formula_units_Z 15
_cell_length_a 26.311811
_cell_length_b 8.622067
_cell_length_c 6.699390
_cell_angle_alpha 53.801652
_cell_angle_beta 132.042595
_cell_angle_gamma 146.821291
_cell_volume 615.991529
_symmetry_space_group_name_H-M "P -1"
_symmetry_group_IT_number 2
_symmetry_cell_setting 'triclinic'
loop_
_space_group_symop_operation_xyz
x,y,z
-x,-y,-z
loop_
_atom_site_type_symbol
_atom_site_label
_atom_site_fract_x
_atom_site_fract_y
_atom_site_fract_z
Si Si1 0.728253 0.081275 0.631854
Si Si2 0.912772 0.441415 0.523756
Si Si3 0.377820 0.476863 0.406994
Si Si4 0.962366 0.109672 0.200874
Si Si5 0.500000 0.500000 0.000000
Si Si6 0.179808 0.124296 0.334416
Si Si7 0.423025 0.962437 0.960972
Si Si8 0.863980 0.549667 0.924752
O O1 0.823256 0.265893 0.587231
O O2 0.660841 0.114484 0.342987
O O3 0.773497 0.229532 0.851699
O O4 0.666081 0.754447 0.704177
O O5 0.014902 0.679138 0.737026
O O6 0.893820 0.200090 0.549627
O O7 0.894356 0.564809 0.217897
O O8 0.477189 0.585365 0.673759
O O9 0.294193 0.286384 0.509373
O O10 0.381363 0.707508 0.188202
O O11 0.039965 0.281990 0.090383
O O12 0.000000 0.000000 0.500000
O O13 0.854843 0.901069 0.968125
O O14 0.469079 0.236838 0.994372
O O15 0.166732 0.291561 0.292457
O O16 0.500000 0.000000 0.000000
#
# Coordination Sequence:
#
# PCOD9031070 Si02
#       8
#     2   2   2   2   1   2   2   2
#     4   9  23  43  63 100 137 168 222 278 327 399
#     4  10  22  43  64  93 132 177 219 273 327 386
#     4  10  23  46  68  96 133 171 216 278 339 399
#     4  11  23  42  63  92 139 177 217 277 323 385
#     4  10  24  46  68 100 130 168 224 276 336 408
#     4  11  23  41  67  96 125 178 225 264 337 394
#     4  11  24  44  69 100 132 177 219 276 350 408
#     4  11  23  41  65  97 134 176 221 275 323 387
#
# _framework density 24.350981000000001
#
# number of rings (size 3 to 8) (size 9 to 14) (size 15 to 20)
#    0.000    1.600    1.333    2.000    3.733    3.733 
#   19.200    0.000    0.000    0.000    0.000    0.000 
#    0.000    0.000    0.000    0.000    0.000    0.000 
#
# Total GULP energy -83630.084971 kJ/mol
# GULP energy per Si atom -5575.338998 kJ/mol
# Density = 2.429556 g / cm^3
# Si number density = 24.350981 Si / 1000 Ang^3
#
#
#
# Elastic Constant Matrix: (Units=GPa)
#
#
# Indices 1 2 3 4 5 6 
#
# 1 63.7089 22.0869 1.0991 5.6706 4.3624 -25.1757
# 2 22.0869 77.3354 22.8823 -3.0319 -3.4814 -34.0759
# 3 1.0991 22.8823 72.7337 -2.1872 4.4585 -15.6773
# 4 5.6706 -3.0319 -2.1872 45.5739 -15.7187 3.5630
# 5 4.3624 -3.4814 4.4585 -15.7187 35.1278 -4.1982
# 6 -25.1757 -34.0759 -15.6773 3.5630 -4.1982 33.7901
#
#
#
# Elastic Compliance Matrix: (Units=1/GPa)
#
#
# Indices 1 2 3 4 5 6 
#
# 1 0.024365 0.000668 0.003954 -0.005630 -0.003492 0.020821
# 2 0.000668 0.024932 -0.002821 0.001732 0.006504 0.024957
# 3 0.003954 -0.002821 0.016307 -0.001364 -0.002555 0.007494
# 4 -0.005630 0.001732 -0.001364 0.027452 0.012804 -0.004384
# 5 -0.003492 0.006504 -0.002555 0.012804 0.036308 0.005932
# 6 0.020821 0.024957 0.007494 -0.004384 0.005932 0.074951
#
#
# Mechanical properties :
#
#
# Convention : Reuss Voigt Hill
#
# Bulk Modulus (GPa) = 14.44962 33.99051 24.22006
# Shear Modulus (GPa) = 22.34319 34.07902 28.21111
#
# Velocity S-wave (km/s) = 3.03239 3.74504 3.40740
# Velocity P-wave (km/s) = 4.26700 5.71746 5.04463
#
# Compressibility (1/GPa) = 0.06920599
#
# Stress axis : x y z
#
# Youngs Moduli (GPa) = 41.04315 40.10911 61.32190
#
# Poissons Ratio (x) = -0.02678 -0.24249
# Poissons Ratio (y) = -0.02741 0.17299
# Poissons Ratio (z) = -0.16230 0.11315
#
# Static dielectric constant tensor:
#      x y z
#    x 1.975980 0.009650 0.025370 
#    y 0.009650 2.043030 -0.029110 
#    z 0.025370 -0.029110 1.951200 
# 
# From -- ./inp_files/126265.got.cif
#   From: 2010.05.17/outbox.cif.g08.bks.cpg/sg2_64_cif.got.tgz:126265.got - 2010.06.03 11:33:40.
