data_PCOD9031777
_publ_section_title
;
Structure prediction by ZEFSAII (Michael W. Deem and Ramdas Pophale) SiO2 
 PCOD9031777
Probable space group: P -1
;
_chemical_formula_sum "Si O2"
_cell_formula_units_Z 10
_cell_length_a 7.422404
_cell_length_b 8.025948
_cell_length_c 7.985404
_cell_angle_alpha 75.225005
_cell_angle_beta 116.426156
_cell_angle_gamma 105.537258
_cell_volume 405.313793
_symmetry_space_group_name_H-M "P -1"
_symmetry_group_IT_number 2
_symmetry_cell_setting 'triclinic'
loop_
_space_group_symop_operation_xyz
x,y,z
-x,-y,-z
loop_
_atom_site_type_symbol
_atom_site_label
_atom_site_fract_x
_atom_site_fract_y
_atom_site_fract_z
Si Si1 0.084402 0.277864 0.222366
Si Si2 0.267350 0.946677 0.482197
Si Si3 0.536830 0.473545 0.791668
Si Si4 0.774056 0.400183 0.595206
Si Si5 0.352340 0.830901 0.916781
O O1 0.269684 0.368472 0.157947
O O2 0.072715 0.434266 0.310328
O O3 0.864438 0.221979 0.063323
O O4 0.157045 0.112060 0.378032
O O5 0.157334 0.780996 0.370883
O O6 0.500000 0.000000 0.500000
O O7 0.596757 0.371353 0.673119
O O8 0.335129 0.539893 0.631202
O O9 0.284846 0.880306 0.693603
O O10 0.536969 0.335825 0.974525
O O11 0.500000 0.000000 0.000000
#
# Coordination Sequence:
#
# PCOD9031777 Si02
#       5
#     2   2   2   2   2
#     4  10  22  43  68  89 128 170 205 256 320 372
#     4  12  22  42  67  94 126 167 208 261 314 373
#     4   9  19  43  65  91 128 162 204 262 316 368
#     4   9  19  40  70  88 126 161 210 252 323 363
#     4  12  25  39  65  96 129 167 213 256 311 373
#
# _framework density 24.672239000000001
#
# number of rings (size 3 to 8) (size 9 to 14) (size 15 to 20)
#    1.200    0.400    2.000    3.600    0.000    1.600 
#    0.000    6.000    0.000    0.000    0.000    0.000 
#    0.000    0.000    0.000    0.000    0.000    0.000 
#
# Total GULP energy -55923.788581 kJ/mol
# GULP energy per Si atom -5592.378858 kJ/mol
# Density = 2.461608 g / cm^3
# Si number density = 24.672239 Si / 1000 Ang^3
#
#
#
# Elastic Constant Matrix: (Units=GPa)
#
#
# Indices 1 2 3 4 5 6 
#
# 1 62.3884 31.0274 23.5919 5.5763 -3.8354 11.2918
# 2 31.0274 196.2155 54.6998 -12.8767 12.2563 3.2220
# 3 23.5919 54.6998 106.6327 -22.6850 1.2252 5.1617
# 4 5.5763 -12.8767 -22.6850 44.7266 10.5229 5.4642
# 5 -3.8354 12.2563 1.2252 10.5229 26.0068 4.2689
# 6 11.2918 3.2220 5.1617 5.4642 4.2689 33.8372
#
#
#
# Elastic Compliance Matrix: (Units=1/GPa)
#
#
# Indices 1 2 3 4 5 6 
#
# 1 0.021556 -0.003063 -0.004526 -0.007171 0.008748 -0.006157
# 2 -0.003063 0.006611 -0.002271 0.002063 -0.004454 0.000968
# 3 -0.004526 -0.002271 0.013223 0.007473 -0.003062 -0.001111
# 4 -0.007171 0.002063 0.007473 0.031362 -0.014719 -0.002151
# 5 0.008748 -0.004454 -0.003062 -0.014719 0.048896 -0.005820
# 6 -0.006157 0.000968 -0.001111 -0.002151 -0.005820 0.032767
#
#
# Mechanical properties :
#
#
# Convention : Reuss Voigt Hill
#
# Bulk Modulus (GPa) = 46.14275 64.87497 55.50886
# Shear Modulus (GPa) = 27.56963 37.97529 32.77246
#
# Velocity S-wave (km/s) = 3.34643 3.92751 3.64856
# Velocity P-wave (km/s) = 5.80296 6.84974 6.34796
#
# Compressibility (1/GPa) = 0.02167188
#
# Stress axis : x y z
#
# Youngs Moduli (GPa) = 46.38974 151.25164 75.62625
#
# Poissons Ratio (x) = 0.46326 0.34229
# Poissons Ratio (y) = 0.14209 0.17171
# Poissons Ratio (z) = 0.20996 0.34343
#
# Static dielectric constant tensor:
#      x y z
#    x 2.141680 -0.025940 -0.057920 
#    y -0.025940 1.955240 0.010770 
#    z -0.057920 0.010770 1.932010 
# 
# From -- ./inp_files/375726.got.cif
#   From: 2010.05.17/outbox.cif.g08.bks.cpg/sg2_188_cif.got.tgz:375726.got - 2010.06.03 11:33:40.
