data_PCOD9031244
_publ_section_title
;
Structure prediction by ZEFSAII (Michael W. Deem and Ramdas Pophale) SiO2 
 PCOD9031244
Probable space group: P -1
;
_chemical_formula_sum "Si O2"
_cell_formula_units_Z 14
_cell_length_a 11.978070
_cell_length_b 9.610903
_cell_length_c 11.692795
_cell_angle_alpha 96.173728
_cell_angle_beta 143.735507
_cell_angle_gamma 107.888862
_cell_volume 587.816722
_symmetry_space_group_name_H-M "P -1"
_symmetry_group_IT_number 2
_symmetry_cell_setting 'triclinic'
loop_
_space_group_symop_operation_xyz
x,y,z
-x,-y,-z
loop_
_atom_site_type_symbol
_atom_site_label
_atom_site_fract_x
_atom_site_fract_y
_atom_site_fract_z
Si Si1 0.562385 0.053815 0.266912
Si Si2 0.070033 0.192757 0.609379
Si Si3 0.253226 0.674915 0.078032
Si Si4 0.461956 0.364149 0.362914
Si Si5 0.286781 0.314508 0.561580
Si Si6 0.246809 0.745208 0.333255
Si Si7 0.185649 0.118107 0.927160
O O1 0.680256 0.104584 0.498454
O O2 0.803741 0.142052 0.395316
O O3 0.344928 0.827100 0.069253
O O4 0.427829 0.133491 0.135047
O O5 0.241293 0.326382 0.658052
O O6 0.193228 0.230528 0.838523
O O7 0.000000 0.000000 0.500000
O O8 0.471454 0.665187 0.258340
O O9 0.216605 0.745679 0.172484
O O10 0.995994 0.459263 0.837931
O O11 0.500000 0.500000 0.500000
O O12 0.664558 0.517923 0.449873
O O13 0.522087 0.249238 0.462884
O O14 0.200153 0.214587 0.064610
O O15 0.052055 0.103936 0.303385
#
# Coordination Sequence:
#
# PCOD9031244 Si02
#       7
#     2   2   2   2   2   2   2
#     4  11  22  43  65  94 128 168 214 266 314 385
#     4  10  22  43  65  96 130 168 220 255 320 385
#     4  11  21  40  65  90 133 168 207 271 318 373
#     4  11  23  43  64  93 132 167 215 267 316 385
#     4  11  23  42  65  98 127 172 213 262 323 377
#     4  10  24  40  60  97 125 170 217 258 324 379
#     4  10  24  42  66  97 126 171 214 261 323 374
#
# _framework density 23.816946999999999
#
# number of rings (size 3 to 8) (size 9 to 14) (size 15 to 20)
#    0.000    1.429    4.286    1.286    2.000    3.429 
#    5.143    1.429    0.000    0.000    0.000    0.000 
#    0.000    0.000    0.000    0.000    0.000    0.000 
#
# Total GULP energy -78186.142908 kJ/mol
# GULP energy per Si atom -5584.724493 kJ/mol
# Density = 2.376274 g / cm^3
# Si number density = 23.816947 Si / 1000 Ang^3
#
#
#
# Elastic Constant Matrix: (Units=GPa)
#
#
# Indices 1 2 3 4 5 6 
#
# 1 54.5161 9.0083 16.3264 -4.0977 18.2570 -9.0686
# 2 9.0083 67.4307 7.5232 5.8836 7.9446 16.2477
# 3 16.3264 7.5232 98.4842 10.7109 -2.5249 4.0982
# 4 -4.0977 5.8836 10.7109 34.2542 -5.7842 3.5276
# 5 18.2570 7.9446 -2.5249 -5.7842 30.6185 3.7603
# 6 -9.0686 16.2477 4.0982 3.5276 3.7603 28.3685
#
#
#
# Elastic Compliance Matrix: (Units=1/GPa)
#
#
# Indices 1 2 3 4 5 6 
#
# 1 0.029857 -0.005022 -0.005855 0.001523 -0.018604 0.015543
# 2 -0.005022 0.018692 0.000179 -0.002799 -0.000912 -0.011868
# 3 -0.005855 0.000179 0.011737 -0.003288 0.004262 -0.003826
# 4 0.001523 -0.002799 -0.003288 0.032105 0.005883 -0.002207
# 5 -0.018604 -0.000912 0.004262 0.005883 0.047050 -0.013009
# 6 0.015543 -0.011868 -0.003826 -0.002207 -0.013009 0.049568
#
#
# Mechanical properties :
#
#
# Convention : Reuss Voigt Hill
#
# Bulk Modulus (GPa) = 25.71277 31.79407 28.75342
# Shear Modulus (GPa) = 22.38458 31.15310 26.76884
#
# Velocity S-wave (km/s) = 3.06904 3.62058 3.35616
# Velocity P-wave (km/s) = 4.83509 5.55486 5.20743
#
# Compressibility (1/GPa) = 0.03889118
#
# Stress axis : x y z
#
# Youngs Moduli (GPa) = 33.49307 53.49816 85.20113
#
# Poissons Ratio (x) = 0.26864 0.49889
# Poissons Ratio (y) = 0.16819 -0.01529
# Poissons Ratio (z) = 0.19612 -0.00960
#
# Static dielectric constant tensor:
#      x y z
#    x 1.969500 0.022440 -0.062790 
#    y 0.022440 1.928560 -0.040360 
#    z -0.062790 -0.040360 1.965010 
# 
# From -- ./inp_files/278062.got.cif
#   From: 2010.05.17/outbox.cif.g08.bks.cpg/sg2_140_cif.got.tgz:278062.got - 2010.06.03 11:33:40.
