data_PCOD9031406
_publ_section_title
;
Structure prediction by ZEFSAII (Michael W. Deem and Ramdas Pophale) SiO2 
 PCOD9031406
Probable space group: P -1
;
_chemical_formula_sum "Si O2"
_cell_formula_units_Z 14
_cell_length_a 8.832798
_cell_length_b 23.653523
_cell_length_c 17.520715
_cell_angle_alpha 158.797793
_cell_angle_beta 153.806326
_cell_angle_gamma 28.496121
_cell_volume 563.498822
_symmetry_space_group_name_H-M "P -1"
_symmetry_group_IT_number 2
_symmetry_cell_setting 'triclinic'
loop_
_space_group_symop_operation_xyz
x,y,z
-x,-y,-z
loop_
_atom_site_type_symbol
_atom_site_label
_atom_site_fract_x
_atom_site_fract_y
_atom_site_fract_z
Si Si1 0.325804 0.362288 0.344382
Si Si2 0.293628 0.487850 0.969620
Si Si3 0.504964 0.326307 0.204577
Si Si4 0.612963 0.203591 0.531963
Si Si5 0.325648 0.905535 0.738821
Si Si6 0.529466 0.939376 0.257726
Si Si7 0.718594 0.182703 0.851847
O O1 0.460791 0.307218 0.250698
O O2 0.248115 0.555344 0.552495
O O3 0.628362 0.268749 0.421614
O O4 0.988590 0.295811 0.126866
O O5 0.419490 0.607478 0.235989
O O6 0.500000 0.500000 0.000000
O O7 0.395601 0.305389 0.817257
O O8 0.881874 0.568153 0.866700
O O9 0.598504 0.159881 0.992668
O O10 0.497200 0.136753 0.316566
O O11 0.042154 0.128307 0.632546
O O12 0.451401 0.126342 0.432552
O O13 0.936158 0.027733 0.706912
O O14 0.500000 0.000000 0.000000
O O15 0.373705 0.889552 0.202060
#
# Coordination Sequence:
#
# PCOD9031406 Si02
#       7
#     2   2   2   2   2   2   2
#     4  10  22  43  66  95 135 189 214 270 343 397
#     4  11  24  43  72 104 133 168 231 287 324 393
#     4  10  22  43  68  94 141 179 218 273 346 395
#     4  10  24  44  67  96 139 181 214 274 353 391
#     4  10  23  44  67  94 140 180 217 269 338 402
#     4  10  23  41  67  98 134 173 229 277 330 397
#     4  11  24  42  68 104 130 169 234 281 319 398
#
# _framework density 24.844771999999999
#
# number of rings (size 3 to 8) (size 9 to 14) (size 15 to 20)
#    0.000    1.714    1.429    1.714    8.000    3.429 
#    2.571    3.571    0.000    0.000    0.000    0.000 
#    0.000    0.000    0.000    0.000    0.000    0.000 
#
# Total GULP energy -78325.138863 kJ/mol
# GULP energy per Si atom -5594.652776 kJ/mol
# Density = 2.478822 g / cm^3
# Si number density = 24.844772 Si / 1000 Ang^3
#
#
#
# Elastic Constant Matrix: (Units=GPa)
#
#
# Indices 1 2 3 4 5 6 
#
# 1 122.2964 24.5738 50.9005 10.4534 16.5139 27.9094
# 2 24.5738 92.9036 -2.1209 17.0165 10.3015 14.7535
# 3 50.9005 -2.1209 82.1718 -4.8488 9.0658 8.2062
# 4 10.4534 17.0165 -4.8488 36.0064 -1.2232 12.2552
# 5 16.5139 10.3015 9.0658 -1.2232 48.5778 1.6404
# 6 27.9094 14.7535 8.2062 12.2552 1.6404 33.9548
#
#
#
# Elastic Compliance Matrix: (Units=1/GPa)
#
#
# Indices 1 2 3 4 5 6 
#
# 1 0.014220 -0.002060 -0.007831 -0.001500 -0.002696 -0.008229
# 2 -0.002060 0.012842 0.001875 -0.004403 -0.002395 -0.002635
# 3 -0.007831 0.001875 0.017367 0.003644 -0.000890 0.000153
# 4 -0.001500 -0.004403 0.003644 0.034325 0.001973 -0.010219
# 5 -0.002696 -0.002395 -0.000890 0.001973 0.022169 0.001688
# 6 -0.008229 -0.002635 0.000153 -0.010219 0.001688 0.040930
#
#
# Mechanical properties :
#
#
# Convention : Reuss Voigt Hill
#
# Bulk Modulus (GPa) = 35.21450 49.34207 42.27829
# Shear Modulus (GPa) = 29.87752 38.64236 34.25994
#
# Velocity S-wave (km/s) = 3.47157 3.94807 3.71746
# Velocity P-wave (km/s) = 5.50215 6.37858 5.95651
#
# Compressibility (1/GPa) = 0.02839739
#
# Stress axis : x y z
#
# Youngs Moduli (GPa) = 70.32203 77.86983 57.58099
#
# Poissons Ratio (x) = 0.16038 0.45092
# Poissons Ratio (y) = 0.14484 -0.10795
# Poissons Ratio (z) = 0.55070 -0.14599
#
# Static dielectric constant tensor:
#      x y z
#    x 1.911900 -0.025650 0.019610 
#    y -0.025650 2.075530 -0.073220 
#    z 0.019610 -0.073220 1.997690 
# 
# From -- ./inp_files/382136.got.cif
#   From: 2010.05.17/outbox.cif.g08.bks.cpg/sg2_192_cif.got.tgz:382136.got - 2010.06.03 11:33:40.
