data_PCOD9031912
_publ_section_title
;
Structure prediction by ZEFSAII (Michael W. Deem and Ramdas Pophale) SiO2 
 PCOD9031912
Probable space group: P -1
;
_chemical_formula_sum "Si O2"
_cell_formula_units_Z 16
_cell_length_a 26.141559
_cell_length_b 9.003927
_cell_length_c 11.055117
_cell_angle_alpha 137.109070
_cell_angle_beta 32.776610
_cell_angle_gamma 151.637273
_cell_volume 668.940378
_symmetry_space_group_name_H-M "P -1"
_symmetry_group_IT_number 2
_symmetry_cell_setting 'triclinic'
loop_
_space_group_symop_operation_xyz
x,y,z
-x,-y,-z
loop_
_atom_site_type_symbol
_atom_site_label
_atom_site_fract_x
_atom_site_fract_y
_atom_site_fract_z
Si Si1 0.846830 0.384546 0.437116
Si Si2 0.705405 0.730761 0.414515
Si Si3 0.611085 0.327553 0.136679
Si Si4 0.431470 0.427263 0.845328
Si Si5 0.149875 0.343938 0.754944
Si Si6 0.641782 0.360215 0.701796
Si Si7 0.158204 0.810504 0.935345
Si Si8 0.907238 0.798304 0.749734
O O1 0.730284 0.364634 0.622827
O O2 0.880850 0.345290 0.213075
O O3 0.947409 0.692870 0.503548
O O4 0.791514 0.091129 0.447394
O O5 0.643123 0.573777 0.314069
O O6 0.575008 0.551891 0.650673
O O7 0.799431 0.690023 0.246701
O O8 0.549848 0.336241 0.142706
O O9 0.507257 0.992289 0.206868
O O10 0.759874 0.481405 0.902206
O O11 0.320860 0.094396 0.800801
O O12 0.371558 0.421731 0.085227
O O13 0.272921 0.517686 0.517390
O O14 0.119019 0.550826 0.949845
O O15 0.020487 0.013761 0.754911
O O16 0.116589 0.995619 0.131615
#
# Coordination Sequence:
#
# PCOD9031912 Si02
#       8
#     2   2   2   2   2   2   2   2
#     4  11  20  40  73  94 130 173 229 280 310 397
#     4  12  23  40  67 101 142 173 216 280 343 393
#     4  11  21  40  70 102 121 175 233 274 315 394
#     4  11  20  39  70 101 126 170 237 274 321 391
#     4  11  28  43  61 102 147 176 208 278 352 399
#     4  11  22  41  70 101 131 172 228 280 330 389
#     4  10  22  43  68  99 126 179 228 270 329 393
#     4  11  23  45  71  99 128 181 234 269 324 395
#
# _framework density 23.918424999999999
#
# number of rings (size 3 to 8) (size 9 to 14) (size 15 to 20)
#    0.000    1.000    6.250    3.375    0.000    5.500 
#    2.250    1.250    0.000    0.000    0.000    0.000 
#    0.000    0.000    0.000    0.000    0.000    0.000 
#
# Total GULP energy -89487.525599 kJ/mol
# GULP energy per Si atom -5592.970350 kJ/mol
# Density = 2.386399 g / cm^3
# Si number density = 23.918425 Si / 1000 Ang^3
#
#
#
# Elastic Constant Matrix: (Units=GPa)
#
#
# Indices 1 2 3 4 5 6 
#
# 1 52.6372 16.7671 8.6207 8.5359 -22.2062 3.7452
# 2 16.7671 74.3481 4.2187 -1.1792 2.1128 19.3797
# 3 8.6207 4.2187 89.5600 6.1779 6.8149 5.5386
# 4 8.5359 -1.1792 6.1779 48.0101 4.9018 -0.3065
# 5 -22.2062 2.1128 6.8149 4.9018 33.0548 2.2994
# 6 3.7452 19.3797 5.5386 -0.3065 2.2994 15.5754
#
#
#
# Elastic Compliance Matrix: (Units=1/GPa)
#
#
# Indices 1 2 3 4 5 6 
#
# 1 0.034784 -0.008360 -0.004326 -0.008499 0.026085 -0.000442
# 2 -0.008360 0.021954 0.001610 0.002267 -0.005952 -0.024956
# 3 -0.004326 0.001610 0.012199 -0.000262 -0.005169 -0.004544
# 4 -0.008499 0.002267 -0.000262 0.023391 -0.009350 0.001157
# 5 0.026085 -0.005952 -0.005169 -0.009350 0.050938 -0.004733
# 6 -0.000442 -0.024956 -0.004544 0.001157 -0.004733 0.097699
#
#
# Mechanical properties :
#
#
# Convention : Reuss Voigt Hill
#
# Bulk Modulus (GPa) = 21.37374 30.63983 26.00679
# Shear Modulus (GPa) = 17.93975 31.79064 24.86520
#
# Velocity S-wave (km/s) = 2.74165 3.64968 3.22775
# Velocity P-wave (km/s) = 4.35634 5.53156 4.97875
#
# Compressibility (1/GPa) = 0.04678638
#
# Stress axis : x y z
#
# Youngs Moduli (GPa) = 28.74925 45.54914 81.97664
#
# Poissons Ratio (x) = 0.38078 0.35460
# Poissons Ratio (y) = 0.24034 -0.13201
# Poissons Ratio (z) = 0.12436 -0.07335
#
# Static dielectric constant tensor:
#      x y z
#    x 1.864350 -0.001680 0.041740 
#    y -0.001680 1.935500 -0.064260 
#    z 0.041740 -0.064260 2.020250 
# 
# From -- ./inp_files/427524.got.cif
#   From: 2010.05.17/outbox.cif.g08.bks.cpg/sg2_214_cif.got.tgz:427524.got - 2010.06.03 11:33:40.
