data_PCOD9031753
_publ_section_title
;
Structure prediction by ZEFSAII (Michael W. Deem and Ramdas Pophale) SiO2 
 PCOD9031753
Probable space group: P -1
;
_chemical_formula_sum "Si O2"
_cell_formula_units_Z 14
_cell_length_a 11.782877
_cell_length_b 9.784989
_cell_length_c 9.395389
_cell_angle_alpha 56.522460
_cell_angle_beta 51.690333
_cell_angle_gamma 47.106935
_cell_volume 606.674397
_symmetry_space_group_name_H-M "P -1"
_symmetry_group_IT_number 2
_symmetry_cell_setting 'triclinic'
loop_
_space_group_symop_operation_xyz
x,y,z
-x,-y,-z
loop_
_atom_site_type_symbol
_atom_site_label
_atom_site_fract_x
_atom_site_fract_y
_atom_site_fract_z
Si Si1 0.671515 0.982965 0.154062
Si Si2 0.678118 0.357624 0.864775
Si Si3 0.366355 0.169734 0.111692
Si Si4 0.334879 0.621765 0.468955
Si Si5 0.038255 0.133646 0.794333
Si Si6 0.194352 0.422271 0.870143
Si Si7 0.863168 0.966940 0.549351
O O1 0.467358 0.110864 0.217433
O O2 0.786166 0.903588 0.252389
O O3 0.732612 0.783616 0.142393
O O4 0.710071 0.140698 0.966361
O O5 0.662658 0.416061 0.678263
O O6 0.851907 0.329240 0.814709
O O7 0.500000 0.500000 0.000000
O O8 0.300705 0.830928 0.405801
O O9 0.306858 0.367339 0.959563
O O10 0.500000 0.000000 0.000000
O O11 0.500000 0.500000 0.500000
O O12 0.207320 0.573333 0.674480
O O13 0.084837 0.068386 0.633759
O O14 0.000000 0.000000 0.000000
O O15 0.191100 0.176243 0.267350
O O16 0.000000 0.500000 0.000000
O O17 0.000000 0.000000 0.500000
#
# Coordination Sequence:
#
# PCOD9031753 Si02
#       7
#     2   2   2   2   2   2   2
#     4  10  23  47  67  97 147 180 236 281 358 421
#     4  11  25  47  70 101 141 187 236 293 356 423
#     4  10  22  43  68 103 140 186 225 290 354 409
#     4  12  25  40  71 106 135 176 246 284 339 425
#     4  10  25  43  72 103 138 189 237 290 363 410
#     4  11  24  40  71 105 141 181 226 292 356 407
#     4  12  24  45  77 100 141 189 243 290 345 425
#
# _framework density 23.076626999999998
#
# number of rings (size 3 to 8) (size 9 to 14) (size 15 to 20)
#    0.000    1.143    1.429    5.143   12.000    1.714 
#    2.571    0.714    0.000    0.000    0.000    0.000 
#    0.000    0.000    0.000    0.000    0.000    0.000 
#
# Total GULP energy -77989.407777 kJ/mol
# GULP energy per Si atom -5570.671984 kJ/mol
# Density = 2.302410 g / cm^3
# Si number density = 23.076627 Si / 1000 Ang^3
#
#
#
# Elastic Constant Matrix: (Units=GPa)
#
#
# Indices 1 2 3 4 5 6 
#
# 1 159.5657 16.2928 48.0318 7.3141 28.6446 -31.8189
# 2 16.2928 45.0946 23.5120 0.1459 20.1715 -10.0872
# 3 48.0318 23.5120 138.3734 14.3164 5.9188 -6.4894
# 4 7.3141 0.1459 14.3164 32.8103 -0.5962 -0.0688
# 5 28.6446 20.1715 5.9188 -0.5962 47.3293 -11.6927
# 6 -31.8189 -10.0872 -6.4894 -0.0688 -11.6927 40.4693
#
#
#
# Elastic Compliance Matrix: (Units=1/GPa)
#
#
# Indices 1 2 3 4 5 6 
#
# 1 0.008895 0.001413 -0.002794 -0.000835 -0.004246 0.005670
# 2 0.001413 0.030810 -0.005159 0.001586 -0.012226 0.004434
# 3 -0.002794 -0.005159 0.009257 -0.003353 0.002363 -0.001321
# 4 -0.000835 0.001586 -0.003353 0.032129 0.000506 -0.000598
# 5 -0.004246 -0.012226 0.002363 0.000506 0.029222 0.002437
# 6 0.005670 0.004434 -0.001321 -0.000598 0.002437 0.030764
#
#
# Mechanical properties :
#
#
# Convention : Reuss Voigt Hill
#
# Bulk Modulus (GPa) = 27.86815 57.63410 42.75113
# Shear Modulus (GPa) = 30.09926 41.13491 35.61708
#
# Velocity S-wave (km/s) = 3.61545 4.22659 3.93291
# Velocity P-wave (km/s) = 5.43426 6.98914 6.26016
#
# Compressibility (1/GPa) = 0.03588326
#
# Stress axis : x y z
#
# Youngs Moduli (GPa) = 112.42586 32.45651 108.02553
#
# Poissons Ratio (x) = -0.04587 0.30179
# Poissons Ratio (y) = -0.15888 0.55730
# Poissons Ratio (z) = 0.31409 0.16744
#
# Static dielectric constant tensor:
#      x y z
#    x 2.127630 0.009610 0.040260 
#    y 0.009610 1.900990 -0.044050 
#    z 0.040260 -0.044050 1.994200 
# 
# From -- ./inp_files/242478.got.cif
#   From: 2010.05.17/outbox.cif.g08.bks.cpg/sg2_122_cif.got.tgz:242478.got - 2010.06.03 11:33:40.
