data_PCOD9031119
_publ_section_title
;
Structure prediction by ZEFSAII (Michael W. Deem and Ramdas Pophale) SiO2 
 PCOD9031119
Probable space group: P -1
;
_chemical_formula_sum "Si O2"
_cell_formula_units_Z 14
_cell_length_a 9.950533
_cell_length_b 5.351245
_cell_length_c 14.043293
_cell_angle_alpha 60.030295
_cell_angle_beta 110.231786
_cell_angle_gamma 108.137921
_cell_volume 598.925453
_symmetry_space_group_name_H-M "P -1"
_symmetry_group_IT_number 2
_symmetry_cell_setting 'triclinic'
loop_
_space_group_symop_operation_xyz
x,y,z
-x,-y,-z
loop_
_atom_site_type_symbol
_atom_site_label
_atom_site_fract_x
_atom_site_fract_y
_atom_site_fract_z
Si Si1 0.334104 0.833136 0.151355
Si Si2 0.677949 0.286938 0.536309
Si Si3 0.466382 0.317051 0.314581
Si Si4 0.643849 0.170550 0.229716
Si Si5 0.196610 0.762776 0.936956
Si Si6 0.173282 0.075295 0.515137
Si Si7 0.079350 0.109745 0.096327
O O1 0.336850 0.492047 0.233298
O O2 0.496148 0.979098 0.190606
O O3 0.211208 0.934733 0.167529
O O4 0.300262 0.912829 0.018535
O O5 0.552833 0.387087 0.420499
O O6 0.770769 0.575893 0.549563
O O7 0.590738 0.030792 0.628782
O O8 0.772940 0.114881 0.521331
O O9 0.581217 0.393699 0.242320
O O10 0.730809 0.283610 0.135880
O O11 0.745428 0.013510 0.352937
O O12 0.053895 0.913624 0.858396
O O13 0.142622 0.447329 0.030435
O O14 0.000000 0.000000 0.500000
O O15 0.000000 0.000000 0.000000
#
# Coordination Sequence:
#
# PCOD9031119 Si02
#       7
#     2   2   2   2   2   2   2
#     4  11  21  40  66 102 134 178 237 285 345 433
#     4  10  23  45  72 100 146 183 237 305 353 426
#     4  10  23  39  69 104 136 181 236 292 360 417
#     4  11  24  41  67  99 138 180 236 291 359 419
#     4  10  22  43  64  99 141 181 224 291 347 428
#     4  11  24  48  70 102 142 189 241 297 365 427
#     4   9  21  42  64  89 141 177 229 276 349 417
#
# _framework density 23.375195999999999
#
# number of rings (size 3 to 8) (size 9 to 14) (size 15 to 20)
#    0.000    1.714    1.429    1.714    2.000    6.286 
#   10.286    0.000    0.000    0.000    0.000    0.000 
#    0.000    0.000    0.000    0.000    0.000    0.000 
#
# Total GULP energy -78250.897265 kJ/mol
# GULP energy per Si atom -5589.349805 kJ/mol
# Density = 2.332199 g / cm^3
# Si number density = 23.375196 Si / 1000 Ang^3
#
#
#
# Elastic Constant Matrix: (Units=GPa)
#
#
# Indices 1 2 3 4 5 6 
#
# 1 174.0454 36.4619 74.8430 -2.8744 16.4521 -13.2174
# 2 36.4619 66.8625 7.4251 0.7818 16.7013 -0.5128
# 3 74.8430 7.4251 75.9991 9.1620 4.6136 -11.2642
# 4 -2.8744 0.7818 9.1620 27.2550 -7.3419 11.2734
# 5 16.4521 16.7013 4.6136 -7.3419 38.8407 3.4997
# 6 -13.2174 -0.5128 -11.2642 11.2734 3.4997 38.2678
#
#
#
# Elastic Compliance Matrix: (Units=1/GPa)
#
#
# Indices 1 2 3 4 5 6 
#
# 1 0.012231 -0.005337 -0.012449 0.006133 -0.000130 -0.001306
# 2 -0.005337 0.019403 0.004897 -0.005875 -0.007984 0.002319
# 3 -0.012449 0.004897 0.028470 -0.015924 -0.004054 0.009208
# 4 0.006133 -0.005875 -0.015924 0.054958 0.014022 -0.020120
# 5 -0.000130 -0.007984 -0.004054 0.014022 0.033133 -0.008506
# 6 -0.001306 0.002319 0.009208 -0.020120 -0.008506 0.035127
#
#
# Mechanical properties :
#
#
# Convention : Reuss Voigt Hill
#
# Bulk Modulus (GPa) = 29.13213 61.59633 45.36423
# Shear Modulus (GPa) = 22.67126 34.08451 28.37788
#
# Velocity S-wave (km/s) = 3.11768 3.82271 3.48805
# Velocity P-wave (km/s) = 5.04478 6.77440 5.97253
#
# Compressibility (1/GPa) = 0.03432636
#
# Stress axis : x y z
#
# Youngs Moduli (GPa) = 81.75672 51.53743 35.12488
#
# Poissons Ratio (x) = 0.27504 0.43727
# Poissons Ratio (y) = 0.43632 -0.17199
# Poissons Ratio (z) = 1.01779 -0.25236
#
# Static dielectric constant tensor:
#      x y z
#    x 1.908750 -0.033910 0.001430 
#    y -0.033910 2.002130 0.037860 
#    z 0.001430 0.037860 1.884590 
# 
# From -- ./inp_files/45327.got.cif
#   From: 2010.05.17/outbox.cif.g08.bks.cpg/sg2_23_cif.got.tgz:45327.got - 2010.06.03 11:33:40.
