data_PCOD9031710
_publ_section_title
;
Structure prediction by ZEFSAII (Michael W. Deem and Ramdas Pophale) SiO2 
 PCOD9031710
Probable space group: P -1
;
_chemical_formula_sum "Si O2"
_cell_formula_units_Z 10
_cell_length_a 7.282531
_cell_length_b 11.960196
_cell_length_c 13.576468
_cell_angle_alpha 152.086041
_cell_angle_beta 81.929430
_cell_angle_gamma 116.634670
_cell_volume 391.674613
_symmetry_space_group_name_H-M "P -1"
_symmetry_group_IT_number 2
_symmetry_cell_setting 'triclinic'
loop_
_space_group_symop_operation_xyz
x,y,z
-x,-y,-z
loop_
_atom_site_type_symbol
_atom_site_label
_atom_site_fract_x
_atom_site_fract_y
_atom_site_fract_z
Si Si1 0.839131 0.829833 0.052721
Si Si2 0.415396 0.752977 0.510927
Si Si3 0.131231 0.204033 0.509770
Si Si4 0.468853 0.038127 0.919086
Si Si5 0.571073 0.824331 0.298701
O O1 0.829563 0.595872 0.795019
O O2 0.752207 0.968896 0.097990
O O3 0.638393 0.549043 0.934328
O O4 0.071327 0.123664 0.334234
O O5 0.665498 0.827562 0.513887
O O6 0.435400 0.047910 0.707361
O O7 0.423490 0.775530 0.645437
O O8 0.271197 0.574092 0.818334
O O9 0.855387 0.969917 0.402244
O O10 0.500000 0.000000 0.000000
O O11 0.500000 0.000000 0.500000
#
# Coordination Sequence:
#
# PCOD9031710 Si02
#       5
#     2   2   2   2   2
#     4  10  23  44  64 101 135 165 220 268 320 404
#     4  10  24  42  68  97 135 170 218 270 327 389
#     4  11  24  42  70 101 130 176 217 264 340 386
#     4  11  26  46  66  96 133 175 229 273 317 389
#     4  10  22  43  68 100 140 166 210 274 329 400
#
# _framework density 25.531396999999998
#
# number of rings (size 3 to 8) (size 9 to 14) (size 15 to 20)
#    0.000    1.600    2.000    0.600    5.600   12.000 
#    0.000    2.000    0.000    0.000    0.000    0.000 
#    0.000    0.000    0.000    0.000    0.000    0.000 
#
# Total GULP energy -55783.022410 kJ/mol
# GULP energy per Si atom -5578.302241 kJ/mol
# Density = 2.547329 g / cm^3
# Si number density = 25.531397 Si / 1000 Ang^3
#
#
#
# Elastic Constant Matrix: (Units=GPa)
#
#
# Indices 1 2 3 4 5 6 
#
# 1 112.7293 7.8278 7.7313 1.4536 -12.2322 -19.8909
# 2 7.8278 94.1194 6.8150 -29.3955 3.8867 -16.9164
# 3 7.7313 6.8150 107.8626 -48.7687 2.1295 9.3675
# 4 1.4536 -29.3955 -48.7687 50.9360 -7.6948 8.3671
# 5 -12.2322 3.8867 2.1295 -7.6948 32.9648 -10.7000
# 6 -19.8909 -16.9164 9.3675 8.3671 -10.7000 36.5407
#
#
#
# Elastic Compliance Matrix: (Units=1/GPa)
#
#
# Indices 1 2 3 4 5 6 
#
# 1 0.011938 -0.000876 -0.004510 -0.005865 0.006900 0.010613
# 2 -0.000876 0.014775 0.004649 0.012787 0.001487 0.002679
# 3 -0.004510 0.004649 0.021994 0.025640 -0.001648 -0.012295
# 4 -0.005865 0.012787 0.025640 0.054656 0.002328 -0.015679
# 5 0.006900 0.001487 -0.001648 0.002328 0.038430 0.015587
# 6 0.010613 0.002679 -0.012295 -0.015679 0.015587 0.045691
#
#
# Mechanical properties :
#
#
# Convention : Reuss Voigt Hill
#
# Bulk Modulus (GPa) = 21.17168 39.93994 30.55581
# Shear Modulus (GPa) = 24.42582 43.57743 34.00162
#
# Velocity S-wave (km/s) = 3.09641 4.13585 3.65328
# Velocity P-wave (km/s) = 4.59283 6.20358 5.45795
#
# Compressibility (1/GPa) = 0.04723290
#
# Stress axis : x y z
#
# Youngs Moduli (GPa) = 83.76689 67.68253 45.46715
#
# Poissons Ratio (x) = 0.05926 0.20506
# Poissons Ratio (y) = 0.07334 -0.21137
# Poissons Ratio (z) = 0.37780 -0.31464
#
# Static dielectric constant tensor:
#      x y z
#    x 2.024010 0.033050 -0.009150 
#    y 0.033050 2.215490 -0.037810 
#    z -0.009150 -0.037810 2.068490 
# 
# From -- ./inp_files/155849.got.cif
#   From: 2010.05.17/outbox.cif.g08.bks.cpg/sg2_78_cif.got.tgz:155849.got - 2010.06.03 11:33:40.
