data_PCOD9031052
_publ_section_title
;
Structure prediction by ZEFSAII (Michael W. Deem and Ramdas Pophale) SiO2 
 PCOD9031052
Probable space group: P -1
;
_chemical_formula_sum "Si O2"
_cell_formula_units_Z 16
_cell_length_a 7.781471
_cell_length_b 8.662679
_cell_length_c 12.077573
_cell_angle_alpha 109.018832
_cell_angle_beta 123.097116
_cell_angle_gamma 81.438033
_cell_volume 644.368368
_symmetry_space_group_name_H-M "P -1"
_symmetry_group_IT_number 2
_symmetry_cell_setting 'triclinic'
loop_
_space_group_symop_operation_xyz
x,y,z
-x,-y,-z
loop_
_atom_site_type_symbol
_atom_site_label
_atom_site_fract_x
_atom_site_fract_y
_atom_site_fract_z
Si Si1 0.185274 0.395716 0.698320
Si Si2 0.144873 0.625048 0.230496
Si Si3 0.369015 0.761121 0.820823
Si Si4 0.709578 0.868157 0.795785
Si Si5 0.984298 0.298515 0.011996
Si Si6 0.438996 0.785837 0.104969
Si Si7 0.100171 0.849358 0.561327
Si Si8 0.532374 0.174930 0.493372
O O1 0.280121 0.574483 0.748128
O O2 0.358283 0.285860 0.789415
O O3 0.998350 0.403822 0.721224
O O4 0.073964 0.295913 0.536067
O O5 0.131776 0.454865 0.122435
O O6 0.371084 0.693892 0.356358
O O7 0.033321 0.745221 0.133581
O O8 0.565234 0.778877 0.815254
O O9 0.197749 0.866350 0.721580
O O10 0.438138 0.815055 0.980210
O O11 0.936606 0.837102 0.909401
O O12 0.669134 0.796146 0.642674
O O13 0.632978 0.052723 0.818950
O O14 0.753456 0.340266 0.974600
O O15 0.292944 0.822478 0.540619
O O16 0.000000 0.000000 0.500000
O O17 0.500000 0.000000 0.500000
#
# Coordination Sequence:
#
# PCOD9031052 Si02
#       8
#     2   2   2   2   2   2   2   2
#     4  11  22  42  67  94 129 170 215 261 316 382
#     4  10  23  41  65  93 130 166 211 265 315 378
#     4  11  23  40  64  97 127 167 218 258 322 379
#     4  11  25  42  62  95 130 166 213 267 314 379
#     4  11  24  41  63  95 131 166 215 261 320 373
#     4  12  24  41  68  95 130 170 214 261 322 378
#     4  10  23  42  64  94 131 167 210 266 317 377
#     4  10  22  43  64  90 125 168 214 253 321 379
#
# _framework density 24.830518999999999
#
# number of rings (size 3 to 8) (size 9 to 14) (size 15 to 20)
#    0.000    1.250    1.250    4.500    3.500    3.500 
#    0.000    0.000    0.000    0.000    0.000    0.000 
#    0.000    0.000    0.000    0.000    0.000    0.000 
#
# Total GULP energy -89452.764993 kJ/mol
# GULP energy per Si atom -5590.797812 kJ/mol
# Density = 2.477400 g / cm^3
# Si number density = 24.830519 Si / 1000 Ang^3
#
#
#
# Elastic Constant Matrix: (Units=GPa)
#
#
# Indices 1 2 3 4 5 6 
#
# 1 40.3773 13.9718 11.0167 -2.8740 4.4875 17.8696
# 2 13.9718 74.5200 21.7737 2.8852 10.7541 8.6581
# 3 11.0167 21.7737 147.0927 -3.3400 7.0230 -3.5704
# 4 -2.8740 2.8852 -3.3400 44.7772 5.1454 13.4317
# 5 4.4875 10.7541 7.0230 5.1454 31.5640 -5.2621
# 6 17.8696 8.6581 -3.5704 13.4317 -5.2621 36.1171
#
#
#
# Elastic Compliance Matrix: (Units=1/GPa)
#
#
# Indices 1 2 3 4 5 6 
#
# 1 0.039082 -0.002782 -0.002384 0.010983 -0.009943 -0.024438
# 2 -0.002782 0.015630 -0.001938 0.000281 -0.005113 -0.003412
# 3 -0.002384 -0.001938 0.007328 -0.000180 -0.000201 0.002406
# 4 0.010983 0.000281 -0.000180 0.029434 -0.009388 -0.017833
# 5 -0.009943 -0.005113 -0.000201 -0.009388 0.038962 0.015293
# 6 -0.024438 -0.003412 0.002406 -0.017833 0.015293 0.049695
#
#
# Mechanical properties :
#
#
# Convention : Reuss Voigt Hill
#
# Bulk Modulus (GPa) = 20.90644 39.50162 30.20403
# Shear Modulus (GPa) = 23.77746 36.84019 30.30882
#
# Velocity S-wave (km/s) = 3.09785 3.85602 3.49754
# Velocity P-wave (km/s) = 4.60798 5.98065 5.33862
#
# Compressibility (1/GPa) = 0.04783215
#
# Stress axis : x y z
#
# Youngs Moduli (GPa) = 25.58729 63.97812 136.46772
#
# Poissons Ratio (x) = 0.17798 0.32540
# Poissons Ratio (y) = 0.07118 0.26443
# Poissons Ratio (z) = 0.06101 0.12397
#
# Static dielectric constant tensor:
#      x y z
#    x 1.942610 -0.005240 -0.002180 
#    y -0.005240 2.056200 0.004950 
#    z -0.002180 0.004950 2.118870 
# 
# From -- ./inp_files/184399.got.cif
#   From: 2010.05.17/outbox.cif.g08.bks.cpg/sg2_93_cif.got.tgz:184399.got - 2010.06.03 11:33:40.
