data_PCOD9031255
_publ_section_title
;
Structure prediction by ZEFSAII (Michael W. Deem and Ramdas Pophale) SiO2 
 PCOD9031255
Probable space group: P -1
;
_chemical_formula_sum "Si O2"
_cell_formula_units_Z 16
_cell_length_a 8.349454
_cell_length_b 9.335482
_cell_length_c 14.092131
_cell_angle_alpha 133.546346
_cell_angle_beta 102.748472
_cell_angle_gamma 84.377220
_cell_volume 774.259717
_symmetry_space_group_name_H-M "P -1"
_symmetry_group_IT_number 2
_symmetry_cell_setting 'triclinic'
loop_
_space_group_symop_operation_xyz
x,y,z
-x,-y,-z
loop_
_atom_site_type_symbol
_atom_site_label
_atom_site_fract_x
_atom_site_fract_y
_atom_site_fract_z
Si Si1 0.811653 0.811150 0.453099
Si Si2 0.530154 0.118983 0.959180
Si Si3 0.392730 0.281197 0.273400
Si Si4 0.535925 0.684599 0.495129
Si Si5 0.202438 0.222221 0.880416
Si Si6 0.080839 0.207047 0.064923
Si Si7 0.817371 0.128102 0.438087
Si Si8 0.806835 0.474181 0.148076
O O1 0.661641 0.821076 0.510930
O O2 0.763682 0.636782 0.292490
O O3 0.993966 0.772354 0.500049
O O4 0.823231 0.012569 0.486127
O O5 0.379733 0.237275 0.960148
O O6 0.541670 0.934622 0.806440
O O7 0.685788 0.275738 0.047864
O O8 0.500000 0.000000 0.000000
O O9 0.512580 0.468705 0.343357
O O10 0.364234 0.339864 0.405057
O O11 0.249148 0.249220 0.163915
O O12 0.351597 0.756836 0.524376
O O13 0.183589 0.414926 0.901544
O O14 0.192755 0.033583 0.722345
O O15 0.087985 0.192055 0.944448
O O16 0.981005 0.395338 0.159334
O O17 0.000000 0.000000 0.000000
#
# Coordination Sequence:
#
# PCOD9031255 Si02
#       8
#     2   2   2   2   2   2   2   2
#     4  10  23  41  67  95 131 175 218 272 334 390
#     4  12  21  42  66  92 134 171 214 271 329 394
#     4  11  24  40  63  96 128 168 225 267 326 402
#     4  11  23  43  66  93 134 172 223 275 324 392
#     4  11  24  41  68  96 133 172 214 277 329 397
#     4  12  24  43  66  96 134 171 217 275 338 396
#     4  10  22  43  65  97 132 170 224 269 329 404
#     4  11  24  43  64 100 129 169 225 268 335 399
#
# _framework density 20.664899999999999
#
# number of rings (size 3 to 8) (size 9 to 14) (size 15 to 20)
#    0.000    1.000    3.750    2.625    1.750    0.000 
#    0.000    3.125    0.000    0.000    0.000    0.000 
#    0.000    0.000    0.000    0.000    0.000    0.000 
#
# Total GULP energy -89136.294785 kJ/mol
# GULP energy per Si atom -5571.018424 kJ/mol
# Density = 2.061787 g / cm^3
# Si number density = 20.664900 Si / 1000 Ang^3
#
#
#
# Elastic Constant Matrix: (Units=GPa)
#
#
# Indices 1 2 3 4 5 6 
#
# 1 66.1175 34.3710 21.4981 0.5984 2.7648 -0.6204
# 2 34.3710 117.0840 26.7005 -2.0751 5.4372 2.7045
# 3 21.4981 26.7005 68.9612 3.7028 13.6401 9.7180
# 4 0.5984 -2.0751 3.7028 32.5297 -5.3787 -1.8295
# 5 2.7648 5.4372 13.6401 -5.3787 27.3387 6.0279
# 6 -0.6204 2.7045 9.7180 -1.8295 6.0279 37.3386
#
#
#
# Elastic Compliance Matrix: (Units=1/GPa)
#
#
# Indices 1 2 3 4 5 6 
#
# 1 0.018981 -0.004612 -0.004559 0.000124 0.000923 0.001693
# 2 -0.004612 0.010527 -0.002668 0.001043 -0.000073 -0.000082
# 3 -0.004559 -0.002668 0.019401 -0.003933 -0.008639 -0.003730
# 4 0.000124 0.001043 -0.003933 0.032628 0.007880 0.001277
# 5 0.000923 -0.000073 -0.008639 0.007880 0.043316 -0.004338
# 6 0.001693 -0.000082 -0.003730 0.001277 -0.004338 0.028550
#
#
# Mechanical properties :
#
#
# Convention : Reuss Voigt Hill
#
# Bulk Modulus (GPa) = 39.63603 46.36690 43.00147
# Shear Modulus (GPa) = 26.95542 30.74760 28.85151
#
# Velocity S-wave (km/s) = 3.61557 3.86153 3.74058
# Velocity P-wave (km/s) = 6.05408 6.50908 6.28570
#
# Compressibility (1/GPa) = 0.02522957
#
# Stress axis : x y z
#
# Youngs Moduli (GPa) = 52.68499 94.99375 51.54398
#
# Poissons Ratio (x) = 0.43811 0.23500
# Poissons Ratio (y) = 0.24298 0.13753
# Poissons Ratio (z) = 0.24021 0.25347
#
# Static dielectric constant tensor:
#      x y z
#    x 1.832000 0.047090 -0.045890 
#    y 0.047090 1.839350 0.047010 
#    z -0.045890 0.047010 1.791870 
# 
# From -- ./inp_files/495899.got.cif
#   From: 2010.05.17/outbox.cif.g08.bks.cpg/sg2_248_cif.got.tgz:495899.got - 2010.06.03 11:33:40.
