data_PCOD9031430
_publ_section_title
;
Structure prediction by ZEFSAII (Michael W. Deem and Ramdas Pophale) SiO2 
 PCOD9031430
Probable space group: P -1
;
_chemical_formula_sum "Si O2"
_cell_formula_units_Z 16
_cell_length_a 22.343010
_cell_length_b 8.319496
_cell_length_c 15.942192
_cell_angle_alpha 117.143725
_cell_angle_beta 20.163381
_cell_angle_gamma 126.284291
_cell_volume 769.021845
_symmetry_space_group_name_H-M "P -1"
_symmetry_group_IT_number 2
_symmetry_cell_setting 'triclinic'
loop_
_space_group_symop_operation_xyz
x,y,z
-x,-y,-z
loop_
_atom_site_type_symbol
_atom_site_label
_atom_site_fract_x
_atom_site_fract_y
_atom_site_fract_z
Si Si1 0.828626 0.538477 0.990548
Si Si2 0.977560 0.967735 0.183100
Si Si3 0.840104 0.570662 0.528981
Si Si4 0.119552 0.014634 0.191191
Si Si5 0.813919 0.534758 0.745435
Si Si6 0.582197 0.302069 0.648914
Si Si7 0.481223 0.358864 0.277497
Si Si8 0.026012 0.658156 0.929822
O O1 0.984005 0.483550 0.729465
O O2 0.854882 0.529495 0.053208
O O3 0.606755 0.402354 0.208166
O O4 0.910464 0.783637 0.921726
O O5 0.734825 0.859431 0.487331
O O6 0.059592 0.935248 0.155600
O O7 0.011439 0.845880 0.034772
O O8 0.753757 0.513670 0.722320
O O9 0.670163 0.441861 0.650916
O O10 0.959938 0.823445 0.414455
O O11 0.113996 0.226839 0.262403
O O12 0.357739 0.095766 0.910310
O O13 0.000000 0.500000 0.500000
O O14 0.627934 0.377037 0.013152
O O15 0.560356 0.452129 0.644963
O O16 0.753568 0.256984 0.382413
O O17 0.000000 0.500000 0.000000
#
# Coordination Sequence:
#
# PCOD9031430 Si02
#       8
#     2   2   2   2   2   2   2   2
#     4  11  24  43  65  95 133 168 213 272 312 386
#     4  12  22  43  66  95 133 172 210 266 326 377
#     4  11  22  44  67  95 133 170 216 269 318 378
#     4  11  23  41  69  94 134 170 212 269 319 380
#     4  11  22  44  66  96 133 170 215 267 321 383
#     4  10  22  43  66  97 129 168 216 267 319 380
#     4  11  22  42  68  92 135 169 214 265 325 374
#     4  11  23  43  68  95 130 170 216 264 322 384
#
# _framework density 20.805651999999998
#
# number of rings (size 3 to 8) (size 9 to 14) (size 15 to 20)
#    0.000    1.000    6.250    1.500    0.000    5.000 
#    2.250    1.250    0.000    0.000    0.000    0.000 
#    0.000    0.000    0.000    0.000    0.000    0.000 
#
# Total GULP energy -89496.033543 kJ/mol
# GULP energy per Si atom -5593.502096 kJ/mol
# Density = 2.075830 g / cm^3
# Si number density = 20.805652 Si / 1000 Ang^3
#
#
#
# Elastic Constant Matrix: (Units=GPa)
#
#
# Indices 1 2 3 4 5 6 
#
# 1 132.2631 13.8278 38.9500 -4.3932 -17.0272 17.1920
# 2 13.8278 33.1195 22.5385 -0.3889 6.0342 13.2224
# 3 38.9500 22.5385 107.2259 -7.3180 -13.9457 19.0153
# 4 -4.3932 -0.3889 -7.3180 37.9394 11.0251 0.9252
# 5 -17.0272 6.0342 -13.9457 11.0251 33.9908 -2.9173
# 6 17.1920 13.2224 19.0153 0.9252 -2.9173 30.7845
#
#
#
# Elastic Compliance Matrix: (Units=1/GPa)
#
#
# Indices 1 2 3 4 5 6 
#
# 1 0.009217 -0.002294 -0.001897 -0.000473 0.004178 -0.002580
# 2 -0.002294 0.044983 -0.007676 0.003328 -0.014632 -0.014785
# 3 -0.001897 -0.007676 0.012915 0.000760 0.005194 -0.003152
# 4 -0.000473 0.003328 0.000760 0.029597 -0.010417 -0.003511
# 5 0.004178 -0.014632 0.005194 -0.010417 0.040036 0.004851
# 6 -0.002580 -0.014785 -0.003152 -0.003511 0.004851 0.042787
#
#
# Mechanical properties :
#
#
# Convention : Reuss Voigt Hill
#
# Bulk Modulus (GPa) = 23.05179 47.02679 35.03929
# Shear Modulus (GPa) = 22.96436 33.69575 28.33006
#
# Velocity S-wave (km/s) = 3.32589 4.02873 3.69406
# Velocity P-wave (km/s) = 5.08452 6.65528 5.92221
#
# Compressibility (1/GPa) = 0.04338059
#
# Stress axis : x y z
#
# Youngs Moduli (GPa) = 108.49887 22.23071 77.42890
#
# Poissons Ratio (x) = 0.05099 0.14690
# Poissons Ratio (y) = 0.24886 0.59435
# Poissons Ratio (z) = 0.20585 0.17064
#
# Static dielectric constant tensor:
#      x y z
#    x 1.772220 -0.023050 -0.000520 
#    y -0.023050 1.727810 0.015130 
#    z -0.000520 0.015130 1.728790 
# 
# From -- ./inp_files/214825.got.cif
#   From: 2010.05.17/outbox.cif.g08.bks.cpg/sg2_108_cif.got.tgz:214825.got - 2010.06.03 11:33:40.
