data_PCOD9031185
_publ_section_title
;
Structure prediction by ZEFSAII (Michael W. Deem and Ramdas Pophale) SiO2 
 PCOD9031185
Probable space group: P -1
;
_chemical_formula_sum "Si O2"
_cell_formula_units_Z 15
_cell_length_a 11.453428
_cell_length_b 21.000765
_cell_length_c 9.532599
_cell_angle_alpha 145.734324
_cell_angle_beta 125.560582
_cell_angle_gamma 31.628962
_cell_volume 616.388905
_symmetry_space_group_name_H-M "P -1"
_symmetry_group_IT_number 2
_symmetry_cell_setting 'triclinic'
loop_
_space_group_symop_operation_xyz
x,y,z
-x,-y,-z
loop_
_atom_site_type_symbol
_atom_site_label
_atom_site_fract_x
_atom_site_fract_y
_atom_site_fract_z
Si Si1 0.500000 0.500000 0.000000
Si Si2 0.096440 0.787835 0.764242
Si Si3 0.702289 0.123138 0.300941
Si Si4 0.249686 0.041389 0.414546
Si Si5 0.215566 0.310059 0.213633
Si Si6 0.774822 0.674970 0.063263
Si Si7 0.070819 0.142679 0.770621
Si Si8 0.494262 0.536179 0.337726
O O1 0.446071 0.466556 0.068161
O O2 0.215503 0.671304 0.069121
O O3 0.304222 0.679636 0.594045
O O4 0.248463 0.626694 0.698238
O O5 0.889546 0.868885 0.666818
O O6 0.926599 0.980564 0.087450
O O7 0.488767 0.171020 0.197400
O O8 0.562630 0.332430 0.584283
O O9 0.804699 0.024318 0.341847
O O10 0.265379 0.164756 0.680104
O O11 0.113202 0.082616 0.529906
O O12 0.502916 0.810691 0.162918
O O13 0.000000 0.500000 0.500000
O O14 0.177965 0.389778 0.179919
O O15 0.182515 0.195859 0.977057
O O16 0.000000 0.500000 0.000000
#
# Coordination Sequence:
#
# PCOD9031185 Si02
#       8
#     1   2   2   2   2   2   2   2
#     4  12  22  48  68  96 140 176 224 272 340 398
#     4  11  23  46  68  97 134 176 225 280 331 397
#     4  12  25  45  70 101 135 177 229 275 340 401
#     4  10  22  43  65  92 135 173 219 269 334 393
#     4  11  25  43  68 102 137 176 227 275 339 401
#     4  10  23  40  64  98 129 173 219 271 333 393
#     4  11  25  45  67 102 137 181 221 280 336 400
#     4  11  26  44  70 101 133 178 226 278 336 395
#
# _framework density 24.335284000000001
#
# number of rings (size 3 to 8) (size 9 to 14) (size 15 to 20)
#    0.000    1.067    4.000    1.600    3.733    0.533 
#    0.000    0.000    0.000    0.000    0.000    0.000 
#    0.000    0.000    0.000    0.000    0.000    0.000 
#
# Total GULP energy -83555.496145 kJ/mol
# GULP energy per Si atom -5570.366410 kJ/mol
# Density = 2.427990 g / cm^3
# Si number density = 24.335284 Si / 1000 Ang^3
#
#
#
# Elastic Constant Matrix: (Units=GPa)
#
#
# Indices 1 2 3 4 5 6 
#
# 1 30.0444 45.8069 31.7878 3.4637 -18.9744 11.7790
# 2 45.8069 205.0192 45.5908 16.3169 -21.4868 14.8858
# 3 31.7878 45.5908 114.3854 13.1672 -39.5188 8.4170
# 4 3.4637 16.3169 13.1672 45.1265 -9.3014 -8.1314
# 5 -18.9744 -21.4868 -39.5188 -9.3014 44.0954 -8.4489
# 6 11.7790 14.8858 8.4170 -8.1314 -8.4489 46.9187
#
#
#
# Elastic Compliance Matrix: (Units=1/GPa)
#
#
# Indices 1 2 3 4 5 6 
#
# 1 0.078169 -0.012927 -0.010420 0.003363 0.016782 -0.010049
# 2 -0.012927 0.007709 -0.000012 -0.002265 -0.002296 -0.000004
# 3 -0.010420 -0.000012 0.014695 -0.001478 0.008613 0.001279
# 4 0.003363 -0.002265 -0.001478 0.025254 0.005397 0.005488
# 5 0.016782 -0.002296 0.008613 0.005397 0.038171 0.002779
# 6 -0.010049 -0.000004 0.001279 0.005488 0.002779 0.025060
#
#
# Mechanical properties :
#
#
# Convention : Reuss Voigt Hill
#
# Bulk Modulus (GPa) = 18.56899 66.20221 42.38560
# Shear Modulus (GPa) = 19.70622 42.31237 31.00930
#
# Velocity S-wave (km/s) = 2.84875 4.17433 3.57354
# Velocity P-wave (km/s) = 4.29739 7.10610 5.87214
#
# Compressibility (1/GPa) = 0.05385323
#
# Stress axis : x y z
#
# Youngs Moduli (GPa) = 12.79278 129.72640 68.05146
#
# Poissons Ratio (x) = 1.67698 0.70913
# Poissons Ratio (y) = 0.16537 0.00082
# Poissons Ratio (z) = 0.13331 0.00156
#
# Static dielectric constant tensor:
#      x y z
#    x 2.139360 0.029570 -0.293360 
#    y 0.029570 1.841970 0.072850 
#    z -0.293360 0.072850 1.905180 
# 
# From -- ./inp_files/259727.got.cif
#   From: 2010.05.17/outbox.cif.g08.bks.cpg/sg2_130_cif.got.tgz:259727.got - 2010.06.03 11:33:40.
