data_PCOD9031676
_publ_section_title
;
Structure prediction by ZEFSAII (Michael W. Deem and Ramdas Pophale) SiO2 
 PCOD9031676
Probable space group: P -1
;
_chemical_formula_sum "Si O2"
_cell_formula_units_Z 16
_cell_length_a 8.121312
_cell_length_b 15.956357
_cell_length_c 10.050024
_cell_angle_alpha 65.313513
_cell_angle_beta 57.378739
_cell_angle_gamma 33.777996
_cell_volume 608.564526
_symmetry_space_group_name_H-M "P -1"
_symmetry_group_IT_number 2
_symmetry_cell_setting 'triclinic'
loop_
_space_group_symop_operation_xyz
x,y,z
-x,-y,-z
loop_
_atom_site_type_symbol
_atom_site_label
_atom_site_fract_x
_atom_site_fract_y
_atom_site_fract_z
Si Si1 0.150591 0.976617 0.255339
Si Si2 0.843820 0.382178 0.998297
Si Si3 0.912924 0.352830 0.280163
Si Si4 0.940954 0.917596 0.045288
Si Si5 0.615392 0.311702 0.596946
Si Si6 0.326955 0.150576 0.708951
Si Si7 0.415707 0.287448 0.433062
Si Si8 0.325542 0.365303 0.134878
O O1 0.263740 0.827606 0.293846
O O2 0.318899 0.956926 0.324664
O O3 0.771604 0.125257 0.339183
O O4 0.233069 0.007915 0.070711
O O5 0.863205 0.330656 0.169059
O O6 0.500000 0.500000 0.000000
O O7 0.887429 0.475452 0.941811
O O8 0.112586 0.250340 0.866894
O O9 0.885783 0.280998 0.445953
O O10 0.627991 0.533099 0.317224
O O11 0.228285 0.298098 0.184374
O O12 0.749383 0.927397 0.227157
O O13 0.308117 0.747985 0.982502
O O14 0.000000 0.000000 0.000000
O O15 0.445497 0.337488 0.518929
O O16 0.238451 0.258270 0.565776
O O17 0.274173 0.391139 0.299056
#
# Coordination Sequence:
#
# PCOD9031676 Si02
#       8
#     2   2   2   2   2   2   2   2
#     4  10  23  43  69  95 131 175 224 268 320 401
#     4  12  25  43  69  95 133 174 223 276 323 396
#     4  11  26  40  68 100 134 172 218 279 332 391
#     4  11  26  40  62 100 135 170 214 275 329 392
#     4  10  22  43  67  99 130 176 221 274 332 383
#     4  11  23  43  69  96 127 181 220 269 330 385
#     4  10  23  44  70  97 134 174 228 266 323 404
#     4  11  24  43  63  99 135 175 217 270 331 387
#
# _framework density 26.291378999999999
#
# number of rings (size 3 to 8) (size 9 to 14) (size 15 to 20)
#    0.000    1.250    1.250    4.500    5.250    7.000 
#    0.000    2.500    0.000    0.000    0.000    0.000 
#    0.000    0.000    0.000    0.000    0.000    0.000 
#
# Total GULP energy -89652.362348 kJ/mol
# GULP energy per Si atom -5603.272647 kJ/mol
# Density = 2.623154 g / cm^3
# Si number density = 26.291379 Si / 1000 Ang^3
#
#
#
# Elastic Constant Matrix: (Units=GPa)
#
#
# Indices 1 2 3 4 5 6 
#
# 1 81.5942 -1.0261 12.0682 -7.9891 -18.2008 4.1883
# 2 -1.0261 89.5344 11.2769 5.2872 -14.2489 17.5834
# 3 12.0682 11.2769 105.6841 -18.3244 -26.4391 0.1127
# 4 -7.9891 5.2872 -18.3244 30.1272 13.9107 -1.8504
# 5 -18.2008 -14.2489 -26.4391 13.9107 57.3598 -7.0000
# 6 4.1883 17.5834 0.1127 -1.8504 -7.0000 37.1717
#
#
#
# Elastic Compliance Matrix: (Units=1/GPa)
#
#
# Indices 1 2 3 4 5 6 
#
# 1 0.013373 0.000978 -0.000455 0.001258 0.003827 -0.001185
# 2 0.000978 0.013397 -0.001548 -0.004971 0.003392 -0.006051
# 3 -0.000455 -0.001548 0.011562 0.005603 0.003651 0.001715
# 4 0.001258 -0.004971 0.005603 0.041682 -0.008025 0.002756
# 5 0.003827 0.003392 0.003651 -0.008025 0.023358 0.001952
# 6 -0.001185 -0.006051 0.001715 0.002756 0.001952 0.030398
#
#
# Mechanical properties :
#
#
# Convention : Reuss Voigt Hill
#
# Bulk Modulus (GPa) = 27.56139 35.71674 31.63907
# Shear Modulus (GPa) = 33.80357 41.89799 37.85078
#
# Velocity S-wave (km/s) = 3.58960 3.99632 3.79841
# Velocity P-wave (km/s) = 5.26176 5.90835 5.59440
#
# Compressibility (1/GPa) = 0.03628264
#
# Stress axis : x y z
#
# Youngs Moduli (GPa) = 74.77754 74.64457 86.48737
#
# Poissons Ratio (x) = -0.07300 0.03931
# Poissons Ratio (y) = -0.07313 0.13389
# Poissons Ratio (z) = 0.03399 0.11556
#
# Static dielectric constant tensor:
#      x y z
#    x 2.167900 0.063900 -0.009730 
#    y 0.063900 2.121310 -0.050160 
#    z -0.009730 -0.050160 2.101260 
# 
# From -- ./inp_files/403074.got.cif
#   From: 2010.05.17/outbox.cif.g08.bks.cpg/sg2_202_cif.got.tgz:403074.got - 2010.06.03 11:33:40.
