data_PCOD9031613
_publ_section_title
;
Structure prediction by ZEFSAII (Michael W. Deem and Ramdas Pophale) SiO2 
 PCOD9031613
Probable space group: P -1
;
_chemical_formula_sum "Si O2"
_cell_formula_units_Z 14
_cell_length_a 12.017679
_cell_length_b 8.895294
_cell_length_c 14.558886
_cell_angle_alpha 49.754825
_cell_angle_beta 152.780186
_cell_angle_gamma 127.380449
_cell_volume 541.000567
_symmetry_space_group_name_H-M "P -1"
_symmetry_group_IT_number 2
_symmetry_cell_setting 'triclinic'
loop_
_space_group_symop_operation_xyz
x,y,z
-x,-y,-z
loop_
_atom_site_type_symbol
_atom_site_label
_atom_site_fract_x
_atom_site_fract_y
_atom_site_fract_z
Si Si1 0.237622 0.154859 0.410691
Si Si2 0.635010 0.265982 0.133821
Si Si3 0.294077 0.188029 0.651407
Si Si4 0.097828 0.227919 0.679509
Si Si5 0.012293 0.636366 0.267760
Si Si6 0.558305 0.576816 0.692808
Si Si7 0.603498 0.828140 0.812298
O O1 0.230546 0.212986 0.488699
O O2 0.259349 0.337012 0.285716
O O3 0.477765 0.030775 0.622802
O O4 0.007381 0.996411 0.287368
O O5 0.820777 0.452424 0.172066
O O6 0.571905 0.264139 0.197404
O O7 0.688688 0.044751 0.232967
O O8 0.376988 0.281696 0.889584
O O9 0.101061 0.241009 0.566446
O O10 0.534206 0.340536 0.782958
O O11 0.963176 0.348891 0.608928
O O12 0.283761 0.615319 0.442867
O O13 0.875845 0.823144 0.056994
O O14 0.602925 0.704071 0.767474
#
# Coordination Sequence:
#
# PCOD9031613 Si02
#       7
#     2   2   2   2   2   2   2
#     4  11  25  44  65 100 132 174 220 264 329 389
#     4  10  23  43  65 103 129 167 226 270 322 388
#     4  11  25  43  66  93 133 180 218 265 324 384
#     4  11  22  43  71  96 132 168 219 280 321 384
#     4  11  24  41  70 103 129 167 220 272 329 385
#     4  12  25  44  68  95 138 173 215 269 323 396
#     4  10  22  43  67  96 131 168 218 269 325 384
#
# _framework density 25.877977000000001
#
# number of rings (size 3 to 8) (size 9 to 14) (size 15 to 20)
#    0.000    1.143    1.429    5.143    6.000    1.714 
#    5.143    0.714    0.000    0.000    0.000    0.000 
#    0.000    0.000    0.000    0.000    0.000    0.000 
#
# Total GULP energy -78352.170366 kJ/mol
# GULP energy per Si atom -5596.583598 kJ/mol
# Density = 2.581908 g / cm^3
# Si number density = 25.877977 Si / 1000 Ang^3
#
#
#
# Elastic Constant Matrix: (Units=GPa)
#
#
# Indices 1 2 3 4 5 6 
#
# 1 102.3960 75.6231 -4.0849 8.5327 -5.2468 2.9665
# 2 75.6231 135.5863 4.3650 6.6306 -10.5766 -9.0143
# 3 -4.0849 4.3650 47.4259 -0.0446 -3.5555 -6.0146
# 4 8.5327 6.6306 -0.0446 32.7434 -2.3431 1.1112
# 5 -5.2468 -10.5766 -3.5555 -2.3431 21.1620 1.1613
# 6 2.9665 -9.0143 -6.0146 1.1112 1.1613 53.7676
#
#
#
# Elastic Compliance Matrix: (Units=1/GPa)
#
#
# Indices 1 2 3 4 5 6 
#
# 1 0.017341 -0.009802 0.002071 -0.002481 -0.000400 -0.002308
# 2 -0.009802 0.013357 -0.001463 0.000038 0.003865 0.002532
# 3 0.002071 -0.001463 0.021906 -0.000043 0.003347 0.002020
# 4 -0.002481 0.000038 -0.000043 0.031407 0.002906 -0.000573
# 5 -0.000400 0.003865 0.003347 0.002906 0.049977 -0.000095
# 6 -0.002308 0.002532 0.002020 -0.000573 -0.000095 0.019390
#
#
# Mechanical properties :
#
#
# Convention : Reuss Voigt Hill
#
# Bulk Modulus (GPa) = 29.22596 48.57940 38.90268
# Shear Modulus (GPa) = 27.29700 35.50157 31.39929
#
# Velocity S-wave (km/s) = 3.25135 3.70791 3.48711
# Velocity P-wave (km/s) = 5.04116 6.09465 5.59276
#
# Compressibility (1/GPa) = 0.03421615
#
# Stress axis : x y z
#
# Youngs Moduli (GPa) = 57.66762 74.86488 45.65061
#
# Poissons Ratio (x) = 0.73381 -0.09453
# Poissons Ratio (y) = 0.56524 0.06677
# Poissons Ratio (z) = -0.11941 0.10950
#
# Static dielectric constant tensor:
#      x y z
#    x 1.995630 0.002660 -0.025900 
#    y 0.002660 2.049860 -0.056840 
#    z -0.025900 -0.056840 2.140890 
# 
# From -- ./inp_files/514152.got.cif
#   From: 2010.05.17/outbox.cif.g08.bks.cpg/sg2_258_cif.got.tgz:514152.got - 2010.06.03 11:33:40.
