data_PCOD9031859
_publ_section_title
;
Structure prediction by ZEFSAII (Michael W. Deem and Ramdas Pophale) SiO2 
 PCOD9031859
Probable space group: P -1
;
_chemical_formula_sum "Si O2"
_cell_formula_units_Z 14
_cell_length_a 15.124770
_cell_length_b 14.516008
_cell_length_c 6.140953
_cell_angle_alpha 104.855632
_cell_angle_beta 103.268103
_cell_angle_gamma 30.297002
_cell_volume 657.344155
_symmetry_space_group_name_H-M "P -1"
_symmetry_group_IT_number 2
_symmetry_cell_setting 'triclinic'
loop_
_space_group_symop_operation_xyz
x,y,z
-x,-y,-z
loop_
_atom_site_type_symbol
_atom_site_label
_atom_site_fract_x
_atom_site_fract_y
_atom_site_fract_z
Si Si1 0.855489 0.075322 0.322642
Si Si2 0.040215 0.200365 0.062929
Si Si3 0.578379 0.865369 0.763603
Si Si4 0.734343 0.353669 0.106133
Si Si5 0.058913 0.545015 0.174108
Si Si6 0.754007 0.861764 0.536668
Si Si7 0.402875 0.644701 0.343267
O O1 0.790212 0.214109 0.200853
O O2 0.712595 0.176725 0.485500
O O3 0.000000 0.000000 0.500000
O O4 0.904344 0.939969 0.132186
O O5 0.189139 0.105318 0.249230
O O6 0.874640 0.310641 0.172074
O O7 0.980956 0.335551 0.946350
O O8 0.732473 0.653465 0.787179
O O9 0.679957 0.843197 0.636561
O O10 0.407169 0.973948 0.618324
O O11 0.500000 0.000000 0.000000
O O12 0.545017 0.556965 0.204553
O O13 0.711342 0.329590 0.839356
O O14 0.929798 0.675910 0.387949
O O15 0.000000 0.500000 0.000000
O O16 0.500000 0.500000 0.500000
#
# Coordination Sequence:
#
# PCOD9031859 Si02
#       7
#     2   2   2   2   2   2   2
#     4  11  23  42  72  94 141 188 230 294 349 418
#     4  12  26  41  71 110 136 188 248 282 358 429
#     4  11  23  48  76 102 141 189 236 299 366 424
#     4  10  22  43  68  96 139 185 234 292 353 420
#     4  12  25  47  74 103 146 186 238 300 359 431
#     4  11  25  44  76 103 142 185 241 295 363 422
#     4   9  20  41  68  96 134 186 227 293 359 409
#
# _framework density 21.297823999999999
#
# number of rings (size 3 to 8) (size 9 to 14) (size 15 to 20)
#    0.000    1.143    4.286    0.857    2.000    0.000 
#    0.000   18.571    0.000    0.000    0.000    0.000 
#    0.000    0.000    0.000    0.000    0.000    0.000 
#
# Total GULP energy -78203.972886 kJ/mol
# GULP energy per Si atom -5585.998063 kJ/mol
# Density = 2.124935 g / cm^3
# Si number density = 21.297824 Si / 1000 Ang^3
#
#
#
# Elastic Constant Matrix: (Units=GPa)
#
#
# Indices 1 2 3 4 5 6 
#
# 1 100.5601 47.5933 40.5208 5.1213 8.9865 -4.4932
# 2 47.5933 124.4277 71.4951 -2.7674 4.4532 -22.4978
# 3 40.5208 71.4951 138.2755 -6.9847 16.5353 -14.3145
# 4 5.1213 -2.7674 -6.9847 48.4333 -11.4143 -4.3111
# 5 8.9865 4.4532 16.5353 -11.4143 33.5574 -10.0761
# 6 -4.4932 -22.4978 -14.3145 -4.3111 -10.0761 28.4041
#
#
#
# Elastic Compliance Matrix: (Units=1/GPa)
#
#
# Indices 1 2 3 4 5 6 
#
# 1 0.013293 -0.005081 -0.001366 -0.003468 -0.004851 -0.004858
# 2 -0.005081 0.015175 -0.005843 0.003107 0.006612 0.011088
# 3 -0.001366 -0.005843 0.011122 0.000290 -0.004476 -0.000783
# 4 -0.003468 0.003107 0.000290 0.024925 0.011870 0.010052
# 5 -0.004851 0.006612 -0.004476 0.011870 0.042161 0.018972
# 6 -0.004858 0.011088 -0.000783 0.010052 0.018972 0.051082
#
#
# Mechanical properties :
#
#
# Convention : Reuss Voigt Hill
#
# Bulk Modulus (GPa) = 66.62636 75.83129 71.22883
# Shear Modulus (GPa) = 26.68909 35.65591 31.17250
#
# Velocity S-wave (km/s) = 3.54381 4.09609 3.82991
# Velocity P-wave (km/s) = 6.93512 7.61925 7.28522
#
# Compressibility (1/GPa) = 0.01500907
#
# Stress axis : x y z
#
# Youngs Moduli (GPa) = 75.22901 65.89716 89.90978
#
# Poissons Ratio (x) = 0.33485 0.12282
# Poissons Ratio (y) = 0.38226 0.52535
# Poissons Ratio (z) = 0.10277 0.38504
#
# Static dielectric constant tensor:
#      x y z
#    x 1.743990 -0.043430 -0.028670 
#    y -0.043430 1.816750 0.020820 
#    z -0.028670 0.020820 1.770980 
# 
# From -- ./inp_files/88917.got.cif
#   From: 2010.05.17/outbox.cif.g08.bks.cpg/sg2_45_cif.got.tgz:88917.got - 2010.06.03 11:33:40.
