data_PCOD9031934
_publ_section_title
;
Structure prediction by ZEFSAII (Michael W. Deem and Ramdas Pophale) SiO2 
 PCOD9031934
Probable space group: P -1
;
_chemical_formula_sum "Si O2"
_cell_formula_units_Z 16
_cell_length_a 15.349055
_cell_length_b 16.012135
_cell_length_c 11.876308
_cell_angle_alpha 23.401551
_cell_angle_beta 35.368529
_cell_angle_gamma 36.744928
_cell_volume 653.003728
_symmetry_space_group_name_H-M "P -1"
_symmetry_group_IT_number 2
_symmetry_cell_setting 'triclinic'
loop_
_space_group_symop_operation_xyz
x,y,z
-x,-y,-z
loop_
_atom_site_type_symbol
_atom_site_label
_atom_site_fract_x
_atom_site_fract_y
_atom_site_fract_z
Si Si1 0.211939 0.030978 0.648238
Si Si2 0.855981 0.100778 0.872131
Si Si3 0.183499 0.533723 0.054396
Si Si4 0.088558 0.244616 0.209716
Si Si5 0.384390 0.517580 0.419557
Si Si6 0.646152 0.646598 0.096174
Si Si7 0.560132 0.331445 0.244815
Si Si8 0.110604 0.117471 0.100158
O O1 0.375287 0.906944 0.576276
O O2 0.975310 0.082330 0.545933
O O3 0.208362 0.922171 0.908712
O O4 0.042634 0.030965 0.772737
O O5 0.784821 0.343910 0.604380
O O6 0.796501 0.953636 0.023420
O O7 0.205401 0.282029 0.361908
O O8 0.251355 0.559251 0.825843
O O9 0.280636 0.621399 0.935487
O O10 0.011097 0.665239 0.072896
O O11 0.229013 0.207817 0.196704
O O12 0.000000 0.500000 0.000000
O O13 0.166286 0.174133 0.093042
O O14 0.495276 0.681987 0.132795
O O15 0.390368 0.398443 0.680622
O O16 0.451397 0.375882 0.415267
O O17 0.500000 0.500000 0.000000
#
# Coordination Sequence:
#
# PCOD9031934 Si02
#       8
#     2   2   2   2   2   2   2   2
#     4  11  25  45  72  98 138 181 237 287 342 409
#     4  11  23  45  68 103 138 178 232 297 338 403
#     4  11  24  43  69 101 138 180 232 282 340 425
#     4  11  22  40  67 102 137 185 230 280 347 414
#     4  10  23  43  73 101 145 174 231 289 342 424
#     4  10  22  43  68  99 141 182 220 283 348 409
#     4  11  23  48  70  97 134 188 224 281 356 409
#     4  11  24  39  67 104 138 179 233 283 345 412
#
# _framework density 24.502158000000001
#
# number of rings (size 3 to 8) (size 9 to 14) (size 15 to 20)
#    0.000    1.250    3.750    1.500    3.500    1.000 
#    2.250    1.250    0.000    0.000    0.000    0.000 
#    0.000    0.000    0.000    0.000    0.000    0.000 
#
# Total GULP energy -89282.129428 kJ/mol
# GULP energy per Si atom -5580.133089 kJ/mol
# Density = 2.444639 g / cm^3
# Si number density = 24.502158 Si / 1000 Ang^3
#
#
#
# Elastic Constant Matrix: (Units=GPa)
#
#
# Indices 1 2 3 4 5 6 
#
# 1 85.6596 9.4562 3.9132 6.1520 -0.0662 12.4508
# 2 9.4562 144.6729 25.0370 -1.1080 14.7550 -0.5639
# 3 3.9132 25.0370 67.2298 -4.9694 4.8379 3.8256
# 4 6.1520 -1.1080 -4.9694 38.9249 11.9559 10.1099
# 5 -0.0662 14.7550 4.8379 11.9559 35.8680 -3.0403
# 6 12.4508 -0.5639 3.8256 10.1099 -3.0403 30.4218
#
#
#
# Elastic Compliance Matrix: (Units=1/GPa)
#
#
# Indices 1 2 3 4 5 6 
#
# 1 0.012537 -0.000834 -0.000231 -0.000875 0.000282 -0.004798
# 2 -0.000834 0.007736 -0.002546 0.000946 -0.003140 0.000177
# 3 -0.000231 -0.002546 0.016525 0.003857 -0.002772 -0.003590
# 4 -0.000875 0.000946 0.003857 0.033684 -0.013209 -0.012623
# 5 0.000282 -0.003140 -0.002772 -0.013209 0.034629 0.008025
# 6 -0.004798 0.000177 -0.003590 -0.012623 0.008025 0.040287
#
#
# Mechanical properties :
#
#
# Convention : Reuss Voigt Hill
#
# Bulk Modulus (GPa) = 33.81218 41.59723 37.70471
# Shear Modulus (GPa) = 30.77319 38.32000 34.54659
#
# Velocity S-wave (km/s) = 3.54777 3.95896 3.75899
# Velocity P-wave (km/s) = 5.53280 6.15725 5.85335
#
# Compressibility (1/GPa) = 0.02957514
#
# Stress axis : x y z
#
# Youngs Moduli (GPa) = 79.76232 129.27350 60.51438
#
# Poissons Ratio (x) = 0.10777 0.01399
# Poissons Ratio (y) = 0.06649 0.15410
# Poissons Ratio (z) = 0.01844 0.32919
#
# Static dielectric constant tensor:
#      x y z
#    x 1.955050 -0.009280 -0.029490 
#    y -0.009280 2.016990 0.135930 
#    z -0.029490 0.135930 2.125740 
# 
# From -- ./inp_files/452914.got.cif
#   From: 2010.05.17/outbox.cif.g08.bks.cpg/sg2_227_cif.got.tgz:452914.got - 2010.06.03 11:33:40.
