data_PCOD9031388
_publ_section_title
;
Structure prediction by ZEFSAII (Michael W. Deem and Ramdas Pophale) SiO2 
 PCOD9031388
Probable space group: P -1
;
_chemical_formula_sum "Si O2"
_cell_formula_units_Z 16
_cell_length_a 17.658890
_cell_length_b 5.345304
_cell_length_c 8.211571
_cell_angle_alpha 115.973635
_cell_angle_beta 64.688237
_cell_angle_gamma 96.139637
_cell_volume 626.838245
_symmetry_space_group_name_H-M "P -1"
_symmetry_group_IT_number 2
_symmetry_cell_setting 'triclinic'
loop_
_space_group_symop_operation_xyz
x,y,z
-x,-y,-z
loop_
_atom_site_type_symbol
_atom_site_label
_atom_site_fract_x
_atom_site_fract_y
_atom_site_fract_z
Si Si1 0.862465 0.308783 0.032663
Si Si2 0.635873 0.094436 0.344604
Si Si3 0.863104 0.457091 0.578239
Si Si4 0.506507 0.661949 0.311238
Si Si5 0.424244 0.843210 0.097338
Si Si6 0.267144 0.026730 0.116364
Si Si7 0.003024 0.694921 0.332168
Si Si8 0.812893 0.969520 0.292659
O O1 0.853927 0.101484 0.132671
O O2 0.829016 0.633853 0.185587
O O3 0.804365 0.184813 0.908538
O O4 0.958216 0.289138 0.876847
O O5 0.570089 0.372906 0.502015
O O6 0.714743 0.068532 0.383298
O O7 0.572473 0.864589 0.372631
O O8 0.674426 0.026415 0.112277
O O9 0.924864 0.485571 0.681417
O O10 0.845375 0.141604 0.463378
O O11 0.916638 0.565848 0.408901
O O12 0.780121 0.664074 0.741505
O O13 0.451061 0.768625 0.233950
O O14 0.567939 0.420738 0.104444
O O15 0.330649 0.985600 0.197329
O O16 0.500000 0.000000 0.000000
O O17 0.000000 0.000000 0.500000
#
# Coordination Sequence:
#
# PCOD9031388 Si02
#       8
#     2   2   2   2   2   2   2   2
#     4  11  25  47  72 104 148 190 236 297 367 428
#     4  10  22  43  66  94 140 179 237 288 360 414
#     4  11  27  45  75 108 142 187 243 297 358 435
#     4  10  23  42  64  98 132 187 233 294 349 419
#     4  11  23  40  66  98 135 179 236 293 345 411
#     4  11  23  46  72  99 142 190 239 293 353 429
#     4  11  24  48  75 104 142 190 236 290 367 439
#     4  11  27  45  71 111 145 189 238 305 358 429
#
# _framework density 25.524926000000001
#
# number of rings (size 3 to 8) (size 9 to 14) (size 15 to 20)
#    0.000    1.250    2.500    2.250    5.250    3.500 
#    2.250    0.000    0.000    0.000    0.000    0.000 
#    0.000    0.000    0.000    0.000    0.000    0.000 
#
# Total GULP energy -89545.758946 kJ/mol
# GULP energy per Si atom -5596.609934 kJ/mol
# Density = 2.546683 g / cm^3
# Si number density = 25.524926 Si / 1000 Ang^3
#
#
#
# Elastic Constant Matrix: (Units=GPa)
#
#
# Indices 1 2 3 4 5 6 
#
# 1 79.0004 4.1323 20.3335 3.3070 11.1837 -9.6440
# 2 4.1323 69.1595 10.8226 8.4841 5.6569 -0.2070
# 3 20.3335 10.8226 99.3208 -2.8914 -22.4885 3.1343
# 4 3.3070 8.4841 -2.8914 47.2066 14.4567 -4.6047
# 5 11.1837 5.6569 -22.4885 14.4567 30.2438 11.9323
# 6 -9.6440 -0.2070 3.1343 -4.6047 11.9323 44.8527
#
#
#
# Elastic Compliance Matrix: (Units=1/GPa)
#
#
# Indices 1 2 3 4 5 6 
#
# 1 0.018837 0.001321 -0.008818 0.005208 -0.020461 0.010651
# 2 0.001321 0.015581 -0.003531 -0.000908 -0.006475 0.002232
# 3 -0.008818 -0.003531 0.017863 -0.006031 0.024108 -0.010193
# 4 0.005208 -0.000908 -0.006031 0.029219 -0.024577 0.011075
# 5 -0.020461 -0.006475 0.024108 -0.024577 0.083710 -0.030907
# 6 0.010651 0.002232 -0.010193 0.011075 -0.030907 0.034667
#
#
# Mechanical properties :
#
#
# Convention : Reuss Voigt Hill
#
# Bulk Modulus (GPa) = 33.08480 35.33972 34.21226
# Shear Modulus (GPa) = 21.55095 38.60676 30.07886
#
# Velocity S-wave (km/s) = 2.90885 3.89332 3.43652
# Velocity P-wave (km/s) = 4.92664 5.83831 5.40174
#
# Compressibility (1/GPa) = 0.03022536
#
# Stress axis : x y z
#
# Youngs Moduli (GPa) = 53.08598 64.18191 55.98119
#
# Poissons Ratio (x) = -0.08478 0.49363
# Poissons Ratio (y) = -0.07013 0.19768
# Poissons Ratio (z) = 0.46810 0.22663
#
# Static dielectric constant tensor:
#      x y z
#    x 1.982980 -0.089840 -0.021600 
#    y -0.089840 1.776040 -0.299450 
#    z -0.021600 -0.299450 1.828320 
# 
# From -- ./inp_files/324075.got.cif
#   From: 2010.05.17/outbox.cif.g08.bks.cpg/sg2_163_cif.got.tgz:324075.got - 2010.06.03 11:33:40.
