data_PCOD9031118
_publ_section_title
;
Structure prediction by ZEFSAII (Michael W. Deem and Ramdas Pophale) SiO2 
 PCOD9031118
Probable space group: P -1
;
_chemical_formula_sum "Si O2"
_cell_formula_units_Z 16
_cell_length_a 11.525530
_cell_length_b 20.524717
_cell_length_c 5.480937
_cell_angle_alpha 51.877436
_cell_angle_beta 116.056847
_cell_angle_gamma 137.650179
_cell_volume 686.771500
_symmetry_space_group_name_H-M "P -1"
_symmetry_group_IT_number 2
_symmetry_cell_setting 'triclinic'
loop_
_space_group_symop_operation_xyz
x,y,z
-x,-y,-z
loop_
_atom_site_type_symbol
_atom_site_label
_atom_site_fract_x
_atom_site_fract_y
_atom_site_fract_z
Si Si1 0.614524 0.948150 0.360148
Si Si2 0.590181 0.686995 0.180979
Si Si3 0.749757 0.174367 0.747755
Si Si4 0.666013 0.814743 0.464718
Si Si5 0.781012 0.503258 0.842952
Si Si6 0.970321 0.058463 0.638031
Si Si7 0.090708 0.597032 0.549518
Si Si8 0.922469 0.728631 0.507302
O O1 0.420120 0.869820 0.458786
O O2 0.612668 0.888305 0.257369
O O3 0.767969 0.973289 0.597022
O O4 0.682334 0.068043 0.082538
O O5 0.613054 0.748070 0.315384
O O6 0.405339 0.563156 0.294501
O O7 0.755557 0.697113 0.293454
O O8 0.591094 0.740057 0.809881
O O9 0.808914 0.278162 0.722101
O O10 0.912141 0.216875 0.636831
O O11 0.873002 0.895086 0.506841
O O12 0.846706 0.609733 0.816730
O O13 0.934890 0.560975 0.658421
O O14 0.783917 0.414135 0.173846
O O15 0.016234 0.172509 0.487958
O O16 0.000000 0.000000 0.000000
O O17 0.000000 0.500000 0.500000
#
# Coordination Sequence:
#
# PCOD9031118 Si02
#       8
#     2   2   2   2   2   2   2   2
#     4  11  22  39  65 101 140 180 235 285 347 428
#     4  11  24  44  72 104 143 184 236 287 351 423
#     4  10  23  40  62  97 137 182 233 289 356 414
#     4  11  24  43  70 103 143 187 230 292 348 419
#     4  10  23  42  66 100 130 186 232 292 350 415
#     4  11  23  41  69 100 139 188 230 290 355 418
#     4  10  23  42  68  93 138 179 233 291 352 419
#     4  10  22  43  64  99 140 179 234 287 353 412
#
# _framework density 23.297415000000001
#
# number of rings (size 3 to 8) (size 9 to 14) (size 15 to 20)
#    0.000    1.500    0.000    4.500    5.250    0.500 
#    2.250    4.375    0.000    0.000    0.000    0.000 
#    0.000    0.000    0.000    0.000    0.000    0.000 
#
# Total GULP energy -89279.180436 kJ/mol
# GULP energy per Si atom -5579.948777 kJ/mol
# Density = 2.324439 g / cm^3
# Si number density = 23.297415 Si / 1000 Ang^3
#
#
#
# Elastic Constant Matrix: (Units=GPa)
#
#
# Indices 1 2 3 4 5 6 
#
# 1 114.0204 78.9837 37.9719 -3.7966 31.3303 17.5448
# 2 78.9837 129.4714 38.6019 -9.5958 18.3685 23.5067
# 3 37.9719 38.6019 64.8584 -13.2760 0.0832 -0.7981
# 4 -3.7966 -9.5958 -13.2760 35.1291 -11.2519 24.2936
# 5 31.3303 18.3685 0.0832 -11.2519 4.4090 14.1320
# 6 17.5448 23.5067 -0.7981 24.2936 14.1320 49.3732
#
#
#
# Elastic Compliance Matrix: (Units=1/GPa)
#
#
# Indices 1 2 3 4 5 6 
#
# 1 0.010837 -0.005536 -0.000672 0.012416 0.015317 -0.011719
# 2 -0.005536 0.014439 -0.005180 0.000982 -0.008089 -0.003159
# 3 -0.000672 -0.005180 0.018153 -0.004207 -0.011721 0.008424
# 4 0.012416 0.000982 -0.004207 0.017717 -0.039015 -0.002498
# 5 0.015317 -0.008089 -0.011721 -0.039015 -0.042427 0.029559
# 6 -0.011719 -0.003159 0.008424 -0.002498 0.029559 0.018827
#
#
# Mechanical properties :
#
#
# Convention : Reuss Voigt Hill
#
# Bulk Modulus (GPa) = 48.42185 68.82946 58.62565
# Shear Modulus (GPa) = 74.39725 27.96844 51.18285
#
# Velocity S-wave (km/s) = 5.65712 3.46858 4.69223
# Velocity P-wave (km/s) = 7.96869 6.75643 7.38747
#
# Compressibility (1/GPa) = 0.02065183
#
# Stress axis : x y z
#
# Youngs Moduli (GPa) = 92.27793 69.25592 55.08880
#
# Poissons Ratio (x) = 0.38338 0.03704
# Poissons Ratio (y) = 0.51082 0.28538
# Poissons Ratio (z) = 0.06204 0.35877
#
# Static dielectric constant tensor:
#      x y z
#    x 1.933410 -0.125230 0.088670 
#    y -0.125230 2.449750 -0.221100 
#    z 0.088670 -0.221100 2.120600 
# 
# From -- ./inp_files/82994.got.cif
#   From: 2010.05.17/outbox.cif.g08.bks.cpg/sg2_42_cif.got.tgz:82994.got - 2010.06.03 11:33:40.
