data_PCOD9031143
_publ_section_title
;
Structure prediction by ZEFSAII (Michael W. Deem and Ramdas Pophale) SiO2 
 PCOD9031143
Probable space group: P -1
;
_chemical_formula_sum "Si O2"
_cell_formula_units_Z 12
_cell_length_a 14.629922
_cell_length_b 11.211684
_cell_length_c 9.629542
_cell_angle_alpha 106.515118
_cell_angle_beta 131.170733
_cell_angle_gamma 32.526789
_cell_volume 475.171648
_symmetry_space_group_name_H-M "P -1"
_symmetry_group_IT_number 2
_symmetry_cell_setting 'triclinic'
loop_
_space_group_symop_operation_xyz
x,y,z
-x,-y,-z
loop_
_atom_site_type_symbol
_atom_site_label
_atom_site_fract_x
_atom_site_fract_y
_atom_site_fract_z
Si Si1 0.613526 0.515320 0.469728
Si Si2 0.012836 0.133147 0.517952
Si Si3 0.309483 0.081497 0.930870
Si Si4 0.116137 0.139004 0.328225
Si Si5 0.813066 0.293236 0.865273
Si Si6 0.318910 0.213518 0.524884
O O1 0.711802 0.457775 0.397469
O O2 0.873877 0.270768 0.760510
O O3 0.498559 0.480261 0.349892
O O4 0.387713 0.820393 0.415484
O O5 0.264907 0.984764 0.788586
O O6 0.016924 0.155259 0.367192
O O7 0.000000 0.000000 0.500000
O O8 0.974352 0.445039 0.710523
O O9 0.500000 0.000000 0.000000
O O10 0.466082 0.932143 0.189301
O O11 0.193859 0.204447 0.467752
O O12 0.867421 0.359635 0.036784
O O13 0.000000 0.000000 0.000000
O O14 0.500000 0.000000 0.500000
#
# Coordination Sequence:
#
# PCOD9031143 Si02
#       6
#     2   2   2   2   2   2
#     4  10  22  43  65 102 149 193 252 320 383 468
#     4  12  26  47  75 111 151 206 259 321 399 468
#     4  12  28  54  79 117 163 206 269 334 391 483
#     4  11  25  44  73 110 147 203 256 326 393 471
#     4   9  19  38  63  96 144 188 247 311 376 453
#     4  12  28  52  85 115 157 213 268 329 406 473
#
# _framework density 25.254031999999999
#
# number of rings (size 3 to 8) (size 9 to 14) (size 15 to 20)
#    0.000    1.000    1.667    5.000    4.667    2.000 
#    3.000    0.000    0.000    0.000    0.000    0.000 
#    0.000    0.000    0.000    0.000    0.000    0.000 
#
# Total GULP energy -67039.661270 kJ/mol
# GULP energy per Si atom -5586.638439 kJ/mol
# Density = 2.519655 g / cm^3
# Si number density = 25.254032 Si / 1000 Ang^3
#
#
#
# Elastic Constant Matrix: (Units=GPa)
#
#
# Indices 1 2 3 4 5 6 
#
# 1 110.1686 38.3751 25.1345 2.5438 3.5846 1.2878
# 2 38.3751 101.7687 45.9592 -14.4390 -8.6642 -15.0070
# 3 25.1345 45.9592 155.9193 21.8001 -1.6602 7.7405
# 4 2.5438 -14.4390 21.8001 44.7872 11.6546 6.0807
# 5 3.5846 -8.6642 -1.6602 11.6546 41.7926 13.5338
# 6 1.2878 -15.0070 7.7405 6.0807 13.5338 53.1542
#
#
#
# Elastic Compliance Matrix: (Units=1/GPa)
#
#
# Indices 1 2 3 4 5 6 
#
# 1 0.010744 -0.004438 -0.000169 -0.001536 -0.001084 -0.001037
# 2 -0.004438 0.015428 -0.005042 0.007089 -0.000020 0.004392
# 3 -0.000169 -0.005042 0.008922 -0.006097 0.001829 -0.002487
# 4 -0.001536 0.007089 -0.006097 0.029373 -0.007293 0.001423
# 5 -0.001084 -0.000020 0.001829 -0.007293 0.028263 -0.006608
# 6 -0.001037 0.004392 -0.002487 0.001423 -0.006608 0.021960
#
#
# Mechanical properties :
#
#
# Convention : Reuss Voigt Hill
#
# Bulk Modulus (GPa) = 63.30307 65.19934 64.25121
# Shear Modulus (GPa) = 35.90554 45.17265 40.53909
#
# Velocity S-wave (km/s) = 3.77473 4.23393 4.01091
# Velocity P-wave (km/s) = 6.64222 7.05514 6.85179
#
# Compressibility (1/GPa) = 0.01579702
#
# Stress axis : x y z
#
# Youngs Moduli (GPa) = 93.07136 64.81583 112.07827
#
# Poissons Ratio (x) = 0.28767 0.01895
# Poissons Ratio (y) = 0.41308 0.56506
# Poissons Ratio (z) = 0.01574 0.32678
#
# Static dielectric constant tensor:
#      x y z
#    x 2.023530 -0.001600 0.056290 
#    y -0.001600 2.130110 -0.075820 
#    z 0.056290 -0.075820 2.151640 
# 
# From -- ./inp_files/308170.got.cif
#   From: 2010.05.17/outbox.cif.g08.bks.cpg/sg2_155_cif.got.tgz:308170.got - 2010.06.03 11:33:40.
