data_PCOD9031738
_publ_section_title
;
Structure prediction by ZEFSAII (Michael W. Deem and Ramdas Pophale) SiO2 
 PCOD9031738
Probable space group: P -1
;
_chemical_formula_sum "Si O2"
_cell_formula_units_Z 16
_cell_length_a 19.476094
_cell_length_b 7.645056
_cell_length_c 15.985739
_cell_angle_alpha 56.275014
_cell_angle_beta 21.160407
_cell_angle_gamma 67.247569
_cell_volume 642.975771
_symmetry_space_group_name_H-M "P -1"
_symmetry_group_IT_number 2
_symmetry_cell_setting 'triclinic'
loop_
_space_group_symop_operation_xyz
x,y,z
-x,-y,-z
loop_
_atom_site_type_symbol
_atom_site_label
_atom_site_fract_x
_atom_site_fract_y
_atom_site_fract_z
Si Si1 0.474961 0.646486 0.766263
Si Si2 0.015257 0.406331 0.398074
Si Si3 0.514473 0.833074 0.156256
Si Si4 0.903726 0.013811 0.254914
Si Si5 0.102938 0.227744 0.512021
Si Si6 0.378709 0.732408 0.512649
Si Si7 0.767491 0.075145 0.648471
Si Si8 0.645486 0.778457 0.359405
O O1 0.448340 0.387654 0.848781
O O2 0.683874 0.788018 0.545898
O O3 0.525730 0.762123 0.586200
O O4 0.255376 0.609458 0.067015
O O5 0.980401 0.257748 0.562005
O O6 0.867336 0.542031 0.531846
O O7 0.993085 0.242745 0.386585
O O8 0.523871 0.877923 0.231218
O O9 0.279286 0.776782 0.407810
O O10 0.641819 0.028938 0.891350
O O11 0.972777 0.982765 0.279318
O O12 0.826758 0.215841 0.271086
O O13 0.108226 0.038680 0.964201
O O14 0.272697 0.168892 0.283970
O O15 0.510797 0.805671 0.428474
O O16 0.337733 0.466370 0.611730
#
# Coordination Sequence:
#
# PCOD9031738 Si02
#       8
#     2   2   2   2   2   2   2   2
#     4  11  25  46  66 102 142 184 237 296 354 426
#     4  11  26  45  69 107 147 187 239 295 353 428
#     4  10  22  43  68 102 139 182 242 287 360 428
#     4  12  25  44  72 102 141 185 236 298 358 421
#     4  11  25  44  69 108 140 190 234 291 360 425
#     4  10  23  45  72 104 137 179 239 302 348 433
#     4  11  22  44  72 101 144 194 231 295 359 431
#     4  10  25  47  71 101 137 188 236 295 362 420
#
# _framework density 24.884295999999999
#
# number of rings (size 3 to 8) (size 9 to 14) (size 15 to 20)
#    0.000    1.250    2.500    1.875    3.500    4.000 
#    6.750    0.000    0.000    0.000    0.000    0.000 
#    0.000    0.000    0.000    0.000    0.000    0.000 
#
# Total GULP energy -89221.645324 kJ/mol
# GULP energy per Si atom -5576.352833 kJ/mol
# Density = 2.482766 g / cm^3
# Si number density = 24.884296 Si / 1000 Ang^3
#
#
#
# Elastic Constant Matrix: (Units=GPa)
#
#
# Indices 1 2 3 4 5 6 
#
# 1 132.6830 42.5865 45.1654 8.7974 12.0289 -33.7735
# 2 42.5865 116.4155 9.7247 18.1314 -1.7198 -7.9066
# 3 45.1654 9.7247 90.9650 9.2001 1.0512 -4.3723
# 4 8.7974 18.1314 9.2001 15.0792 9.0610 2.2932
# 5 12.0289 -1.7198 1.0512 9.0610 29.4809 -4.2875
# 6 -33.7735 -7.9066 -4.3723 2.2932 -4.2875 34.2627
#
#
#
# Elastic Compliance Matrix: (Units=1/GPa)
#
#
# Indices 1 2 3 4 5 6 
#
# 1 0.014272 -0.004223 -0.006178 0.001536 -0.004631 0.011623
# 2 -0.004223 0.013479 0.002791 -0.021275 0.009222 0.001882
# 3 -0.006178 0.002791 0.014786 -0.011736 0.005459 -0.002090
# 4 0.001536 -0.021275 -0.011736 0.126987 -0.043213 -0.018800
# 5 -0.004631 0.009222 0.005459 -0.043213 0.050522 0.007474
# 6 0.011623 0.001882 -0.002090 -0.018800 0.007474 0.043004
#
#
# Mechanical properties :
#
#
# Convention : Reuss Voigt Hill
#
# Bulk Modulus (GPa) = 36.60655 59.44629 48.02642
# Shear Modulus (GPa) = 17.39892 31.93701 24.66797
#
# Velocity S-wave (km/s) = 2.64709 3.58637 3.15192
# Velocity P-wave (km/s) = 4.90769 6.41018 5.70858
#
# Compressibility (1/GPa) = 0.02731752
#
# Stress axis : x y z
#
# Youngs Moduli (GPa) = 70.06951 74.18894 67.63356
#
# Poissons Ratio (x) = 0.31330 0.41782
# Poissons Ratio (y) = 0.29590 -0.18879
# Poissons Ratio (z) = 0.43287 -0.20709
#
# Static dielectric constant tensor:
#      x y z
#    x 1.982460 0.006370 -0.070440 
#    y 0.006370 1.986160 -0.016160 
#    z -0.070440 -0.016160 2.126590 
# 
# From -- ./inp_files/577254.got.cif
#   From: 2010.05.17/outbox.cif.g08.bks.cpg/sg2_289_cif.got.tgz:577254.got - 2010.06.03 11:33:40.
