data_PCOD9031472
_publ_section_title
;
Structure prediction by ZEFSAII (Michael W. Deem and Ramdas Pophale) SiO2 
 PCOD9031472
Probable space group: P -1
;
_chemical_formula_sum "Si O2"
_cell_formula_units_Z 16
_cell_length_a 6.671335
_cell_length_b 11.215418
_cell_length_c 12.378815
_cell_angle_alpha 83.907738
_cell_angle_beta 130.478039
_cell_angle_gamma 92.288923
_cell_volume 700.030078
_symmetry_space_group_name_H-M "P -1"
_symmetry_group_IT_number 2
_symmetry_cell_setting 'triclinic'
loop_
_space_group_symop_operation_xyz
x,y,z
-x,-y,-z
loop_
_atom_site_type_symbol
_atom_site_label
_atom_site_fract_x
_atom_site_fract_y
_atom_site_fract_z
Si Si1 0.781340 0.963839 0.650988
Si Si2 0.124734 0.780457 0.708523
Si Si3 0.519323 0.558336 0.882291
Si Si4 0.447412 0.863878 0.014061
Si Si5 0.318786 0.877628 0.210746
Si Si6 0.926109 0.678024 0.144721
Si Si7 0.071087 0.148565 0.585147
Si Si8 0.860617 0.577639 0.348340
O O1 0.798053 0.005260 0.777857
O O2 0.974133 0.054171 0.647076
O O3 0.500000 0.000000 0.500000
O O4 0.839019 0.823977 0.652823
O O5 0.271545 0.651255 0.763212
O O6 0.287188 0.833690 0.856116
O O7 0.123253 0.843962 0.586012
O O8 0.446281 0.458294 0.777104
O O9 0.500000 0.500000 0.000000
O O10 0.795694 0.625320 0.992917
O O11 0.302822 0.863029 0.077926
O O12 0.694942 0.769661 0.101851
O O13 0.500000 0.000000 0.000000
O O14 0.630011 0.883788 0.340266
O O15 0.176177 0.760126 0.213883
O O16 0.975420 0.577854 0.264998
O O17 0.092780 0.286253 0.614418
O O18 0.000000 0.500000 0.500000
#
# Coordination Sequence:
#
# PCOD9031472 Si02
#       8
#     2   2   2   2   2   2   2   2
#     4  12  26  42  71 106 143 179 227 287 355 420
#     4  11  23  42  66 104 136 178 230 281 349 410
#     4   9  21  41  72  93 137 183 224 288 341 400
#     4  11  24  41  66  97 139 181 227 279 347 414
#     4  12  23  44  69  98 146 181 228 288 343 419
#     4  10  22  43  66  99 134 181 229 281 351 406
#     4  12  24  44  71 103 140 181 229 291 353 411
#     4  11  20  41  73  99 131 182 233 286 348 404
#
# _framework density 22.856159000000002
#
# number of rings (size 3 to 8) (size 9 to 14) (size 15 to 20)
#    0.000    1.000    5.000    1.875    1.750    2.000 
#    2.250    2.500    5.500    0.000    0.000    0.000 
#    0.000    0.000    0.000    0.000    0.000    0.000 
#
# Total GULP energy -89070.201956 kJ/mol
# GULP energy per Si atom -5566.887622 kJ/mol
# Density = 2.280414 g / cm^3
# Si number density = 22.856159 Si / 1000 Ang^3
#
#
#
# Elastic Constant Matrix: (Units=GPa)
#
#
# Indices 1 2 3 4 5 6 
#
# 1 70.4000 16.0410 32.5762 -0.4826 -2.3964 11.9308
# 2 16.0410 53.3180 13.8595 5.2755 -7.1135 -1.4889
# 3 32.5762 13.8595 151.4881 -0.1652 -12.5172 2.9988
# 4 -0.4826 5.2755 -0.1652 45.0723 -7.9121 -3.6772
# 5 -2.3964 -7.1135 -12.5172 -7.9121 34.4456 2.9966
# 6 11.9308 -1.4889 2.9988 -3.6772 2.9966 20.9959
#
#
#
# Elastic Compliance Matrix: (Units=1/GPa)
#
#
# Indices 1 2 3 4 5 6 
#
# 1 0.018682 -0.005042 -0.003354 -0.000091 -0.000068 -0.010501
# 2 -0.005042 0.021126 -0.000672 -0.001689 0.003056 0.003727
# 3 -0.003354 -0.000672 0.007578 0.000545 0.002462 0.000520
# 4 -0.000091 -0.001689 0.000545 0.023523 0.004962 0.003265
# 5 -0.000068 0.003056 0.002462 0.004962 0.032022 -0.003798
# 6 -0.010501 0.003727 0.000520 0.003265 -0.003798 0.054899
#
#
# Mechanical properties :
#
#
# Convention : Reuss Voigt Hill
#
# Bulk Modulus (GPa) = 34.18794 44.46215 39.32505
# Shear Modulus (GPa) = 26.92299 34.28473 30.60386
#
# Velocity S-wave (km/s) = 3.43582 3.87721 3.66317
# Velocity P-wave (km/s) = 5.54348 6.28800 5.92744
#
# Compressibility (1/GPa) = 0.02925008
#
# Stress axis : x y z
#
# Youngs Moduli (GPa) = 53.52743 47.33554 131.96873
#
# Poissons Ratio (x) = 0.23867 0.44261
# Poissons Ratio (y) = 0.26989 0.08864
# Poissons Ratio (z) = 0.17953 0.03179
#
# Static dielectric constant tensor:
#      x y z
#    x 1.946220 -0.100040 0.075310 
#    y -0.100040 2.261060 -0.135160 
#    z 0.075310 -0.135160 2.005130 
# 
# From -- ./inp_files/364386.got.cif
#   From: 2010.05.17/outbox.cif.g08.bks.cpg/sg2_183_cif.got.tgz:364386.got - 2010.06.03 11:33:40.
