data_PCOD9031762
_publ_section_title
;
Structure prediction by ZEFSAII (Michael W. Deem and Ramdas Pophale) SiO2 
 PCOD9031762
Probable space group: P -1
;
_chemical_formula_sum "Si O2"
_cell_formula_units_Z 16
_cell_length_a 14.751827
_cell_length_b 5.250874
_cell_length_c 19.981546
_cell_angle_alpha 87.030479
_cell_angle_beta 26.852934
_cell_angle_gamma 97.302482
_cell_volume 644.595971
_symmetry_space_group_name_H-M "P -1"
_symmetry_group_IT_number 2
_symmetry_cell_setting 'triclinic'
loop_
_space_group_symop_operation_xyz
x,y,z
-x,-y,-z
loop_
_atom_site_type_symbol
_atom_site_label
_atom_site_fract_x
_atom_site_fract_y
_atom_site_fract_z
Si Si1 0.210030 0.742038 0.171940
Si Si2 0.379697 0.308837 0.518793
Si Si3 0.610767 0.866186 0.149546
Si Si4 0.351318 0.224158 0.142302
Si Si5 0.786937 0.487396 0.677305
Si Si6 0.535263 0.885090 0.344635
Si Si7 0.983681 0.355939 0.828405
Si Si8 0.989910 0.294994 0.071253
O O1 0.193847 0.605899 0.257220
O O2 0.067169 0.546399 0.211503
O O3 0.173932 0.018777 0.212459
O O4 0.449109 0.873481 0.978547
O O5 0.500000 0.500000 0.500000
O O6 0.446743 0.068828 0.448146
O O7 0.135133 0.195548 0.708874
O O8 0.424012 0.556254 0.432744
O O9 0.423105 0.684216 0.225667
O O10 0.511336 0.936661 0.281550
O O11 0.779812 0.725832 0.063994
O O12 0.767352 0.143584 0.007157
O O13 0.249908 0.237669 0.280211
O O14 0.500000 0.500000 0.000000
O O15 0.000000 0.500000 0.500000
O O16 0.795755 0.003827 0.185954
O O17 0.081268 0.586145 0.816914
O O18 0.000000 0.500000 0.000000
#
# Coordination Sequence:
#
# PCOD9031762 Si02
#       8
#     2   2   2   2   2   2   2   2
#     4  10  22  43  68 104 139 186 250 304 368 445
#     4  12  27  48  72 111 157 202 251 323 394 453
#     4  12  27  45  76 107 146 205 260 308 391 464
#     4   9  18  40  68  91 136 177 237 303 357 429
#     4  11  26  46  70 106 150 195 246 313 383 448
#     4  12  27  49  75 110 162 200 255 324 386 464
#     4  12  26  42  77 108 146 200 257 311 388 462
#     4  12  25  48  75 112 151 199 260 315 383 463
#
# _framework density 24.821747999999999
#
# number of rings (size 3 to 8) (size 9 to 14) (size 15 to 20)
#    0.000    0.750    2.500    5.250    3.500    2.500 
#    0.000    0.000    0.000    0.000    0.000    0.000 
#    0.000    0.000    0.000    0.000    0.000    0.000 
#
# Total GULP energy -89275.089135 kJ/mol
# GULP energy per Si atom -5579.693071 kJ/mol
# Density = 2.476525 g / cm^3
# Si number density = 24.821748 Si / 1000 Ang^3
#
#
#
# Elastic Constant Matrix: (Units=GPa)
#
#
# Indices 1 2 3 4 5 6 
#
# 1 133.8628 15.0854 21.6623 10.3028 32.8862 21.3671
# 2 15.0854 62.0793 14.3557 17.4556 10.1444 13.3527
# 3 21.6623 14.3557 109.1669 32.0510 26.7084 7.9822
# 4 10.3028 17.4556 32.0510 46.1573 1.8897 8.7115
# 5 32.8862 10.1444 26.7084 1.8897 30.0860 2.3979
# 6 21.3671 13.3527 7.9822 8.7115 2.3979 36.4447
#
#
#
# Elastic Compliance Matrix: (Units=1/GPa)
#
#
# Indices 1 2 3 4 5 6 
#
# 1 0.011792 0.001156 0.002458 -0.003004 -0.014779 -0.006185
# 2 0.001156 0.020339 0.002035 -0.007843 -0.008948 -0.006112
# 3 0.002458 0.002035 0.015958 -0.011364 -0.016677 -0.001868
# 4 -0.003004 -0.007843 -0.011364 0.032932 0.014081 -0.001675
# 5 -0.014779 -0.008948 -0.016677 0.014081 0.065700 0.007908
# 6 -0.006185 -0.006112 -0.001868 -0.001675 0.007908 0.033594
#
#
# Mechanical properties :
#
#
# Convention : Reuss Voigt Hill
#
# Bulk Modulus (GPa) = 16.83876 45.25731 31.04804
# Shear Modulus (GPa) = 26.48141 39.47131 32.97636
#
# Velocity S-wave (km/s) = 3.26983 3.99205 3.64885
# Velocity P-wave (km/s) = 4.58850 6.28658 5.50343
#
# Compressibility (1/GPa) = 0.05938678
#
# Stress axis : x y z
#
# Youngs Moduli (GPa) = 84.80655 49.16643 62.66450
#
# Poissons Ratio (x) = -0.05685 -0.15404
# Poissons Ratio (y) = -0.09805 -0.12750
# Poissons Ratio (z) = -0.20847 -0.10004
#
# Static dielectric constant tensor:
#      x y z
#    x 2.131200 -0.030910 -0.013550 
#    y -0.030910 2.222030 0.022730 
#    z -0.013550 0.022730 1.977680 
# 
# From -- ./inp_files/116893.got.cif
#   From: 2010.05.17/outbox.cif.g08.bks.cpg/sg2_59_cif.got.tgz:116893.got - 2010.06.03 11:33:40.
