data_PCOD9031908
_publ_section_title
;
Structure prediction by ZEFSAII (Michael W. Deem and Ramdas Pophale) SiO2 
 PCOD9031908
Probable space group: P -1
;
_chemical_formula_sum "Si O2"
_cell_formula_units_Z 16
_cell_length_a 5.752191
_cell_length_b 21.816145
_cell_length_c 10.992668
_cell_angle_alpha 30.948822
_cell_angle_beta 106.363792
_cell_angle_gamma 115.591621
_cell_volume 628.014550
_symmetry_space_group_name_H-M "P -1"
_symmetry_group_IT_number 2
_symmetry_cell_setting 'triclinic'
loop_
_space_group_symop_operation_xyz
x,y,z
-x,-y,-z
loop_
_atom_site_type_symbol
_atom_site_label
_atom_site_fract_x
_atom_site_fract_y
_atom_site_fract_z
Si Si1 0.288728 0.158432 0.380560
Si Si2 0.413737 0.276927 0.720829
Si Si3 0.425070 0.685527 0.077886
Si Si4 0.258112 0.379897 0.122546
Si Si5 0.292057 0.001189 0.071401
Si Si6 0.955764 0.288970 0.456681
Si Si7 0.895974 0.468135 0.340881
Si Si8 0.727920 0.085395 0.296373
O O1 0.309192 0.248720 0.344658
O O2 0.999455 0.118871 0.349224
O O3 0.300901 0.018260 0.637943
O O4 0.478815 0.250195 0.148727
O O5 0.346876 0.293682 0.823822
O O6 0.211886 0.293213 0.564224
O O7 0.699046 0.390492 0.548389
O O8 0.409349 0.134346 0.936502
O O9 0.207502 0.541503 0.281426
O O10 0.296154 0.779763 0.957307
O O11 0.032748 0.361293 0.217881
O O12 0.500000 0.500000 0.000000
O O13 0.185726 0.418201 0.915792
O O14 0.213432 0.857324 0.356355
O O15 0.500000 0.000000 0.000000
O O16 0.000000 0.000000 0.000000
O O17 0.835720 0.361914 0.405996
O O18 0.500000 0.000000 0.500000
#
# Coordination Sequence:
#
# PCOD9031908 Si02
#       8
#     2   2   2   2   2   2   2   2
#     4  10  22  43  68  98 138 175 229 290 347 404
#     4  11  25  46  67  99 142 181 236 292 354 426
#     4  11  24  42  69 102 135 179 233 286 351 427
#     4  12  24  45  70 102 141 180 234 290 352 429
#     4  10  22  47  71 101 144 191 244 297 358 435
#     4  11  25  44  72 100 139 187 234 291 361 427
#     4  12  24  45  68  99 139 182 231 284 358 424
#     4   9  20  42  67  96 134 177 224 279 344 411
#
# _framework density 25.477117
#
# number of rings (size 3 to 8) (size 9 to 14) (size 15 to 20)
#    0.000    1.250    3.750    1.500    0.000    4.500 
#    6.750    0.000    0.000    0.000    0.000    0.000 
#    0.000    0.000    0.000    0.000    0.000    0.000 
#
# Total GULP energy -89427.011628 kJ/mol
# GULP energy per Si atom -5589.188227 kJ/mol
# Density = 2.541913 g / cm^3
# Si number density = 25.477117 Si / 1000 Ang^3
#
#
#
# Elastic Constant Matrix: (Units=GPa)
#
#
# Indices 1 2 3 4 5 6 
#
# 1 61.6742 12.0296 7.6911 -7.5432 6.0515 4.5545
# 2 12.0296 116.8939 11.2195 -24.7683 4.2551 10.1594
# 3 7.6911 11.2195 97.6642 -19.2489 2.3765 5.2917
# 4 -7.5432 -24.7683 -19.2489 38.8708 -8.7179 -2.4803
# 5 6.0515 4.2551 2.3765 -8.7179 46.6261 -16.1489
# 6 4.5545 10.1594 5.2917 -2.4803 -16.1489 41.7736
#
#
#
# Elastic Compliance Matrix: (Units=1/GPa)
#
#
# Indices 1 2 3 4 5 6 
#
# 1 0.017141 -0.001058 -0.000727 0.001541 -0.002653 -0.002454
# 2 -0.001058 0.010148 0.000259 0.006160 -0.000404 -0.002176
# 3 -0.000727 0.000259 0.011434 0.005664 0.000193 -0.001021
# 4 0.001541 0.006160 0.005664 0.034236 0.006037 0.001983
# 5 -0.002653 -0.000404 0.000193 0.006037 0.026783 0.011075
# 6 -0.002454 -0.002176 -0.001021 0.001983 0.011075 0.029264
#
#
# Mechanical properties :
#
#
# Convention : Reuss Voigt Hill
#
# Bulk Modulus (GPa) = 28.03404 37.56807 32.80106
# Shear Modulus (GPa) = 34.73489 41.80690 38.27090
#
# Velocity S-wave (km/s) = 3.69640 4.05527 3.87999
# Velocity P-wave (km/s) = 5.40789 6.05845 5.74239
#
# Compressibility (1/GPa) = 0.03567092
#
# Stress axis : x y z
#
# Youngs Moduli (GPa) = 58.33898 98.54412 87.46110
#
# Poissons Ratio (x) = 0.10426 0.06360
# Poissons Ratio (y) = 0.06172 -0.02268
# Poissons Ratio (z) = 0.04242 -0.02556
#
# Static dielectric constant tensor:
#      x y z
#    x 2.081460 0.054240 0.050500 
#    y 0.054240 2.001150 0.050560 
#    z 0.050500 0.050560 1.898700 
# 
# From -- ./inp_files/69926.got.cif
#   From: 2010.05.17/outbox.cif.g08.bks.cpg/sg2_35_cif.got.tgz:69926.got - 2010.06.03 11:33:40.
