data_PCOD9031804
_publ_section_title
;
Structure prediction by ZEFSAII (Michael W. Deem and Ramdas Pophale) SiO2 
 PCOD9031804
Probable space group: P -1
;
_chemical_formula_sum "Si O2"
_cell_formula_units_Z 15
_cell_length_a 15.660035
_cell_length_b 12.889102
_cell_length_c 9.838824
_cell_angle_alpha 41.968814
_cell_angle_beta 131.475788
_cell_angle_gamma 153.375652
_cell_volume 595.122017
_symmetry_space_group_name_H-M "P -1"
_symmetry_group_IT_number 2
_symmetry_cell_setting 'triclinic'
loop_
_space_group_symop_operation_xyz
x,y,z
-x,-y,-z
loop_
_atom_site_type_symbol
_atom_site_label
_atom_site_fract_x
_atom_site_fract_y
_atom_site_fract_z
Si Si1 0.263919 0.526783 0.004452
Si Si2 0.271866 0.419103 0.845072
Si Si3 0.000000 0.500000 0.500000
Si Si4 0.916131 0.616127 0.555303
Si Si5 0.304553 0.075537 0.887621
Si Si6 0.175761 0.127790 0.472688
Si Si7 0.726421 0.259472 0.955730
Si Si8 0.270170 0.074065 0.157376
O O1 0.493418 0.777083 0.999918
O O2 0.226479 0.322948 0.236688
O O3 0.195004 0.587753 0.969268
O O4 0.196647 0.456416 0.845886
O O5 0.188602 0.370925 0.660500
O O6 0.500280 0.682998 0.823687
O O7 0.219156 0.186418 0.056050
O O8 0.935686 0.493200 0.593573
O O9 0.828993 0.180776 0.633224
O O10 0.783703 0.434775 0.722549
O O11 0.107809 0.906784 0.527754
O O12 0.320656 0.229578 0.644102
O O13 0.216995 0.027487 0.985817
O O14 0.202420 0.827775 0.937843
O O15 0.000000 0.000000 0.500000
O O16 0.500000 0.000000 0.000000
#
# Coordination Sequence:
#
# PCOD9031804 Si02
#       8
#     2   2   1   2   2   2   2   2
#     4  10  22  44  68  99 125 178 227 277 337 400
#     4  10  24  46  74  94 139 181 234 275 331 415
#     4  12  26  44  66 104 146 172 228 280 348 402
#     4  12  26  46  66 103 137 180 226 278 340 408
#     4  10  22  43  68  93 136 173 225 279 331 408
#     4  12  24  40  66 102 134 175 222 277 343 400
#     4  10  22  46  68  98 132 175 230 275 339 401
#     4  10  22  46  69 102 132 182 227 280 343 398
#
# _framework density 25.204916000000001
#
# number of rings (size 3 to 8) (size 9 to 14) (size 15 to 20)
#    0.000    1.333    2.667    2.000    0.000    5.333 
#   12.000    0.000    0.000    0.000    0.000    0.000 
#    0.000    0.000    0.000    0.000    0.000    0.000 
#
# Total GULP energy -83715.923161 kJ/mol
# GULP energy per Si atom -5581.061544 kJ/mol
# Density = 2.514755 g / cm^3
# Si number density = 25.204916 Si / 1000 Ang^3
#
#
#
# Elastic Constant Matrix: (Units=GPa)
#
#
# Indices 1 2 3 4 5 6 
#
# 1 98.2609 26.3230 -17.1827 -8.9420 -29.8635 -12.9190
# 2 26.3230 77.0357 24.7985 -6.3760 -4.3834 -9.7728
# 3 -17.1827 24.7985 88.2078 -4.1843 -26.5127 -4.6679
# 4 -8.9420 -6.3760 -4.1843 56.8561 -5.5944 3.7965
# 5 -29.8635 -4.3834 -26.5127 -5.5944 30.7790 4.3774
# 6 -12.9190 -9.7728 -4.6679 3.7965 4.3774 34.1725
#
#
#
# Elastic Compliance Matrix: (Units=1/GPa)
#
#
# Indices 1 2 3 4 5 6 
#
# 1 0.061426 -0.029582 0.052671 0.019967 0.103463 0.006486
# 2 -0.029582 0.029142 -0.029986 -0.008762 -0.052073 0.000698
# 3 0.052671 -0.029986 0.062241 0.019372 0.103336 0.004450
# 4 0.019967 -0.008762 0.019372 0.025057 0.039387 -0.000140
# 5 0.103463 -0.052073 0.103336 0.039387 0.220823 0.005675
# 6 0.006486 0.000698 0.004450 -0.000140 0.005675 0.031811
#
#
# Mechanical properties :
#
#
# Convention : Reuss Voigt Hill
#
# Bulk Modulus (GPa) = 7.19344 36.82023 22.00684
# Shear Modulus (GPa) = 10.19092 39.66587 24.92839
#
# Velocity S-wave (km/s) = 2.01296 3.97134 3.14829
# Velocity P-wave (km/s) = 2.87452 5.97233 4.68677
#
# Compressibility (1/GPa) = 0.13901545
#
# Stress axis : x y z
#
# Youngs Moduli (GPa) = 16.27967 34.31450 16.06657
#
# Poissons Ratio (x) = 1.01509 -0.84623
# Poissons Ratio (y) = 0.48158 0.48177
# Poissons Ratio (z) = -0.85746 1.02894
#
# Static dielectric constant tensor:
#      x y z
#    x 2.013890 -0.002800 0.038720 
#    y -0.002800 2.018820 -0.002550 
#    z 0.038720 -0.002550 2.160750 
# 
# From -- ./inp_files/154959.got.cif
#   From: 2010.05.17/outbox.cif.g08.bks.cpg/sg2_78_cif.got.tgz:154959.got - 2010.06.03 11:33:40.
