data_PCOD9031713
_publ_section_title
;
Structure prediction by ZEFSAII (Michael W. Deem and Ramdas Pophale) SiO2 
 PCOD9031713
Probable space group: P -1
;
_chemical_formula_sum "Si O2"
_cell_formula_units_Z 14
_cell_length_a 8.454991
_cell_length_b 8.332274
_cell_length_c 10.490057
_cell_angle_alpha 90.749532
_cell_angle_beta 87.843913
_cell_angle_gamma 124.901615
_cell_volume 605.633175
_symmetry_space_group_name_H-M "P -1"
_symmetry_group_IT_number 2
_symmetry_cell_setting 'triclinic'
loop_
_space_group_symop_operation_xyz
x,y,z
-x,-y,-z
loop_
_atom_site_type_symbol
_atom_site_label
_atom_site_fract_x
_atom_site_fract_y
_atom_site_fract_z
Si Si1 0.011554 0.376770 0.611510
Si Si2 0.617918 0.984652 0.609319
Si Si3 0.672291 0.708272 0.441949
Si Si4 0.557050 0.686790 0.154666
Si Si5 0.248183 0.741028 0.787441
Si Si6 0.235512 0.490339 0.984801
Si Si7 0.117338 0.913815 0.945274
O O1 0.000000 0.500000 0.500000
O O2 0.140913 0.296622 0.573902
O O3 0.122296 0.535772 0.718881
O O4 0.798061 0.194457 0.649342
O O5 0.695213 0.865899 0.542764
O O6 0.457345 0.870945 0.720475
O O7 0.500000 0.000000 0.500000
O O8 0.500000 0.500000 0.500000
O O9 0.607389 0.731107 0.302942
O O10 0.644924 0.568057 0.104152
O O11 0.665450 0.885098 0.066373
O O12 0.332539 0.548613 0.122283
O O13 0.271315 0.684364 0.926763
O O14 0.130269 0.838687 0.803040
O O15 0.017458 0.299392 0.985241
O O16 0.000000 0.000000 0.000000
#
# Coordination Sequence:
#
# PCOD9031713 Si02
#       7
#     2   2   2   2   2   2   2
#     4  12  26  46  71 106 148 196 237 296 363 424
#     4  12  25  46  72 109 150 191 243 300 364 438
#     4  12  23  47  74 109 150 190 243 298 362 443
#     4  10  22  43  68 100 141 178 233 292 360 425
#     4  12  24  46  71 102 147 186 242 299 363 434
#     4  10  22  44  68 100 136 185 233 295 358 423
#     4  10  24  43  69 101 139 184 244 294 358 427
#
# _framework density 23.116304
#
# number of rings (size 3 to 8) (size 9 to 14) (size 15 to 20)
#    0.000    0.857    4.286    1.714    0.000    5.143 
#    7.714    0.000    0.000    0.000    0.000    0.000 
#    0.000    0.000    0.000    0.000    0.000    0.000 
#
# Total GULP energy -78051.269980 kJ/mol
# GULP energy per Si atom -5575.090713 kJ/mol
# Density = 2.306369 g / cm^3
# Si number density = 23.116304 Si / 1000 Ang^3
#
#
#
# Elastic Constant Matrix: (Units=GPa)
#
#
# Indices 1 2 3 4 5 6 
#
# 1 104.0778 57.0924 56.8286 6.2797 -22.1234 5.1946
# 2 57.0924 148.3651 42.0076 -19.0494 -22.5146 25.4787
# 3 56.8286 42.0076 90.7069 -13.3089 -15.3703 2.1823
# 4 6.2797 -19.0494 -13.3089 31.3092 -15.0866 -11.2032
# 5 -22.1234 -22.5146 -15.3703 -15.0866 41.9779 4.8718
# 6 5.1946 25.4787 2.1823 -11.2032 4.8718 34.2558
#
#
#
# Elastic Compliance Matrix: (Units=1/GPa)
#
#
# Indices 1 2 3 4 5 6 
#
# 1 0.020302 -0.006191 -0.012391 -0.015024 -0.002294 -0.002272
# 2 -0.006191 0.012594 0.001404 0.011645 0.008884 -0.005973
# 3 -0.012391 0.001404 0.022154 0.018329 0.008432 0.004219
# 4 -0.015024 0.011645 0.018329 0.066997 0.027911 0.010391
# 5 -0.002294 0.008884 0.008432 0.027911 0.040902 -0.003486
# 6 -0.002272 -0.005973 0.004219 0.010391 -0.003486 0.037604
#
#
# Mechanical properties :
#
#
# Convention : Reuss Voigt Hill
#
# Bulk Modulus (GPa) = 48.32182 72.77857 60.55020
# Shear Modulus (GPa) = 20.67762 33.99000 27.33381
#
# Velocity S-wave (km/s) = 2.99407 3.83873 3.44240
# Velocity P-wave (km/s) = 5.73601 7.15540 6.48466
#
# Compressibility (1/GPa) = 0.02069458
#
# Stress axis : x y z
#
# Youngs Moduli (GPa) = 49.25526 79.40225 45.13874
#
# Poissons Ratio (x) = 0.49160 0.55930
# Poissons Ratio (y) = 0.30495 -0.06338
# Poissons Ratio (z) = 0.61031 -0.11149
#
# Static dielectric constant tensor:
#      x y z
#    x 1.936880 -0.045350 0.035690 
#    y -0.045350 1.880940 0.022330 
#    z 0.035690 0.022330 1.942240 
# 
# From -- ./inp_files/382276.got.cif
#   From: 2010.05.17/outbox.cif.g08.bks.cpg/sg2_192_cif.got.tgz:382276.got - 2010.06.03 11:33:40.
