data_PCOD9031559
_publ_section_title
;
Structure prediction by ZEFSAII (Michael W. Deem and Ramdas Pophale) SiO2 
 PCOD9031559
Probable space group: P -1
;
_chemical_formula_sum "Si O2"
_cell_formula_units_Z 14
_cell_length_a 8.244815
_cell_length_b 21.269200
_cell_length_c 17.473489
_cell_angle_alpha 19.376046
_cell_angle_beta 43.263459
_cell_angle_gamma 54.299750
_cell_volume 620.481981
_symmetry_space_group_name_H-M "P -1"
_symmetry_group_IT_number 2
_symmetry_cell_setting 'triclinic'
loop_
_space_group_symop_operation_xyz
x,y,z
-x,-y,-z
loop_
_atom_site_type_symbol
_atom_site_label
_atom_site_fract_x
_atom_site_fract_y
_atom_site_fract_z
Si Si1 0.691722 0.753331 0.646254
Si Si2 0.701322 0.196570 0.384919
Si Si3 0.770171 0.699078 0.334036
Si Si4 0.999003 0.523214 0.591346
Si Si5 0.745702 0.446363 0.227140
Si Si6 0.594651 0.785901 0.813588
Si Si7 0.814981 0.110690 0.774401
O O1 0.565807 0.833244 0.530304
O O2 0.662567 0.839011 0.640535
O O3 0.997928 0.825707 0.437507
O O4 0.500000 0.500000 0.000000
O O5 0.702279 0.249121 0.413941
O O6 0.724810 0.987206 0.593598
O O7 0.949574 0.407196 0.024174
O O8 0.931112 0.654763 0.398059
O O9 0.468503 0.619015 0.557549
O O10 0.802345 0.561658 0.412012
O O11 0.876945 0.942122 0.994360
O O12 0.104658 0.675817 0.451322
O O13 0.720493 0.325342 0.936067
O O14 0.683810 0.606254 0.010914
O O15 0.500000 0.000000 0.000000
#
# Coordination Sequence:
#
# PCOD9031559 Si02
#       7
#     2   2   2   2   2   2   2
#     4  12  23  44  66  88 132 171 214 259 314 382
#     4  11  23  39  67  95 126 170 214 260 324 371
#     4  10  23  41  66  93 130 169 214 256 334 374
#     4  10  22  43  67  93 127 170 214 272 306 393
#     4  10  23  40  64  98 130 161 209 280 306 382
#     4  11  22  41  67  94 125 166 222 256 320 375
#     4  12  27  42  65  97 131 171 211 267 324 382
#
# _framework density 22.563106000000001
#
# number of rings (size 3 to 8) (size 9 to 14) (size 15 to 20)
#    0.000    1.143    2.857    3.000    2.000    5.143 
#    0.000    0.000    0.000    0.000    0.000    0.000 
#    0.000    0.000    0.000    0.000    0.000    0.000 
#
# Total GULP energy -78332.545680 kJ/mol
# GULP energy per Si atom -5595.181834 kJ/mol
# Density = 2.251175 g / cm^3
# Si number density = 22.563106 Si / 1000 Ang^3
#
#
#
# Elastic Constant Matrix: (Units=GPa)
#
#
# Indices 1 2 3 4 5 6 
#
# 1 48.9264 38.0890 32.7115 5.4871 -17.7797 -0.1490
# 2 38.0890 191.0503 81.6752 4.6862 -14.7047 11.8700
# 3 32.7115 81.6752 104.3695 9.9620 -21.8819 8.1986
# 4 5.4871 4.6862 9.9620 49.2708 8.2568 -14.5953
# 5 -17.7797 -14.7047 -21.8819 8.2568 10.8181 7.3331
# 6 -0.1490 11.8700 8.1986 -14.5953 7.3331 24.8829
#
#
#
# Elastic Compliance Matrix: (Units=1/GPa)
#
#
# Indices 1 2 3 4 5 6 
#
# 1 0.015644 -0.001550 -0.016195 0.016986 -0.041305 0.028305
# 2 -0.001550 0.008095 -0.004314 -0.001958 0.004577 -0.004947
# 3 -0.016195 -0.004314 0.008317 0.011217 -0.035181 0.016168
# 4 0.016986 -0.001958 0.011217 -0.000682 0.063159 -0.021674
# 5 -0.041305 0.004577 -0.035181 0.063159 -0.149850 0.090369
# 6 0.028305 -0.004947 0.016168 -0.021674 0.090369 -0.001955
#
#
# Mechanical properties :
#
#
# Convention : Reuss Voigt Hill
#
# Bulk Modulus (GPa) = -82.90379 72.14418 -5.37981
# Shear Modulus (GPa) = -62.24062 29.78572 -16.22745
#
# Velocity S-wave (km/s) = -5.25785 3.63727 -2.68470
# Velocity P-wave (km/s) = 8.58387 7.04865 3.46406
#
# Compressibility (1/GPa) = -0.01206217
#
# Stress axis : x y z
#
# Youngs Moduli (GPa) = 63.92110 123.53038 120.24140
#
# Poissons Ratio (x) = 0.19145 1.94733
# Poissons Ratio (y) = 0.09907 0.51873
# Poissons Ratio (z) = 1.03522 0.53292
#
# Static dielectric constant tensor:
#      x y z
#    x 1.866210 -0.041770 0.032940 
#    y -0.041770 1.830920 0.010660 
#    z 0.032940 0.010660 1.822980 
# 
# From -- ./inp_files/392941.got.cif
#   From: 2010.05.17/outbox.cif.g08.bks.cpg/sg2_197_cif.got.tgz:392941.got - 2010.06.03 11:33:40.
