data_PCOD9031072
_publ_section_title
;
Structure prediction by ZEFSAII (Michael W. Deem and Ramdas Pophale) SiO2 
 PCOD9031072
Probable space group: P -1
;
_chemical_formula_sum "Si O2"
_cell_formula_units_Z 14
_cell_length_a 24.450345
_cell_length_b 5.581284
_cell_length_c 9.760988
_cell_angle_alpha 98.475774
_cell_angle_beta 145.339551
_cell_angle_gamma 69.151503
_cell_volume 680.950904
_symmetry_space_group_name_H-M "P -1"
_symmetry_group_IT_number 2
_symmetry_cell_setting 'triclinic'
loop_
_space_group_symop_operation_xyz
x,y,z
-x,-y,-z
loop_
_atom_site_type_symbol
_atom_site_label
_atom_site_fract_x
_atom_site_fract_y
_atom_site_fract_z
Si Si1 0.085036 0.603500 0.131196
Si Si2 0.818338 0.358054 0.375463
Si Si3 0.027072 0.934454 0.775024
Si Si4 0.195858 0.146710 0.129471
Si Si5 0.379384 0.394374 0.855809
Si Si6 0.373221 0.853503 0.673781
Si Si7 0.876571 0.556874 0.250820
O O1 0.139969 0.637307 0.384670
O O2 0.176768 0.399391 0.206542
O O3 0.028614 0.833879 0.923729
O O4 0.000000 0.500000 0.000000
O O5 0.694602 0.457980 0.155019
O O6 0.836631 0.551669 0.320224
O O7 0.906100 0.067314 0.484471
O O8 0.107794 0.707795 0.824705
O O9 0.081681 0.137208 0.907374
O O10 0.291995 0.916330 0.384458
O O11 0.200220 0.205064 0.983478
O O12 0.358325 0.633033 0.721753
O O13 0.358438 0.134008 0.742917
O O14 0.504706 0.274009 0.132336
O O15 0.000000 0.500000 0.500000
#
# Coordination Sequence:
#
# PCOD9031072 Si02
#       7
#     2   2   2   2   2   2   2
#     4  11  21  34  54  91 118 150 202 261 307 366
#     4  12  21  37  60  90 122 157 212 254 308 372
#     4  11  23  37  57  86 123 165 201 248 316 376
#     4  11  22  38  61  83 124 166 199 249 318 375
#     4  10  23  40  67  95 123 160 209 269 314 365
#     4  10  22  43  64  94 126 160 208 263 325 364
#     4  11  24  41  54  88 129 170 202 245 314 383
#
# _framework density 20.559484999999999
#
# number of rings (size 3 to 8) (size 9 to 14) (size 15 to 20)
#    0.000    1.143    4.286    2.571    4.000    1.143 
#    0.000    0.714    0.000    0.857    0.000    0.000 
#    0.000    0.000    0.000    0.000    0.000    0.000 
#
# Total GULP energy -77951.421629 kJ/mol
# GULP energy per Si atom -5567.958688 kJ/mol
# Density = 2.051269 g / cm^3
# Si number density = 20.559485 Si / 1000 Ang^3
#
#
#
# Elastic Constant Matrix: (Units=GPa)
#
#
# Indices 1 2 3 4 5 6 
#
# 1 116.4733 11.5999 51.7125 -21.1493 -7.3799 16.6330
# 2 11.5999 47.7122 15.1715 -12.1968 -2.3459 7.5263
# 3 51.7125 15.1715 100.3851 -32.1785 -12.9130 -1.4031
# 4 -21.1493 -12.1968 -32.1785 33.9827 0.7300 -4.3533
# 5 -7.3799 -2.3459 -12.9130 0.7300 42.4508 -8.9528
# 6 16.6330 7.5263 -1.4031 -4.3533 -8.9528 19.0088
#
#
#
# Elastic Compliance Matrix: (Units=1/GPa)
#
#
# Indices 1 2 3 4 5 6 
#
# 1 0.013892 0.001277 -0.008070 -0.000366 -0.003083 -0.014793
# 2 0.001277 0.024586 -0.002979 0.005476 -0.001655 -0.010597
# 3 -0.008070 -0.002979 0.020902 0.015732 0.008153 0.017227
# 4 -0.000366 0.005476 0.015732 0.047645 0.007063 0.013552
# 5 -0.003083 -0.001655 0.008153 0.007063 0.029381 0.019410
# 6 -0.014793 -0.010597 0.017227 0.013552 0.019410 0.083264
#
#
# Mechanical properties :
#
#
# Convention : Reuss Voigt Hill
#
# Bulk Modulus (GPa) = 25.10374 46.83761 35.97067
# Shear Modulus (GPa) = 19.80248 31.49423 25.64836
#
# Velocity S-wave (km/s) = 3.10688 3.91814 3.53586
# Velocity P-wave (km/s) = 5.01070 6.58028 5.84838
#
# Compressibility (1/GPa) = 0.03983470
#
# Stress axis : x y z
#
# Youngs Moduli (GPa) = 71.98285 40.67370 47.84333
#
# Poissons Ratio (x) = -0.05194 0.38610
# Poissons Ratio (y) = -0.09192 0.14254
# Poissons Ratio (z) = 0.58091 0.12118
#
# Static dielectric constant tensor:
#      x y z
#    x 1.736850 -0.050410 -0.013100 
#    y -0.050410 2.001170 0.016520 
#    z -0.013100 0.016520 1.784100 
# 
# From -- ./inp_files/35529.got.cif
#   From: 2010.05.17/outbox.cif.g08.bks.cpg/sg2_18_cif.got.tgz:35529.got - 2010.06.03 11:33:40.
