data_PCOD9031569
_publ_section_title
;
Structure prediction by ZEFSAII (Michael W. Deem and Ramdas Pophale) SiO2 
 PCOD9031569
Probable space group: P -1
;
_chemical_formula_sum "Si O2"
_cell_formula_units_Z 14
_cell_length_a 26.426962
_cell_length_b 6.169048
_cell_length_c 16.322695
_cell_angle_alpha 80.169541
_cell_angle_beta 162.933248
_cell_angle_gamma 107.144541
_cell_volume 685.260775
_symmetry_space_group_name_H-M "P -1"
_symmetry_group_IT_number 2
_symmetry_cell_setting 'triclinic'
loop_
_space_group_symop_operation_xyz
x,y,z
-x,-y,-z
loop_
_atom_site_type_symbol
_atom_site_label
_atom_site_fract_x
_atom_site_fract_y
_atom_site_fract_z
Si Si1 0.911035 0.196105 0.373647
Si Si2 0.085065 0.058455 0.913403
Si Si3 0.366888 0.631471 0.767118
Si Si4 0.703051 0.041755 0.896236
Si Si5 0.999955 0.599093 0.902612
Si Si6 0.745531 0.115691 0.302441
Si Si7 0.662297 0.403990 0.686289
O O1 0.829705 0.124358 0.343304
O O2 0.000000 0.500000 0.500000
O O3 0.764211 0.134992 0.075487
O O4 0.000000 0.000000 0.500000
O O5 0.885636 0.069916 0.586077
O O6 0.270087 0.321269 0.195699
O O7 0.064082 0.889465 0.970260
O O8 0.129894 0.950179 0.906555
O O9 0.207629 0.525986 0.456436
O O10 0.260380 0.641988 0.685696
O O11 0.500000 0.500000 0.000000
O O12 0.525145 0.906591 0.971949
O O13 0.642486 0.229774 0.744353
O O14 0.535000 0.760122 0.656284
O O15 0.000000 0.500000 0.000000
O O16 0.158453 0.562369 0.096158
#
# Coordination Sequence:
#
# PCOD9031569 Si02
#       7
#     2   2   2   2   2   2   2
#     4  12  27  44  72 108 146 182 234 299 356 426
#     4  11  20  42  70  95 136 180 231 287 362 426
#     4  11  24  45  71  94 135 189 244 290 355 427
#     4  10  23  41  67 102 135 183 222 288 357 434
#     4  11  25  41  65  97 136 176 233 299 345 414
#     4  11  24  42  70 101 134 189 238 292 356 429
#     4  10  22  43  67  93 137 180 231 279 360 434
#
# _framework density 20.43018
#
# number of rings (size 3 to 8) (size 9 to 14) (size 15 to 20)
#    0.000    1.143    4.286    1.286    6.000    0.571 
#    0.000    0.000    0.000    0.000    0.000    0.000 
#    0.000    0.000    0.000    0.000    0.000    0.000 
#
# Total GULP energy -77973.119032 kJ/mol
# GULP energy per Si atom -5569.508502 kJ/mol
# Density = 2.038368 g / cm^3
# Si number density = 20.430180 Si / 1000 Ang^3
#
#
#
# Elastic Constant Matrix: (Units=GPa)
#
#
# Indices 1 2 3 4 5 6 
#
# 1 126.9687 55.1852 38.5206 -8.3890 -19.9902 1.4568
# 2 55.1852 99.6767 43.4736 14.0931 -7.6514 -8.1319
# 3 38.5206 43.4736 111.2697 16.9844 -17.9021 -1.5775
# 4 -8.3890 14.0931 16.9844 42.9573 -7.0946 8.0345
# 5 -19.9902 -7.6514 -17.9021 -7.0946 35.1112 -3.6814
# 6 1.4568 -8.1319 -1.5775 8.0345 -3.6814 31.4857
#
#
#
# Elastic Compliance Matrix: (Units=1/GPa)
#
#
# Indices 1 2 3 4 5 6 
#
# 1 0.013117 -0.007331 -0.001896 0.007416 0.006005 -0.003786
# 2 -0.007331 0.016829 -0.003333 -0.007263 -0.003043 0.006016
# 3 -0.001896 -0.003333 0.012130 -0.003678 0.003763 0.001213
# 4 0.007416 -0.007263 -0.003678 0.031384 0.006089 -0.009700
# 5 0.006005 -0.003043 0.003763 0.006089 0.034554 0.001611
# 6 -0.003786 0.006016 0.001213 -0.009700 0.001611 0.036214
#
#
# Mechanical properties :
#
#
# Convention : Reuss Voigt Hill
#
# Bulk Modulus (GPa) = 58.97919 68.03042 63.50480
# Shear Modulus (GPa) = 28.57147 35.29322 31.93235
#
# Velocity S-wave (km/s) = 3.74370 4.16083 3.95777
# Velocity P-wave (km/s) = 6.90061 7.51363 7.21363
#
# Compressibility (1/GPa) = 0.01695513
#
# Stress axis : x y z
#
# Youngs Moduli (GPa) = 76.23968 59.42073 82.44231
#
# Poissons Ratio (x) = 0.43564 0.15631
# Poissons Ratio (y) = 0.55894 0.27476
# Poissons Ratio (z) = 0.14455 0.19804
#
# Static dielectric constant tensor:
#      x y z
#    x 1.740330 -0.082040 0.058520 
#    y -0.082040 1.890960 -0.022110 
#    z 0.058520 -0.022110 1.847080 
# 
# From -- ./inp_files/69317.got.cif
#   From: 2010.05.17/outbox.cif.g08.bks.cpg/sg2_35_cif.got.tgz:69317.got - 2010.06.03 11:33:40.
