data_PCOD9031399
_publ_section_title
;
Structure prediction by ZEFSAII (Michael W. Deem and Ramdas Pophale) SiO2 
 PCOD9031399
Probable space group: P -1
;
_chemical_formula_sum "Si O2"
_cell_formula_units_Z 16
_cell_length_a 18.313772
_cell_length_b 15.722805
_cell_length_c 7.756862
_cell_angle_alpha 55.343724
_cell_angle_beta 38.711995
_cell_angle_gamma 30.379871
_cell_volume 666.763562
_symmetry_space_group_name_H-M "P -1"
_symmetry_group_IT_number 2
_symmetry_cell_setting 'triclinic'
loop_
_space_group_symop_operation_xyz
x,y,z
-x,-y,-z
loop_
_atom_site_type_symbol
_atom_site_label
_atom_site_fract_x
_atom_site_fract_y
_atom_site_fract_z
Si Si1 0.121590 0.772994 0.506942
Si Si2 0.051428 0.436673 0.274835
Si Si3 0.482481 0.402549 0.418789
Si Si4 0.373799 0.275704 0.326948
Si Si5 0.258433 0.894081 0.986329
Si Si6 0.080472 0.169524 0.529663
Si Si7 0.475473 0.138977 0.915650
Si Si8 0.317811 0.525370 0.946339
O O1 0.284620 0.566225 0.479700
O O2 0.231112 0.805863 0.248836
O O3 0.001459 0.832246 0.484571
O O4 0.957983 0.899714 0.814880
O O5 0.082692 0.291715 0.354572
O O6 0.000000 0.500000 0.500000
O O7 0.275905 0.319749 0.970945
O O8 0.845787 0.612068 0.348354
O O9 0.412433 0.418331 0.718187
O O10 0.569198 0.454445 0.227734
O O11 0.654543 0.214892 0.224007
O O12 0.570148 0.145896 0.231275
O O13 0.434977 0.178184 0.148571
O O14 0.334945 0.422387 0.171972
O O15 0.303895 0.975040 0.390023
O O16 0.916157 0.276200 0.859227
O O17 0.500000 0.000000 0.000000
#
# Coordination Sequence:
#
# PCOD9031399 Si02
#       8
#     2   2   2   2   2   2   2   2
#     4  11  21  34  54  82 108 144 185 221 269 315
#     4   8  16  27  48  78 105 126 167 227 281 308
#     4  11  21  37  50  74 119 152 184 213 257 321
#     4  10  17  33  54  81 107 137 180 220 273 322
#     4  11  21  34  55  82 108 145 184 223 266 317
#     4  10  17  32  53  78 107 136 175 222 275 314
#     4   9  17  30  51  84 108 124 170 239 282 307
#     4  10  21  34  51  75 108 157 179 211 266 322
#
# _framework density 23.996513
#
# number of rings (size 3 to 8) (size 9 to 14) (size 15 to 20)
#    0.000    2.000    3.750    1.875    0.000    0.000 
#    2.250    1.250    0.000    0.000    0.000  110.250 
#    0.000    0.000    0.000    0.000    0.000    0.000 
#
# Total GULP energy -89253.606875 kJ/mol
# GULP energy per Si atom -5578.350430 kJ/mol
# Density = 2.394190 g / cm^3
# Si number density = 23.996513 Si / 1000 Ang^3
#
#
#
# Elastic Constant Matrix: (Units=GPa)
#
#
# Indices 1 2 3 4 5 6 
#
# 1 97.1365 16.9347 40.3456 7.0881 -11.6914 29.6852
# 2 16.9347 40.4791 25.3052 11.2312 4.9692 13.3015
# 3 40.3456 25.3052 153.7626 57.4942 -7.0545 -9.4174
# 4 7.0881 11.2312 57.4942 19.9911 6.6014 7.1261
# 5 -11.6914 4.9692 -7.0545 6.6014 47.6738 7.8776
# 6 29.6852 13.3015 -9.4174 7.1261 7.8776 26.8190
#
#
#
# Elastic Compliance Matrix: (Units=1/GPa)
#
#
# Indices 1 2 3 4 5 6 
#
# 1 0.011218 -0.001951 0.008674 -0.029636 0.008859 -0.003131
# 2 -0.001951 0.032716 0.000821 -0.016747 0.000098 -0.009357
# 3 0.008674 0.000821 -0.010730 0.035776 -0.000686 -0.023080
# 4 -0.029636 -0.016747 0.035776 -0.056554 -0.003940 0.069857
# 5 0.008859 0.000098 -0.000686 -0.003940 0.026357 -0.016790
# 6 -0.003131 -0.009357 -0.023080 0.069857 -0.016790 0.023659
#
#
# Mechanical properties :
#
#
# Convention : Reuss Voigt Hill
#
# Bulk Modulus (GPa) = 20.70767 50.72770 35.71769
# Shear Modulus (GPa) = 180.65969 32.81628 106.73798
#
# Velocity S-wave (km/s) = 8.68615 3.70204 6.67661
# Velocity P-wave (km/s) = 10.45214 6.28164 8.62282
#
# Compressibility (1/GPa) = 0.04829128
#
# Stress axis : x y z
#
# Youngs Moduli (GPa) = 89.14219 30.56564 -93.19743
#
# Poissons Ratio (x) = 0.05965 0.80837
# Poissons Ratio (y) = 0.17396 0.07652
# Poissons Ratio (z) = -0.77319 -0.02510
#
# Static dielectric constant tensor:
#      x y z
#    x 1.930650 -0.040850 -0.041660 
#    y -0.040850 1.919740 0.029050 
#    z -0.041660 0.029050 1.968500 
# 
# From -- ./inp_files/196576.got.cif
#   From: 2010.05.17/outbox.cif.g08.bks.cpg/sg2_99_cif.got.tgz:196576.got - 2010.06.03 11:33:40.
