data_PCOD9031988
_publ_section_title
;
Structure prediction by ZEFSAII (Michael W. Deem and Ramdas Pophale) SiO2 
 PCOD9031988
Probable space group: P -1
;
_chemical_formula_sum "Si O2"
_cell_formula_units_Z 16
_cell_length_a 8.805955
_cell_length_b 14.661580
_cell_length_c 13.727680
_cell_angle_alpha 148.982789
_cell_angle_beta 113.228915
_cell_angle_gamma 50.707373
_cell_volume 656.112277
_symmetry_space_group_name_H-M "P -1"
_symmetry_group_IT_number 2
_symmetry_cell_setting 'triclinic'
loop_
_space_group_symop_operation_xyz
x,y,z
-x,-y,-z
loop_
_atom_site_type_symbol
_atom_site_label
_atom_site_fract_x
_atom_site_fract_y
_atom_site_fract_z
Si Si1 0.706499 0.511083 0.815844
Si Si2 0.080042 0.103818 0.309575
Si Si3 0.941161 0.824820 0.082490
Si Si4 0.213747 0.152555 0.590301
Si Si5 0.764897 0.736870 0.643549
Si Si6 0.351584 0.434150 0.931092
Si Si7 0.751752 0.634530 0.749861
Si Si8 0.391357 0.837418 0.535405
O O1 0.619910 0.668997 0.843415
O O2 0.648073 0.344758 0.643586
O O3 0.963291 0.356920 0.736063
O O4 0.628146 0.627683 0.007013
O O5 0.211155 0.051555 0.394480
O O6 0.200639 0.090895 0.233057
O O7 0.878573 0.369801 0.513798
O O8 0.007081 0.951969 0.154123
O O9 0.738108 0.998848 0.256163
O O10 0.907085 0.682791 0.873184
O O11 0.121238 0.666495 0.062214
O O12 0.339027 0.254167 0.708362
O O13 0.299346 0.982177 0.546186
O O14 0.656568 0.775611 0.756100
O O15 0.633106 0.722958 0.514675
O O16 0.000000 0.500000 0.500000
O O17 0.500000 0.500000 0.000000
#
# Coordination Sequence:
#
# PCOD9031988 Si02
#       8
#     2   2   2   2   2   2   2   2
#     4  11  21  43  67 102 135 178 227 274 337 413
#     4  10  22  43  69 102 136 177 223 286 344 401
#     4  12  22  43  71 100 138 176 234 276 334 418
#     4  11  21  42  66 102 141 175 221 277 339 413
#     4  10  26  47  67  99 139 181 233 287 341 394
#     4  12  26  38  66 108 146 177 213 280 356 412
#     4  10  22  45  72  90 139 182 228 285 329 390
#     4  12  24  39  75 102 129 186 233 275 340 413
#
# _framework density 24.38607
#
# number of rings (size 3 to 8) (size 9 to 14) (size 15 to 20)
#    0.000    1.000    6.250    2.250    3.500    2.000 
#    0.000    0.000    0.000    0.000    0.000    0.000 
#    0.000    0.000    0.000    0.000    0.000    0.000 
#
# Total GULP energy -89583.874342 kJ/mol
# GULP energy per Si atom -5598.992146 kJ/mol
# Density = 2.433057 g / cm^3
# Si number density = 24.386070 Si / 1000 Ang^3
#
#
#
# Elastic Constant Matrix: (Units=GPa)
#
#
# Indices 1 2 3 4 5 6 
#
# 1 107.5125 45.1720 30.5052 12.4626 18.5009 26.3954
# 2 45.1720 147.1529 7.8215 4.4866 -0.6996 39.5252
# 3 30.5052 7.8215 71.5219 11.9752 17.0674 14.8152
# 4 12.4626 4.4866 11.9752 24.0286 13.8289 -2.1275
# 5 18.5009 -0.6996 17.0674 13.8289 45.8243 9.4293
# 6 26.3954 39.5252 14.8152 -2.1275 9.4293 60.9382
#
#
#
# Elastic Compliance Matrix: (Units=1/GPa)
#
#
# Indices 1 2 3 4 5 6 
#
# 1 0.013008 -0.003041 -0.003565 -0.003194 -0.002488 -0.002522
# 2 -0.003041 0.009256 0.001224 -0.002945 0.002942 -0.005542
# 3 -0.003565 0.001224 0.017693 -0.005975 -0.002639 -0.003351
# 4 -0.003194 -0.002945 -0.005975 0.056504 -0.015456 0.009111
# 5 -0.002488 0.002942 -0.002639 -0.015456 0.029612 -0.005311
# 6 -0.002522 -0.005542 -0.003351 0.009111 -0.005311 0.023052
#
#
# Mechanical properties :
#
#
# Convention : Reuss Voigt Hill
#
# Bulk Modulus (GPa) = 34.25399 54.79831 44.52615
# Shear Modulus (GPa) = 29.47787 42.33747 35.90767
#
# Velocity S-wave (km/s) = 3.48055 4.17121 3.84144
# Velocity P-wave (km/s) = 5.49812 6.76156 6.16230
#
# Compressibility (1/GPa) = 0.02919368
#
# Stress axis : x y z
#
# Youngs Moduli (GPa) = 76.87766 108.03252 56.52058
#
# Poissons Ratio (x) = 0.32848 0.20148
# Poissons Ratio (y) = 0.23375 -0.06916
# Poissons Ratio (z) = 0.27404 -0.13219
#
# Static dielectric constant tensor:
#      x y z
#    x 1.965740 0.001110 -0.085880 
#    y 0.001110 1.931700 0.013440 
#    z -0.085880 0.013440 1.959560 
# 
# From -- ./inp_files/504719.got.cif
#   From: 2010.05.17/outbox.cif.g08.bks.cpg/sg2_253_cif.got.tgz:504719.got - 2010.06.03 11:33:40.
