data_PCOD9031905
_publ_section_title
;
Structure prediction by ZEFSAII (Michael W. Deem and Ramdas Pophale) SiO2 
 PCOD9031905
Probable space group: P -1
;
_chemical_formula_sum "Si O2"
_cell_formula_units_Z 14
_cell_length_a 8.706399
_cell_length_b 28.011567
_cell_length_c 5.607462
_cell_angle_alpha 118.492794
_cell_angle_beta 124.123126
_cell_angle_gamma 33.009389
_cell_volume 616.675939
_symmetry_space_group_name_H-M "P -1"
_symmetry_group_IT_number 2
_symmetry_cell_setting 'triclinic'
loop_
_space_group_symop_operation_xyz
x,y,z
-x,-y,-z
loop_
_atom_site_type_symbol
_atom_site_label
_atom_site_fract_x
_atom_site_fract_y
_atom_site_fract_z
Si Si1 0.240662 0.804498 0.079413
Si Si2 0.806267 0.385264 0.168055
Si Si3 0.242108 0.051293 0.705845
Si Si4 0.849774 0.718570 0.274288
Si Si5 0.722611 0.874247 0.470179
Si Si6 0.820091 0.505355 0.544865
Si Si7 0.431855 0.376830 0.995396
O O1 0.352078 0.722847 0.099490
O O2 0.975261 0.848601 0.777150
O O3 0.531036 0.761483 0.104081
O O4 0.084607 0.882287 0.310707
O O5 0.993841 0.328941 0.443288
O O6 0.713934 0.469488 0.307386
O O7 0.536176 0.403895 0.992446
O O8 0.978328 0.338431 0.954875
O O9 0.227712 0.113508 0.718506
O O10 0.386895 0.971646 0.477325
O O11 0.500000 0.000000 0.000000
O O12 0.781689 0.798038 0.380390
O O13 0.000000 0.500000 0.500000
O O14 0.570610 0.599085 0.680292
O O15 0.095410 0.432786 0.797970
#
# Coordination Sequence:
#
# PCOD9031905 Si02
#       7
#     2   2   2   2   2   2   2
#     4  11  22  42  70  97 136 178 227 280 342 399
#     4  12  27  46  68 103 139 178 233 280 340 404
#     4   9  21  41  68  99 134 177 224 279 340 406
#     4  12  27  42  72 104 135 180 232 280 335 411
#     4  10  22  43  68  98 136 178 226 280 342 401
#     4  11  26  44  69 100 139 177 231 282 341 406
#     4  11  24  44  70  98 136 182 224 284 342 400
#
# _framework density 22.702359000000001
#
# number of rings (size 3 to 8) (size 9 to 14) (size 15 to 20)
#    0.000    1.143    2.857    2.143    8.000    3.429 
#    0.000    6.429    0.000    0.000    0.000    0.000 
#    0.000    0.000    0.000    0.000    0.000    0.000 
#
# Total GULP energy -78165.213074 kJ/mol
# GULP energy per Si atom -5583.229505 kJ/mol
# Density = 2.265069 g / cm^3
# Si number density = 22.702359 Si / 1000 Ang^3
#
#
#
# Elastic Constant Matrix: (Units=GPa)
#
#
# Indices 1 2 3 4 5 6 
#
# 1 79.0483 13.8880 23.3144 11.8484 9.5973 -5.2191
# 2 13.8880 90.6269 24.5447 8.3234 -1.4853 -1.1162
# 3 23.3144 24.5447 64.8013 10.5474 4.5936 -3.4178
# 4 11.8484 8.3234 10.5474 29.3743 -5.5218 -14.9616
# 5 9.5973 -1.4853 4.5936 -5.5218 43.5100 1.3159
# 6 -5.2191 -1.1162 -3.4178 -14.9616 1.3159 50.9218
#
#
#
# Elastic Compliance Matrix: (Units=1/GPa)
#
#
# Indices 1 2 3 4 5 6 
#
# 1 0.015199 -0.000811 -0.004068 -0.005205 -0.003606 -0.000169
# 2 -0.000811 0.012480 -0.004224 -0.001875 0.000833 -0.000665
# 3 -0.004068 -0.004224 0.019373 -0.004756 -0.001879 -0.000558
# 4 -0.005205 -0.001875 -0.004756 0.046051 0.007054 0.012455
# 5 -0.003606 0.000833 -0.001879 0.007054 0.024872 0.000952
# 6 -0.000169 -0.000665 -0.000558 0.012455 0.000952 0.023203
#
#
# Mechanical properties :
#
#
# Convention : Reuss Voigt Hill
#
# Bulk Modulus (GPa) = 34.66522 39.77451 37.21987
# Shear Modulus (GPa) = 29.58571 36.27652 32.93112
#
# Velocity S-wave (km/s) = 3.61390 4.00173 3.81275
# Velocity P-wave (km/s) = 5.71982 6.23778 5.98440
#
# Compressibility (1/GPa) = 0.02884736
#
# Stress axis : x y z
#
# Youngs Moduli (GPa) = 65.79211 80.12663 51.61773
#
# Poissons Ratio (x) = 0.06496 0.20996
# Poissons Ratio (y) = 0.05334 0.21805
# Poissons Ratio (z) = 0.26761 0.33849
#
# Static dielectric constant tensor:
#      x y z
#    x 1.825340 -0.003210 -0.047370 
#    y -0.003210 1.850270 -0.028820 
#    z -0.047370 -0.028820 1.960050 
# 
# From -- ./inp_files/37129.got.cif
#   From: 2010.05.17/outbox.cif.g08.bks.cpg/sg2_19_cif.got.tgz:37129.got - 2010.06.03 11:33:40.
