data_PCOD9031969
_publ_section_title
;
Structure prediction by ZEFSAII (Michael W. Deem and Ramdas Pophale) SiO2 
 PCOD9031969
Probable space group: P -1
;
_chemical_formula_sum "Si O2"
_cell_formula_units_Z 14
_cell_length_a 21.278670
_cell_length_b 7.790462
_cell_length_c 9.058289
_cell_angle_alpha 119.444177
_cell_angle_beta 149.098437
_cell_angle_gamma 52.469388
_cell_volume 609.767938
_symmetry_space_group_name_H-M "P -1"
_symmetry_group_IT_number 2
_symmetry_cell_setting 'triclinic'
loop_
_space_group_symop_operation_xyz
x,y,z
-x,-y,-z
loop_
_atom_site_type_symbol
_atom_site_label
_atom_site_fract_x
_atom_site_fract_y
_atom_site_fract_z
Si Si1 0.047546 0.541331 0.954031
Si Si2 0.135967 0.059708 0.406712
Si Si3 0.302982 0.542769 0.585648
Si Si4 0.380878 0.971237 0.667157
Si Si5 0.075656 0.150040 0.659847
Si Si6 0.621266 0.039130 0.681861
Si Si7 0.537886 0.482149 0.835084
O O1 0.012788 0.389637 0.706628
O O2 0.987954 0.792967 0.888509
O O3 0.205445 0.465509 0.266767
O O4 0.000000 0.500000 0.000000
O O5 0.079042 0.157400 0.493150
O O6 0.221120 0.803955 0.510094
O O7 0.251431 0.093214 0.559230
O O8 0.447907 0.428151 0.751901
O O9 0.338650 0.507108 0.816902
O O10 0.365400 0.032266 0.491369
O O11 0.432502 0.711842 0.662156
O O12 0.500000 0.000000 0.000000
O O13 0.000000 0.000000 0.500000
O O14 0.232521 0.057736 0.986427
O O15 0.582122 0.296551 0.725426
O O16 0.500000 0.000000 0.500000
#
# Coordination Sequence:
#
# PCOD9031969 Si02
#       7
#     2   2   2   2   2   2   2
#     4  12  26  42  70 103 139 186 235 285 353 421
#     4  11  24  47  68 102 142 186 231 294 350 418
#     4  10  22  43  69 101 134 184 230 289 346 414
#     4  11  26  42  72 107 140 184 236 293 351 420
#     4  12  27  46  71 105 146 187 235 292 351 423
#     4  12  25  46  72 104 143 186 238 288 352 420
#     4  10  23  42  70  99 140 178 232 287 351 409
#
# _framework density 22.959555000000002
#
# number of rings (size 3 to 8) (size 9 to 14) (size 15 to 20)
#    0.000    0.857    1.429    4.714    8.000    2.286 
#    0.000    2.857    0.000    0.000    0.000    0.000 
#    0.000    0.000    0.000    0.000    0.000    0.000 
#
# Total GULP energy -78054.993430 kJ/mol
# GULP energy per Si atom -5575.356674 kJ/mol
# Density = 2.290730 g / cm^3
# Si number density = 22.959555 Si / 1000 Ang^3
#
#
#
# Elastic Constant Matrix: (Units=GPa)
#
#
# Indices 1 2 3 4 5 6 
#
# 1 131.5983 14.0232 37.4533 -0.4809 -21.3223 -3.4740
# 2 14.0232 105.8248 -10.9518 -7.3228 -8.7381 4.3881
# 3 37.4533 -10.9518 107.6850 -17.8984 1.6034 8.6731
# 4 -0.4809 -7.3228 -17.8984 36.7215 -0.3838 -5.2931
# 5 -21.3223 -8.7381 1.6034 -0.3838 35.8982 -1.5126
# 6 -3.4740 4.3881 8.6731 -5.2931 -1.5126 30.6333
#
#
#
# Elastic Compliance Matrix: (Units=1/GPa)
#
#
# Indices 1 2 3 4 5 6 
#
# 1 0.009959 -0.001502 -0.004204 -0.001795 0.005824 0.002512
# 2 -0.001502 0.010260 0.002153 0.002848 0.001468 -0.001685
# 3 -0.004204 0.002153 0.012247 0.005830 -0.002600 -0.003374
# 4 -0.001795 0.002848 0.005830 0.031063 -0.000171 0.003097
# 5 0.005824 0.001468 -0.002600 -0.000171 0.031903 0.002732
# 6 0.002512 -0.001685 -0.003374 0.003097 0.002732 0.034796
#
#
# Mechanical properties :
#
#
# Convention : Reuss Voigt Hill
#
# Bulk Modulus (GPa) = 39.43314 47.35085 43.39199
# Shear Modulus (GPa) = 34.29697 40.95616 37.62656
#
# Velocity S-wave (km/s) = 3.86916 4.22813 4.05263
# Velocity P-wave (km/s) = 6.09696 6.67117 6.39052
#
# Compressibility (1/GPa) = 0.02535938
#
# Stress axis : x y z
#
# Youngs Moduli (GPa) = 100.41359 97.46900 81.65310
#
# Poissons Ratio (x) = 0.14642 0.34326
# Poissons Ratio (y) = 0.15085 -0.17581
# Poissons Ratio (z) = 0.42213 -0.20987
#
# Static dielectric constant tensor:
#      x y z
#    x 1.856070 0.062050 -0.009210 
#    y 0.062050 1.980180 0.069290 
#    z -0.009210 0.069290 1.679700 
# 
# From -- ./inp_files/343808.got.cif
#   From: 2010.05.17/outbox.cif.g08.bks.cpg/sg2_172_cif.got.tgz:343808.got - 2010.06.03 11:33:40.
