data_PCOD9031840
_publ_section_title
;
Structure prediction by ZEFSAII (Michael W. Deem and Ramdas Pophale) SiO2 
 PCOD9031840
Probable space group: P -1
;
_chemical_formula_sum "Si O2"
_cell_formula_units_Z 16
_cell_length_a 15.685671
_cell_length_b 4.978522
_cell_length_c 8.729611
_cell_angle_alpha 96.321131
_cell_angle_beta 110.338231
_cell_angle_gamma 92.387785
_cell_volume 632.981439
_symmetry_space_group_name_H-M "P -1"
_symmetry_group_IT_number 2
_symmetry_cell_setting 'triclinic'
loop_
_space_group_symop_operation_xyz
x,y,z
-x,-y,-z
loop_
_atom_site_type_symbol
_atom_site_label
_atom_site_fract_x
_atom_site_fract_y
_atom_site_fract_z
Si Si1 0.413110 0.024738 0.240988
Si Si2 0.024980 0.649420 0.682630
Si Si3 0.424002 0.276550 0.568290
Si Si4 0.212503 0.035023 0.163370
Si Si5 0.281181 0.915057 0.669066
Si Si6 0.167573 0.553722 0.330331
Si Si7 0.138315 0.188415 0.800821
Si Si8 0.450039 0.700651 0.868268
O O1 0.412839 0.267724 0.379614
O O2 0.307956 0.930643 0.161948
O O3 0.466808 0.087711 0.121292
O O4 0.476025 0.820181 0.345658
O O5 0.053902 0.965472 0.698955
O O6 0.000000 0.500000 0.500000
O O7 0.934026 0.585725 0.719325
O O8 0.108805 0.491598 0.788649
O O9 0.424428 0.546846 0.681415
O O10 0.348398 0.071205 0.595073
O O11 0.222523 0.307977 0.289384
O O12 0.165321 0.794809 0.221252
O O13 0.163641 0.122325 0.985618
O O14 0.215283 0.692705 0.520795
O O15 0.218020 0.118666 0.729069
O O16 0.349245 0.801632 0.831495
O O17 0.500000 0.500000 0.000000
#
# Coordination Sequence:
#
# PCOD9031840 Si02
#       8
#     2   2   2   2   2   2   2   2
#     4  10  23  41  66  99 137 191 237 293 350 430
#     4  12  27  50  78 110 147 192 245 303 375 438
#     4  10  22  43  68  95 141 187 245 288 353 425
#     4  12  28  46  76 112 149 189 242 306 369 430
#     4  11  26  44  73 106 141 195 252 294 358 443
#     4  12  27  49  78 106 145 195 246 303 365 448
#     4  12  29  47  78 112 149 190 243 311 370 441
#     4  11  26  40  67 102 150 191 236 303 362 419
#
# _framework density 25.277201000000002
#
# number of rings (size 3 to 8) (size 9 to 14) (size 15 to 20)
#    0.000    0.750    2.500    3.000    8.750    4.000 
#    0.000    0.000    0.000    0.000    0.000    0.000 
#    0.000    0.000    0.000    0.000    0.000    0.000 
#
# Total GULP energy -89547.722609 kJ/mol
# GULP energy per Si atom -5596.732663 kJ/mol
# Density = 2.521967 g / cm^3
# Si number density = 25.277201 Si / 1000 Ang^3
#
#
#
# Elastic Constant Matrix: (Units=GPa)
#
#
# Indices 1 2 3 4 5 6 
#
# 1 124.9621 26.2908 20.4450 -13.5121 -3.1598 -22.1520
# 2 26.2908 69.4535 -8.3140 -12.4820 -6.6338 -0.9273
# 3 20.4450 -8.3140 80.2374 -10.6148 -6.7333 -2.6324
# 4 -13.5121 -12.4820 -10.6148 43.5896 0.4882 -4.1459
# 5 -3.1598 -6.6338 -6.7333 0.4882 33.8237 -1.4601
# 6 -22.1520 -0.9273 -2.6324 -4.1459 -1.4601 33.0176
#
#
#
# Elastic Compliance Matrix: (Units=1/GPa)
#
#
# Indices 1 2 3 4 5 6 
#
# 1 0.010767 -0.003883 -0.002609 0.002275 0.000003 0.007193
# 2 -0.003883 0.017462 0.003673 0.004546 0.003681 -0.001088
# 3 -0.002609 0.003673 0.014274 0.003692 0.003269 0.000099
# 4 0.002275 0.004546 0.003692 0.026335 0.001689 0.005330
# 5 0.000003 0.003681 0.003269 0.001689 0.030998 0.001949
# 6 0.007193 -0.001088 0.000099 0.005330 0.001949 0.035845
#
#
# Mechanical properties :
#
#
# Convention : Reuss Voigt Hill
#
# Bulk Modulus (GPa) = 27.12486 39.05517 33.09001
# Shear Modulus (GPa) = 32.55050 37.83495 35.19272
#
# Velocity S-wave (km/s) = 3.59240 3.87305 3.73536
# Velocity P-wave (km/s) = 5.28786 5.95693 5.63233
#
# Compressibility (1/GPa) = 0.03686656
#
# Stress axis : x y z
#
# Youngs Moduli (GPa) = 92.87426 57.26776 70.05533
#
# Poissons Ratio (x) = 0.22237 0.18276
# Poissons Ratio (y) = 0.36064 -0.25734
# Poissons Ratio (z) = 0.24229 -0.21037
#
# Static dielectric constant tensor:
#      x y z
#    x 2.032960 -0.004530 0.002740 
#    y -0.004530 2.039470 0.074040 
#    z 0.002740 0.074040 2.062780 
# 
# From -- ./inp_files/289076.got.cif
#   From: 2010.05.17/outbox.cif.g08.bks.cpg/sg2_145_cif.got.tgz:289076.got - 2010.06.03 11:33:40.
