data_PCOD9031977
_publ_section_title
;
Structure prediction by ZEFSAII (Michael W. Deem and Ramdas Pophale) SiO2 
 PCOD9031977
Probable space group: P -1
;
_chemical_formula_sum "Si O2"
_cell_formula_units_Z 14
_cell_length_a 14.098270
_cell_length_b 22.413968
_cell_length_c 12.745862
_cell_angle_alpha 155.590755
_cell_angle_beta 148.396716
_cell_angle_gamma 20.458673
_cell_volume 581.743778
_symmetry_space_group_name_H-M "P -1"
_symmetry_group_IT_number 2
_symmetry_cell_setting 'triclinic'
loop_
_space_group_symop_operation_xyz
x,y,z
-x,-y,-z
loop_
_atom_site_type_symbol
_atom_site_label
_atom_site_fract_x
_atom_site_fract_y
_atom_site_fract_z
Si Si1 0.691706 0.219660 0.591224
Si Si2 0.715171 0.336708 0.185137
Si Si3 0.759975 0.698372 0.168720
Si Si4 0.693381 0.255737 0.258545
Si Si5 0.281449 0.248911 0.345943
Si Si6 0.010076 0.131264 0.938225
Si Si7 0.485443 0.165441 0.636218
O O1 0.546982 0.407729 0.670385
O O2 0.488201 0.207027 0.396315
O O3 0.753917 0.259010 0.825440
O O4 0.000000 0.000000 0.500000
O O5 0.822346 0.245266 0.256445
O O6 0.634543 0.226906 0.892553
O O7 0.928375 0.260378 0.176601
O O8 0.768528 0.671492 0.260069
O O9 0.681909 0.912292 0.433682
O O10 0.495861 0.764681 0.989648
O O11 0.000000 0.500000 0.000000
O O12 0.500000 0.500000 0.500000
O O13 0.860034 0.093731 0.254445
O O14 0.413662 0.186941 0.484054
O O15 0.000000 0.500000 0.500000
O O16 0.214765 0.120266 0.056679
#
# Coordination Sequence:
#
# PCOD9031977 Si02
#       7
#     2   2   2   2   2   2   2
#     4  12  27  48  73 106 149 191 244 313 372 437
#     4  11  23  45  73 100 140 197 241 294 372 440
#     4  10  23  42  67 102 144 189 235 300 373 436
#     4  11  25  42  66 109 143 181 240 306 369 435
#     4  12  24  45  75 103 139 191 248 296 360 446
#     4  12  24  45  74 103 141 189 247 291 369 445
#     4  10  22  43  69 101 141 188 241 298 366 438
#
# _framework density 24.065577000000001
#
# number of rings (size 3 to 8) (size 9 to 14) (size 15 to 20)
#    0.000    0.857    4.286    2.571    2.000    4.000 
#    2.571    0.000    0.000    0.000    0.000    0.000 
#    0.000    0.000    0.000    0.000    0.000    0.000 
#
# Total GULP energy -78177.964951 kJ/mol
# GULP energy per Si atom -5584.140354 kJ/mol
# Density = 2.401080 g / cm^3
# Si number density = 24.065577 Si / 1000 Ang^3
#
#
#
# Elastic Constant Matrix: (Units=GPa)
#
#
# Indices 1 2 3 4 5 6 
#
# 1 108.7010 34.6993 57.1292 11.2540 8.6692 -20.3856
# 2 34.6993 89.7802 36.0509 20.9963 18.7349 -5.1752
# 3 57.1292 36.0509 86.4932 19.9636 26.0231 -11.9016
# 4 11.2540 20.9963 19.9636 47.3586 -6.9931 -2.6646
# 5 8.6692 18.7349 26.0231 -6.9931 45.5038 5.5315
# 6 -20.3856 -5.1752 -11.9016 -2.6646 5.5315 44.3363
#
#
#
# Elastic Compliance Matrix: (Units=1/GPa)
#
#
# Indices 1 2 3 4 5 6 
#
# 1 0.015858 -0.003280 -0.010631 0.003028 0.004426 0.003685
# 2 -0.003280 0.015690 -0.000787 -0.006774 -0.006489 0.000515
# 3 -0.010631 -0.000787 0.026026 -0.010052 -0.014470 0.003208
# 4 0.003028 -0.006774 -0.010052 0.029406 0.012713 -0.001916
# 5 0.004426 -0.006489 -0.014470 0.012713 0.034785 -0.006182
# 6 0.003685 0.000515 0.003208 -0.001916 -0.006182 0.025826
#
#
# Mechanical properties :
#
#
# Convention : Reuss Voigt Hill
#
# Bulk Modulus (GPa) = 35.48674 60.08147 47.78411
# Shear Modulus (GPa) = 26.82694 37.91275 32.36985
#
# Velocity S-wave (km/s) = 3.34240 3.97343 3.67150
# Velocity P-wave (km/s) = 5.44733 6.78755 6.15403
#
# Compressibility (1/GPa) = 0.02817954
#
# Stress axis : x y z
#
# Youngs Moduli (GPa) = 63.05846 63.73612 38.42247
#
# Poissons Ratio (x) = 0.20903 0.40847
# Poissons Ratio (y) = 0.20681 0.03023
# Poissons Ratio (z) = 0.67038 0.05014
#
# Static dielectric constant tensor:
#      x y z
#    x 2.099490 -0.071760 -0.006970 
#    y -0.071760 1.919900 0.005570 
#    z -0.006970 0.005570 1.947090 
# 
# From -- ./inp_files/535455.got.cif
#   From: 2010.05.17/outbox.cif.g08.bks.cpg/sg2_268_cif.got.tgz:535455.got - 2010.06.03 11:33:40.
