data_PCOD9031687
_publ_section_title
;
Structure prediction by ZEFSAII (Michael W. Deem and Ramdas Pophale) SiO2 
 PCOD9031687
Probable space group: P -1
;
_chemical_formula_sum "Si O2"
_cell_formula_units_Z 16
_cell_length_a 14.401892
_cell_length_b 11.813856
_cell_length_c 9.145117
_cell_angle_alpha 96.077010
_cell_angle_beta 102.960790
_cell_angle_gamma 28.393792
_cell_volume 706.881780
_symmetry_space_group_name_H-M "P -1"
_symmetry_group_IT_number 2
_symmetry_cell_setting 'triclinic'
loop_
_space_group_symop_operation_xyz
x,y,z
-x,-y,-z
loop_
_atom_site_type_symbol
_atom_site_label
_atom_site_fract_x
_atom_site_fract_y
_atom_site_fract_z
Si Si1 0.426210 0.945855 0.208628
Si Si2 0.575120 0.289236 0.656567
Si Si3 0.194577 0.753058 0.125389
Si Si4 0.138369 0.759156 0.438749
Si Si5 0.952245 0.454125 0.150935
Si Si6 0.688852 0.882824 0.314111
Si Si7 0.618447 0.677509 0.932391
Si Si8 0.062454 0.207749 0.434142
O O1 0.459524 0.793365 0.284576
O O2 0.557962 0.910393 0.315087
O O3 0.499690 0.848254 0.055894
O O4 0.186738 0.224003 0.167175
O O5 0.653490 0.303198 0.795848
O O6 0.370899 0.535584 0.534726
O O7 0.762120 0.066228 0.584224
O O8 0.120780 0.784869 0.261919
O O9 0.314132 0.523667 0.060906
O O10 0.000000 0.000000 0.000000
O O11 0.071465 0.708759 0.476922
O O12 0.000000 0.000000 0.500000
O O13 0.838572 0.681722 0.210995
O O14 0.946308 0.364491 0.266528
O O15 0.822470 0.538454 0.984843
O O16 0.825450 0.796583 0.472985
O O17 0.527447 0.144046 0.230997
#
# Coordination Sequence:
#
# PCOD9031687 Si02
#       8
#     2   2   2   2   2   2   2   2
#     4  10  23  43  71  97 138 184 221 285 352 397
#     4  11  25  46  70 101 141 182 232 286 342 418
#     4  12  27  47  72 105 142 182 237 288 340 418
#     4  12  26  44  73  96 138 188 225 283 353 397
#     4  10  22  43  67  99 137 178 227 280 343 418
#     4  11  24  40  68 101 137 177 229 289 337 411
#     4  11  25  43  65  99 140 178 231 283 342 407
#     4  11  24  44  69 101 136 175 233 281 344 413
#
# _framework density 22.634620999999999
#
# number of rings (size 3 to 8) (size 9 to 14) (size 15 to 20)
#    0.000    1.000    1.250    6.000    3.500    8.500 
#    0.000    0.000    0.000    0.000    0.000    0.000 
#    0.000    0.000    0.000    0.000    0.000    0.000 
#
# Total GULP energy -89601.160180 kJ/mol
# GULP energy per Si atom -5600.072511 kJ/mol
# Density = 2.258310 g / cm^3
# Si number density = 22.634621 Si / 1000 Ang^3
#
#
#
# Elastic Constant Matrix: (Units=GPa)
#
#
# Indices 1 2 3 4 5 6 
#
# 1 117.3073 21.5746 28.6227 -1.5915 -1.3353 1.1625
# 2 21.5746 124.1080 23.6681 -24.2287 16.8510 7.3041
# 3 28.6227 23.6681 87.9785 -23.7051 0.9803 -4.0626
# 4 -1.5915 -24.2287 -23.7051 30.9228 8.8482 1.6035
# 5 -1.3353 16.8510 0.9803 8.8482 42.5836 3.3514
# 6 1.1625 7.3041 -4.0626 1.6035 3.3514 35.7872
#
#
#
# Elastic Compliance Matrix: (Units=1/GPa)
#
#
# Indices 1 2 3 4 5 6 
#
# 1 0.009867 -0.002216 -0.003983 -0.004931 0.002327 -0.000318
# 2 -0.002216 0.011650 0.000708 0.011655 -0.006953 -0.002097
# 3 -0.003983 0.000708 0.016322 0.013863 -0.003785 0.001571
# 4 -0.004931 0.011655 0.013863 0.056719 -0.016744 -0.001618
# 5 0.002327 -0.006953 -0.003785 -0.016744 0.029964 -0.001142
# 6 -0.000318 -0.002097 0.001571 -0.001618 -0.001142 0.028739
#
#
# Mechanical properties :
#
#
# Convention : Reuss Voigt Hill
#
# Bulk Modulus (GPa) = 37.23473 53.01386 45.12429
# Shear Modulus (GPa) = 28.86913 38.89395 33.88154
#
# Velocity S-wave (km/s) = 3.57521 4.14978 3.87316
# Velocity P-wave (km/s) = 5.79041 6.81420 6.32306
#
# Compressibility (1/GPa) = 0.02685665
#
# Stress axis : x y z
#
# Youngs Moduli (GPa) = 101.35064 85.83382 61.26701
#
# Poissons Ratio (x) = 0.19017 0.24404
# Poissons Ratio (y) = 0.22455 -0.04335
# Poissons Ratio (z) = 0.40370 -0.06073
#
# Static dielectric constant tensor:
#      x y z
#    x 1.864110 0.007630 -0.029320 
#    y 0.007630 1.820550 0.002720 
#    z -0.029320 0.002720 1.819560 
# 
# From -- ./inp_files/307577.got.cif
#   From: 2010.05.17/outbox.cif.g08.bks.cpg/sg2_154_cif.got.tgz:307577.got - 2010.06.03 11:33:40.
