data_PCOD9031030
_publ_section_title
;
Structure prediction by ZEFSAII (Michael W. Deem and Ramdas Pophale) SiO2 
 PCOD9031030
Probable space group: P -1
;
_chemical_formula_sum "Si O2"
_cell_formula_units_Z 16
_cell_length_a 8.704930
_cell_length_b 16.863880
_cell_length_c 16.448429
_cell_angle_alpha 33.645909
_cell_angle_beta 48.832158
_cell_angle_gamma 75.151207
_cell_volume 719.776152
_symmetry_space_group_name_H-M "P -1"
_symmetry_group_IT_number 2
_symmetry_cell_setting 'triclinic'
loop_
_space_group_symop_operation_xyz
x,y,z
-x,-y,-z
loop_
_atom_site_type_symbol
_atom_site_label
_atom_site_fract_x
_atom_site_fract_y
_atom_site_fract_z
Si Si1 0.830751 0.994491 0.234517
Si Si2 0.222316 0.335103 0.535940
Si Si3 0.644951 0.832524 0.785899
Si Si4 0.972306 0.598385 0.614783
Si Si5 0.220040 0.794374 0.646865
Si Si6 0.164851 0.326303 0.246863
Si Si7 0.812462 0.593653 0.332446
Si Si8 0.160868 0.242781 0.062008
O O1 0.856708 0.869367 0.274696
O O2 0.499060 0.834393 0.515855
O O3 0.025275 0.089554 0.166097
O O4 0.951679 0.194566 0.976502
O O5 0.089697 0.350952 0.490747
O O6 0.124699 0.354997 0.637732
O O7 0.566185 0.526550 0.252424
O O8 0.831614 0.830394 0.659185
O O9 0.718227 0.807064 0.870652
O O10 0.663707 0.006293 0.608941
O O11 0.317322 0.624192 0.067692
O O12 0.015857 0.729968 0.561552
O O13 0.187202 0.573299 0.549114
O O14 0.954642 0.626573 0.822536
O O15 0.082054 0.777288 0.794036
O O16 0.500000 0.500000 0.000000
O O17 0.500000 0.500000 0.500000
#
# Coordination Sequence:
#
# PCOD9031030 Si02
#       8
#     2   2   2   2   2   2   2   2
#     4  12  26  44  70 101 139 183 224 284 348 407
#     4  11  26  45  70  99 133 180 236 283 336 406
#     4   9  19  39  67  98 138 177 220 270 336 414
#     4  10  22  43  72  97 130 180 228 282 337 399
#     4  11  22  39  67 102 142 177 221 276 343 414
#     4   9  19  35  63 102 130 170 220 266 330 406
#     4  12  25  49  71  92 139 184 228 293 347 386
#     4  10  22  43  64 101 142 178 216 284 339 404
#
# _framework density 22.229133999999998
#
# number of rings (size 3 to 8) (size 9 to 14) (size 15 to 20)
#    0.000    1.500    2.500    3.375    5.250    0.500 
#    0.000    0.625    0.000    0.000    0.000    0.000 
#    0.000    0.000    0.000    0.000    0.000    0.000 
#
# Total GULP energy -89301.184799 kJ/mol
# GULP energy per Si atom -5581.324050 kJ/mol
# Density = 2.217854 g / cm^3
# Si number density = 22.229134 Si / 1000 Ang^3
#
#
#
# Elastic Constant Matrix: (Units=GPa)
#
#
# Indices 1 2 3 4 5 6 
#
# 1 40.3368 48.9949 5.6817 -2.2403 -13.7203 -5.3863
# 2 48.9949 139.4013 0.7008 1.6775 0.2831 13.8877
# 3 5.6817 0.7008 55.3812 -2.9619 -2.4082 1.5178
# 4 -2.2403 1.6775 -2.9619 33.3339 0.9395 -2.2083
# 5 -13.7203 0.2831 -2.4082 0.9395 29.0899 2.3969
# 6 -5.3863 13.8877 1.5178 -2.2083 2.3969 36.6838
#
#
#
# Elastic Compliance Matrix: (Units=1/GPa)
#
#
# Indices 1 2 3 4 5 6 
#
# 1 0.073904 -0.028075 -0.006014 0.006244 0.032786 0.019962
# 2 -0.028075 0.018132 0.002246 -0.002946 -0.012275 -0.010455
# 3 -0.006014 0.002246 0.018715 0.001021 -0.001147 -0.002371
# 4 0.006244 -0.002946 0.001021 0.030856 0.001754 0.003733
# 5 0.032786 -0.012275 -0.001147 0.001754 0.049281 0.006394
# 6 0.019962 -0.010455 -0.002371 0.003733 0.006394 0.034054
#
#
# Mechanical properties :
#
#
# Convention : Reuss Voigt Hill
#
# Bulk Modulus (GPa) = 21.24763 38.43045 29.83904
# Shear Modulus (GPa) = 16.43035 31.80431 24.11733
#
# Velocity S-wave (km/s) = 2.72165 3.78663 3.29742
# Velocity P-wave (km/s) = 4.41087 6.03688 5.28676
#
# Compressibility (1/GPa) = 0.04706407
#
# Stress axis : x y z
#
# Youngs Moduli (GPa) = 13.53113 55.15255 53.43318
#
# Poissons Ratio (x) = 1.54840 0.32135
# Poissons Ratio (y) = 0.37988 -0.12001
# Poissons Ratio (z) = 0.08138 -0.12387
#
# Static dielectric constant tensor:
#      x y z
#    x 1.855980 0.018710 -0.046760 
#    y 0.018710 1.860940 -0.021520 
#    z -0.046760 -0.021520 1.879470 
# 
# From -- ./inp_files/505236.got.cif
#   From: 2010.05.17/outbox.cif.g08.bks.cpg/sg2_253_cif.got.tgz:505236.got - 2010.06.03 11:33:40.
