data_PCOD9031087
_publ_section_title
;
Structure prediction by ZEFSAII (Michael W. Deem and Ramdas Pophale) SiO2 
 PCOD9031087
Probable space group: P -1
;
_chemical_formula_sum "Si O2"
_cell_formula_units_Z 12
_cell_length_a 7.138428
_cell_length_b 9.329808
_cell_length_c 23.100305
_cell_angle_alpha 31.127789
_cell_angle_beta 44.219460
_cell_angle_gamma 64.650097
_cell_volume 475.755167
_symmetry_space_group_name_H-M "P -1"
_symmetry_group_IT_number 2
_symmetry_cell_setting 'triclinic'
loop_
_space_group_symop_operation_xyz
x,y,z
-x,-y,-z
loop_
_atom_site_type_symbol
_atom_site_label
_atom_site_fract_x
_atom_site_fract_y
_atom_site_fract_z
Si Si1 0.140723 0.139674 0.239608
Si Si2 0.455330 0.295150 0.422542
Si Si3 0.570818 0.872595 0.929306
Si Si4 0.207411 0.136733 0.770078
Si Si5 0.256325 0.744581 0.811673
Si Si6 0.705975 0.718236 0.107631
O O1 0.321002 0.025506 0.196500
O O2 0.920883 0.205140 0.220987
O O3 0.370914 0.483545 0.099921
O O4 0.912588 0.867500 0.428479
O O5 0.625484 0.499264 0.371468
O O6 0.612463 0.537394 0.251264
O O7 0.500000 0.000000 0.500000
O O8 0.384723 0.010935 0.956670
O O9 0.892965 0.025392 0.841179
O O10 0.417193 0.061580 0.706646
O O11 0.060065 0.908874 0.938678
O O12 0.442905 0.581628 0.801177
O O13 0.000000 0.500000 0.000000
#
# Coordination Sequence:
#
# PCOD9031087 Si02
#       6
#     2   2   2   2   2   2
#     4  10  22  43  64  96 132 168 207 266 330 366
#     4  12  24  40  69  95 132 164 218 269 312 377
#     4  10  23  42  69  91 132 169 213 263 320 386
#     4  10  23  43  68  94 125 173 215 261 319 381
#     4   9  20  37  65  94 121 163 220 258 300 383
#     4  11  22  40  67  97 125 172 217 257 318 383
#
# _framework density 25.223054999999999
#
# number of rings (size 3 to 8) (size 9 to 14) (size 15 to 20)
#    0.000    1.667    1.667    2.000    4.667    3.333 
#    0.000    3.333    3.667    0.000    0.000    0.000 
#    0.000    0.000    0.000    0.000    0.000    0.000 
#
# Total GULP energy -67004.942839 kJ/mol
# GULP energy per Si atom -5583.745237 kJ/mol
# Density = 2.516565 g / cm^3
# Si number density = 25.223055 Si / 1000 Ang^3
#
#
#
# Elastic Constant Matrix: (Units=GPa)
#
#
# Indices 1 2 3 4 5 6 
#
# 1 61.7302 45.2551 35.2333 5.2954 -9.9316 23.2302
# 2 45.2551 291.2542 60.6064 -8.7796 -21.8351 22.3817
# 3 35.2333 60.6064 79.4818 -9.5315 -19.2808 22.5440
# 4 5.2954 -8.7796 -9.5315 45.2871 4.8049 -8.6764
# 5 -9.9316 -21.8351 -19.2808 4.8049 25.5871 1.7760
# 6 23.2302 22.3817 22.5440 -8.6764 1.7760 37.0579
#
#
#
# Elastic Compliance Matrix: (Units=1/GPa)
#
#
# Indices 1 2 3 4 5 6 
#
# 1 0.028962 -0.001664 -0.006236 -0.008889 0.007890 -0.015816
# 2 -0.001664 0.004254 -0.002052 0.000392 0.001382 -0.000252
# 3 -0.006236 -0.002052 0.022938 0.002023 0.013356 -0.008972
# 4 -0.008889 0.000392 0.002023 0.026436 -0.007294 0.010643
# 5 0.007890 0.001382 0.013356 -0.007294 0.056027 -0.018298
# 6 -0.015816 -0.000252 -0.008972 0.010643 -0.018298 0.045878
#
#
# Mechanical properties :
#
#
# Convention : Reuss Voigt Hill
#
# Bulk Modulus (GPa) = 27.58633 79.40622 53.49628
# Shear Modulus (GPa) = 23.09656 41.01117 32.05386
#
# Velocity S-wave (km/s) = 3.02932 4.03667 3.56872
# Velocity P-wave (km/s) = 4.81627 7.29906 6.18355
#
# Compressibility (1/GPa) = 0.03624983
#
# Stress axis : x y z
#
# Youngs Moduli (GPa) = 34.52789 235.08551 43.59557
#
# Poissons Ratio (x) = 0.39108 0.27186
# Poissons Ratio (y) = 0.05744 0.08948
# Poissons Ratio (z) = 0.21532 0.48251
#
# Static dielectric constant tensor:
#      x y z
#    x 2.144600 -0.022100 0.028600 
#    y -0.022100 2.079680 -0.041470 
#    z 0.028600 -0.041470 2.007990 
# 
# From -- ./inp_files/194621.got.cif
#   From: 2010.05.17/outbox.cif.g08.bks.cpg/sg2_98_cif.got.tgz:194621.got - 2010.06.03 11:33:40.
