data_PCOD9031873
_publ_section_title
;
Structure prediction by ZEFSAII (Michael W. Deem and Ramdas Pophale) SiO2 
 PCOD9031873
Probable space group: P -1
;
_chemical_formula_sum "Si O2"
_cell_formula_units_Z 15
_cell_length_a 6.769651
_cell_length_b 16.556232
_cell_length_c 9.056244
_cell_angle_alpha 111.175551
_cell_angle_beta 51.801748
_cell_angle_gamma 125.144977
_cell_volume 652.241232
_symmetry_space_group_name_H-M "P -1"
_symmetry_group_IT_number 2
_symmetry_cell_setting 'triclinic'
loop_
_space_group_symop_operation_xyz
x,y,z
-x,-y,-z
loop_
_atom_site_type_symbol
_atom_site_label
_atom_site_fract_x
_atom_site_fract_y
_atom_site_fract_z
Si Si1 0.227965 0.010707 0.777831
Si Si2 0.465546 0.228675 0.782708
Si Si3 0.893319 0.711407 0.436099
Si Si4 0.959604 0.586566 0.760821
Si Si5 0.480271 0.606537 0.334321
Si Si6 0.133378 0.933845 0.456602
Si Si7 0.628558 0.683264 0.855934
Si Si8 0.000000 0.500000 0.000000
O O1 0.326472 0.116652 0.724000
O O2 0.527120 0.020320 0.706642
O O3 0.116976 0.933579 0.643675
O O4 0.000000 0.000000 0.000000
O O5 0.390020 0.299280 0.768908
O O6 0.807756 0.279473 0.647797
O O7 0.391171 0.230264 0.990103
O O8 0.737017 0.620047 0.333294
O O9 0.705077 0.694309 0.656597
O O10 0.970566 0.819053 0.407381
O O11 0.695442 0.490560 0.743751
O O12 0.875675 0.670452 0.818037
O O13 0.245706 0.608645 0.554119
O O14 0.996801 0.564598 0.896578
O O15 0.000000 0.000000 0.500000
O O16 0.320930 0.588167 0.954431
#
# Coordination Sequence:
#
# PCOD9031873 Si02
#       8
#     2   2   2   2   2   2   2   1
#     4  10  22  43  68  97 134 174 214 277 339 398
#     4  11  24  42  65  96 131 169 224 270 325 394
#     4  11  24  43  67  95 135 170 218 273 329 388
#     4  11  25  42  66  90 133 175 221 270 328 382
#     4  11  23  42  63  96 127 178 220 269 322 382
#     4  10  22  43  70  99 131 175 221 269 336 407
#     4  12  25  42  65  96 130 175 220 269 328 387
#     4  12  24  42  60  92 126 172 218 268 326 380
#
# _framework density 22.997626
#
# number of rings (size 3 to 8) (size 9 to 14) (size 15 to 20)
#    0.000    1.067    4.000    2.000    1.867    1.067 
#    2.400    0.000    0.000    0.000    0.000    0.000 
#    0.000    0.000    0.000    0.000    0.000    0.000 
#
# Total GULP energy -83647.064902 kJ/mol
# GULP energy per Si atom -5576.470993 kJ/mol
# Density = 2.294528 g / cm^3
# Si number density = 22.997626 Si / 1000 Ang^3
#
#
#
# Elastic Constant Matrix: (Units=GPa)
#
#
# Indices 1 2 3 4 5 6 
#
# 1 64.5926 2.2003 26.6256 -9.5683 2.6241 0.1340
# 2 2.2003 17.0309 11.9962 -3.9979 2.6682 7.5712
# 3 26.6256 11.9962 101.3446 4.5582 -3.0449 16.0463
# 4 -9.5683 -3.9979 4.5582 24.7548 2.6486 4.0554
# 5 2.6241 2.6682 -3.0449 2.6486 31.0224 2.8145
# 6 0.1340 7.5712 16.0463 4.0554 2.8145 31.8892
#
#
#
# Elastic Compliance Matrix: (Units=1/GPa)
#
#
# Indices 1 2 3 4 5 6 
#
# 1 0.019521 0.004227 -0.006359 0.009582 -0.003567 0.001210
# 2 0.004227 0.077106 -0.008874 0.019138 -0.008081 -0.015580
# 3 -0.006359 -0.008874 0.013645 -0.006083 0.003547 -0.004272
# 4 0.009582 0.019138 -0.006083 0.050225 -0.006677 -0.007321
# 5 -0.003567 -0.008081 0.003547 -0.006677 0.034334 -0.002032
# 6 0.001210 -0.015580 -0.004272 -0.007321 -0.002032 0.038312
#
#
# Mechanical properties :
#
#
# Convention : Reuss Voigt Hill
#
# Bulk Modulus (GPa) = 11.33020 29.40134 20.36577
# Shear Modulus (GPa) = 17.57012 27.00969 22.28991
#
# Velocity S-wave (km/s) = 2.76705 3.43075 3.11662
# Velocity P-wave (km/s) = 3.89180 5.33907 4.67182
#
# Compressibility (1/GPa) = 0.08825972
#
# Stress axis : x y z
#
# Youngs Moduli (GPa) = 51.22805 12.96915 73.28756
#
# Poissons Ratio (x) = -0.05482 0.46601
# Poissons Ratio (y) = -0.21655 0.65038
# Poissons Ratio (z) = 0.32574 0.11509
#
# Static dielectric constant tensor:
#      x y z
#    x 1.856270 -0.016650 -0.029930 
#    y -0.016650 1.821350 0.016430 
#    z -0.029930 0.016430 1.877690 
# 
# From -- ./inp_files/117477.got.cif
#   From: 2010.05.17/outbox.cif.g08.bks.cpg/sg2_59_cif.got.tgz:117477.got - 2010.06.03 11:33:40.
