data_PCOD9031733
_publ_section_title
;
Structure prediction by ZEFSAII (Michael W. Deem and Ramdas Pophale) SiO2 
 PCOD9031733
Probable space group: P -1
;
_chemical_formula_sum "Si O2"
_cell_formula_units_Z 16
_cell_length_a 9.247572
_cell_length_b 6.001298
_cell_length_c 18.193770
_cell_angle_alpha 114.295088
_cell_angle_beta 59.484614
_cell_angle_gamma 125.304129
_cell_volume 699.817965
_symmetry_space_group_name_H-M "P -1"
_symmetry_group_IT_number 2
_symmetry_cell_setting 'triclinic'
loop_
_space_group_symop_operation_xyz
x,y,z
-x,-y,-z
loop_
_atom_site_type_symbol
_atom_site_label
_atom_site_fract_x
_atom_site_fract_y
_atom_site_fract_z
Si Si1 0.066700 0.984165 0.672201
Si Si2 0.908570 0.711579 0.531608
Si Si3 0.551589 0.493032 0.189278
Si Si4 0.202898 0.773294 0.974524
Si Si5 0.845772 0.104731 0.153230
Si Si6 0.372929 0.588842 0.683185
Si Si7 0.195469 0.162244 0.147217
Si Si8 0.637407 0.234217 0.440912
O O1 0.232893 0.283567 0.648376
O O2 0.182313 0.812940 0.634791
O O3 0.917040 0.834508 0.626492
O O4 0.952477 0.008247 0.773767
O O5 0.724283 0.510096 0.505323
O O6 0.000000 0.500000 0.500000
O O7 0.000000 0.000000 0.500000
O O8 0.641721 0.315458 0.103653
O O9 0.512721 0.428752 0.277591
O O10 0.365756 0.418552 0.178542
O O11 0.713329 0.808132 0.183522
O O12 0.178333 0.932624 0.932590
O O13 0.000000 0.500000 0.000000
O O14 0.253702 0.965123 0.058851
O O15 0.760709 0.299779 0.229508
O O16 0.064643 0.233098 0.136845
O O17 0.461616 0.764060 0.610351
O O18 0.500000 0.000000 0.500000
#
# Coordination Sequence:
#
# PCOD9031733 Si02
#       8
#     2   2   2   2   2   2   2   2
#     4  11  23  45  70  96 143 184 233 294 367 425
#     4  10  22  43  68 102 135 183 240 296 362 446
#     4  11  25  43  67 104 139 181 240 286 352 428
#     4  11  23  45  70  97 140 186 228 287 353 418
#     4  11  23  45  69  99 142 183 232 292 351 421
#     4  11  21  45  70  97 144 186 233 294 360 428
#     4  12  23  44  70  98 141 182 232 293 355 423
#     4  11  24  44  74 102 141 187 237 300 371 438
#
# _framework density 22.863088999999999
#
# number of rings (size 3 to 8) (size 9 to 14) (size 15 to 20)
#    0.000    1.000    5.000    1.500    0.000    3.000 
#   13.500    0.000    0.000    0.000    0.000    0.000 
#    0.000    0.000    0.000    0.000    0.000    0.000 
#
# Total GULP energy -89314.909262 kJ/mol
# GULP energy per Si atom -5582.181829 kJ/mol
# Density = 2.281105 g / cm^3
# Si number density = 22.863089 Si / 1000 Ang^3
#
#
#
# Elastic Constant Matrix: (Units=GPa)
#
#
# Indices 1 2 3 4 5 6 
#
# 1 113.1862 40.6183 41.2794 -0.1273 14.2763 13.4608
# 2 40.6183 85.0472 36.1636 5.7209 16.1297 7.6934
# 3 41.2794 36.1636 108.0711 -3.3467 36.5667 -1.8051
# 4 -0.1273 5.7209 -3.3467 38.2332 0.2192 6.7178
# 5 14.2763 16.1297 36.5667 0.2192 37.3495 6.3648
# 6 13.4608 7.6934 -1.8051 6.7178 6.3648 36.5564
#
#
#
# Elastic Compliance Matrix: (Units=1/GPa)
#
#
# Indices 1 2 3 4 5 6 
#
# 1 0.011990 -0.004112 -0.003787 0.001054 0.001612 -0.004211
# 2 -0.004112 0.015682 -0.003115 -0.002418 -0.001939 -0.001158
# 3 -0.003787 -0.003115 0.016778 0.001090 -0.014528 0.005208
# 4 0.001054 -0.002418 0.001090 0.027479 0.000251 -0.004919
# 5 0.001612 -0.001939 -0.014528 0.000251 0.042644 -0.008374
# 6 -0.004211 -0.001158 0.005208 -0.004919 -0.008374 0.031768
#
#
# Mechanical properties :
#
#
# Convention : Reuss Voigt Hill
#
# Bulk Modulus (GPa) = 44.59740 60.26970 52.43355
# Shear Modulus (GPa) = 28.43425 34.97738 31.70581
#
# Velocity S-wave (km/s) = 3.53040 3.91559 3.72797
# Velocity P-wave (km/s) = 6.01390 6.84550 6.44313
#
# Compressibility (1/GPa) = 0.02242283
#
# Stress axis : x y z
#
# Youngs Moduli (GPa) = 83.39956 63.76811 59.60067
#
# Poissons Ratio (x) = 0.26221 0.22571
# Poissons Ratio (y) = 0.34294 0.18565
# Poissons Ratio (z) = 0.31583 0.19863
#
# Static dielectric constant tensor:
#      x y z
#    x 1.930420 -0.080650 -0.017410 
#    y -0.080650 1.877900 -0.003610 
#    z -0.017410 -0.003610 1.864120 
# 
# From -- ./inp_files/553714.got.cif
#   From: 2010.05.17/outbox.cif.g08.bks.cpg/sg2_277_cif.got.tgz:553714.got - 2010.06.03 11:33:40.
