data_PCOD9031920
_publ_section_title
;
Structure prediction by ZEFSAII (Michael W. Deem and Ramdas Pophale) SiO2 
 PCOD9031920
Probable space group: P -1
;
_chemical_formula_sum "Si O2"
_cell_formula_units_Z 14
_cell_length_a 24.407660
_cell_length_b 8.496237
_cell_length_c 11.361548
_cell_angle_alpha 42.584238
_cell_angle_beta 146.035011
_cell_angle_gamma 153.151859
_cell_volume 594.417929
_symmetry_space_group_name_H-M "P -1"
_symmetry_group_IT_number 2
_symmetry_cell_setting 'triclinic'
loop_
_space_group_symop_operation_xyz
x,y,z
-x,-y,-z
loop_
_atom_site_type_symbol
_atom_site_label
_atom_site_fract_x
_atom_site_fract_y
_atom_site_fract_z
Si Si1 0.601832 0.673879 0.972683
Si Si2 0.540660 0.862017 0.559924
Si Si3 0.871071 0.378100 0.579396
Si Si4 0.870923 0.507136 0.016160
Si Si5 0.282887 0.352335 0.204965
Si Si6 0.112808 0.484032 0.221262
Si Si7 0.667195 0.377506 0.108031
O O1 0.668802 0.542221 0.135733
O O2 0.727393 0.089225 0.979940
O O3 0.500000 0.500000 0.000000
O O4 0.513911 0.589593 0.744128
O O5 0.438475 0.679315 0.364607
O O6 0.500000 0.000000 0.500000
O O7 0.710830 0.174710 0.656731
O O8 0.916693 0.627289 0.633260
O O9 0.781804 0.370739 0.331400
O O10 0.007434 0.458610 0.738797
O O11 0.765268 0.989692 0.656555
O O12 0.826767 0.648919 0.936153
O O13 0.910583 0.669220 0.865339
O O14 0.288622 0.395971 0.052062
O O15 0.000000 0.500000 0.000000
O O16 0.500000 0.000000 0.000000
#
# Coordination Sequence:
#
# PCOD9031920 Si02
#       7
#     2   2   2   2   2   2   2
#     4  11  24  43  68 101 133 172 230 282 332 407
#     4  11  21  39  70  95 126 177 222 273 339 398
#     4  11  25  43  69  97 137 183 220 278 352 398
#     4  10  22  43  68  99 134 177 229 277 336 409
#     4  12  23  43  69  99 139 175 229 280 336 410
#     4   9  19  38  63  94 128 170 221 272 326 396
#     4  12  27  43  65 100 139 176 224 284 337 404
#
# _framework density 23.552451999999999
#
# number of rings (size 3 to 8) (size 9 to 14) (size 15 to 20)
#    0.000    1.143    2.857    4.714    2.000    2.857 
#    0.000    1.429    0.000    0.000    0.000    0.000 
#    0.000    0.000    0.000    0.000    0.000    0.000 
#
# Total GULP energy -78220.420000 kJ/mol
# GULP energy per Si atom -5587.172857 kJ/mol
# Density = 2.349885 g / cm^3
# Si number density = 23.552452 Si / 1000 Ang^3
#
#
#
# Elastic Constant Matrix: (Units=GPa)
#
#
# Indices 1 2 3 4 5 6 
#
# 1 126.1103 20.6832 30.5102 5.3794 28.2358 -3.1043
# 2 20.6832 71.4274 27.0418 7.8725 0.8542 -10.2140
# 3 30.5102 27.0418 159.3571 19.8223 4.1368 7.5471
# 4 5.3794 7.8725 19.8223 39.9315 3.7802 2.6448
# 5 28.2358 0.8542 4.1368 3.7802 36.5260 -1.7852
# 6 -3.1043 -10.2140 7.5471 2.6448 -1.7852 28.1550
#
#
#
# Elastic Compliance Matrix: (Units=1/GPa)
#
#
# Indices 1 2 3 4 5 6 
#
# 1 0.010423 -0.002417 -0.001452 0.000532 -0.007886 0.000112
# 2 -0.002417 0.016868 -0.002483 -0.002446 0.002345 0.006897
# 3 -0.001452 -0.002483 0.007450 -0.002878 0.000500 -0.002756
# 4 0.000532 -0.002446 -0.002878 0.027352 -0.002997 -0.002817
# 5 -0.007886 0.002345 0.000500 -0.002997 0.033784 0.002271
# 6 0.000112 0.006897 -0.002756 -0.002817 0.002271 0.039179
#
#
# Mechanical properties :
#
#
# Convention : Reuss Voigt Hill
#
# Bulk Modulus (GPa) = 45.37792 57.04059 51.20925
# Shear Modulus (GPa) = 32.23608 39.49979 35.86794
#
# Velocity S-wave (km/s) = 3.70360 4.09968 3.90666
# Velocity P-wave (km/s) = 6.13167 6.83235 6.49147
#
# Compressibility (1/GPa) = 0.02203715
#
# Stress axis : x y z
#
# Youngs Moduli (GPa) = 95.94182 59.28439 134.22624
#
# Poissons Ratio (x) = 0.14328 0.19493
# Poissons Ratio (y) = 0.23187 0.33327
# Poissons Ratio (z) = 0.13933 0.14720
#
# Static dielectric constant tensor:
#      x y z
#    x 1.905140 -0.020010 -0.014770 
#    y -0.020010 1.943740 0.019560 
#    z -0.014770 0.019560 1.915920 
# 
# From -- ./inp_files/474397.got.cif
#   From: 2010.05.17/outbox.cif.g08.bks.cpg/sg2_238_cif.got.tgz:474397.got - 2010.06.03 11:33:40.
