data_PCOD9031578
_publ_section_title
;
Structure prediction by ZEFSAII (Michael W. Deem and Ramdas Pophale) SiO2 
 PCOD9031578
Probable space group: P -1
;
_chemical_formula_sum "Si O2"
_cell_formula_units_Z 16
_cell_length_a 11.888615
_cell_length_b 8.414566
_cell_length_c 20.311799
_cell_angle_alpha 70.852194
_cell_angle_beta 42.455527
_cell_angle_gamma 39.368880
_cell_volume 717.209946
_symmetry_space_group_name_H-M "P -1"
_symmetry_group_IT_number 2
_symmetry_cell_setting 'triclinic'
loop_
_space_group_symop_operation_xyz
x,y,z
-x,-y,-z
loop_
_atom_site_type_symbol
_atom_site_label
_atom_site_fract_x
_atom_site_fract_y
_atom_site_fract_z
Si Si1 0.270569 0.191479 0.512621
Si Si2 0.264011 0.594913 0.132208
Si Si3 0.785761 0.474974 0.252997
Si Si4 0.264315 0.405645 0.881384
Si Si5 0.771519 0.120215 0.773448
Si Si6 0.625728 0.787706 0.771238
Si Si7 0.310387 0.046722 0.744547
Si Si8 0.274587 0.806045 0.513276
O O1 0.952793 0.513715 0.634520
O O2 0.500000 0.000000 0.500000
O O3 0.405470 0.190417 0.395692
O O4 0.260065 0.009331 0.517033
O O5 0.197104 0.751261 0.207324
O O6 0.380086 0.317449 0.146151
O O7 0.963210 0.816482 0.190444
O O8 0.500000 0.500000 0.000000
O O9 0.842682 0.398861 0.161752
O O10 0.772283 0.686095 0.245166
O O11 0.460073 0.666651 0.384526
O O12 0.044637 0.180471 0.227347
O O13 0.422807 0.374249 0.875360
O O14 0.529438 0.057886 0.790649
O O15 0.000000 0.500000 0.000000
O O16 0.946004 0.010826 0.644383
O O17 0.403573 0.902372 0.795470
O O18 0.500000 0.500000 0.500000
#
# Coordination Sequence:
#
# PCOD9031578 Si02
#       8
#     2   2   2   2   2   2   2   2
#     4  11  19  38  68  98 131 166 217 268 328 391
#     4  12  27  42  65  97 130 176 217 270 334 381
#     4   9  22  42  68  95 125 173 215 260 322 386
#     4  11  27  44  66  94 129 178 226 260 313 391
#     4  11  23  43  66  94 130 168 214 272 327 380
#     4  11  24  44  66  98 128 173 221 270 327 388
#     4  10  22  43  67  94 132 171 218 268 322 391
#     4   9  19  37  64  97 130 161 209 266 327 382
#
# _framework density 22.308668999999998
#
# number of rings (size 3 to 8) (size 9 to 14) (size 15 to 20)
#    0.000    1.500    2.500    1.125    8.750    2.500 
#    0.000    0.000    0.000    0.000    0.000    0.000 
#    0.000    0.000    0.000    0.000    0.000    0.000 
#
# Total GULP energy -89400.680977 kJ/mol
# GULP energy per Si atom -5587.542561 kJ/mol
# Density = 2.225789 g / cm^3
# Si number density = 22.308669 Si / 1000 Ang^3
#
#
#
# Elastic Constant Matrix: (Units=GPa)
#
#
# Indices 1 2 3 4 5 6 
#
# 1 80.1114 11.9892 18.7332 4.0413 -23.9019 -27.7891
# 2 11.9892 27.0895 28.0303 -3.6195 -8.7731 -11.6871
# 3 18.7332 28.0303 91.5201 -14.6141 -21.4924 -14.7190
# 4 4.0413 -3.6195 -14.6141 27.5066 -3.2909 9.6432
# 5 -23.9019 -8.7731 -21.4924 -3.2909 32.5122 4.7075
# 6 -27.7891 -11.6871 -14.7190 9.6432 4.7075 33.5637
#
#
#
# Elastic Compliance Matrix: (Units=1/GPa)
#
#
# Indices 1 2 3 4 5 6 
#
# 1 0.024421 0.002215 -0.000358 -0.009323 0.014256 0.021512
# 2 0.002215 0.060708 -0.016398 -0.006562 0.004029 0.017102
# 3 -0.000358 -0.016398 0.019594 0.010013 0.009513 -0.001625
# 4 -0.009323 -0.006562 0.010013 0.050240 0.006106 -0.020904
# 5 0.014256 0.004029 0.009513 0.006106 0.047944 0.008899
# 6 0.021512 0.017102 -0.001625 -0.020904 0.008899 0.057606
#
#
# Mechanical properties :
#
#
# Convention : Reuss Voigt Hill
#
# Bulk Modulus (GPa) = 13.22057 35.13626 24.17842
# Shear Modulus (GPa) = 15.88272 28.04771 21.96522
#
# Velocity S-wave (km/s) = 2.67114 3.54963 3.14125
# Velocity P-wave (km/s) = 3.93095 5.70824 4.90084
#
# Compressibility (1/GPa) = 0.07563968
#
# Stress axis : x y z
#
# Youngs Moduli (GPa) = 40.94872 16.47227 51.03682
#
# Poissons Ratio (x) = -0.03648 0.01828
# Poissons Ratio (y) = -0.09068 0.83690
# Poissons Ratio (z) = 0.01466 0.27011
#
# Static dielectric constant tensor:
#      x y z
#    x 1.837440 -0.008990 0.020560 
#    y -0.008990 1.836860 0.001210 
#    z 0.020560 0.001210 1.859200 
# 
# From -- ./inp_files/306007.got.cif
#   From: 2010.05.17/outbox.cif.g08.bks.cpg/sg2_154_cif.got.tgz:306007.got - 2010.06.03 11:33:40.
