data_PCOD9031701
_publ_section_title
;
Structure prediction by ZEFSAII (Michael W. Deem and Ramdas Pophale) SiO2 
 PCOD9031701
Probable space group: P -1
;
_chemical_formula_sum "Si O2"
_cell_formula_units_Z 14
_cell_length_a 11.602345
_cell_length_b 7.539674
_cell_length_c 7.541116
_cell_angle_alpha 94.975727
_cell_angle_beta 63.310356
_cell_angle_gamma 89.472841
_cell_volume 586.312526
_symmetry_space_group_name_H-M "P -1"
_symmetry_group_IT_number 2
_symmetry_cell_setting 'triclinic'
loop_
_space_group_symop_operation_xyz
x,y,z
-x,-y,-z
loop_
_atom_site_type_symbol
_atom_site_label
_atom_site_fract_x
_atom_site_fract_y
_atom_site_fract_z
Si Si1 0.601988 0.426085 0.068507
Si Si2 0.460416 0.246657 0.627570
Si Si3 0.193276 0.010871 0.346426
Si Si4 0.089567 0.397664 0.574085
Si Si5 0.466077 0.082697 0.250077
Si Si6 0.132076 0.739530 0.081185
Si Si7 0.230968 0.733064 0.612630
O O1 0.594532 0.566345 0.246642
O O2 0.548657 0.237703 0.137345
O O3 0.751944 0.385631 0.919133
O O4 0.500000 0.500000 0.000000
O O5 0.403474 0.168654 0.481848
O O6 0.614230 0.256490 0.491551
O O7 0.450219 0.093140 0.767350
O O8 0.861125 0.791135 0.556687
O O9 0.180969 0.876763 0.511312
O O10 0.346489 0.027551 0.212832
O O11 0.131052 0.920811 0.211834
O O12 0.000000 0.500000 0.500000
O O13 0.196573 0.534718 0.562524
O O14 0.001386 0.351829 0.800139
O O15 0.170806 0.766423 0.852462
#
# Coordination Sequence:
#
# PCOD9031701 Si02
#       7
#     2   2   2   2   2   2   2
#     4  12  25  41  68 105 146 180 228 287 348 418
#     4  10  22  44  70  98 142 182 221 287 346 416
#     4  11  26  48  74 100 143 188 229 296 357 409
#     4  12  27  50  74  98 143 190 234 297 360 408
#     4  10  22  43  68 100 134 184 223 270 357 414
#     4  12  27  47  71 110 139 184 244 291 340 426
#     4  11  24  50  74 103 141 184 243 288 347 420
#
# _framework density 23.878053000000001
#
# number of rings (size 3 to 8) (size 9 to 14) (size 15 to 20)
#    0.000    0.857    2.857    3.857    4.000    2.857 
#    2.571    0.000    0.000    0.000    0.000    0.000 
#    0.000    0.000    0.000    0.000    0.000    0.000 
#
# Total GULP energy -78448.251483 kJ/mol
# GULP energy per Si atom -5603.446535 kJ/mol
# Density = 2.382371 g / cm^3
# Si number density = 23.878053 Si / 1000 Ang^3
#
#
#
# Elastic Constant Matrix: (Units=GPa)
#
#
# Indices 1 2 3 4 5 6 
#
# 1 23.5957 32.7674 5.7773 12.8603 3.3716 -14.5281
# 2 32.7674 196.0093 66.0948 11.4870 0.0075 -12.3722
# 3 5.7773 66.0948 111.7070 15.4227 12.2882 -15.2198
# 4 12.8603 11.4870 15.4227 34.0778 3.2467 -3.2924
# 5 3.3716 0.0075 12.2882 3.2467 24.2833 4.2133
# 6 -14.5281 -12.3722 -15.2198 -3.2924 4.2133 44.3178
#
#
#
# Elastic Compliance Matrix: (Units=1/GPa)
#
#
# Indices 1 2 3 4 5 6 
#
# 1 0.117824 -0.021906 0.020888 -0.040019 -0.028409 0.039410
# 2 -0.021906 0.010554 -0.007834 0.006871 0.007318 -0.007111
# 3 0.020888 -0.007834 0.016740 -0.010656 -0.011808 0.010740
# 4 -0.040019 0.006871 -0.010656 0.045108 0.007028 -0.012177
# 5 -0.028409 0.007318 -0.011808 0.007028 0.052905 -0.015833
# 6 0.039410 -0.007111 0.010740 -0.012177 -0.015833 0.037788
#
#
# Mechanical properties :
#
#
# Convention : Reuss Voigt Hill
#
# Bulk Modulus (GPa) = 7.84850 60.06567 33.95708
# Shear Modulus (GPa) = 14.65873 35.64728 25.15300
#
# Velocity S-wave (km/s) = 2.48039 3.86798 3.24912
# Velocity P-wave (km/s) = 3.39074 6.71998 5.32237
#
# Compressibility (1/GPa) = 0.12741292
#
# Stress axis : x y z
#
# Youngs Moduli (GPa) = 8.48725 94.75296 59.73645
#
# Poissons Ratio (x) = 2.07569 -1.24776
# Poissons Ratio (y) = 0.18592 0.46797
# Poissons Ratio (z) = -0.17728 0.74228
#
# Static dielectric constant tensor:
#      x y z
#    x 1.952900 -0.005300 0.017420 
#    y -0.005300 1.849270 -0.004930 
#    z 0.017420 -0.004930 1.965000 
# 
# From -- ./inp_files/292748.got.cif
#   From: 2010.05.17/outbox.cif.g08.bks.cpg/sg2_147_cif.got.tgz:292748.got - 2010.06.03 11:33:40.
