data_PCOD9031150
_publ_section_title
;
Structure prediction by ZEFSAII (Michael W. Deem and Ramdas Pophale) SiO2 
 PCOD9031150
Probable space group: P -1
;
_chemical_formula_sum "Si O2"
_cell_formula_units_Z 14
_cell_length_a 9.237615
_cell_length_b 13.667726
_cell_length_c 12.049337
_cell_angle_alpha 32.640782
_cell_angle_beta 97.963257
_cell_angle_gamma 75.579394
_cell_volume 592.342144
_symmetry_space_group_name_H-M "P -1"
_symmetry_group_IT_number 2
_symmetry_cell_setting 'triclinic'
loop_
_space_group_symop_operation_xyz
x,y,z
-x,-y,-z
loop_
_atom_site_type_symbol
_atom_site_label
_atom_site_fract_x
_atom_site_fract_y
_atom_site_fract_z
Si Si1 0.792634 0.201555 0.715532
Si Si2 0.116112 0.851167 0.921499
Si Si3 0.622630 0.633087 0.434680
Si Si4 0.565660 0.085606 0.330189
Si Si5 0.764698 0.854299 0.345834
Si Si6 0.135050 0.477356 0.870205
Si Si7 0.060087 0.164306 0.282416
O O1 0.702050 0.473447 0.482016
O O2 0.608167 0.224693 0.702696
O O3 0.888863 0.077180 0.725936
O O4 0.000000 0.000000 0.000000
O O5 0.079533 0.845985 0.793746
O O6 0.243772 0.924403 0.886241
O O7 0.237326 0.587994 0.246459
O O8 0.666806 0.806539 0.291896
O O9 0.500000 0.000000 0.500000
O O10 0.672733 0.896424 0.418273
O O11 0.723674 0.079079 0.415810
O O12 0.364996 0.335143 0.018724
O O13 0.000597 0.616554 0.614790
O O14 0.053061 0.662570 0.787932
O O15 0.106878 0.293556 0.081741
#
# Coordination Sequence:
#
# PCOD9031150 Si02
#       7
#     2   2   2   2   2   2   2
#     4   9  22  43  65  90 114 155 193 237 308 356
#     4  11  23  38  62  92 119 152 201 246 290 352
#     4  10  22  43  65  85 122 152 190 248 296 359
#     4   9  20  33  57  86 118 163 204 232 292 345
#     4  11  23  37  61  93 117 156 202 240 293 349
#     4   9  18  35  55  82 118 161 195 236 293 333
#     4   9  18  34  55  81 118 158 197 241 280 346
#
# _framework density 23.634989999999998
#
# number of rings (size 3 to 8) (size 9 to 14) (size 15 to 20)
#    0.000    2.286    1.429    0.857    4.000    4.000 
#    0.000    7.857    0.000    0.000    0.000    0.000 
#    0.000    0.000    0.000    0.000    0.000    0.000 
#
# Total GULP energy -78154.741922 kJ/mol
# GULP energy per Si atom -5582.481566 kJ/mol
# Density = 2.358120 g / cm^3
# Si number density = 23.634990 Si / 1000 Ang^3
#
#
#
# Elastic Constant Matrix: (Units=GPa)
#
#
# Indices 1 2 3 4 5 6 
#
# 1 88.5898 43.8896 42.3533 -6.7289 11.7210 11.5571
# 2 43.8896 85.7476 12.0515 0.6009 12.1567 23.4257
# 3 42.3533 12.0515 69.1041 11.8982 31.5278 11.8886
# 4 -6.7289 0.6009 11.8982 24.3122 3.5069 6.2127
# 5 11.7210 12.1567 31.5278 3.5069 43.1098 -2.1340
# 6 11.5571 23.4257 11.8886 6.2127 -2.1340 41.7016
#
#
#
# Elastic Compliance Matrix: (Units=1/GPa)
#
#
# Indices 1 2 3 4 5 6 
#
# 1 0.030596 -0.015722 -0.026845 0.018358 0.014552 0.006016
# 2 -0.015722 0.022908 0.015045 -0.007205 -0.013216 -0.012403
# 3 -0.026845 0.015045 0.049036 -0.023923 -0.031505 -0.013040
# 4 0.018358 -0.007205 -0.023923 0.057265 0.009767 -0.002252
# 5 0.014552 -0.013216 -0.031505 0.009767 0.045870 0.013265
# 6 0.006016 -0.012403 -0.013040 -0.002252 0.013265 0.034012
#
#
# Mechanical properties :
#
#
# Convention : Reuss Voigt Hill
#
# Bulk Modulus (GPa) = 21.05472 48.89225 34.97348
# Shear Modulus (GPa) = 16.09978 31.50117 23.80047
#
# Velocity S-wave (km/s) = 2.61278 3.65474 3.17677
# Velocity P-wave (km/s) = 4.24615 6.20812 5.31839
#
# Compressibility (1/GPa) = 0.04749530
#
# Stress axis : x y z
#
# Youngs Moduli (GPa) = 32.68436 43.65351 20.39299
#
# Poissons Ratio (x) = 0.68634 0.54745
# Poissons Ratio (y) = 0.51388 -0.30682
# Poissons Ratio (z) = 0.87741 -0.65677
#
# Static dielectric constant tensor:
#      x y z
#    x 1.933240 -0.011510 -0.004350 
#    y -0.011510 1.927470 0.024970 
#    z -0.004350 0.024970 1.973300 
# 
# From -- ./inp_files/207470.got.cif
#   From: 2010.05.17/outbox.cif.g08.bks.cpg/sg2_104_cif.got.tgz:207470.got - 2010.06.03 11:33:40.
