data_PCOD9031068
_publ_section_title
;
Structure prediction by ZEFSAII (Michael W. Deem and Ramdas Pophale) SiO2 
 PCOD9031068
Probable space group: P -1
;
_chemical_formula_sum "Si O2"
_cell_formula_units_Z 16
_cell_length_a 16.188770
_cell_length_b 8.817075
_cell_length_c 9.168312
_cell_angle_alpha 42.508558
_cell_angle_beta 64.206311
_cell_angle_gamma 80.442835
_cell_volume 769.979014
_symmetry_space_group_name_H-M "P -1"
_symmetry_group_IT_number 2
_symmetry_cell_setting 'triclinic'
loop_
_space_group_symop_operation_xyz
x,y,z
-x,-y,-z
loop_
_atom_site_type_symbol
_atom_site_label
_atom_site_fract_x
_atom_site_fract_y
_atom_site_fract_z
Si Si1 0.457083 0.843720 0.508430
Si Si2 0.247235 0.888770 0.622238
Si Si3 0.866662 0.758298 0.613321
Si Si4 0.952395 0.987784 0.887462
Si Si5 0.200966 0.753471 0.091631
Si Si6 0.524978 0.632788 0.233520
Si Si7 0.610217 0.083113 0.981168
Si Si8 0.100402 0.435113 0.961982
O O1 0.354656 0.880046 0.526465
O O2 0.450618 0.571538 0.735285
O O3 0.500000 0.000000 0.500000
O O4 0.530260 0.950018 0.249771
O O5 0.216736 0.113571 0.431905
O O6 0.224148 0.859174 0.835201
O O7 0.181709 0.671864 0.739538
O O8 0.838450 0.519168 0.714352
O O9 0.884607 0.701942 0.806320
O O10 0.963134 0.917537 0.358905
O O11 0.900692 0.728233 0.060309
O O12 0.878391 0.143430 0.844886
O O13 0.000000 0.000000 0.000000
O O14 0.293342 0.818067 0.076749
O O15 0.500000 0.500000 0.500000
O O16 0.607556 0.871385 0.020278
O O17 0.433010 0.716439 0.194590
O O18 0.000000 0.500000 0.000000
#
# Coordination Sequence:
#
# PCOD9031068 Si02
#       8
#     2   2   2   2   2   2   2   2
#     4  11  23  40  69  93 131 171 216 271 326 384
#     4  11  24  44  64 100 132 173 220 266 332 396
#     4  11  24  45  66  95 137 171 217 272 333 391
#     4  12  23  45  69  96 131 173 215 272 333 391
#     4  11  24  40  67  96 128 169 224 269 321 397
#     4   9  22  43  61  88 130 170 216 271 325 380
#     4  10  22  43  64  93 130 173 218 269 327 382
#     4  11  24  45  70  96 135 174 219 274 326 399
#
# _framework density 20.779789000000001
#
# number of rings (size 3 to 8) (size 9 to 14) (size 15 to 20)
#    0.000    1.250    3.750    1.500    3.500    2.500 
#    4.500    0.000    0.000    0.000    0.000    0.000 
#    0.000    0.000    0.000    0.000    0.000    0.000 
#
# Total GULP energy -89432.238711 kJ/mol
# GULP energy per Si atom -5589.514919 kJ/mol
# Density = 2.073249 g / cm^3
# Si number density = 20.779789 Si / 1000 Ang^3
#
#
#
# Elastic Constant Matrix: (Units=GPa)
#
#
# Indices 1 2 3 4 5 6 
#
# 1 174.4233 68.9795 24.3757 -34.1552 7.5693 4.0289
# 2 68.9795 150.1550 20.4163 -38.4960 11.1930 9.2199
# 3 24.3757 20.4163 31.1711 -19.9882 18.6857 -8.4037
# 4 -34.1552 -38.4960 -19.9882 24.1129 -10.5142 2.4106
# 5 7.5693 11.1930 18.6857 -10.5142 35.3798 -2.0934
# 6 4.0289 9.2199 -8.4037 2.4106 -2.0934 39.0803
#
#
#
# Elastic Compliance Matrix: (Units=1/GPa)
#
#
# Indices 1 2 3 4 5 6 
#
# 1 0.008227 -0.001101 -0.000462 0.010448 0.001864 -0.001232
# 2 -0.001101 0.013007 0.009523 0.026895 -0.001071 -0.002624
# 3 -0.000462 0.009523 0.102907 0.084922 -0.031256 0.013017
# 4 0.010448 0.026895 0.084922 0.166984 -0.005958 0.000220
# 5 0.001864 -0.001071 -0.031256 -0.005958 0.042705 -0.004006
# 6 -0.001232 -0.002624 0.013017 0.000220 -0.004006 0.028905
#
#
# Mechanical properties :
#
#
# Convention : Reuss Voigt Hill
#
# Bulk Modulus (GPa) = 7.13982 64.81028 35.97505
# Shear Modulus (GPa) = 12.70639 35.84646 24.27642
#
# Velocity S-wave (km/s) = 2.47549 4.15789 3.42171
# Velocity P-wave (km/s) = 3.40795 7.36937 5.74116
#
# Compressibility (1/GPa) = 0.14005956
#
# Stress axis : x y z
#
# Youngs Moduli (GPa) = 121.55565 76.88209 9.71749
#
# Poissons Ratio (x) = 0.08466 0.00449
# Poissons Ratio (y) = 0.13385 -0.09254
# Poissons Ratio (z) = 0.05620 -0.73214
#
# Static dielectric constant tensor:
#      x y z
#    x 1.788190 0.072010 0.097890 
#    y 0.072010 1.828490 0.063080 
#    z 0.097890 0.063080 1.846480 
# 
# From -- ./inp_files/38876.got.cif
#   From: 2010.05.17/outbox.cif.g08.bks.cpg/sg2_20_cif.got.tgz:38876.got - 2010.06.03 11:33:40.
