data_PCOD9031596
_publ_section_title
;
Structure prediction by ZEFSAII (Michael W. Deem and Ramdas Pophale) SiO2 
 PCOD9031596
Probable space group: P -1
;
_chemical_formula_sum "Si O2"
_cell_formula_units_Z 14
_cell_length_a 11.377701
_cell_length_b 6.538143
_cell_length_c 9.851047
_cell_angle_alpha 70.109993
_cell_angle_beta 77.828286
_cell_angle_gamma 105.270359
_cell_volume 627.247799
_symmetry_space_group_name_H-M "P -1"
_symmetry_group_IT_number 2
_symmetry_cell_setting 'triclinic'
loop_
_space_group_symop_operation_xyz
x,y,z
-x,-y,-z
loop_
_atom_site_type_symbol
_atom_site_label
_atom_site_fract_x
_atom_site_fract_y
_atom_site_fract_z
Si Si1 0.106778 0.918749 0.306343
Si Si2 0.942335 0.184928 0.191646
Si Si3 0.852751 0.304075 0.927743
Si Si4 0.443582 0.889480 0.893529
Si Si5 0.765482 0.191974 0.458503
Si Si6 0.361841 0.273076 0.265993
Si Si7 0.431712 0.636225 0.394446
O O1 0.134143 0.774245 0.209699
O O2 0.115518 0.789381 0.473054
O O3 0.981656 0.980954 0.293764
O O4 0.230894 0.162088 0.235890
O O5 0.060299 0.428339 0.128291
O O6 0.822906 0.218782 0.290374
O O7 0.906960 0.153790 0.049820
O O8 0.705973 0.249946 0.015542
O O9 0.519534 0.731566 0.851735
O O10 0.474925 0.104751 0.731295
O O11 0.500000 0.000000 0.000000
O O12 0.690114 0.350657 0.495017
O O13 0.665307 0.929387 0.566885
O O14 0.384215 0.503600 0.292977
O O15 0.500000 0.500000 0.500000
#
# Coordination Sequence:
#
# PCOD9031596 Si02
#       7
#     2   2   2   2   2   2   2
#     4  10  22  43  67  95 132 172 225 269 324 398
#     4  11  25  42  67  95 137 180 215 271 335 389
#     4  11  25  43  64  98 139 171 223 272 331 397
#     4  11  23  44  68  98 133 171 220 283 325 404
#     4   9  23  43  66  96 128 171 224 276 316 401
#     4   9  23  40  68  96 129 169 223 274 337 382
#     4  11  25  42  67 102 131 172 221 278 342 388
#
# _framework density 22.319724999999998
#
# number of rings (size 3 to 8) (size 9 to 14) (size 15 to 20)
#    0.857    0.857    1.429    0.857    8.000    4.571 
#    2.571    0.000    0.000    0.000    0.000    0.000 
#    0.000    0.000    0.000    0.000    0.000    0.000 
#
# Total GULP energy -78214.478492 kJ/mol
# GULP energy per Si atom -5586.748464 kJ/mol
# Density = 2.226892 g / cm^3
# Si number density = 22.319725 Si / 1000 Ang^3
#
#
#
# Elastic Constant Matrix: (Units=GPa)
#
#
# Indices 1 2 3 4 5 6 
#
# 1 55.7547 6.8982 11.1244 -4.5493 -6.6477 -14.1594
# 2 6.8982 21.1422 -2.5864 2.9424 -13.7070 1.5509
# 3 11.1244 -2.5864 65.6927 3.0294 -1.9685 -1.9611
# 4 -4.5493 2.9424 3.0294 26.2278 -5.4401 2.7916
# 5 -6.6477 -13.7070 -1.9685 -5.4401 47.7015 -1.0020
# 6 -14.1594 1.5509 -1.9611 2.7916 -1.0020 37.1503
#
#
#
# Elastic Compliance Matrix: (Units=1/GPa)
#
#
# Indices 1 2 3 4 5 6 
#
# 1 0.022419 -0.008229 -0.004047 0.004659 0.001300 0.008360
# 2 -0.008229 0.062070 0.004415 -0.005043 0.016198 -0.004679
# 3 -0.004047 0.004415 0.016222 -0.002787 0.001043 -0.000633
# 4 0.004659 -0.005043 -0.002787 0.040711 0.003704 -0.001120
# 5 0.001300 0.016198 0.001043 0.003704 0.026271 0.000304
# 6 0.008360 -0.004679 -0.000633 -0.001120 0.000304 0.030358
#
#
# Mechanical properties :
#
#
# Convention : Reuss Voigt Hill
#
# Bulk Modulus (GPa) = 11.76588 19.27357 15.51973
# Shear Modulus (GPa) = 20.65232 30.69280 25.67256
#
# Velocity S-wave (km/s) = 3.04517 3.71231 3.39517
# Velocity P-wave (km/s) = 4.20083 5.19894 4.72631
#
# Compressibility (1/GPa) = 0.08499151
#
# Stress axis : x y z
#
# Youngs Moduli (GPa) = 44.60418 16.11078 61.64305
#
# Poissons Ratio (x) = 0.13257 0.24946
# Poissons Ratio (y) = 0.36705 -0.27218
# Poissons Ratio (z) = 0.18051 -0.07114
#
# Static dielectric constant tensor:
#      x y z
#    x 1.835530 -0.006410 0.047620 
#    y -0.006410 1.791250 -0.032270 
#    z 0.047620 -0.032270 1.805910 
# 
# From -- ./inp_files/409038.got.cif
#   From: 2010.05.17/outbox.cif.g08.bks.cpg/sg2_205_cif.got.tgz:409038.got - 2010.06.03 11:33:40.
