data_PCOD9031507
_publ_section_title
;
Structure prediction by ZEFSAII (Michael W. Deem and Ramdas Pophale) SiO2 
 PCOD9031507
Probable space group: P -1
;
_chemical_formula_sum "Si O2"
_cell_formula_units_Z 14
_cell_length_a 8.789370
_cell_length_b 13.557890
_cell_length_c 12.890704
_cell_angle_alpha 32.789537
_cell_angle_beta 102.025083
_cell_angle_gamma 120.968340
_cell_volume 624.629572
_symmetry_space_group_name_H-M "P -1"
_symmetry_group_IT_number 2
_symmetry_cell_setting 'triclinic'
loop_
_space_group_symop_operation_xyz
x,y,z
-x,-y,-z
loop_
_atom_site_type_symbol
_atom_site_label
_atom_site_fract_x
_atom_site_fract_y
_atom_site_fract_z
Si Si1 0.001468 0.214341 0.696241
Si Si2 0.139195 0.560083 0.218375
Si Si3 0.461163 0.046460 0.182077
Si Si4 0.598885 0.770521 0.788195
Si Si5 0.899997 0.726634 0.106634
Si Si6 0.043915 0.134820 0.493263
Si Si7 0.465643 0.275127 0.415650
O O1 0.107749 0.414712 0.445711
O O2 0.087399 0.315860 0.732486
O O3 0.763786 0.085771 0.773604
O O4 0.011853 0.004004 0.867163
O O5 0.057480 0.363078 0.291552
O O6 0.009914 0.646913 0.131111
O O7 0.369866 0.777096 0.033622
O O8 0.495107 0.187431 0.168307
O O9 0.483808 0.855634 0.388762
O O10 0.575105 0.828484 0.616013
O O11 0.500000 0.500000 0.000000
O O12 0.838343 0.937932 0.699869
O O13 0.663199 0.552253 0.197191
O O14 0.266303 0.228393 0.470359
O O15 0.000000 0.000000 0.500000
#
# Coordination Sequence:
#
# PCOD9031507 Si02
#       7
#     2   2   2   2   2   2   2
#     4  11  25  50  74 100 150 180 243 296 349 418
#     4  12  25  44  75 104 144 186 235 292 352 421
#     4  12  25  43  69 106 142 189 235 290 356 420
#     4  11  22  43  69  95 145 186 232 297 349 417
#     4  11  25  49  75 104 138 194 233 296 356 413
#     4  10  22  43  67 102 139 182 233 285 343 419
#     4  11  24  42  72 102 141 188 240 284 359 420
#
# _framework density 22.413283
#
# number of rings (size 3 to 8) (size 9 to 14) (size 15 to 20)
#    0.000    0.857    2.857    4.286    2.000    1.714 
#    0.000    6.429    0.000    0.000    0.000    0.000 
#    0.000    0.000    0.000    0.000    0.000    0.000 
#
# Total GULP energy -78305.376783 kJ/mol
# GULP energy per Si atom -5593.241199 kJ/mol
# Density = 2.236227 g / cm^3
# Si number density = 22.413283 Si / 1000 Ang^3
#
#
#
# Elastic Constant Matrix: (Units=GPa)
#
#
# Indices 1 2 3 4 5 6 
#
# 1 142.2676 29.1780 60.3337 -16.8076 -0.0305 -5.5391
# 2 29.1780 87.8851 10.3504 -11.6347 -8.7476 9.9209
# 3 60.3337 10.3504 125.3873 2.0669 -15.8392 1.9963
# 4 -16.8076 -11.6347 2.0669 26.4761 -7.5440 8.0840
# 5 -0.0305 -8.7476 -15.8392 -7.5440 47.1848 -6.5143
# 6 -5.5391 9.9209 1.9963 8.0840 -6.5143 26.0194
#
#
#
# Elastic Compliance Matrix: (Units=1/GPa)
#
#
# Indices 1 2 3 4 5 6 
#
# 1 0.010320 -0.002470 -0.005010 0.005030 -0.001096 0.001686
# 2 -0.002470 0.014379 0.000371 0.007941 0.002988 -0.007756
# 3 -0.005010 0.000371 0.010811 -0.002844 0.003191 -0.000355
# 4 0.005030 0.007941 -0.002844 0.051447 0.006525 -0.016089
# 5 -0.001096 0.002988 0.003191 0.006525 0.024194 0.002413
# 6 0.001686 -0.007756 -0.000355 -0.016089 0.002413 0.047379
#
#
# Mechanical properties :
#
#
# Convention : Reuss Voigt Hill
#
# Bulk Modulus (GPa) = 46.96341 61.69601 54.32971
# Shear Modulus (GPa) = 27.80184 36.98124 32.39154
#
# Velocity S-wave (km/s) = 3.52578 4.06639 3.80569
# Velocity P-wave (km/s) = 6.12974 7.04512 6.60331
#
# Compressibility (1/GPa) = 0.02129317
#
# Stress axis : x y z
#
# Youngs Moduli (GPa) = 96.90050 69.54622 92.49856
#
# Poissons Ratio (x) = 0.17175 0.46342
# Poissons Ratio (y) = 0.23931 -0.03435
# Poissons Ratio (z) = 0.48548 -0.02583
#
# Static dielectric constant tensor:
#      x y z
#    x 1.822410 -0.028390 0.008240 
#    y -0.028390 1.878110 0.019490 
#    z 0.008240 0.019490 1.856990 
# 
# From -- ./inp_files/503664.got.cif
#   From: 2010.05.17/outbox.cif.g08.bks.cpg/sg2_252_cif.got.tgz:503664.got - 2010.06.03 11:33:40.
