data_PCOD9031443
_publ_section_title
;
Structure prediction by ZEFSAII (Michael W. Deem and Ramdas Pophale) SiO2 
 PCOD9031443
Probable space group: P -1
;
_chemical_formula_sum "Si O2"
_cell_formula_units_Z 14
_cell_length_a 9.097874
_cell_length_b 8.957107
_cell_length_c 17.011110
_cell_angle_alpha 54.489657
_cell_angle_beta 114.275201
_cell_angle_gamma 147.444373
_cell_volume 597.402337
_symmetry_space_group_name_H-M "P -1"
_symmetry_group_IT_number 2
_symmetry_cell_setting 'triclinic'
loop_
_space_group_symop_operation_xyz
x,y,z
-x,-y,-z
loop_
_atom_site_type_symbol
_atom_site_label
_atom_site_fract_x
_atom_site_fract_y
_atom_site_fract_z
Si Si1 0.610075 0.625963 0.786153
Si Si2 0.295349 0.871042 0.306838
Si Si3 0.400920 0.380445 0.396678
Si Si4 0.221781 0.616267 0.071129
Si Si5 0.878648 0.657529 0.517392
Si Si6 0.095633 0.570976 0.790208
Si Si7 0.269581 0.358856 0.934537
O O1 0.569425 0.547584 0.709910
O O2 0.738195 0.565829 0.875283
O O3 0.331755 0.393607 0.845650
O O4 0.731969 0.945096 0.724973
O O5 0.167180 0.600789 0.419125
O O6 0.116837 0.693603 0.242084
O O7 0.616689 0.104495 0.289248
O O8 0.694287 0.600779 0.432269
O O9 0.247950 0.396021 0.409327
O O10 0.193259 0.015351 0.471805
O O11 0.091681 0.496113 0.167689
O O12 0.000000 0.500000 0.000000
O O13 0.500000 0.000000 0.000000
O O14 0.219215 0.524169 0.885527
O O15 0.500000 0.500000 0.000000
O O16 0.000000 0.000000 0.000000
#
# Coordination Sequence:
#
# PCOD9031443 Si02
#       7
#     2   2   2   2   2   2   2
#     4  11  26  43  69 102 132 172 228 278 326 391
#     4  11  24  42  67  97 134 175 217 268 330 394
#     4  10  23  41  68  98 132 172 219 268 321 396
#     4  12  26  44  66  95 130 172 225 282 333 390
#     4  10  22  43  66  97 136 176 211 263 336 393
#     4  11  23  41  64  91 128 175 217 265 332 397
#     4  11  22  40  62  88 126 167 211 266 327 383
#
# _framework density 23.434794
#
# number of rings (size 3 to 8) (size 9 to 14) (size 15 to 20)
#    0.000    1.143    0.000    6.000    0.000   10.286 
#    0.000    0.000    0.000    0.000    0.000    0.000 
#    0.000    0.000    0.000    0.000    0.000    0.000 
#
# Total GULP energy -78208.767640 kJ/mol
# GULP energy per Si atom -5586.340546 kJ/mol
# Density = 2.338146 g / cm^3
# Si number density = 23.434794 Si / 1000 Ang^3
#
#
#
# Elastic Constant Matrix: (Units=GPa)
#
#
# Indices 1 2 3 4 5 6 
#
# 1 100.2610 15.6824 38.3810 1.0188 2.3055 -6.0727
# 2 15.6824 108.5973 17.0654 4.8732 -10.3677 7.8422
# 3 38.3810 17.0654 84.3208 8.7805 2.2177 -18.6374
# 4 1.0188 4.8732 8.7805 44.0201 -14.6807 1.7041
# 5 2.3055 -10.3677 2.2177 -14.6807 38.7840 -2.2231
# 6 -6.0727 7.8422 -18.6374 1.7041 -2.2231 20.9690
#
#
#
# Elastic Compliance Matrix: (Units=1/GPa)
#
#
# Indices 1 2 3 4 5 6 
#
# 1 0.012237 -0.000829 -0.005799 0.000901 -0.000357 -0.001411
# 2 -0.000829 0.010640 -0.003505 0.000814 0.002996 -0.007083
# 3 -0.005799 -0.003505 0.019581 -0.004910 -0.002587 0.017160
# 4 0.000901 0.000814 -0.004910 0.027286 0.010457 -0.005517
# 5 -0.000357 0.002996 -0.002587 0.010457 0.030648 -0.001124
# 6 -0.001411 -0.007083 0.017160 -0.005517 -0.001124 0.065511
#
#
# Mechanical properties :
#
#
# Convention : Reuss Voigt Hill
#
# Bulk Modulus (GPa) = 45.06080 48.38186 46.72133
# Shear Modulus (GPa) = 25.83112 35.55796 30.69454
#
# Velocity S-wave (km/s) = 3.32362 3.89950 3.62302
# Velocity P-wave (km/s) = 5.83083 6.40038 6.12223
#
# Compressibility (1/GPa) = 0.02219224
#
# Stress axis : x y z
#
# Youngs Moduli (GPa) = 81.71991 93.98640 51.07110
#
# Poissons Ratio (x) = 0.07787 0.29614
# Poissons Ratio (y) = 0.06771 0.17903
# Poissons Ratio (z) = 0.47386 0.32946
#
# Static dielectric constant tensor:
#      x y z
#    x 1.928490 -0.056020 0.016730 
#    y -0.056020 1.845350 -0.019920 
#    z 0.016730 -0.019920 1.889980 
# 
# From -- ./inp_files/557018.got.cif
#   From: 2010.05.17/outbox.cif.g08.bks.cpg/sg2_279_cif.got.tgz:557018.got - 2010.06.03 11:33:40.
