data_PCOD9031296
_publ_section_title
;
Structure prediction by ZEFSAII (Michael W. Deem and Ramdas Pophale) SiO2 
 PCOD9031296
Probable space group: P -1
;
_chemical_formula_sum "Si O2"
_cell_formula_units_Z 14
_cell_length_a 20.828797
_cell_length_b 9.112796
_cell_length_c 8.845472
_cell_angle_alpha 84.122446
_cell_angle_beta 123.974223
_cell_angle_gamma 143.915893
_cell_volume 573.342416
_symmetry_space_group_name_H-M "P -1"
_symmetry_group_IT_number 2
_symmetry_cell_setting 'triclinic'
loop_
_space_group_symop_operation_xyz
x,y,z
-x,-y,-z
loop_
_atom_site_type_symbol
_atom_site_label
_atom_site_fract_x
_atom_site_fract_y
_atom_site_fract_z
Si Si1 0.567133 0.266763 0.132974
Si Si2 0.687119 0.782447 0.630483
Si Si3 0.450409 0.478785 0.096385
Si Si4 0.834264 0.739377 0.927893
Si Si5 0.202744 0.608161 0.901083
Si Si6 0.914702 0.292053 0.137073
Si Si7 0.916851 0.692946 0.554741
O O1 0.766637 0.556365 0.423263
O O2 0.580529 0.405214 0.999995
O O3 0.500000 0.000000 0.000000
O O4 0.402806 0.017571 0.061735
O O5 0.500000 0.500000 0.500000
O O6 0.634954 0.756544 0.404072
O O7 0.708101 0.643324 0.689827
O O8 0.852575 0.150786 0.898281
O O9 0.500000 0.500000 0.000000
O O10 0.261057 0.081220 0.957803
O O11 0.760174 0.454155 0.919336
O O12 0.000000 0.000000 0.000000
O O13 0.907115 0.945755 0.154774
O O14 0.084341 0.536470 0.826690
O O15 0.099015 0.354988 0.643621
O O16 0.091680 0.494172 0.385453
#
# Coordination Sequence:
#
# PCOD9031296 Si02
#       7
#     2   2   2   2   2   2   2
#     4  10  24  41  68 103 128 170 229 275 322 386
#     4   9  23  43  65  93 134 177 215 263 338 392
#     4  11  22  41  69  97 134 176 226 266 331 399
#     4  11  26  46  67  99 135 180 216 277 342 389
#     4  11  23  45  68 102 132 174 230 269 327 401
#     4  10  22  43  66 101 133 180 213 280 334 387
#     4  10  24  43  69  97 137 171 222 273 335 389
#
# _framework density 24.418218
#
# number of rings (size 3 to 8) (size 9 to 14) (size 15 to 20)
#    0.000    1.714    1.429    0.857   16.000    0.000 
#   10.286    5.000    0.000    0.000    0.000    0.000 
#    0.000    0.000    0.000    0.000    0.000    0.000 
#
# Total GULP energy -78123.900946 kJ/mol
# GULP energy per Si atom -5580.278639 kJ/mol
# Density = 2.436264 g / cm^3
# Si number density = 24.418218 Si / 1000 Ang^3
#
#
#
# Elastic Constant Matrix: (Units=GPa)
#
#
# Indices 1 2 3 4 5 6 
#
# 1 98.4984 38.3233 65.9449 -44.4118 10.3238 -21.6892
# 2 38.3233 127.1874 44.4785 -20.3773 12.6902 -14.4549
# 3 65.9449 44.4785 110.5342 -38.6209 21.8148 8.0156
# 4 -44.4118 -20.3773 -38.6209 24.2374 -9.5880 6.6052
# 5 10.3238 12.6902 21.8148 -9.5880 52.2550 -16.0683
# 6 -21.6892 -14.4549 8.0156 6.6052 -16.0683 35.4266
#
#
#
# Elastic Compliance Matrix: (Units=1/GPa)
#
#
# Indices 1 2 3 4 5 6 
#
# 1 0.091308 0.002968 -0.012239 0.149000 0.027378 0.044518
# 2 0.002968 0.010131 -0.005253 0.004469 0.002214 0.007310
# 3 -0.012239 -0.005253 0.033186 0.028409 -0.013769 -0.028687
# 4 0.149000 0.004469 0.028409 0.368104 0.035664 0.034162
# 5 0.027378 0.002214 -0.013769 0.035664 0.034662 0.029852
# 6 0.044518 0.007310 -0.028687 0.034162 0.029852 0.072127
#
#
# Mechanical properties :
#
#
# Convention : Reuss Voigt Hill
#
# Bulk Modulus (GPa) = 9.47178 70.41260 39.94219
# Shear Modulus (GPa) = 7.42105 34.88203 21.15154
#
# Velocity S-wave (km/s) = 1.74521 3.78368 2.94635
# Velocity P-wave (km/s) = 2.81929 6.92727 5.28845
#
# Compressibility (1/GPa) = 0.10557677
#
# Stress axis : x y z
#
# Youngs Moduli (GPa) = 10.95197 98.70654 30.13278
#
# Poissons Ratio (x) = -0.29294 0.36880
# Poissons Ratio (y) = -0.03250 0.15828
# Poissons Ratio (z) = 0.13404 0.51848
#
# Static dielectric constant tensor:
#      x y z
#    x 2.008990 0.026960 0.006220 
#    y 0.026960 2.001440 0.042370 
#    z 0.006220 0.042370 1.972880 
# 
# From -- ./inp_files/326268.got.cif
#   From: 2010.05.17/outbox.cif.g08.bks.cpg/sg2_164_cif.got.tgz:326268.got - 2010.06.03 11:33:40.
