data_PCOD9031474
_publ_section_title
;
Structure prediction by ZEFSAII (Michael W. Deem and Ramdas Pophale) SiO2 
 PCOD9031474
Probable space group: P -1
;
_chemical_formula_sum "Si O2"
_cell_formula_units_Z 16
_cell_length_a 9.553015
_cell_length_b 8.715979
_cell_length_c 14.527660
_cell_angle_alpha 103.044373
_cell_angle_beta 143.550642
_cell_angle_gamma 84.213851
_cell_volume 693.265590
_symmetry_space_group_name_H-M "P -1"
_symmetry_group_IT_number 2
_symmetry_cell_setting 'triclinic'
loop_
_space_group_symop_operation_xyz
x,y,z
-x,-y,-z
loop_
_atom_site_type_symbol
_atom_site_label
_atom_site_fract_x
_atom_site_fract_y
_atom_site_fract_z
Si Si1 0.539367 0.891819 0.361232
Si Si2 0.535887 0.656556 0.101015
Si Si3 0.615180 0.001486 0.207939
Si Si4 0.525739 0.703164 0.736176
Si Si5 0.743566 0.425011 0.887467
Si Si6 0.865651 0.900763 0.831228
Si Si7 0.015439 0.547476 0.407664
Si Si8 0.004195 0.184359 0.303455
O O1 0.646183 0.933345 0.319943
O O2 0.356236 0.729834 0.243032
O O3 0.746118 0.861289 0.534117
O O4 0.370737 0.022988 0.310437
O O5 0.545440 0.836184 0.093134
O O6 0.307822 0.634140 0.044605
O O7 0.796242 0.640980 0.279945
O O8 0.500000 0.500000 0.000000
O O9 0.459625 0.139946 0.171525
O O10 0.822063 0.100618 0.271407
O O11 0.566881 0.554914 0.799038
O O12 0.744734 0.732558 0.785215
O O13 0.268754 0.660215 0.546492
O O14 0.000000 0.500000 0.000000
O O15 0.022802 0.884915 0.823103
O O16 0.000000 0.000000 0.000000
O O17 0.005264 0.375513 0.329615
O O18 0.000000 0.500000 0.500000
#
# Coordination Sequence:
#
# PCOD9031474 Si02
#       8
#     2   2   2   2   2   2   2   2
#     4  10  22  43  66  99 136 174 236 286 344 413
#     4  11  26  44  64 106 136 172 229 288 346 408
#     4  10  23  40  76  98 133 176 228 292 346 401
#     4  11  23  44  71 100 135 183 231 281 348 405
#     4  11  22  42  69  94 138 186 220 278 351 412
#     4  11  27  45  63  98 147 185 236 287 345 417
#     4  12  22  44  74 100 138 176 235 295 339 416
#     4  12  23  43  71 104 132 185 235 285 349 413
#
# _framework density 23.079177999999999
#
# number of rings (size 3 to 8) (size 9 to 14) (size 15 to 20)
#    0.000    1.000    3.750    2.250    3.500    6.500 
#    2.250    3.750    0.000    0.000    0.000    0.000 
#    0.000    0.000    0.000    0.000    0.000    0.000 
#
# Total GULP energy -89329.442786 kJ/mol
# GULP energy per Si atom -5583.090174 kJ/mol
# Density = 2.302665 g / cm^3
# Si number density = 23.079178 Si / 1000 Ang^3
#
#
#
# Elastic Constant Matrix: (Units=GPa)
#
#
# Indices 1 2 3 4 5 6 
#
# 1 110.1532 11.0502 52.5223 11.7202 20.6963 -2.0426
# 2 11.0502 118.1195 12.7011 5.9328 5.3075 -5.1095
# 3 52.5223 12.7011 68.7236 5.8589 20.9547 6.1720
# 4 11.7202 5.9328 5.8589 43.1032 -3.1780 8.6181
# 5 20.6963 5.3075 20.9547 -3.1780 37.1722 12.7253
# 6 -2.0426 -5.1095 6.1720 8.6181 12.7253 35.5630
#
#
#
# Elastic Compliance Matrix: (Units=1/GPa)
#
#
# Indices 1 2 3 4 5 6 
#
# 1 0.015616 0.000371 -0.010587 -0.004367 -0.005093 0.005668
# 2 0.000371 0.008866 -0.001498 -0.001755 -0.001659 0.002574
# 3 -0.010587 -0.001498 0.025440 -0.000424 -0.007420 -0.002481
# 4 -0.004367 -0.001755 -0.000424 0.027370 0.008750 -0.010193
# 5 -0.005093 -0.001659 -0.007420 0.008750 0.040310 -0.015788
# 6 0.005668 0.002574 -0.002481 -0.010193 -0.015788 0.037364
#
#
# Mechanical properties :
#
#
# Convention : Reuss Voigt Hill
#
# Bulk Modulus (GPa) = 37.74269 49.94928 43.84599
# Shear Modulus (GPa) = 26.70584 37.88251 32.29417
#
# Velocity S-wave (km/s) = 3.40537 4.05583 3.74475
# Velocity P-wave (km/s) = 5.64368 6.60474 6.14303
#
# Compressibility (1/GPa) = 0.02649519
#
# Stress axis : x y z
#
# Youngs Moduli (GPa) = 64.03867 112.78539 39.30788
#
# Poissons Ratio (x) = -0.04183 0.41614
# Poissons Ratio (y) = -0.02375 0.05887
# Poissons Ratio (z) = 0.67796 0.16892
#
# Static dielectric constant tensor:
#      x y z
#    x 1.869860 -0.022580 -0.023580 
#    y -0.022580 1.766310 0.007480 
#    z -0.023580 0.007480 1.934660 
# 
# From -- ./inp_files/495542.got.cif
#   From: 2010.05.17/outbox.cif.g08.bks.cpg/sg2_248_cif.got.tgz:495542.got - 2010.06.03 11:33:40.
