data_PCOD9031047
_publ_section_title
;
Structure prediction by ZEFSAII (Michael W. Deem and Ramdas Pophale) SiO2 
 PCOD9031047
Probable space group: P -1
;
_chemical_formula_sum "Si O2"
_cell_formula_units_Z 16
_cell_length_a 8.352543
_cell_length_b 12.097280
_cell_length_c 15.312962
_cell_angle_alpha 40.143514
_cell_angle_beta 63.166231
_cell_angle_gamma 82.707609
_cell_volume 823.646006
_symmetry_space_group_name_H-M "P -1"
_symmetry_group_IT_number 2
_symmetry_cell_setting 'triclinic'
loop_
_space_group_symop_operation_xyz
x,y,z
-x,-y,-z
loop_
_atom_site_type_symbol
_atom_site_label
_atom_site_fract_x
_atom_site_fract_y
_atom_site_fract_z
Si Si1 0.684878 0.360389 0.511524
Si Si2 0.830620 0.047548 0.694237
Si Si3 0.952843 0.924348 0.914239
Si Si4 0.228202 0.064128 0.496296
Si Si5 0.387002 0.751017 0.602755
Si Si6 0.343770 0.290631 0.153780
Si Si7 0.868647 0.593635 0.017550
Si Si8 0.738333 0.767115 0.240669
O O1 0.816118 0.245963 0.571057
O O2 0.619012 0.308489 0.459313
O O3 0.781071 0.581931 0.359331
O O4 0.491303 0.291993 0.658802
O O5 0.021761 0.047443 0.595799
O O6 0.853186 0.001889 0.816826
O O7 0.640582 0.889868 0.790543
O O8 0.981190 0.753825 0.961381
O O9 0.816208 0.846384 0.078496
O O10 0.147658 0.079081 0.809209
O O11 0.396068 0.138213 0.483266
O O12 0.274690 0.206610 0.317278
O O13 0.255096 0.875554 0.572266
O O14 0.301361 0.566241 0.793672
O O15 0.500000 0.500000 0.000000
O O16 0.203577 0.324439 0.096285
O O17 0.000000 0.500000 0.000000
#
# Coordination Sequence:
#
# PCOD9031047 Si02
#       8
#     2   2   2   2   2   2   2   2
#     4  11  23  40  65  91 119 161 212 260 309 360
#     4  11  24  40  62  92 126 163 203 260 314 368
#     4  10  22  43  64  89 125 158 208 257 309 362
#     4  11  23  39  62  90 131 169 202 251 308 385
#     4  11  21  39  62  91 124 169 209 245 311 376
#     4  11  22  38  55  89 130 162 201 246 304 370
#     4  11  23  37  64  94 128 162 200 252 315 376
#     4  10  23  43  67  88 119 164 214 259 298 370
#
# _framework density 19.425819000000001
#
# number of rings (size 3 to 8) (size 9 to 14) (size 15 to 20)
#    0.000    1.250    3.750    2.625    1.750    3.000 
#    0.000    1.250    0.000    0.000    0.000    0.000 
#    0.000    0.000    0.000    0.000    0.000    0.000 
#
# Total GULP energy -89237.153934 kJ/mol
# GULP energy per Si atom -5577.322121 kJ/mol
# Density = 1.938161 g / cm^3
# Si number density = 19.425819 Si / 1000 Ang^3
#
#
#
# Elastic Constant Matrix: (Units=GPa)
#
#
# Indices 1 2 3 4 5 6 
#
# 1 45.9634 38.5692 39.0207 -2.1589 6.2490 2.2547
# 2 38.5692 107.6890 35.1669 -14.5961 -2.6848 9.2430
# 3 39.0207 35.1669 126.2589 -7.1307 10.8362 0.7540
# 4 -2.1589 -14.5961 -7.1307 29.3627 5.5249 3.7351
# 5 6.2490 -2.6848 10.8362 5.5249 23.3359 -5.4300
# 6 2.2547 9.2430 0.7540 3.7351 -5.4300 35.8069
#
#
#
# Elastic Compliance Matrix: (Units=1/GPa)
#
#
# Indices 1 2 3 4 5 6 
#
# 1 0.040160 -0.012301 -0.008587 -0.003905 -0.007225 0.000139
# 2 -0.012301 0.014990 -0.000238 0.006376 0.002846 -0.003323
# 3 -0.008587 -0.000238 0.011106 0.002690 -0.003630 -0.000463
# 4 -0.003905 0.006376 0.002690 0.040551 -0.010774 -0.007320
# 5 -0.007225 0.002846 -0.003630 -0.010774 0.051378 0.008712
# 6 0.000139 -0.003323 -0.000463 -0.007320 0.008712 0.030871
#
#
# Mechanical properties :
#
#
# Convention : Reuss Voigt Hill
#
# Bulk Modulus (GPa) = 41.65696 56.15832 48.90764
# Shear Modulus (GPa) = 20.89345 28.84473 24.86909
#
# Velocity S-wave (km/s) = 3.28312 3.85758 3.58188
# Velocity P-wave (km/s) = 5.98853 6.98663 6.50675
#
# Compressibility (1/GPa) = 0.02400559
#
# Stress axis : x y z
#
# Youngs Moduli (GPa) = 24.90016 66.71249 90.03802
#
# Poissons Ratio (x) = 0.82062 0.77314
# Poissons Ratio (y) = 0.30629 0.02141
# Poissons Ratio (z) = 0.21381 0.01586
#
# Static dielectric constant tensor:
#      x y z
#    x 1.689370 -0.049430 0.047420 
#    y -0.049430 1.826500 -0.176970 
#    z 0.047420 -0.176970 1.966480 
# 
# From -- ./inp_files/304775.got.cif
#   From: 2010.05.17/outbox.cif.g08.bks.cpg/sg2_153_cif.got.tgz:304775.got - 2010.06.03 11:33:40.
