data_PCOD9031860
_publ_section_title
;
Structure prediction by ZEFSAII (Michael W. Deem and Ramdas Pophale) SiO2 
 PCOD9031860
Probable space group: P -1
;
_chemical_formula_sum "Si O2"
_cell_formula_units_Z 16
_cell_length_a 19.486456
_cell_length_b 7.649079
_cell_length_c 6.434058
_cell_angle_alpha 64.182387
_cell_angle_beta 55.943714
_cell_angle_gamma 76.052470
_cell_volume 715.223336
_symmetry_space_group_name_H-M "P -1"
_symmetry_group_IT_number 2
_symmetry_cell_setting 'triclinic'
loop_
_space_group_symop_operation_xyz
x,y,z
-x,-y,-z
loop_
_atom_site_type_symbol
_atom_site_label
_atom_site_fract_x
_atom_site_fract_y
_atom_site_fract_z
Si Si1 0.766474 0.037443 0.595790
Si Si2 0.095952 0.548431 0.310859
Si Si3 0.215103 0.544543 0.481025
Si Si4 0.415890 0.109222 0.024118
Si Si5 0.389935 0.513394 0.100223
Si Si6 0.465398 0.361852 0.448741
Si Si7 0.090656 0.991418 0.955203
Si Si8 0.830560 0.760168 0.975223
O O1 0.788227 0.261689 0.478679
O O2 0.833563 0.959843 0.355792
O O3 0.669152 0.008234 0.729631
O O4 0.783329 0.920453 0.839850
O O5 0.135771 0.521338 0.483281
O O6 0.136684 0.401378 0.155093
O O7 0.000000 0.500000 0.500000
O O8 0.106536 0.772058 0.115025
O O9 0.295953 0.566387 0.189752
O O10 0.224347 0.356980 0.706081
O O11 0.407430 0.305604 0.072974
O O12 0.425277 0.182060 0.730872
O O13 0.500000 0.000000 0.000000
O O14 0.405762 0.481919 0.334551
O O15 0.454304 0.669521 0.817745
O O16 0.500000 0.500000 0.500000
O O17 0.098195 0.133168 0.066980
O O18 0.000000 0.000000 0.000000
#
# Coordination Sequence:
#
# PCOD9031860 Si02
#       8
#     2   2   2   2   2   2   2   2
#     4  12  27  47  72 110 145 191 248 299 370 437
#     4  12  27  47  75 111 144 192 241 299 372 439
#     4  12  26  46  75 106 145 191 244 302 366 433
#     4  11  25  43  67 103 143 186 239 298 361 430
#     4  10  22  43  68  96 140 185 240 297 358 424
#     4   9  21  41  66  95 131 180 234 285 357 414
#     4  12  27  48  76 112 148 193 245 302 367 440
#     4  12  25  49  76 101 154 190 238 311 358 436
#
# _framework density 22.370633000000002
#
# number of rings (size 3 to 8) (size 9 to 14) (size 15 to 20)
#    0.000    0.750    2.500    4.500    7.000    4.500 
#    2.250    0.000    0.000    0.000    0.000    0.000 
#    0.000    0.000    0.000    0.000    0.000    0.000 
#
# Total GULP energy -89489.591081 kJ/mol
# GULP energy per Si atom -5593.099443 kJ/mol
# Density = 2.231972 g / cm^3
# Si number density = 22.370633 Si / 1000 Ang^3
#
#
#
# Elastic Constant Matrix: (Units=GPa)
#
#
# Indices 1 2 3 4 5 6 
#
# 1 99.4085 -3.7434 33.2865 2.4151 -12.0773 9.7773
# 2 -3.7434 80.4406 -1.6398 -5.6864 8.1495 18.9012
# 3 33.2865 -1.6398 100.6241 -14.7633 -0.7679 2.9021
# 4 2.4151 -5.6864 -14.7633 28.7683 -6.2039 0.0581
# 5 -12.0773 8.1495 -0.7679 -6.2039 39.5856 -0.0853
# 6 9.7773 18.9012 2.9021 0.0581 -0.0853 37.1977
#
#
#
# Elastic Compliance Matrix: (Units=1/GPa)
#
#
# Indices 1 2 3 4 5 6 
#
# 1 0.012283 0.000767 -0.004284 -0.002398 0.003123 -0.003273
# 2 0.000767 0.014727 0.000579 0.002644 -0.002389 -0.007739
# 3 -0.004284 0.000579 0.012365 0.006793 -0.000122 -0.000144
# 4 -0.002398 0.002644 0.006793 0.040080 0.005134 -0.001294
# 5 0.003123 -0.002389 -0.000122 0.005134 0.027510 0.000457
# 6 -0.003273 -0.007739 -0.000144 -0.001294 0.000457 0.031691
#
#
# Mechanical properties :
#
#
# Convention : Reuss Voigt Hill
#
# Bulk Modulus (GPa) = 29.85229 37.36442 33.60836
# Shear Modulus (GPa) = 32.11389 37.94832 35.03111
#
# Velocity S-wave (km/s) = 3.79296 4.12314 3.96149
# Velocity P-wave (km/s) = 5.70574 6.27740 5.99838
#
# Compressibility (1/GPa) = 0.03349826
#
# Stress axis : x y z
#
# Youngs Moduli (GPa) = 81.41608 67.90479 80.87656
#
# Poissons Ratio (x) = -0.05211 0.34649
# Poissons Ratio (y) = -0.06248 -0.04683
# Poissons Ratio (z) = 0.34880 -0.03932
#
# Static dielectric constant tensor:
#      x y z
#    x 1.840060 0.011510 -0.024370 
#    y 0.011510 1.823540 0.021890 
#    z -0.024370 0.021890 1.905730 
# 
# From -- ./inp_files/106213.got.cif
#   From: 2010.05.17/outbox.cif.g08.bks.cpg/sg2_54_cif.got.tgz:106213.got - 2010.06.03 11:33:40.
