data_PCOD9031372
_publ_section_title
;
Structure prediction by ZEFSAII (Michael W. Deem and Ramdas Pophale) SiO2 
 PCOD9031372
Probable space group: P -1
;
_chemical_formula_sum "Si O2"
_cell_formula_units_Z 14
_cell_length_a 23.519068
_cell_length_b 6.756682
_cell_length_c 6.126004
_cell_angle_alpha 109.223080
_cell_angle_beta 132.496436
_cell_angle_gamma 60.259977
_cell_volume 623.204621
_symmetry_space_group_name_H-M "P -1"
_symmetry_group_IT_number 2
_symmetry_cell_setting 'triclinic'
loop_
_space_group_symop_operation_xyz
x,y,z
-x,-y,-z
loop_
_atom_site_type_symbol
_atom_site_label
_atom_site_fract_x
_atom_site_fract_y
_atom_site_fract_z
Si Si1 0.803997 0.338560 0.155037
Si Si2 0.319271 0.853006 0.343972
Si Si3 0.111182 0.048938 0.422076
Si Si4 0.192892 0.290127 0.395600
Si Si5 0.563672 0.352376 0.794901
Si Si6 0.923728 0.335393 0.083933
Si Si7 0.490016 0.786166 0.998589
O O1 0.774352 0.541503 0.327470
O O2 0.873016 0.372524 0.191595
O O3 0.844326 0.101205 0.307409
O O4 0.730590 0.311085 0.813647
O O5 0.352237 0.808661 0.163806
O O6 0.401760 0.791555 0.681035
O O7 0.260062 0.107921 0.348068
O O8 0.164295 0.153664 0.454136
O O9 0.023323 0.247930 0.335824
O O10 0.091692 0.871894 0.150388
O O11 0.115969 0.450110 0.102800
O O12 0.500000 0.500000 0.500000
O O13 0.564237 0.553311 0.028154
O O14 0.520945 0.213961 0.771607
O O15 0.500000 0.000000 0.000000
#
# Coordination Sequence:
#
# PCOD9031372 Si02
#       7
#     2   2   2   2   2   2   2
#     4  11  25  41  64  97 132 176 223 271 337 375
#     4  11  25  43  66  99 141 166 212 279 323 393
#     4  10  22  43  66  93 134 174 231 276 318 394
#     4  11  25  41  64  99 129 178 226 266 335 386
#     4   9  22  45  67  97 131 165 209 267 319 387
#     4  10  22  43  66  94 132 178 226 279 322 383
#     4  10  23  45  72 100 126 172 220 256 326 403
#
# _framework density 22.464532999999999
#
# number of rings (size 3 to 8) (size 9 to 14) (size 15 to 20)
#    0.000    1.714    1.429    0.857    6.000    2.857 
#    5.143    0.000    0.000    0.000    0.000    0.000 
#    0.000    0.000    0.000    0.000    0.000    0.000 
#
# Total GULP energy -78240.076810 kJ/mol
# GULP energy per Si atom -5588.576915 kJ/mol
# Density = 2.241340 g / cm^3
# Si number density = 22.464533 Si / 1000 Ang^3
#
#
#
# Elastic Constant Matrix: (Units=GPa)
#
#
# Indices 1 2 3 4 5 6 
#
# 1 127.4113 53.4816 24.5413 -1.4465 -19.9061 -9.7446
# 2 53.4816 102.7974 28.6326 2.3199 -5.5401 2.9307
# 3 24.5413 28.6326 60.8597 -0.9620 7.9482 4.5569
# 4 -1.4465 2.3199 -0.9620 22.9638 4.0248 -22.0422
# 5 -19.9061 -5.5401 7.9482 4.0248 28.9026 -3.5904
# 6 -9.7446 2.9307 4.5569 -22.0422 -3.5904 48.3379
#
#
#
# Elastic Compliance Matrix: (Units=1/GPa)
#
#
# Indices 1 2 3 4 5 6 
#
# 1 0.012935 -0.005383 -0.004277 0.006121 0.009045 0.006800
# 2 -0.005383 0.013999 -0.004252 -0.006138 0.000466 -0.004297
# 3 -0.004277 -0.004252 0.021744 -0.000759 -0.010101 -0.003751
# 4 0.006121 -0.006138 -0.000759 0.082670 -0.003404 0.039122
# 5 0.009045 0.000466 -0.010101 -0.003404 0.044731 0.004518
# 6 0.006800 -0.004297 -0.003751 0.039122 0.004518 0.040848
#
#
# Mechanical properties :
#
#
# Convention : Reuss Voigt Hill
#
# Bulk Modulus (GPa) = 47.95075 56.04216 51.99645
# Shear Modulus (GPa) = 19.86489 32.33507 26.09998
#
# Velocity S-wave (km/s) = 2.97691 3.79804 3.41226
# Velocity P-wave (km/s) = 5.76259 6.65091 6.22262
#
# Compressibility (1/GPa) = 0.02085473
#
# Stress axis : x y z
#
# Youngs Moduli (GPa) = 77.31209 71.43569 45.98935
#
# Poissons Ratio (x) = 0.38451 0.19670
# Poissons Ratio (y) = 0.41614 0.19553
# Poissons Ratio (z) = 0.33068 0.30371
#
# Static dielectric constant tensor:
#      x y z
#    x 1.937340 0.024820 -0.318270 
#    y 0.024820 1.839370 -0.122440 
#    z -0.318270 -0.122440 2.873180 
# 
# From -- ./inp_files/7934.got.cif
#   From: 2010.05.17/outbox.cif.g08.bks.cpg/sg2_4_cif.got.tgz:7934.got - 2010.06.03 11:33:40.
