data_PCOD9031309
_publ_section_title
;
Structure prediction by ZEFSAII (Michael W. Deem and Ramdas Pophale) SiO2 
 PCOD9031309
Probable space group: P -1
;
_chemical_formula_sum "Si O2"
_cell_formula_units_Z 10
_cell_length_a 5.084680
_cell_length_b 17.498840
_cell_length_c 9.598707
_cell_angle_alpha 146.186942
_cell_angle_beta 120.349874
_cell_angle_gamma 58.373831
_cell_volume 400.296088
_symmetry_space_group_name_H-M "P -1"
_symmetry_group_IT_number 2
_symmetry_cell_setting 'triclinic'
loop_
_space_group_symop_operation_xyz
x,y,z
-x,-y,-z
loop_
_atom_site_type_symbol
_atom_site_label
_atom_site_fract_x
_atom_site_fract_y
_atom_site_fract_z
Si Si1 0.137842 0.060236 0.963975
Si Si2 0.753229 0.294083 0.397410
Si Si3 0.141155 0.303815 0.102631
Si Si4 0.848497 0.916457 0.447813
Si Si5 0.324368 0.442441 0.739020
O O1 0.117811 0.185822 0.033281
O O2 0.921369 0.140264 0.150716
O O3 0.008889 0.937931 0.667496
O O4 0.500000 0.000000 0.000000
O O5 0.470452 0.342708 0.284004
O O6 0.566065 0.327583 0.542323
O O7 0.032209 0.376756 0.605249
O O8 0.840779 0.430073 0.212900
O O9 0.145834 0.234356 0.845356
O O10 0.500000 0.000000 0.500000
O O11 0.000000 0.000000 0.500000
O O12 0.500000 0.500000 0.000000
#
# Coordination Sequence:
#
# PCOD9031309 Si02
#       5
#     2   2   2   2   2
#     4  11  26  47  74 110 145 190 239 292 356 430
#     4  12  25  49  75 105 144 191 238 297 358 425
#     4  11  25  47  76 102 149 186 235 299 353 427
#     4  10  22  43  66 102 138 183 228 282 349 415
#     4  12  29  48  74 108 141 188 244 298 359 421
#
# _framework density 24.981507000000001
#
# number of rings (size 3 to 8) (size 9 to 14) (size 15 to 20)
#    0.000    0.800    4.000    1.800    5.600    0.800 
#    7.200    0.000    0.000    0.000    0.000    0.000 
#    0.000    0.000    0.000    0.000    0.000    0.000 
#
# Total GULP energy -56005.121069 kJ/mol
# GULP energy per Si atom -5600.512107 kJ/mol
# Density = 2.492465 g / cm^3
# Si number density = 24.981507 Si / 1000 Ang^3
#
#
#
# Elastic Constant Matrix: (Units=GPa)
#
#
# Indices 1 2 3 4 5 6 
#
# 1 134.1223 45.9832 50.1683 -14.6414 -11.5765 -40.4444
# 2 45.9832 187.0887 66.6817 -3.3864 -14.4196 -38.2851
# 3 50.1683 66.6817 218.6818 -39.2652 -13.0072 -32.1722
# 4 -14.6414 -3.3864 -39.2652 55.4927 -8.7972 2.2551
# 5 -11.5765 -14.4196 -13.0072 -8.7972 49.5245 2.2412
# 6 -40.4444 -38.2851 -32.1722 2.2551 2.2412 42.2168
#
#
#
# Elastic Compliance Matrix: (Units=1/GPa)
#
#
# Indices 1 2 3 4 5 6 
#
# 1 0.011185 -0.000366 -0.000392 0.002637 0.002429 0.009815
# 2 -0.000366 0.007019 -0.001369 -0.000638 0.001262 0.004939
# 3 -0.000392 -0.001369 0.006443 0.004549 0.001876 0.002949
# 4 0.002637 -0.000638 0.004549 0.022603 0.005463 0.003918
# 5 0.002429 0.001262 0.001876 0.005463 0.022436 0.003419
# 6 0.009815 0.004939 0.002949 0.003918 0.003419 0.039426
#
#
# Mechanical properties :
#
#
# Convention : Reuss Voigt Hill
#
# Bulk Modulus (GPa) = 49.03785 96.17324 72.60554
# Shear Modulus (GPa) = 41.60928 54.58410 48.09669
#
# Velocity S-wave (km/s) = 4.08561 4.67945 4.39257
# Velocity P-wave (km/s) = 6.47522 8.23272 7.40629
#
# Compressibility (1/GPa) = 0.02039241
#
# Stress axis : x y z
#
# Youngs Moduli (GPa) = 89.40177 142.46271 155.21214
#
# Poissons Ratio (x) = 0.05211 0.06092
# Poissons Ratio (y) = 0.03270 0.21254
# Poissons Ratio (z) = 0.03509 0.19508
#
# Static dielectric constant tensor:
#      x y z
#    x 1.991740 0.117510 0.012680 
#    y 0.117510 1.976380 -0.008250 
#    z 0.012680 -0.008250 2.066700 
# 
# From -- ./inp_files/371177.got.cif
#   From: 2010.05.17/outbox.cif.g08.bks.cpg/sg2_186_cif.got.tgz:371177.got - 2010.06.03 11:33:40.
