data_PCOD9031173
_publ_section_title
;
Structure prediction by ZEFSAII (Michael W. Deem and Ramdas Pophale) SiO2 
 PCOD9031173
Probable space group: P -1
;
_chemical_formula_sum "Si O2"
_cell_formula_units_Z 14
_cell_length_a 10.926584
_cell_length_b 14.123899
_cell_length_c 22.797140
_cell_angle_alpha 20.065945
_cell_angle_beta 29.896172
_cell_angle_gamma 32.077207
_cell_volume 590.325802
_symmetry_space_group_name_H-M "P -1"
_symmetry_group_IT_number 2
_symmetry_cell_setting 'triclinic'
loop_
_space_group_symop_operation_xyz
x,y,z
-x,-y,-z
loop_
_atom_site_type_symbol
_atom_site_label
_atom_site_fract_x
_atom_site_fract_y
_atom_site_fract_z
Si Si1 0.384400 0.956623 0.746137
Si Si2 0.690580 0.023233 0.096128
Si Si3 0.407673 0.714123 0.691097
Si Si4 0.069365 0.623713 0.302088
Si Si5 0.801437 0.426932 0.423100
Si Si6 0.260238 0.464112 0.014736
Si Si7 0.866897 0.164986 0.387489
O O1 0.327854 0.931539 0.852688
O O2 0.613711 0.120079 0.550869
O O3 0.417969 0.657768 0.873673
O O4 0.135921 0.153700 0.707748
O O5 0.402055 0.142800 0.129587
O O6 0.835548 0.706907 0.211083
O O7 0.820349 0.219384 0.888128
O O8 0.679587 0.507226 0.691260
O O9 0.235391 0.773011 0.672136
O O10 0.500000 0.000000 0.500000
O O11 0.251871 0.613075 0.868248
O O12 0.907993 0.435741 0.440533
O O13 0.500000 0.500000 0.500000
O O14 0.951582 0.138427 0.502713
O O15 0.027098 0.413145 0.180715
#
# Coordination Sequence:
#
# PCOD9031173 Si02
#       7
#     2   2   2   2   2   2   2
#     4  11  23  41  63  98 136 170 203 275 325 383
#     4  10  22  43  65  91 131 177 212 258 331 386
#     4  11  21  45  72  88 126 176 220 266 314 388
#     4  10  23  44  68  92 126 179 216 259 326 389
#     4  11  20  38  62  93 130 162 214 266 307 389
#     4  11  23  42  66  97 130 168 217 269 319 385
#     4  12  24  42  67 101 128 170 222 261 328 377
#
# _framework density 23.715717000000001
#
# number of rings (size 3 to 8) (size 9 to 14) (size 15 to 20)
#    0.000    1.143    4.286    3.429    0.000    2.286 
#   10.286    0.714    0.000    0.000    0.000    0.000 
#    0.000    0.000    0.000    0.000    0.000    0.000 
#
# Total GULP energy -77988.438761 kJ/mol
# GULP energy per Si atom -5570.602769 kJ/mol
# Density = 2.366174 g / cm^3
# Si number density = 23.715717 Si / 1000 Ang^3
#
#
#
# Elastic Constant Matrix: (Units=GPa)
#
#
# Indices 1 2 3 4 5 6 
#
# 1 73.3954 17.2314 27.0715 0.5667 13.2932 -8.0835
# 2 17.2314 118.4739 44.5290 2.4028 12.4106 -19.5650
# 3 27.0715 44.5290 98.4716 10.5108 8.1615 -15.2477
# 4 0.5667 2.4028 10.5108 36.2331 -11.8358 -1.2256
# 5 13.2932 12.4106 8.1615 -11.8358 32.7697 2.1241
# 6 -8.0835 -19.5650 -15.2477 -1.2256 2.1241 28.9514
#
#
#
# Elastic Compliance Matrix: (Units=1/GPa)
#
#
# Indices 1 2 3 4 5 6 
#
# 1 0.016400 0.000146 -0.003376 -0.001317 -0.006559 0.003326
# 2 0.000146 0.011263 -0.003801 -0.000766 -0.004038 0.005914
# 3 -0.003376 -0.003801 0.014102 -0.004497 -0.002581 0.003915
# 4 -0.001317 -0.000766 -0.004497 0.033529 0.014241 -0.002879
# 5 -0.006559 -0.004038 -0.002581 0.014241 0.041032 -0.008327
# 6 0.003326 0.005914 0.003915 -0.002879 -0.008327 0.042017
#
#
# Mechanical properties :
#
#
# Convention : Reuss Voigt Hill
#
# Bulk Modulus (GPa) = 36.09552 52.00052 44.04802
# Shear Modulus (GPa) = 27.52697 33.02477 30.27587
#
# Velocity S-wave (km/s) = 3.41061 3.73571 3.57685
# Velocity P-wave (km/s) = 5.54642 6.37036 5.97262
#
# Compressibility (1/GPa) = 0.02770427
#
# Stress axis : x y z
#
# Youngs Moduli (GPa) = 60.97607 88.78320 70.91029
#
# Poissons Ratio (x) = -0.01300 0.23937
# Poissons Ratio (y) = -0.00893 0.26956
# Poissons Ratio (z) = 0.20584 0.33750
#
# Static dielectric constant tensor:
#      x y z
#    x 2.057110 -0.171920 -0.152250 
#    y -0.171920 2.157160 0.094910 
#    z -0.152250 0.094910 2.098430 
# 
# From -- ./inp_files/610481.got.cif
#   From: 2010.05.17/outbox.cif.g08.bks.cpg/sg2_306_cif.got.tgz:610481.got - 2010.06.03 11:33:40.
