data_PCOD9031843
_publ_section_title
;
Structure prediction by ZEFSAII (Michael W. Deem and Ramdas Pophale) SiO2 
 PCOD9031843
Probable space group: P -1
;
_chemical_formula_sum "Si O2"
_cell_formula_units_Z 16
_cell_length_a 9.286404
_cell_length_b 11.733851
_cell_length_c 8.552655
_cell_angle_alpha 64.951910
_cell_angle_beta 64.369472
_cell_angle_gamma 55.694789
_cell_volume 673.598892
_symmetry_space_group_name_H-M "P -1"
_symmetry_group_IT_number 2
_symmetry_cell_setting 'triclinic'
loop_
_space_group_symop_operation_xyz
x,y,z
-x,-y,-z
loop_
_atom_site_type_symbol
_atom_site_label
_atom_site_fract_x
_atom_site_fract_y
_atom_site_fract_z
Si Si1 0.298140 0.569624 0.987624
Si Si2 0.906286 0.152209 0.868637
Si Si3 0.713097 0.605638 0.351145
Si Si4 0.308578 0.833995 0.334439
Si Si5 0.850659 0.318977 0.336153
Si Si6 0.242551 0.175828 0.599715
Si Si7 0.431435 0.057121 0.251554
Si Si8 0.791230 0.667435 0.938932
O O1 0.176832 0.714894 0.051520
O O2 0.227175 0.451481 0.087357
O O3 0.500000 0.500000 0.000000
O O4 0.282787 0.614567 0.787218
O O5 0.755374 0.161012 0.814511
O O6 0.056259 0.171899 0.687653
O O7 0.000000 0.000000 0.000000
O O8 0.500306 0.698087 0.364200
O O9 0.775230 0.439843 0.435698
O O10 0.768332 0.677269 0.422623
O O11 0.808078 0.619732 0.138362
O O12 0.162639 0.817852 0.521980
O O13 0.333211 0.969218 0.287564
O O14 0.044791 0.302103 0.204872
O O15 0.344304 0.130920 0.414069
O O16 0.365611 0.057987 0.739056
O O17 0.390402 0.184611 0.079607
#
# Coordination Sequence:
#
# PCOD9031843 Si02
#       8
#     2   2   2   2   2   2   2   2
#     4  11  26  45  69 104 138 179 226 280 344 401
#     4  12  27  41  68 103 137 173 228 288 332 401
#     4  10  22  43  68  96 128 178 227 277 336 403
#     4  11  26  43  65 100 138 179 225 278 347 402
#     4  11  23  43  71  95 137 177 226 277 342 408
#     4  10  23  42  63  96 137 170 232 272 342 392
#     4  10  25  42  66  96 134 188 217 279 337 416
#     4  11  23  42  70  93 133 177 231 267 342 401
#
# _framework density 23.753008999999999
#
# number of rings (size 3 to 8) (size 9 to 14) (size 15 to 20)
#    0.000    1.250    0.000    5.625    8.750    5.000 
#    0.000    2.500    0.000    0.000    0.000    0.000 
#    0.000    0.000    0.000    0.000    0.000    0.000 
#
# Total GULP energy -89641.221885 kJ/mol
# GULP energy per Si atom -5602.576368 kJ/mol
# Density = 2.369895 g / cm^3
# Si number density = 23.753009 Si / 1000 Ang^3
#
#
#
# Elastic Constant Matrix: (Units=GPa)
#
#
# Indices 1 2 3 4 5 6 
#
# 1 140.6750 32.3794 28.3975 -1.9798 -11.2268 16.1912
# 2 32.3794 100.1357 10.2999 -9.3957 -1.5168 16.0402
# 3 28.3975 10.2999 39.8718 -7.4006 -15.9103 5.7730
# 4 -1.9798 -9.3957 -7.4006 33.4546 -4.3127 9.0293
# 5 -11.2268 -1.5168 -15.9103 -4.3127 29.7271 6.6986
# 6 16.1912 16.0402 5.7730 9.0293 6.6986 35.4289
#
#
#
# Elastic Compliance Matrix: (Units=1/GPa)
#
#
# Indices 1 2 3 4 5 6 
#
# 1 0.008972 -0.001998 -0.005196 -0.000393 0.000998 -0.002438
# 2 -0.001998 0.012194 0.001685 0.005988 0.003219 -0.007017
# 3 -0.005196 0.001685 0.045456 0.018195 0.028664 -0.015852
# 4 -0.000393 0.005988 0.018195 0.043834 0.020901 -0.020619
# 5 0.000998 0.003219 0.028664 0.020901 0.057696 -0.022820
# 6 -0.002438 -0.007017 -0.015852 -0.020619 -0.022820 0.044669
#
#
# Mechanical properties :
#
#
# Convention : Reuss Voigt Hill
#
# Bulk Modulus (GPa) = 17.98418 46.98179 32.48298
# Shear Modulus (GPa) = 20.62936 33.69582 27.16259
#
# Velocity S-wave (km/s) = 2.95022 3.77051 3.38530
# Velocity P-wave (km/s) = 4.38096 6.22719 5.38380
#
# Compressibility (1/GPa) = 0.05560442
#
# Stress axis : x y z
#
# Youngs Moduli (GPa) = 111.45832 82.00885 21.99936
#
# Poissons Ratio (x) = 0.16385 0.11430
# Poissons Ratio (y) = 0.22269 -0.03707
# Poissons Ratio (z) = 0.57911 -0.13820
#
# Static dielectric constant tensor:
#      x y z
#    x 1.902320 -0.055960 0.000560 
#    y -0.055960 1.920150 -0.011250 
#    z 0.000560 -0.011250 1.912750 
# 
# From -- ./inp_files/185699.got.cif
#   From: 2010.05.17/outbox.cif.g08.bks.cpg/sg2_93_cif.got.tgz:185699.got - 2010.06.03 11:33:40.
