data_PCOD9031158
_publ_section_title
;
Structure prediction by ZEFSAII (Michael W. Deem and Ramdas Pophale) SiO2 
 PCOD9031158
Probable space group: P -1
;
_chemical_formula_sum "Si O2"
_cell_formula_units_Z 12
_cell_length_a 10.153060
_cell_length_b 10.454288
_cell_length_c 7.822474
_cell_angle_alpha 57.983544
_cell_angle_beta 84.168138
_cell_angle_gamma 125.875354
_cell_volume 456.319084
_symmetry_space_group_name_H-M "P -1"
_symmetry_group_IT_number 2
_symmetry_cell_setting 'triclinic'
loop_
_space_group_symop_operation_xyz
x,y,z
-x,-y,-z
loop_
_atom_site_type_symbol
_atom_site_label
_atom_site_fract_x
_atom_site_fract_y
_atom_site_fract_z
Si Si1 0.331316 0.499692 0.895249
Si Si2 0.220114 0.795148 0.962844
Si Si3 0.571343 0.909036 0.817651
Si Si4 0.946880 0.778329 0.194466
Si Si5 0.021559 0.723959 0.683771
Si Si6 0.586287 0.495500 0.663320
O O1 0.444381 0.740196 0.787979
O O2 0.209281 0.413885 0.796002
O O3 0.507772 0.536199 0.795441
O O4 0.150476 0.312043 0.189901
O O5 0.134925 0.832622 0.092045
O O6 0.097440 0.530622 0.177501
O O7 0.460856 0.972402 0.819481
O O8 0.153922 0.801660 0.782885
O O9 0.804019 0.091985 0.606217
O O10 0.510219 0.743762 0.094797
O O11 0.820805 0.669137 0.464063
O O12 0.000000 0.000000 0.000000
O O13 0.500000 0.500000 0.500000
#
# Coordination Sequence:
#
# PCOD9031158 Si02
#       6
#     2   2   2   2   2   2
#     4   9  21  40  63  94 126 159 222 265 302 395
#     4   9  20  39  61  98 128 163 221 262 310 400
#     4  11  21  39  70  96 125 170 215 274 318 372
#     4  10  22  43  65  88 133 180 204 261 332 380
#     4   9  19  38  65  97 129 165 207 274 328 362
#     4  10  23  43  60  94 135 168 217 266 320 388
#
# _framework density 26.297385999999999
#
# number of rings (size 3 to 8) (size 9 to 14) (size 15 to 20)
#    0.000    2.333    0.000    2.000    4.667    1.333 
#   18.000    0.833    0.000    0.000    0.000    0.000 
#    0.000    0.000    0.000    0.000    0.000    0.000 
#
# Total GULP energy -67097.265144 kJ/mol
# GULP energy per Si atom -5591.438762 kJ/mol
# Density = 2.623753 g / cm^3
# Si number density = 26.297386 Si / 1000 Ang^3
#
#
#
# Elastic Constant Matrix: (Units=GPa)
#
#
# Indices 1 2 3 4 5 6 
#
# 1 163.5590 9.4290 85.4738 19.4485 -69.4468 -29.7925
# 2 9.4290 84.3691 36.4274 28.7975 -20.5918 -21.0747
# 3 85.4738 36.4274 242.1955 22.4848 -52.9742 -19.2131
# 4 19.4485 28.7975 22.4848 44.8907 2.3785 -13.9574
# 5 -69.4468 -20.5918 -52.9742 2.3785 68.3037 11.6264
# 6 -29.7925 -21.0747 -19.2131 -13.9574 11.6264 32.1726
#
#
#
# Elastic Compliance Matrix: (Units=1/GPa)
#
#
# Indices 1 2 3 4 5 6 
#
# 1 0.016685 0.008852 -0.001837 -0.009841 0.016886 0.009781
# 2 0.008852 0.022528 -0.001323 -0.014976 0.013447 0.010807
# 3 -0.001837 -0.001323 0.005537 -0.001459 0.002196 -0.000687
# 4 -0.009841 -0.014976 -0.001459 0.038876 -0.017589 0.003427
# 5 0.016886 0.013447 0.002196 -0.017589 0.037394 0.004613
# 6 0.009781 0.010807 -0.000687 0.003427 0.004613 0.046628
#
#
# Mechanical properties :
#
#
# Convention : Reuss Voigt Hill
#
# Bulk Modulus (GPa) = 17.81436 83.64268 50.72852
# Shear Modulus (GPa) = 28.57529 52.99296 40.78412
#
# Velocity S-wave (km/s) = 3.29997 4.49390 3.94240
# Velocity P-wave (km/s) = 4.61613 7.66827 6.32894
#
# Compressibility (1/GPa) = 0.05613448
#
# Stress axis : x y z
#
# Youngs Moduli (GPa) = 59.93294 44.38867 180.59060
#
# Poissons Ratio (x) = -0.39293 0.33172
# Poissons Ratio (y) = -0.53052 0.23898
# Poissons Ratio (z) = 0.11009 0.05874
#
# Static dielectric constant tensor:
#      x y z
#    x 2.286130 0.064730 -0.029220 
#    y 0.064730 2.054770 0.019350 
#    z -0.029220 0.019350 2.030000 
# 
# From -- ./inp_files/256844.got.cif
#   From: 2010.05.17/outbox.cif.g08.bks.cpg/sg2_129_cif.got.tgz:256844.got - 2010.06.03 11:33:40.
