data_PCOD9031858
_publ_section_title
;
Structure prediction by ZEFSAII (Michael W. Deem and Ramdas Pophale) SiO2 
 PCOD9031858
Probable space group: P -1
;
_chemical_formula_sum "Si O2"
_cell_formula_units_Z 16
_cell_length_a 9.895700
_cell_length_b 18.997373
_cell_length_c 8.537365
_cell_angle_alpha 111.938408
_cell_angle_beta 64.745790
_cell_angle_gamma 56.360637
_cell_volume 708.593253
_symmetry_space_group_name_H-M "P -1"
_symmetry_group_IT_number 2
_symmetry_cell_setting 'triclinic'
loop_
_space_group_symop_operation_xyz
x,y,z
-x,-y,-z
loop_
_atom_site_type_symbol
_atom_site_label
_atom_site_fract_x
_atom_site_fract_y
_atom_site_fract_z
Si Si1 0.540878 0.212446 0.158856
Si Si2 0.813589 0.393055 0.299128
Si Si3 0.772068 0.551875 0.249586
Si Si4 0.311233 0.010015 0.054102
Si Si5 0.358443 0.722339 0.334779
Si Si6 0.888141 0.022262 0.401045
Si Si7 0.261788 0.446194 0.283402
Si Si8 0.753593 0.930965 0.228079
O O1 0.335392 0.337571 0.487099
O O2 0.517526 0.285588 0.096436
O O3 0.867720 0.069017 0.925185
O O4 0.510393 0.137194 0.078785
O O5 0.500000 0.500000 0.500000
O O6 0.899007 0.422472 0.159121
O O7 0.802647 0.447309 0.508716
O O8 0.014267 0.234034 0.059498
O O9 0.494234 0.645786 0.370565
O O10 0.000000 0.500000 0.000000
O O11 0.977949 0.156046 0.401387
O O12 0.310305 0.005564 0.859873
O O13 0.500000 0.000000 0.000000
O O14 0.358262 0.813702 0.386172
O O15 0.601515 0.591372 0.982543
O O16 0.830865 0.960267 0.345337
O O17 0.000000 0.000000 0.500000
O O18 0.000000 0.500000 0.500000
O O19 0.500000 0.000000 0.500000
#
# Coordination Sequence:
#
# PCOD9031858 Si02
#       8
#     2   2   2   2   2   2   2   2
#     4  10  22  43  68  96 139 180 241 288 357 427
#     4  11  26  47  71  99 144 189 237 300 376 436
#     4  11  24  45  71 103 138 189 244 307 358 439
#     4  11  27  44  70 107 154 189 238 310 371 434
#     4  11  23  44  75 106 140 187 251 292 368 431
#     4  11  23  42  78 101 136 188 241 296 361 441
#     4  11  24  42  74 102 139 189 239 290 352 452
#     4  12  29  45  72 107 147 189 244 306 379 435
#
# _framework density 22.579948000000002
#
# number of rings (size 3 to 8) (size 9 to 14) (size 15 to 20)
#    0.000    1.000    1.250    5.250   10.500    2.000 
#    0.000    1.250    0.000    0.000    0.000    0.000 
#    0.000    0.000    0.000    0.000    0.000    0.000 
#
# Total GULP energy -89105.237090 kJ/mol
# GULP energy per Si atom -5569.077318 kJ/mol
# Density = 2.252855 g / cm^3
# Si number density = 22.579948 Si / 1000 Ang^3
#
#
#
# Elastic Constant Matrix: (Units=GPa)
#
#
# Indices 1 2 3 4 5 6 
#
# 1 139.2007 0.6525 48.8796 -0.7245 14.5742 15.3374
# 2 0.6525 54.9675 18.6723 7.3719 14.0483 3.7428
# 3 48.8796 18.6723 103.1532 -8.6580 8.2257 0.8502
# 4 -0.7245 7.3719 -8.6580 34.4749 15.7310 -1.8443
# 5 14.5742 14.0483 8.2257 15.7310 38.8586 1.5568
# 6 15.3374 3.7428 0.8502 -1.8443 1.5568 33.0559
#
#
#
# Elastic Compliance Matrix: (Units=1/GPa)
#
#
# Indices 1 2 3 4 5 6 
#
# 1 0.009707 0.002716 -0.004820 -0.000331 -0.003286 -0.004551
# 2 0.002716 0.022204 -0.005017 -0.003140 -0.006572 -0.003511
# 3 -0.004820 -0.005017 0.013406 0.005130 -0.001406 0.002812
# 4 -0.000331 -0.003140 0.005130 0.038162 -0.015405 0.003232
# 5 -0.003286 -0.006572 -0.001406 -0.015405 0.035887 -0.000245
# 6 -0.004551 -0.003511 0.002812 0.003232 -0.000245 0.032881
#
#
# Mechanical properties :
#
#
# Convention : Reuss Voigt Hill
#
# Bulk Modulus (GPa) = 32.17847 48.19224 40.18536
# Shear Modulus (GPa) = 28.27310 36.55233 32.41272
#
# Velocity S-wave (km/s) = 3.54239 4.02779 3.79286
# Velocity P-wave (km/s) = 5.56895 6.55897 6.08413
#
# Compressibility (1/GPa) = 0.03107667
#
# Stress axis : x y z
#
# Youngs Moduli (GPa) = 103.01425 45.03602 74.59420
#
# Poissons Ratio (x) = -0.12233 0.35953
# Poissons Ratio (y) = -0.27981 0.37423
# Poissons Ratio (z) = 0.49651 0.22594
#
# Static dielectric constant tensor:
#      x y z
#    x 1.969880 0.036230 -0.069740 
#    y 0.036230 2.026940 -0.146780 
#    z -0.069740 -0.146780 1.989160 
# 
# From -- ./inp_files/224048.got.cif
#   From: 2010.05.17/outbox.cif.g08.bks.cpg/sg2_113_cif.got.tgz:224048.got - 2010.06.03 11:33:40.
