data_PCOD9031885
_publ_section_title
;
Structure prediction by ZEFSAII (Michael W. Deem and Ramdas Pophale) SiO2 
 PCOD9031885
Probable space group: P -1
;
_chemical_formula_sum "Si O2"
_cell_formula_units_Z 16
_cell_length_a 25.997848
_cell_length_b 12.314284
_cell_length_c 6.248392
_cell_angle_alpha 46.735937
_cell_angle_beta 131.698723
_cell_angle_gamma 151.100837
_cell_volume 691.786926
_symmetry_space_group_name_H-M "P -1"
_symmetry_group_IT_number 2
_symmetry_cell_setting 'triclinic'
loop_
_space_group_symop_operation_xyz
x,y,z
-x,-y,-z
loop_
_atom_site_type_symbol
_atom_site_label
_atom_site_fract_x
_atom_site_fract_y
_atom_site_fract_z
Si Si1 0.030989 0.988750 0.345711
Si Si2 0.031700 0.661891 0.181071
Si Si3 0.621382 0.020573 0.897288
Si Si4 0.383680 0.691633 0.798128
Si Si5 0.611650 0.766138 0.889845
Si Si6 0.212536 0.178126 0.858821
Si Si7 0.111894 0.531261 0.299094
Si Si8 0.664829 0.143173 0.299857
O O1 0.156001 0.159122 0.518785
O O2 0.000000 0.000000 0.500000
O O3 0.973322 0.733553 0.504872
O O4 0.000000 0.000000 0.000000
O O5 0.088231 0.652098 0.171455
O O6 0.000000 0.500000 0.500000
O O7 0.915485 0.516756 0.961729
O O8 0.118044 0.940256 0.061098
O O9 0.495104 0.792791 0.923791
O O10 0.620575 0.171648 0.555444
O O11 0.655288 0.926336 0.001943
O O12 0.693070 0.165913 0.104520
O O13 0.279812 0.415329 0.851189
O O14 0.386489 0.780340 0.912822
O O15 0.699246 0.798254 0.997795
O O16 0.500000 0.500000 0.000000
O O17 0.595666 0.883303 0.532516
O O18 0.227741 0.678529 0.501880
#
# Coordination Sequence:
#
# PCOD9031885 Si02
#       8
#     2   2   2   2   2   2   2   2
#     4  11  27  48  72 111 150 196 254 316 378 460
#     4  10  23  44  69  99 138 183 236 305 370 443
#     4  10  23  42  69  98 140 194 229 300 353 432
#     4  10  22  43  68  97 142 183 243 294 357 438
#     4  11  23  46  68 103 147 183 241 298 358 443
#     4  11  23  48  73 108 141 192 247 305 378 442
#     4  10  23  43  66 100 139 181 239 297 366 448
#     4  11  23  43  66 102 140 185 239 285 375 433
#
# _framework density 23.128506999999999
#
# number of rings (size 3 to 8) (size 9 to 14) (size 15 to 20)
#    0.000    1.500    2.500    1.125    5.250    2.500 
#    2.250    0.000    0.000    0.000    0.000    0.000 
#    0.000    0.000    0.000    0.000    0.000    0.000 
#
# Total GULP energy -89095.311461 kJ/mol
# GULP energy per Si atom -5568.456966 kJ/mol
# Density = 2.307587 g / cm^3
# Si number density = 23.128507 Si / 1000 Ang^3
#
#
#
# Elastic Constant Matrix: (Units=GPa)
#
#
# Indices 1 2 3 4 5 6 
#
# 1 87.6155 39.2273 20.1267 -4.5025 0.3979 -17.1566
# 2 39.2273 141.9537 33.7158 -0.1149 4.9447 -7.8974
# 3 20.1267 33.7158 82.8435 10.0290 -0.3255 -5.8860
# 4 -4.5025 -0.1149 10.0290 26.7960 -6.3100 9.5103
# 5 0.3979 4.9447 -0.3255 -6.3100 22.5839 -5.0241
# 6 -17.1566 -7.8974 -5.8860 9.5103 -5.0241 32.0915
#
#
#
# Elastic Compliance Matrix: (Units=1/GPa)
#
#
# Indices 1 2 3 4 5 6 
#
# 1 0.014698 -0.003319 -0.001901 0.001347 0.002297 0.006653
# 2 -0.003319 0.008663 -0.002797 0.000263 -0.001924 -0.000534
# 3 -0.001901 -0.002797 0.014732 -0.007015 -0.000433 0.003008
# 4 0.001347 0.000263 -0.007015 0.047128 0.010119 -0.012884
# 5 0.002297 -0.001924 -0.000433 0.010119 0.048659 0.005294
# 6 0.006653 -0.000534 0.003008 -0.012884 0.005294 0.039785
#
#
# Mechanical properties :
#
#
# Convention : Reuss Voigt Hill
#
# Bulk Modulus (GPa) = 45.33224 55.39469 50.36347
# Shear Modulus (GPa) = 25.37399 30.91713 28.14556
#
# Velocity S-wave (km/s) = 3.31582 3.66013 3.49222
# Velocity P-wave (km/s) = 5.85682 6.47031 6.17119
#
# Compressibility (1/GPa) = 0.02205936
#
# Stress axis : x y z
#
# Youngs Moduli (GPa) = 68.03825 115.42742 67.87716
#
# Poissons Ratio (x) = 0.38307 0.12907
# Poissons Ratio (y) = 0.22580 0.18985
# Poissons Ratio (z) = 0.12937 0.32284
#
# Static dielectric constant tensor:
#      x y z
#    x 2.195900 0.077370 0.026650 
#    y 0.077370 1.864300 0.044600 
#    z 0.026650 0.044600 2.019910 
# 
# From -- ./inp_files/126835.got.cif
#   From: 2010.05.17/outbox.cif.g08.bks.cpg/sg2_64_cif.got.tgz:126835.got - 2010.06.03 11:33:40.
