data_PCOD9031154
_publ_section_title
;
Structure prediction by ZEFSAII (Michael W. Deem and Ramdas Pophale) SiO2 
 PCOD9031154
Probable space group: P -1
;
_chemical_formula_sum "Si O2"
_cell_formula_units_Z 8
_cell_length_a 9.990533
_cell_length_b 5.404256
_cell_length_c 15.379679
_cell_angle_alpha 78.494448
_cell_angle_beta 158.416290
_cell_angle_gamma 98.414977
_cell_volume 297.552823
_symmetry_space_group_name_H-M "P -1"
_symmetry_group_IT_number 2
_symmetry_cell_setting 'triclinic'
loop_
_space_group_symop_operation_xyz
x,y,z
-x,-y,-z
loop_
_atom_site_type_symbol
_atom_site_label
_atom_site_fract_x
_atom_site_fract_y
_atom_site_fract_z
Si Si1 0.313671 0.190245 0.158416
Si Si2 0.512608 0.905447 0.911403
Si Si3 0.637415 0.263063 0.536896
Si Si4 0.348840 0.461471 0.774610
O O1 0.543172 0.034092 0.231829
O O2 0.502821 0.272825 0.354807
O O3 0.301839 0.459972 0.077182
O O4 0.000000 0.000000 0.000000
O O5 0.274858 0.671888 0.790872
O O6 0.421652 0.181224 0.875673
O O7 0.930624 0.799804 0.184999
O O8 0.500000 0.500000 0.500000
O O9 0.500000 0.000000 0.500000
O O10 0.000000 0.500000 0.500000
#
# Coordination Sequence:
#
# PCOD9031154 Si02
#       4
#     2   2   2   2
#     4  10  24  40  66  93 127 163 210 256 315 363
#     4  10  23  39  65  87 129 160 212 249 312 364
#     4  12  24  38  61  95 132 160 203 258 315 367
#     4  10  22  43  65  87 125 168 207 254 310 368
#
# _framework density 26.885981999999998
#
# number of rings (size 3 to 8) (size 9 to 14) (size 15 to 20)
#    1.500    0.000    2.500    2.250    3.500    2.000 
#    0.000    2.500    0.000    0.000    0.000    0.000 
#    0.000    0.000    0.000    0.000    0.000    0.000 
#
# Total GULP energy -44579.458251 kJ/mol
# GULP energy per Si atom -5572.432281 kJ/mol
# Density = 2.682479 g / cm^3
# Si number density = 26.885982 Si / 1000 Ang^3
#
#
#
# Elastic Constant Matrix: (Units=GPa)
#
#
# Indices 1 2 3 4 5 6 
#
# 1 115.0877 48.5337 32.8436 8.2325 -9.3484 -3.4677
# 2 48.5337 263.9808 100.3583 16.6691 3.7115 0.1346
# 3 32.8436 100.3583 172.2948 25.3758 -15.5017 -21.4522
# 4 8.2325 16.6691 25.3758 53.1132 -11.2510 -12.0850
# 5 -9.3484 3.7115 -15.5017 -11.2510 38.8882 19.5453
# 6 -3.4677 0.1346 -21.4522 -12.0850 19.5453 65.7425
#
#
#
# Elastic Compliance Matrix: (Units=1/GPa)
#
#
# Indices 1 2 3 4 5 6 
#
# 1 0.009745 -0.001507 -0.000790 -0.000276 0.002336 -0.000486
# 2 -0.001507 0.005239 -0.002927 -0.000546 -0.001894 -0.000583
# 3 -0.000790 -0.002927 0.008365 -0.002154 0.001935 0.001723
# 4 -0.000276 -0.000546 -0.002154 0.021433 0.004359 0.001928
# 5 0.002336 -0.001894 0.001935 0.004359 0.032573 -0.008124
# 6 -0.000486 -0.000583 0.001723 0.001928 -0.008124 0.018518
#
#
# Mechanical properties :
#
#
# Convention : Reuss Voigt Hill
#
# Bulk Modulus (GPa) = 77.50435 101.64827 89.57631
# Shear Modulus (GPa) = 45.19942 56.19064 50.69503
#
# Velocity S-wave (km/s) = 4.10463 4.57657 4.34701
# Velocity P-wave (km/s) = 7.16615 8.11270 7.65407
#
# Compressibility (1/GPa) = 0.01290250
#
# Stress axis : x y z
#
# Youngs Moduli (GPa) = 102.62152 190.86225 119.54017
#
# Poissons Ratio (x) = 0.28753 0.09440
# Poissons Ratio (y) = 0.15460 0.34992
# Poissons Ratio (z) = 0.08104 0.55869
#
# Static dielectric constant tensor:
#      x y z
#    x 2.354440 -0.099780 -0.184670 
#    y -0.099780 2.368340 0.058090 
#    z -0.184670 0.058090 2.169270 
# 
# From -- ./inp_files/288063.got.cif
#   From: 2010.05.17/outbox.cif.g08.bks.cpg/sg2_145_cif.got.tgz:288063.got - 2010.06.03 11:33:40.
