data_PCOD9031258
_publ_section_title
;
Structure prediction by ZEFSAII (Michael W. Deem and Ramdas Pophale) SiO2 
 PCOD9031258
Probable space group: P -1
;
_chemical_formula_sum "Si O2"
_cell_formula_units_Z 15
_cell_length_a 7.848436
_cell_length_b 16.926235
_cell_length_c 16.779461
_cell_angle_alpha 23.726469
_cell_angle_beta 41.100272
_cell_angle_gamma 45.935210
_cell_volume 589.475954
_symmetry_space_group_name_H-M "P -1"
_symmetry_group_IT_number 2
_symmetry_cell_setting 'triclinic'
loop_
_space_group_symop_operation_xyz
x,y,z
-x,-y,-z
loop_
_atom_site_type_symbol
_atom_site_label
_atom_site_fract_x
_atom_site_fract_y
_atom_site_fract_z
Si Si1 0.500000 0.000000 0.000000
Si Si2 0.993351 0.342326 0.329734
Si Si3 0.330516 0.293330 0.917184
Si Si4 0.138271 0.130797 0.898377
Si Si5 0.766733 0.011980 0.634235
Si Si6 0.529546 0.225557 0.163129
Si Si7 0.254700 0.520248 0.281714
Si Si8 0.875839 0.890163 0.349306
O O1 0.461754 0.205119 0.874083
O O2 0.559370 0.884112 0.178216
O O3 0.275996 0.297511 0.232470
O O4 0.997353 0.241576 0.506013
O O5 0.905579 0.564857 0.155669
O O6 0.782544 0.233694 0.450439
O O7 0.547197 0.400662 0.795077
O O8 0.203951 0.133979 0.167575
O O9 0.080760 0.012598 0.112367
O O10 0.000000 0.000000 0.000000
O O11 0.007909 0.345846 0.740117
O O12 0.527495 0.924561 0.751957
O O13 0.000000 0.000000 0.500000
O O14 0.711577 0.064553 0.291044
O O15 0.642455 0.410594 0.905872
O O16 0.233208 0.285458 0.505455
#
# Coordination Sequence:
#
# PCOD9031258 Si02
#       8
#     1   2   2   2   2   2   2   2
#     4  12  24  46  72  96 132 176 222 280 342 388
#     4  11  22  38  62 101 133 172 226 271 331 407
#     4  11  23  41  66  98 135 178 224 283 334 394
#     4  11  24  47  69  94 132 175 222 285 332 386
#     4   9  20  39  64  92 129 172 219 274 328 395
#     4   9  21  38  64  92 136 176 212 274 333 395
#     4  10  22  43  65  97 133 176 221 270 342 400
#     4  11  23  40  64  96 132 173 221 272 339 406
#
# _framework density 25.44633
#
# number of rings (size 3 to 8) (size 9 to 14) (size 15 to 20)
#    0.000    1.600    1.333    2.800    0.000    9.067 
#    2.400    3.333    0.000    0.000    0.000    0.000 
#    0.000    0.000    0.000    0.000    0.000    0.000 
#
# Total GULP energy -83593.149300 kJ/mol
# GULP energy per Si atom -5572.876620 kJ/mol
# Density = 2.538841 g / cm^3
# Si number density = 25.446330 Si / 1000 Ang^3
#
#
#
# Elastic Constant Matrix: (Units=GPa)
#
#
# Indices 1 2 3 4 5 6 
#
# 1 106.1376 24.7430 11.3746 -13.6821 6.1427 17.8284
# 2 24.7430 131.8648 44.2610 -30.3169 16.0863 -15.2265
# 3 11.3746 44.2610 97.8253 -26.6184 2.3489 -17.2249
# 4 -13.6821 -30.3169 -26.6184 42.8584 -6.1861 4.2288
# 5 6.1427 16.0863 2.3489 -6.1861 48.3581 -12.3303
# 6 17.8284 -15.2265 -17.2249 4.2288 -12.3303 34.8094
#
#
#
# Elastic Compliance Matrix: (Units=1/GPa)
#
#
# Indices 1 2 3 4 5 6 
#
# 1 0.011966 -0.001990 -0.001462 0.001982 -0.002819 -0.008962
# 2 -0.001990 0.010472 -0.002679 0.004553 -0.001725 0.003110
# 3 -0.001462 -0.002679 0.014510 0.006386 0.002984 0.007038
# 4 0.001982 0.004553 0.006386 0.031363 0.002219 0.001113
# 5 -0.002819 -0.001725 0.002984 0.002219 0.024441 0.010553
# 6 -0.008962 0.003110 0.007038 0.001113 0.010553 0.041764
#
#
# Mechanical properties :
#
#
# Convention : Reuss Voigt Hill
#
# Bulk Modulus (GPa) = 40.50801 55.17609 47.84205
# Shear Modulus (GPa) = 32.25662 42.23512 37.24587
#
# Velocity S-wave (km/s) = 3.56425 4.07845 3.82999
# Velocity P-wave (km/s) = 5.73516 6.62637 6.19680
#
# Compressibility (1/GPa) = 0.02468647
#
# Stress axis : x y z
#
# Youngs Moduli (GPa) = 83.56797 95.48827 68.91967
#
# Poissons Ratio (x) = 0.19002 0.10077
# Poissons Ratio (y) = 0.16630 0.18463
# Poissons Ratio (z) = 0.12218 0.25581
#
# Static dielectric constant tensor:
#      x y z
#    x 2.633780 0.011470 -0.038530 
#    y 0.011470 1.888930 -0.033490 
#    z -0.038530 -0.033490 1.982410 
# 
# From -- ./inp_files/38009.got.cif
#   From: 2010.05.17/outbox.cif.g08.bks.cpg/sg2_20_cif.got.tgz:38009.got - 2010.06.03 11:33:40.
