data_PCOD9031989
_publ_section_title
;
Structure prediction by ZEFSAII (Michael W. Deem and Ramdas Pophale) SiO2 
 PCOD9031989
Probable space group: P -1
;
_chemical_formula_sum "Si O2"
_cell_formula_units_Z 16
_cell_length_a 17.529199
_cell_length_b 5.016795
_cell_length_c 10.511438
_cell_angle_alpha 67.677954
_cell_angle_beta 53.386227
_cell_angle_gamma 56.487958
_cell_volume 616.871806
_symmetry_space_group_name_H-M "P -1"
_symmetry_group_IT_number 2
_symmetry_cell_setting 'triclinic'
loop_
_space_group_symop_operation_xyz
x,y,z
-x,-y,-z
loop_
_atom_site_type_symbol
_atom_site_label
_atom_site_fract_x
_atom_site_fract_y
_atom_site_fract_z
Si Si1 0.858267 0.455315 0.510363
Si Si2 0.229117 0.874612 0.665409
Si Si3 0.330049 0.651513 0.357753
Si Si4 0.732150 0.770746 0.832817
Si Si5 0.015494 0.903163 0.856316
Si Si6 0.934500 0.628322 0.778366
Si Si7 0.513586 0.009415 0.331757
Si Si8 0.353491 0.617087 0.838276
O O1 0.791138 0.268015 0.570038
O O2 0.809821 0.593261 0.670120
O O3 0.984378 0.291933 0.401323
O O4 0.823469 0.757869 0.393291
O O5 0.326606 0.711778 0.501189
O O6 0.141909 0.746531 0.747604
O O7 0.263908 0.808924 0.787977
O O8 0.405976 0.280322 0.330284
O O9 0.352935 0.895322 0.202882
O O10 0.810360 0.821310 0.845877
O O11 0.684996 0.551943 0.985261
O O12 0.963698 0.698118 0.878513
O O13 0.963749 0.259643 0.783224
O O14 0.000000 0.000000 0.000000
O O15 0.599498 0.148289 0.200395
O O16 0.500000 0.000000 0.500000
O O17 0.556600 0.670908 0.280429
#
# Coordination Sequence:
#
# PCOD9031989 Si02
#       8
#     2   2   2   2   2   2   2   2
#     4  10  23  45  72 103 144 198 245 288 348 434
#     4  10  22  43  69 102 136 187 238 302 352 422
#     4  11  24  45  73  98 143 187 247 292 357 431
#     4  11  28  44  70 109 150 193 233 300 364 426
#     4  11  23  40  67 104 145 187 236 298 357 417
#     4  11  24  44  69 103 145 195 244 283 350 434
#     4  12  27  48  78 106 137 187 244 302 363 433
#     4  12  28  46  74 109 144 179 242 305 368 424
#
# _framework density 25.937318000000001
#
# number of rings (size 3 to 8) (size 9 to 14) (size 15 to 20)
#    0.000    1.000    2.500    2.625    7.000    2.500 
#    0.000    0.000    0.000    0.000    0.000    0.000 
#    0.000    0.000    0.000    0.000    0.000    0.000 
#
# Total GULP energy -89612.093552 kJ/mol
# GULP energy per Si atom -5600.755847 kJ/mol
# Density = 2.587828 g / cm^3
# Si number density = 25.937318 Si / 1000 Ang^3
#
#
#
# Elastic Constant Matrix: (Units=GPa)
#
#
# Indices 1 2 3 4 5 6 
#
# 1 75.7021 4.6190 17.4771 1.8873 -9.4670 7.2940
# 2 4.6190 56.2240 20.6886 -2.9347 -2.0634 -0.7557
# 3 17.4771 20.6886 111.4810 -14.3766 5.6027 -10.7646
# 4 1.8873 -2.9347 -14.3766 39.4924 2.7992 6.7967
# 5 -9.4670 -2.0634 5.6027 2.7992 27.1346 4.6301
# 6 7.2940 -0.7557 -10.7646 6.7967 4.6301 38.6669
#
#
#
# Elastic Compliance Matrix: (Units=1/GPa)
#
#
# Indices 1 2 3 4 5 6 
#
# 1 0.015330 0.000106 -0.003417 -0.001711 0.006986 -0.004377
# 2 0.000106 0.019256 -0.003805 0.000039 0.002454 -0.001004
# 3 -0.003417 -0.003805 0.011283 0.003703 -0.004814 0.003637
# 4 -0.001711 0.000039 0.003703 0.027539 -0.003680 -0.003046
# 5 0.006986 0.002454 -0.004814 -0.003680 0.042045 -0.006998
# 6 -0.004377 -0.001004 0.003637 -0.003046 -0.006998 0.029054
#
#
# Mechanical properties :
#
#
# Convention : Reuss Voigt Hill
#
# Bulk Modulus (GPa) = 31.60948 36.55292 34.08120
# Shear Modulus (GPa) = 29.53600 34.43360 31.98480
#
# Velocity S-wave (km/s) = 3.37819 3.64754 3.51544
# Velocity P-wave (km/s) = 5.23732 5.64471 5.44483
#
# Compressibility (1/GPa) = 0.03163608
#
# Stress axis : x y z
#
# Youngs Moduli (GPa) = 65.23114 51.93137 88.63089
#
# Poissons Ratio (x) = -0.00552 0.30288
# Poissons Ratio (y) = -0.00693 0.33728
# Poissons Ratio (z) = 0.22292 0.19762
#
# Static dielectric constant tensor:
#      x y z
#    x 2.075410 -0.025910 0.045850 
#    y -0.025910 2.032510 0.001900 
#    z 0.045850 0.001900 2.114940 
# 
# From -- ./inp_files/55626.got.cif
#   From: 2010.05.17/outbox.cif.g08.bks.cpg/sg2_28_cif.got.tgz:55626.got - 2010.06.03 11:33:40.
