data_PCOD9031737
_publ_section_title
;
Structure prediction by ZEFSAII (Michael W. Deem and Ramdas Pophale) SiO2 
 PCOD9031737
Probable space group: P -1
;
_chemical_formula_sum "Si O2"
_cell_formula_units_Z 16
_cell_length_a 5.425901
_cell_length_b 7.682660
_cell_length_c 20.779358
_cell_angle_alpha 116.651914
_cell_angle_beta 123.213517
_cell_angle_gamma 65.559608
_cell_volume 631.122695
_symmetry_space_group_name_H-M "P -1"
_symmetry_group_IT_number 2
_symmetry_cell_setting 'triclinic'
loop_
_space_group_symop_operation_xyz
x,y,z
-x,-y,-z
loop_
_atom_site_type_symbol
_atom_site_label
_atom_site_fract_x
_atom_site_fract_y
_atom_site_fract_z
Si Si1 0.719207 0.571155 0.922315
Si Si2 0.765915 0.479910 0.695758
Si Si3 0.844685 0.191169 0.325121
Si Si4 0.001041 0.420999 0.599542
Si Si5 0.052198 0.119459 0.217347
Si Si6 0.589905 0.270634 0.748997
Si Si7 0.917943 0.177127 0.068888
Si Si8 0.853558 0.916613 0.526215
O O1 0.613270 0.395226 0.837825
O O2 0.428203 0.698747 0.942776
O O3 0.863202 0.683772 0.903958
O O4 0.000000 0.500000 0.000000
O O5 0.453296 0.642287 0.680488
O O6 0.974560 0.642570 0.754727
O O7 0.818583 0.332297 0.739011
O O8 0.754978 0.378268 0.607764
O O9 0.080907 0.338383 0.378003
O O10 0.816475 0.099005 0.236064
O O11 0.966337 0.056152 0.379434
O O12 0.290045 0.334701 0.673381
O O13 0.063535 0.314800 0.523358
O O14 0.005713 0.061459 0.129388
O O15 0.340881 0.962671 0.261172
O O16 0.000000 0.000000 0.000000
O O17 0.500000 0.000000 0.500000
O O18 0.000000 0.000000 0.500000
#
# Coordination Sequence:
#
# PCOD9031737 Si02
#       8
#     2   2   2   2   2   2   2   2
#     4  12  26  49  75 111 156 196 253 311 377 452
#     4  10  22  43  68 102 138 190 240 310 348 461
#     4  10  24  44  70  97 143 188 247 293 375 431
#     4  10  24  44  70  97 143 188 247 293 375 431
#     4  11  24  43  72 104 146 194 246 302 375 441
#     4  11  24  43  72 104 146 194 246 302 375 441
#     4  12  26  49  75 111 156 196 253 311 377 452
#     4  12  29  45  70 106 144 187 246 310 364 445
#
# _framework density 25.351648999999998
#
# number of rings (size 3 to 8) (size 9 to 14) (size 15 to 20)
#    0.000    1.000    1.250    4.875   10.500    0.500 
#    0.000    0.000    0.000    0.000    0.000    0.000 
#    0.000    0.000    0.000    0.000    0.000    0.000 
#
# Total GULP energy -89157.368534 kJ/mol
# GULP energy per Si atom -5572.335533 kJ/mol
# Density = 2.529395 g / cm^3
# Si number density = 25.351649 Si / 1000 Ang^3
#
#
#
# Elastic Constant Matrix: (Units=GPa)
#
#
# Indices 1 2 3 4 5 6 
#
# 1 104.4139 46.6804 41.3181 -2.6361 -32.6365 -18.6054
# 2 46.6804 115.6843 30.3669 -11.8675 -13.6490 4.0458
# 3 41.3181 30.3669 122.3690 -3.7804 -48.7421 -7.7957
# 4 -2.6361 -11.8675 -3.7804 50.7170 -0.8521 -8.5637
# 5 -32.6365 -13.6490 -48.7421 -0.8521 50.7753 7.5916
# 6 -18.6054 4.0458 -7.7957 -8.5637 7.5916 42.3552
#
#
#
# Elastic Compliance Matrix: (Units=1/GPa)
#
#
# Indices 1 2 3 4 5 6 
#
# 1 0.015562 -0.005416 -0.000740 0.000633 0.006935 0.006102
# 2 -0.005416 0.011392 -0.001805 0.001688 -0.001650 -0.003162
# 3 -0.000740 -0.001805 0.013795 0.000834 0.012241 0.000361
# 4 0.000633 0.001688 0.000834 0.020950 0.001376 0.004260
# 5 0.006935 -0.001650 0.012241 0.001376 0.035579 -0.000642
# 6 0.006102 -0.003162 0.000361 0.004260 -0.000642 0.027635
#
#
# Mechanical properties :
#
#
# Convention : Reuss Voigt Hill
#
# Bulk Modulus (GPa) = 40.27782 64.35532 52.31657
# Shear Modulus (GPa) = 33.53223 43.70960 38.62092
#
# Velocity S-wave (km/s) = 3.64082 4.15677 3.90732
# Velocity P-wave (km/s) = 5.79622 6.96265 6.40604
#
# Compressibility (1/GPa) = 0.02482756
#
# Stress axis : x y z
#
# Youngs Moduli (GPa) = 64.25813 87.77784 72.49226
#
# Poissons Ratio (x) = 0.47537 0.05365
# Poissons Ratio (y) = 0.34799 0.13086
# Poissons Ratio (z) = 0.04755 0.15846
#
# Static dielectric constant tensor:
#      x y z
#    x 2.586780 0.111600 0.084990 
#    y 0.111600 2.072250 0.126970 
#    z 0.084990 0.126970 2.122620 
# 
# From -- ./inp_files/582535.got.cif
#   From: 2010.05.17/outbox.cif.g08.bks.cpg/sg2_292_cif.got.tgz:582535.got - 2010.06.03 11:33:40.
