data_PCOD9031434
_publ_section_title
;
Structure prediction by ZEFSAII (Michael W. Deem and Ramdas Pophale) SiO2 
 PCOD9031434
Probable space group: P -1
;
_chemical_formula_sum "Si O2"
_cell_formula_units_Z 14
_cell_length_a 9.413262
_cell_length_b 17.059175
_cell_length_c 19.529728
_cell_angle_alpha 160.597644
_cell_angle_beta 39.257578
_cell_angle_gamma 139.416327
_cell_volume 652.917040
_symmetry_space_group_name_H-M "P -1"
_symmetry_group_IT_number 2
_symmetry_cell_setting 'triclinic'
loop_
_space_group_symop_operation_xyz
x,y,z
-x,-y,-z
loop_
_atom_site_type_symbol
_atom_site_label
_atom_site_fract_x
_atom_site_fract_y
_atom_site_fract_z
Si Si1 0.588795 0.497532 0.541366
Si Si2 0.454049 0.081010 0.660733
Si Si3 0.047304 0.794223 0.863262
Si Si4 0.737788 0.394614 0.130400
Si Si5 0.244319 0.505737 0.039293
Si Si6 0.230564 0.994578 0.104268
Si Si7 0.422593 0.543411 0.253284
O O1 0.500000 0.500000 0.500000
O O2 0.379467 0.502899 0.674959
O O3 0.725492 0.279476 0.315333
O O4 0.782213 0.726950 0.665601
O O5 0.665926 0.255476 0.755797
O O6 0.500000 0.000000 0.500000
O O7 0.408999 0.825182 0.504673
O O8 0.268778 0.266402 0.877942
O O9 0.827436 0.594195 0.779157
O O10 0.104537 0.867762 0.981341
O O11 0.000000 0.000000 0.000000
O O12 0.552985 0.419823 0.162534
O O13 0.988942 0.520778 0.123527
O O14 0.794227 0.135646 0.920485
O O15 0.418160 0.483717 0.894332
O O16 0.500000 0.000000 0.000000
#
# Coordination Sequence:
#
# PCOD9031434 Si02
#       7
#     2   2   2   2   2   2   2
#     4  11  24  44  69  98 135 179 229 276 343 402
#     4   9  22  42  67  99 135 176 232 274 337 402
#     4  12  26  44  71 101 137 177 225 287 341 401
#     4  11  24  44  69  99 138 181 227 278 337 408
#     4  10  23  45  70  96 140 181 225 282 339 398
#     4  10  22  43  66  97 134 177 227 272 338 405
#     4  11  26  44  66 104 137 177 230 280 340 400
#
# _framework density 21.442233999999999
#
# number of rings (size 3 to 8) (size 9 to 14) (size 15 to 20)
#    0.000    1.429    2.857    2.143    8.000    4.000 
#    2.571    0.000    0.000    0.000    0.000    0.000 
#    0.000    0.000    0.000    0.000    0.000    0.000 
#
# Total GULP energy -78037.822980 kJ/mol
# GULP energy per Si atom -5574.130213 kJ/mol
# Density = 2.139343 g / cm^3
# Si number density = 21.442234 Si / 1000 Ang^3
#
#
#
# Elastic Constant Matrix: (Units=GPa)
#
#
# Indices 1 2 3 4 5 6 
#
# 1 108.5702 21.4733 24.3035 11.8251 -0.3637 17.6229
# 2 21.4733 77.4860 21.9025 -6.7549 2.5860 15.3943
# 3 24.3035 21.9025 90.7516 13.1678 0.9990 5.5715
# 4 11.8251 -6.7549 13.1678 36.7456 1.1720 -0.5410
# 5 -0.3637 2.5860 0.9990 1.1720 37.0506 3.0498
# 6 17.6229 15.3943 5.5715 -0.5410 3.0498 41.8660
#
#
#
# Elastic Compliance Matrix: (Units=1/GPa)
#
#
# Indices 1 2 3 4 5 6 
#
# 1 0.010992 -0.002145 -0.001714 -0.003395 0.000716 -0.003706
# 2 -0.002145 0.015853 -0.003687 0.004889 -0.000828 -0.004312
# 3 -0.001714 -0.003687 0.013047 -0.004798 0.000018 0.000278
# 4 -0.003395 0.004889 -0.004798 0.030977 -0.001288 0.000764
# 5 0.000716 -0.000828 0.000018 -0.001288 0.027260 -0.002002
# 6 -0.003706 -0.004312 0.000278 0.000764 -0.002002 0.027150
#
#
# Mechanical properties :
#
#
# Convention : Reuss Voigt Hill
#
# Bulk Modulus (GPa) = 40.32300 45.79625 43.05963
# Shear Modulus (GPa) = 33.63884 37.07436 35.35660
#
# Velocity S-wave (km/s) = 3.96512 4.16268 4.06510
# Velocity P-wave (km/s) = 6.30945 6.67144 6.49297
#
# Compressibility (1/GPa) = 0.02479974
#
# Stress axis : x y z
#
# Youngs Moduli (GPa) = 90.97245 63.08064 76.64709
#
# Poissons Ratio (x) = 0.13533 0.13135
# Poissons Ratio (y) = 0.19517 0.28259
# Poissons Ratio (z) = 0.15590 0.23258
#
# Static dielectric constant tensor:
#      x y z
#    x 2.029340 -0.002590 -0.216510 
#    y -0.002590 1.867120 0.061320 
#    z -0.216510 0.061320 2.038220 
# 
# From -- ./inp_files/591248.got.cif
#   From: 2010.05.17/outbox.cif.g08.bks.cpg/sg2_296_cif.got.tgz:591248.got - 2010.06.03 11:33:40.
