data_PCOD9031965
_publ_section_title
;
Structure prediction by ZEFSAII (Michael W. Deem and Ramdas Pophale) SiO2 
 PCOD9031965
Probable space group: P -1
;
_chemical_formula_sum "Si O2"
_cell_formula_units_Z 16
_cell_length_a 11.640457
_cell_length_b 21.255388
_cell_length_c 8.028698
_cell_angle_alpha 116.515419
_cell_angle_beta 62.552429
_cell_angle_gamma 156.997561
_cell_volume 687.469540
_symmetry_space_group_name_H-M "P -1"
_symmetry_group_IT_number 2
_symmetry_cell_setting 'triclinic'
loop_
_space_group_symop_operation_xyz
x,y,z
-x,-y,-z
loop_
_atom_site_type_symbol
_atom_site_label
_atom_site_fract_x
_atom_site_fract_y
_atom_site_fract_z
Si Si1 0.757495 0.332889 0.179517
Si Si2 0.595884 0.334137 0.952917
Si Si3 0.493965 0.081237 0.254615
Si Si4 0.745577 0.823422 0.530669
Si Si5 0.759435 0.099652 0.321241
Si Si6 0.241470 0.041451 0.692827
Si Si7 0.608557 0.608841 0.813870
Si Si8 0.826915 0.720485 0.180518
O O1 0.647425 0.201851 0.150654
O O2 0.562142 0.288481 0.371527
O O3 0.108599 0.512179 0.173649
O O4 0.679483 0.322434 0.034521
O O5 0.346607 0.169899 0.824745
O O6 0.508030 0.369326 0.110347
O O7 0.694082 0.115151 0.223700
O O8 0.426798 0.098991 0.481461
O O9 0.174862 0.896140 0.194923
O O10 0.705328 0.735545 0.343676
O O11 0.000000 0.000000 0.500000
O O12 0.903994 0.879323 0.663687
O O13 0.106708 0.277721 0.350123
O O14 0.500000 0.000000 0.500000
O O15 0.727617 0.999554 0.226338
O O16 0.337640 0.422094 0.779437
O O17 0.744702 0.675367 0.988740
#
# Coordination Sequence:
#
# PCOD9031965 Si02
#       8
#     2   2   2   2   2   2   2   2
#     4  11  25  43  67 102 137 179 223 278 340 395
#     4  11  27  44  65 103 141 175 224 282 339 395
#     4  10  23  44  69  99 132 179 228 275 332 405
#     4  11  20  42  71 100 128 177 229 272 330 400
#     4  10  24  44  68 100 133 174 227 272 336 402
#     4  10  22  43  69 101 132 176 228 271 337 395
#     4  11  25  45  65 100 139 176 221 282 338 398
#     4  10  24  42  69 102 132 179 225 273 341 398
#
# _framework density 23.273758999999998
#
# number of rings (size 3 to 8) (size 9 to 14) (size 15 to 20)
#    0.000    1.500    2.500    1.500    5.250    6.000 
#    0.000    8.750    0.000    0.000    0.000    0.000 
#    0.000    0.000    0.000    0.000    0.000    0.000 
#
# Total GULP energy -89441.177742 kJ/mol
# GULP energy per Si atom -5590.073609 kJ/mol
# Density = 2.322079 g / cm^3
# Si number density = 23.273759 Si / 1000 Ang^3
#
#
#
# Elastic Constant Matrix: (Units=GPa)
#
#
# Indices 1 2 3 4 5 6 
#
# 1 158.5884 63.6699 19.5084 -16.4540 -2.4699 -22.1794
# 2 63.6699 115.2196 32.7249 -23.8682 -4.8777 -32.6560
# 3 19.5084 32.7249 51.5131 -1.0520 -10.2716 -13.6888
# 4 -16.4540 -23.8682 -1.0520 34.0129 2.9461 -6.5214
# 5 -2.4699 -4.8777 -10.2716 2.9461 31.2070 -3.0241
# 6 -22.1794 -32.6560 -13.6888 -6.5214 -3.0241 42.3285
#
#
#
# Elastic Compliance Matrix: (Units=1/GPa)
#
#
# Indices 1 2 3 4 5 6 
#
# 1 0.008210 -0.003598 -0.000346 0.001762 -0.000030 0.001684
# 2 -0.003598 0.019221 -0.007094 0.013960 0.000309 0.012823
# 3 -0.000346 -0.007094 0.026329 -0.004516 0.008223 0.002752
# 4 0.001762 0.013960 -0.004516 0.043268 -0.001623 0.016783
# 5 -0.000030 0.000309 0.008223 -0.001623 0.035450 0.005165
# 6 0.001684 0.012823 0.002752 0.016783 0.005165 0.038244
#
#
# Mechanical properties :
#
#
# Convention : Reuss Voigt Hill
#
# Bulk Modulus (GPa) = 31.56118 61.90305 46.73212
# Shear Modulus (GPa) = 24.58677 35.47087 30.02882
#
# Velocity S-wave (km/s) = 3.25378 3.90817 3.59589
# Velocity P-wave (km/s) = 5.26369 6.85716 6.11257
#
# Compressibility (1/GPa) = 0.03168449
#
# Stress axis : x y z
#
# Youngs Moduli (GPa) = 121.79546 52.02557 37.98090
#
# Poissons Ratio (x) = 0.18717 0.01315
# Poissons Ratio (y) = 0.43819 0.26944
# Poissons Ratio (z) = 0.04218 0.36908
#
# Static dielectric constant tensor:
#      x y z
#    x 1.910250 -0.011750 0.038110 
#    y -0.011750 1.850570 -0.069520 
#    z 0.038110 -0.069520 1.953510 
# 
# From -- ./inp_files/283132.got.cif
#   From: 2010.05.17/outbox.cif.g08.bks.cpg/sg2_142_cif.got.tgz:283132.got - 2010.06.03 11:33:40.
