data_PCOD9031750
_publ_section_title
;
Structure prediction by ZEFSAII (Michael W. Deem and Ramdas Pophale) SiO2 
 PCOD9031750
Probable space group: P -1
;
_chemical_formula_sum "Si O2"
_cell_formula_units_Z 14
_cell_length_a 15.157938
_cell_length_b 9.291086
_cell_length_c 14.990779
_cell_angle_alpha 39.745961
_cell_angle_beta 151.998337
_cell_angle_gamma 140.786631
_cell_volume 600.536853
_symmetry_space_group_name_H-M "P -1"
_symmetry_group_IT_number 2
_symmetry_cell_setting 'triclinic'
loop_
_space_group_symop_operation_xyz
x,y,z
-x,-y,-z
loop_
_atom_site_type_symbol
_atom_site_label
_atom_site_fract_x
_atom_site_fract_y
_atom_site_fract_z
Si Si1 0.108129 0.362863 0.390628
Si Si2 0.700071 0.765378 0.809156
Si Si3 0.008470 0.664065 0.013866
Si Si4 0.233407 0.215575 0.937517
Si Si5 0.253847 0.747325 0.458383
Si Si6 0.304608 0.981198 0.776231
Si Si7 0.308784 0.720718 0.717654
O O1 0.108885 0.491955 0.424069
O O2 0.271913 0.231151 0.605056
O O3 0.894011 0.168039 0.276449
O O4 0.136847 0.569844 0.244982
O O5 0.796442 0.634671 0.885924
O O6 0.761291 0.718178 0.984910
O O7 0.466208 0.727465 0.625169
O O8 0.789270 0.044077 0.733897
O O9 0.000000 0.500000 0.000000
O O10 0.103074 0.941866 0.941229
O O11 0.456192 0.236690 0.099701
O O12 0.196861 0.436825 0.750345
O O13 0.259615 0.817051 0.533556
O O14 0.293007 0.849821 0.733722
O O15 0.500000 0.000000 0.000000
#
# Coordination Sequence:
#
# PCOD9031750 Si02
#       7
#     2   2   2   2   2   2   2
#     4  11  27  47  69 110 142 195 248 291 376 445
#     4  10  22  44  69  98 144 189 230 301 366 420
#     4  12  27  42  71 107 150 193 239 304 369 442
#     4  10  22  43  68 103 136 184 255 285 363 433
#     4  10  23  44  73 105 138 186 253 297 355 438
#     4  11  28  48  73 101 154 194 235 307 376 432
#     4  10  24  42  73 106 137 195 244 304 356 430
#
# _framework density 23.312476
#
# number of rings (size 3 to 8) (size 9 to 14) (size 15 to 20)
#    0.000    1.429    1.429    1.286   14.000    1.714 
#    0.000    1.429    0.000    0.000    0.000    0.000 
#    0.000    0.000    0.000    0.000    0.000    0.000 
#
# Total GULP energy -78247.125752 kJ/mol
# GULP energy per Si atom -5589.080411 kJ/mol
# Density = 2.325942 g / cm^3
# Si number density = 23.312476 Si / 1000 Ang^3
#
#
#
# Elastic Constant Matrix: (Units=GPa)
#
#
# Indices 1 2 3 4 5 6 
#
# 1 120.6983 35.2517 32.1418 -11.2008 14.2150 -24.2918
# 2 35.2517 91.3095 30.0537 -16.9213 11.8525 -10.1251
# 3 32.1418 30.0537 111.3753 -16.0692 17.7767 2.7514
# 4 -11.2008 -16.9213 -16.0692 31.0970 13.9784 -2.3946
# 5 14.2150 11.8525 17.7767 13.9784 39.8296 4.5123
# 6 -24.2918 -10.1251 2.7514 -2.3946 4.5123 37.9317
#
#
#
# Elastic Compliance Matrix: (Units=1/GPa)
#
#
# Indices 1 2 3 4 5 6 
#
# 1 0.012190 -0.001134 -0.001365 0.006803 -0.006793 0.008841
# 2 -0.001134 0.015591 -0.000930 0.011856 -0.008578 0.005272
# 3 -0.001365 -0.000930 0.012094 0.008625 -0.007599 -0.000551
# 4 0.006803 0.011856 0.008625 0.061510 -0.033060 0.014711
# 5 -0.006793 -0.008578 -0.007599 -0.033060 0.046633 -0.013723
# 6 0.008841 0.005272 -0.000551 0.014711 -0.013723 0.036033
#
#
# Mechanical properties :
#
#
# Convention : Reuss Voigt Hill
#
# Bulk Modulus (GPa) = 30.28698 57.58636 43.93667
# Shear Modulus (GPa) = 24.76282 36.83406 30.79844
#
# Velocity S-wave (km/s) = 3.26270 3.97925 3.63866
# Velocity P-wave (km/s) = 5.21666 6.77260 6.04490
#
# Compressibility (1/GPa) = 0.03301748
#
# Stress axis : x y z
#
# Youngs Moduli (GPa) = 82.03163 64.13923 82.68287
#
# Poissons Ratio (x) = 0.07276 0.11282
# Poissons Ratio (y) = 0.09306 0.07691
# Poissons Ratio (z) = 0.11194 0.05966
#
# Static dielectric constant tensor:
#      x y z
#    x 1.900930 0.026050 0.026270 
#    y 0.026050 1.893140 0.029340 
#    z 0.026270 0.029340 1.872940 
# 
# From -- ./inp_files/529322.got.cif
#   From: 2010.05.17/outbox.cif.g08.bks.cpg/sg2_265_cif.got.tgz:529322.got - 2010.06.03 11:33:40.
