data_PCOD9031561
_publ_section_title
;
Structure prediction by ZEFSAII (Michael W. Deem and Ramdas Pophale) SiO2 
 PCOD9031561
Probable space group: P -1
;
_chemical_formula_sum "Si O2"
_cell_formula_units_Z 16
_cell_length_a 24.805651
_cell_length_b 9.268378
_cell_length_c 20.826279
_cell_angle_alpha 42.503399
_cell_angle_beta 20.496622
_cell_angle_gamma 30.805839
_cell_volume 795.871309
_symmetry_space_group_name_H-M "P -1"
_symmetry_group_IT_number 2
_symmetry_cell_setting 'triclinic'
loop_
_space_group_symop_operation_xyz
x,y,z
-x,-y,-z
loop_
_atom_site_type_symbol
_atom_site_label
_atom_site_fract_x
_atom_site_fract_y
_atom_site_fract_z
Si Si1 0.326935 0.268305 0.556306
Si Si2 0.837912 0.685881 0.405869
Si Si3 0.347731 0.166021 0.981610
Si Si4 0.458152 0.331258 0.968203
Si Si5 0.623101 0.280513 0.665362
Si Si6 0.516315 0.223065 0.168687
Si Si7 0.035616 0.113915 0.696525
Si Si8 0.944646 0.714182 0.933957
O O1 0.294901 0.164734 0.561356
O O2 0.396120 0.444713 0.406586
O O3 0.095185 0.505961 0.773632
O O4 0.500000 0.000000 0.500000
O O5 0.724912 0.600967 0.596508
O O6 0.836990 0.881993 0.392362
O O7 0.088837 0.400400 0.201066
O O8 0.461823 0.942511 0.988774
O O9 0.426060 0.334985 0.836800
O O10 0.429068 0.956731 0.897769
O O11 0.614728 0.224980 0.767658
O O12 0.456850 0.549708 0.940082
O O13 0.208122 0.551851 0.150718
O O14 0.834346 0.011567 0.474995
O O15 0.694002 0.968366 0.106863
O O16 0.006852 0.896918 0.821013
O O17 0.000000 0.500000 0.000000
#
# Coordination Sequence:
#
# PCOD9031561 Si02
#       8
#     2   2   2   2   2   2   2   2
#     4  11  24  44  69  95 126 170 208 262 334 382
#     4  12  23  42  65  96 129 164 218 264 313 382
#     4  12  25  41  63  99 129 171 221 262 315 375
#     4  11  24  42  66  90 134 177 210 263 323 373
#     4  11  23  44  64  94 134 166 215 265 314 386
#     4  11  23  43  63  92 136 165 214 272 312 381
#     4  10  24  41  66  94 129 170 214 263 317 383
#     4  10  22  43  67  93 128 167 212 266 328 382
#
# _framework density 20.103753999999999
#
# number of rings (size 3 to 8) (size 9 to 14) (size 15 to 20)
#    0.000    1.000    5.000    1.500    1.750    2.000 
#    2.250    3.125    0.000    0.000    0.000    0.000 
#    0.000    0.000    0.000    0.000    0.000    0.000 
#
# Total GULP energy -89399.641887 kJ/mol
# GULP energy per Si atom -5587.477618 kJ/mol
# Density = 2.005800 g / cm^3
# Si number density = 20.103754 Si / 1000 Ang^3
#
#
#
# Elastic Constant Matrix: (Units=GPa)
#
#
# Indices 1 2 3 4 5 6 
#
# 1 127.9998 35.6685 31.6921 -9.4567 -2.5117 13.8150
# 2 35.6685 57.3006 30.4109 -2.6120 -0.1417 -9.1098
# 3 31.6921 30.4109 121.6222 -1.3785 2.9316 -1.4970
# 4 -9.4567 -2.6120 -1.3785 23.3973 6.7120 0.3624
# 5 -2.5117 -0.1417 2.9316 6.7120 30.1676 -1.8790
# 6 13.8150 -9.1098 -1.4970 0.3624 -1.8790 33.0839
#
#
#
# Elastic Compliance Matrix: (Units=1/GPa)
#
#
# Indices 1 2 3 4 5 6 
#
# 1 0.011102 -0.007212 -0.001123 0.003796 -0.000264 -0.006729
# 2 -0.007212 0.025886 -0.004495 -0.000653 0.000725 0.009984
# 3 -0.001123 -0.004495 0.009659 -0.000076 -0.001061 -0.000391
# 4 0.003796 -0.000653 -0.000076 0.047214 -0.010363 -0.002874
# 5 -0.000264 0.000725 -0.001061 -0.010363 0.035688 0.002402
# 6 -0.006729 0.009984 -0.000391 -0.002874 0.002402 0.035936
#
#
# Mechanical properties :
#
#
# Convention : Reuss Voigt Hill
#
# Bulk Modulus (GPa) = 47.65079 55.82951 51.74015
# Shear Modulus (GPa) = 25.23451 31.27316 28.25383
#
# Velocity S-wave (km/s) = 3.54674 3.94837 3.75293
# Velocity P-wave (km/s) = 6.36604 6.97260 6.67621
#
# Compressibility (1/GPa) = 0.02098601
#
# Stress axis : x y z
#
# Youngs Moduli (GPa) = 90.07536 38.63020 103.53312
#
# Poissons Ratio (x) = 0.27861 0.11627
# Poissons Ratio (y) = 0.64963 0.46543
# Poissons Ratio (z) = 0.10115 0.17366
#
# Static dielectric constant tensor:
#      x y z
#    x 1.730560 0.030960 0.006110 
#    y 0.030960 1.674950 0.007670 
#    z 0.006110 0.007670 1.721190 
# 
# From -- ./inp_files/201804.got.cif
#   From: 2010.05.17/outbox.cif.g08.bks.cpg/sg2_101_cif.got.tgz:201804.got - 2010.06.03 11:33:40.
