data_PCOD9031659
_publ_section_title
;
Structure prediction by ZEFSAII (Michael W. Deem and Ramdas Pophale) SiO2 
 PCOD9031659
Probable space group: P -1
;
_chemical_formula_sum "Si O2"
_cell_formula_units_Z 16
_cell_length_a 8.904561
_cell_length_b 18.605049
_cell_length_c 5.045032
_cell_angle_alpha 79.840826
_cell_angle_beta 107.136504
_cell_angle_gamma 132.122893
_cell_volume 592.138943
_symmetry_space_group_name_H-M "P -1"
_symmetry_group_IT_number 2
_symmetry_cell_setting 'triclinic'
loop_
_space_group_symop_operation_xyz
x,y,z
-x,-y,-z
loop_
_atom_site_type_symbol
_atom_site_label
_atom_site_fract_x
_atom_site_fract_y
_atom_site_fract_z
Si Si1 0.287664 0.209783 0.333123
Si Si2 0.161852 0.092128 0.838660
Si Si3 0.725779 0.285112 0.732449
Si Si4 0.260405 0.331190 0.582343
Si Si5 0.702693 0.411651 0.973163
Si Si6 0.857632 0.542619 0.476354
Si Si7 0.796581 0.157215 0.654592
Si Si8 0.571932 0.957872 0.873944
O O1 0.243657 0.177230 0.031347
O O2 0.513389 0.246611 0.504793
O O3 0.269357 0.289771 0.335828
O O4 0.132101 0.119344 0.517513
O O5 0.338660 0.084243 0.904134
O O6 0.000000 0.000000 0.000000
O O7 0.723207 0.331817 0.969870
O O8 0.756923 0.207295 0.824789
O O9 0.922079 0.368584 0.597786
O O10 0.468883 0.366147 0.808368
O O11 0.260412 0.418416 0.541267
O O12 0.031061 0.240415 0.629002
O O13 0.849057 0.495184 0.774173
O O14 0.750666 0.459304 0.252918
O O15 0.612959 0.117907 0.373693
O O16 0.757363 0.059673 0.756094
O O17 0.500000 0.000000 0.000000
#
# Coordination Sequence:
#
# PCOD9031659 Si02
#       8
#     2   2   2   2   2   2   2   2
#     4  11  25  44  65  99 133 175 226 272 333 389
#     4  12  26  43  69  95 136 178 226 276 330 390
#     4  10  22  43  67  98 134 175 221 275 329 397
#     4  10  24  43  69  96 137 175 222 273 334 397
#     4  11  24  44  68  98 136 172 219 274 331 403
#     4  11  24  44  69 100 133 175 219 271 339 394
#     4  10  22  46  62  98 133 177 224 274 333 389
#     4  11  24  41  69  94 137 175 229 274 330 394
#
# _framework density 27.020682999999998
#
# number of rings (size 3 to 8) (size 9 to 14) (size 15 to 20)
#    0.000    1.250    1.250    3.375    3.500    6.000 
#   13.500    0.000    0.000    0.000    0.000    0.000 
#    0.000    0.000    0.000    0.000    0.000    0.000 
#
# Total GULP energy -89698.476145 kJ/mol
# GULP energy per Si atom -5606.154759 kJ/mol
# Density = 2.695918 g / cm^3
# Si number density = 27.020683 Si / 1000 Ang^3
#
#
#
# Elastic Constant Matrix: (Units=GPa)
#
#
# Indices 1 2 3 4 5 6 
#
# 1 166.1556 56.9242 25.4513 11.0857 -21.3322 -33.5231
# 2 56.9242 119.5894 48.3686 1.7385 -4.7273 -6.6505
# 3 25.4513 48.3686 98.1328 -0.3931 -16.7291 -25.1447
# 4 11.0857 1.7385 -0.3931 38.7201 4.9894 -10.8294
# 5 -21.3322 -4.7273 -16.7291 4.9894 31.9887 1.1980
# 6 -33.5231 -6.6505 -25.1447 -10.8294 1.1980 81.3608
#
#
#
# Elastic Compliance Matrix: (Units=1/GPa)
#
#
# Indices 1 2 3 4 5 6 
#
# 1 0.008990 -0.004575 0.001937 -0.002202 0.006543 0.003539
# 2 -0.004575 0.012889 -0.006654 0.000486 -0.004599 -0.002756
# 3 0.001937 -0.006654 0.015662 0.000237 0.008275 0.005004
# 4 -0.002202 0.000486 0.000237 0.028024 -0.005757 0.003020
# 5 0.006543 -0.004599 0.008275 -0.005757 0.040038 0.003521
# 6 0.003539 -0.002756 0.005004 0.003020 0.003521 0.015421
#
#
# Mechanical properties :
#
#
# Convention : Reuss Voigt Hill
#
# Bulk Modulus (GPa) = 52.75549 71.70733 62.23141
# Shear Modulus (GPa) = 34.26349 47.28950 40.77650
#
# Velocity S-wave (km/s) = 3.56483 4.18798 3.88891
# Velocity P-wave (km/s) = 6.04239 7.06974 6.57616
#
# Compressibility (1/GPa) = 0.01895537
#
# Stress axis : x y z
#
# Youngs Moduli (GPa) = 111.23087 77.58498 63.85062
#
# Poissons Ratio (x) = 0.35497 -0.12368
# Poissons Ratio (y) = 0.50891 0.42489
# Poissons Ratio (z) = -0.21545 0.51629
#
# Static dielectric constant tensor:
#      x y z
#    x 2.121190 0.108650 -0.046190 
#    y 0.108650 2.291220 -0.071730 
#    z -0.046190 -0.071730 2.118020 
# 
# From -- ./inp_files/47974.got.cif
#   From: 2010.05.17/outbox.cif.g08.bks.cpg/sg2_24_cif.got.tgz:47974.got - 2010.06.03 11:33:40.
