data_PCOD9031641
_publ_section_title
;
Structure prediction by ZEFSAII (Michael W. Deem and Ramdas Pophale) SiO2 
 PCOD9031641
Probable space group: P -1
;
_chemical_formula_sum "Si O2"
_cell_formula_units_Z 16
_cell_length_a 8.089365
_cell_length_b 8.408882
_cell_length_c 19.081076
_cell_angle_alpha 65.124665
_cell_angle_beta 141.331887
_cell_angle_gamma 127.096644
_cell_volume 643.539738
_symmetry_space_group_name_H-M "P -1"
_symmetry_group_IT_number 2
_symmetry_cell_setting 'triclinic'
loop_
_space_group_symop_operation_xyz
x,y,z
-x,-y,-z
loop_
_atom_site_type_symbol
_atom_site_label
_atom_site_fract_x
_atom_site_fract_y
_atom_site_fract_z
Si Si1 0.346788 0.557427 0.261254
Si Si2 0.998348 0.380196 0.418472
Si Si3 0.279415 0.469945 0.994879
Si Si4 0.579593 0.070376 0.810526
Si Si5 0.980721 0.745391 0.391657
Si Si6 0.107164 0.196977 0.354963
Si Si7 0.733103 0.186358 0.999952
Si Si8 0.316433 0.207771 0.174316
O O1 0.490773 0.790485 0.291152
O O2 0.614082 0.616454 0.281137
O O3 0.025607 0.540929 0.136526
O O4 0.292938 0.377363 0.328058
O O5 0.113736 0.621545 0.415102
O O6 0.155141 0.301051 0.428538
O O7 0.641447 0.278093 0.301140
O O8 0.006782 0.306173 0.513144
O O9 0.347507 0.642227 0.041850
O O10 0.500000 0.500000 0.000000
O O11 0.325758 0.313631 0.085563
O O12 0.254050 0.886291 0.757726
O O13 0.798216 0.018452 0.847280
O O14 0.712851 0.149379 0.917204
O O15 0.120308 0.987570 0.385737
O O16 0.063313 0.231296 0.128481
O O17 0.500000 0.000000 0.000000
#
# Coordination Sequence:
#
# PCOD9031641 Si02
#       8
#     2   2   2   2   2   2   2   2
#     4  11  23  43  67  95 136 174 220 273 332 393
#     4  10  22  44  69 100 130 172 224 277 338 391
#     4  12  25  40  63  95 137 173 219 277 326 400
#     4  10  23  42  64  95 134 174 221 270 336 399
#     4  10  23  44  73  95 131 176 223 278 335 403
#     4  10  22  43  67  97 135 172 220 279 328 398
#     4  12  24  38  63  95 130 182 221 268 333 406
#     4  11  23  42  66  93 138 172 217 280 334 399
#
# _framework density 24.862490999999999
#
# number of rings (size 3 to 8) (size 9 to 14) (size 15 to 20)
#    0.000    1.250    1.250    4.875    5.250    0.500 
#    0.000    6.250    0.000    0.000    0.000    0.000 
#    0.000    0.000    0.000    0.000    0.000    0.000 
#
# Total GULP energy -89100.563935 kJ/mol
# GULP energy per Si atom -5568.785246 kJ/mol
# Density = 2.480590 g / cm^3
# Si number density = 24.862491 Si / 1000 Ang^3
#
#
#
# Elastic Constant Matrix: (Units=GPa)
#
#
# Indices 1 2 3 4 5 6 
#
# 1 79.3135 37.1232 26.2581 -8.0186 1.5964 -19.6399
# 2 37.1232 138.9914 21.6588 -32.7940 3.4771 -7.4774
# 3 26.2581 21.6588 112.4172 -3.3986 5.5127 2.1923
# 4 -8.0186 -32.7940 -3.3986 36.7168 -6.6051 2.8839
# 5 1.5964 3.4771 5.5127 -6.6051 29.1314 -2.8337
# 6 -19.6399 -7.4774 2.1923 2.8839 -2.8337 56.7294
#
#
#
# Elastic Compliance Matrix: (Units=1/GPa)
#
#
# Indices 1 2 3 4 5 6 
#
# 1 0.016791 -0.003759 -0.003345 -0.000319 0.000624 0.005494
# 2 -0.003759 0.010305 -0.000896 0.008511 0.001047 -0.000289
# 3 -0.003345 -0.000896 0.009953 -0.000825 -0.001947 -0.001716
# 4 -0.000319 0.008511 -0.000825 0.036035 0.007287 -0.000425
# 5 0.000624 0.001047 -0.001947 0.007287 0.036371 0.001875
# 6 0.005494 -0.000289 -0.001716 -0.000425 0.001875 0.019673
#
#
# Mechanical properties :
#
#
# Convention : Reuss Voigt Hill
#
# Bulk Modulus (GPa) = 47.50738 55.64470 51.57604
# Shear Modulus (GPa) = 32.86369 40.89434 36.87901
#
# Velocity S-wave (km/s) = 3.63963 4.06004 3.85557
# Velocity P-wave (km/s) = 6.06729 6.66394 6.37260
#
# Compressibility (1/GPa) = 0.02104936
#
# Stress axis : x y z
#
# Youngs Moduli (GPa) = 59.55714 97.04467 100.46831
#
# Poissons Ratio (x) = 0.36476 0.33608
# Poissons Ratio (y) = 0.22386 0.09000
# Poissons Ratio (z) = 0.19923 0.08693
#
# Static dielectric constant tensor:
#      x y z
#    x 2.094760 -0.090960 -0.005890 
#    y -0.090960 2.271590 0.144200 
#    z -0.005890 0.144200 2.102670 
# 
# From -- ./inp_files/587332.got.cif
#   From: 2010.05.17/outbox.cif.g08.bks.cpg/sg2_294_cif.got.tgz:587332.got - 2010.06.03 11:33:40.
