data_PCOD9031342
_publ_section_title
;
Structure prediction by ZEFSAII (Michael W. Deem and Ramdas Pophale) SiO2 
 PCOD9031342
Probable space group: P -1
;
_chemical_formula_sum "Si O2"
_cell_formula_units_Z 16
_cell_length_a 9.245775
_cell_length_b 11.548797
_cell_length_c 10.947607
_cell_angle_alpha 53.116892
_cell_angle_beta 91.834711
_cell_angle_gamma 64.416533
_cell_volume 771.587926
_symmetry_space_group_name_H-M "P -1"
_symmetry_group_IT_number 2
_symmetry_cell_setting 'triclinic'
loop_
_space_group_symop_operation_xyz
x,y,z
-x,-y,-z
loop_
_atom_site_type_symbol
_atom_site_label
_atom_site_fract_x
_atom_site_fract_y
_atom_site_fract_z
Si Si1 0.024678 0.679402 0.449345
Si Si2 0.156293 0.869767 0.494792
Si Si3 0.673019 0.993362 0.773366
Si Si4 0.289425 0.333433 0.549267
Si Si5 0.287022 0.538405 0.197969
Si Si6 0.055018 0.134714 0.932191
Si Si7 0.406400 0.518234 0.858237
Si Si8 0.789622 0.611849 0.937256
O O1 0.086958 0.780499 0.463103
O O2 0.184381 0.475265 0.564913
O O3 0.859292 0.689038 0.494900
O O4 0.959056 0.774227 0.254861
O O5 0.306747 0.714125 0.680731
O O6 0.234484 0.949847 0.358002
O O7 0.000000 0.000000 0.500000
O O8 0.707686 0.813419 0.836598
O O9 0.469826 0.148066 0.689666
O O10 0.766952 0.954073 0.931972
O O11 0.328152 0.438381 0.388694
O O12 0.424195 0.592197 0.152746
O O13 0.288368 0.416030 0.170259
O O14 0.092343 0.709675 0.085245
O O15 0.000000 0.000000 0.000000
O O16 0.500000 0.500000 0.000000
O O17 0.272276 0.463928 0.909811
O O18 0.000000 0.500000 0.000000
#
# Coordination Sequence:
#
# PCOD9031342 Si02
#       8
#     2   2   2   2   2   2   2   2
#     4  10  25  45  69  96 138 185 217 291 351 398
#     4  12  26  43  70 102 139 175 230 278 345 410
#     4  12  25  43  71 107 132 181 234 286 332 407
#     4  10  24  45  68 101 131 176 239 284 338 401
#     4  10  22  43  66  90 142 180 223 278 347 406
#     4  11  23  42  68  96 134 180 231 278 337 407
#     4  10  24  43  64  97 135 184 217 268 347 410
#     4  11  23  40  67 101 141 178 222 282 346 401
#
# _framework density 20.736457999999999
#
# number of rings (size 3 to 8) (size 9 to 14) (size 15 to 20)
#    0.000    1.250    3.750    0.750    5.250    6.500 
#    0.000    0.000    0.000    0.000    0.000    0.000 
#    0.000    0.000    0.000    0.000    0.000    0.000 
#
# Total GULP energy -89326.708416 kJ/mol
# GULP energy per Si atom -5582.919276 kJ/mol
# Density = 2.068926 g / cm^3
# Si number density = 20.736458 Si / 1000 Ang^3
#
#
#
# Elastic Constant Matrix: (Units=GPa)
#
#
# Indices 1 2 3 4 5 6 
#
# 1 121.6009 45.2587 34.2294 -12.4670 -1.6729 -17.0588
# 2 45.2587 91.6229 38.6333 -19.9918 15.8993 7.7444
# 3 34.2294 38.6333 94.7663 -14.2198 11.3571 -8.2655
# 4 -12.4670 -19.9918 -14.2198 31.0912 -5.3099 -1.1294
# 5 -1.6729 15.8993 11.3571 -5.3099 42.4813 -7.0060
# 6 -17.0588 7.7444 -8.2655 -1.1294 -7.0060 40.1752
#
#
#
# Elastic Compliance Matrix: (Units=1/GPa)
#
#
# Indices 1 2 3 4 5 6 
#
# 1 0.012254 -0.006576 -0.001537 0.001028 0.004636 0.006992
# 2 -0.006576 0.019331 -0.004477 0.006257 -0.006912 -0.008469
# 3 -0.001537 -0.004477 0.013736 0.002680 -0.001245 0.002895
# 4 0.001028 0.006257 0.002680 0.038202 0.001954 0.001196
# 5 0.004636 -0.006912 -0.001245 0.001954 0.028209 0.008019
# 6 0.006992 -0.008469 0.002895 0.001196 0.008019 0.031520
#
#
# Mechanical properties :
#
#
# Convention : Reuss Voigt Hill
#
# Bulk Modulus (GPa) = 49.64828 60.47030 55.05929
# Shear Modulus (GPa) = 28.54774 35.40745 31.97759
#
# Velocity S-wave (km/s) = 3.71441 4.13667 3.93121
# Velocity P-wave (km/s) = 6.51078 7.21392 6.87135
#
# Compressibility (1/GPa) = 0.02014169
#
# Stress axis : x y z
#
# Youngs Moduli (GPa) = 81.60695 51.73045 72.80049
#
# Poissons Ratio (x) = 0.34019 0.11187
# Poissons Ratio (y) = 0.53667 0.32591
# Poissons Ratio (z) = 0.12540 0.23158
#
# Static dielectric constant tensor:
#      x y z
#    x 1.791600 -0.049690 0.003200 
#    y -0.049690 1.762620 0.003220 
#    z 0.003200 0.003220 1.729840 
# 
# From -- ./inp_files/189051.got.cif
#   From: 2010.05.17/outbox.cif.g08.bks.cpg/sg2_95_cif.got.tgz:189051.got - 2010.06.03 11:33:40.
