data_PCOD9031022
_publ_section_title
;
Structure prediction by ZEFSAII (Michael W. Deem and Ramdas Pophale) SiO2 
 PCOD9031022
Probable space group: P -1
;
_chemical_formula_sum "Si O2"
_cell_formula_units_Z 16
_cell_length_a 14.353089
_cell_length_b 9.694489
_cell_length_c 9.094195
_cell_angle_alpha 75.682329
_cell_angle_beta 71.188239
_cell_angle_gamma 131.935428
_cell_volume 671.583848
_symmetry_space_group_name_H-M "P -1"
_symmetry_group_IT_number 2
_symmetry_cell_setting 'triclinic'
loop_
_space_group_symop_operation_xyz
x,y,z
-x,-y,-z
loop_
_atom_site_type_symbol
_atom_site_label
_atom_site_fract_x
_atom_site_fract_y
_atom_site_fract_z
Si Si1 0.646078 0.374616 0.636306
Si Si2 0.195261 0.278298 0.990947
Si Si3 0.200185 0.962252 0.483125
Si Si4 0.035342 0.231053 0.823260
Si Si5 0.659614 0.599868 0.825996
Si Si6 0.954905 0.450386 0.861235
Si Si7 0.517137 0.677239 0.515635
Si Si8 0.204839 0.744023 0.293140
O O1 0.814740 0.636956 0.398569
O O2 0.597626 0.422194 0.778903
O O3 0.507168 0.228876 0.617757
O O4 0.697838 0.282504 0.696174
O O5 0.056821 0.200073 0.987397
O O6 0.364364 0.503321 0.754304
O O7 0.241101 0.369272 0.108026
O O8 0.135638 0.043330 0.076106
O O9 0.031246 0.687155 0.698352
O O10 0.265519 0.943500 0.316536
O O11 0.205987 0.129106 0.379667
O O12 0.318154 0.103154 0.529560
O O13 0.047345 0.413664 0.775039
O O14 0.500000 0.500000 0.000000
O O15 0.788127 0.236665 0.894343
O O16 0.000000 0.500000 0.000000
O O17 0.500000 0.500000 0.500000
O O18 0.000000 0.500000 0.500000
#
# Coordination Sequence:
#
# PCOD9031022 Si02
#       8
#     2   2   2   2   2   2   2   2
#     4  11  23  42  70  97 138 181 232 286 345 416
#     4  10  23  39  66  93 139 169 234 288 337 405
#     4  11  23  44  71  95 145 188 222 290 352 407
#     4  10  22  43  63  99 132 182 224 294 343 404
#     4  12  24  43  67 103 135 181 230 289 345 413
#     4  11  25  43  70 100 139 179 234 284 349 408
#     4  11  22  43  65 101 138 182 235 280 347 409
#     4  10  22  46  65 100 139 179 228 281 349 413
#
# _framework density 23.824280000000002
#
# number of rings (size 3 to 8) (size 9 to 14) (size 15 to 20)
#    0.000    1.250    5.000    0.750    5.250    2.000 
#    2.250    0.625    0.000    0.000    0.000    0.000 
#    0.000    0.000    0.000    0.000    0.000    0.000 
#
# Total GULP energy -89276.867605 kJ/mol
# GULP energy per Si atom -5579.804225 kJ/mol
# Density = 2.377006 g / cm^3
# Si number density = 23.824280 Si / 1000 Ang^3
#
#
#
# Elastic Constant Matrix: (Units=GPa)
#
#
# Indices 1 2 3 4 5 6 
#
# 1 93.2982 24.6008 28.8946 29.7088 26.2343 2.1790
# 2 24.6008 91.6439 17.4563 34.8827 5.4289 10.9362
# 3 28.8946 17.4563 84.0982 27.7226 25.5116 6.2444
# 4 29.7088 34.8827 27.7226 42.7717 16.1816 11.2415
# 5 26.2343 5.4289 25.5116 16.1816 33.3627 16.3578
# 6 2.1790 10.9362 6.2444 11.2415 16.3578 33.0136
#
#
#
# Elastic Compliance Matrix: (Units=1/GPa)
#
#
# Indices 1 2 3 4 5 6 
#
# 1 0.017455 -0.002123 0.000809 -0.007774 -0.014835 0.009396
# 2 -0.002123 0.016962 -0.000328 -0.014037 0.008297 -0.004748
# 3 0.000809 -0.000328 0.018081 -0.008617 -0.013233 0.006126
# 4 -0.007774 -0.014037 -0.008617 0.049869 -0.005556 -0.007435
# 5 -0.014835 0.008297 -0.013233 -0.005556 0.068442 -0.031287
# 6 0.009396 -0.004748 0.006126 -0.007435 -0.031287 0.048118
#
#
# Mechanical properties :
#
#
# Convention : Reuss Voigt Hill
#
# Bulk Modulus (GPa) = 20.31995 45.66042 32.99018
# Shear Modulus (GPa) = 20.95396 35.03549 27.99473
#
# Velocity S-wave (km/s) = 2.96889 3.83897 3.43162
# Velocity P-wave (km/s) = 4.50555 6.23357 5.43863
#
# Compressibility (1/GPa) = 0.04921272
#
# Stress axis : x y z
#
# Youngs Moduli (GPa) = 57.29010 58.95388 55.30617
#
# Poissons Ratio (x) = 0.12517 -0.04472
# Poissons Ratio (y) = 0.12163 0.01816
# Poissons Ratio (z) = -0.04633 0.01936
#
# Static dielectric constant tensor:
#      x y z
#    x 2.001520 0.088820 0.052530 
#    y 0.088820 1.944610 0.039850 
#    z 0.052530 0.039850 1.977980 
# 
# From -- ./inp_files/295223.got.cif
#   From: 2010.05.17/outbox.cif.g08.bks.cpg/sg2_148_cif.got.tgz:295223.got - 2010.06.03 11:33:40.
