data_PCOD9031645
_publ_section_title
;
Structure prediction by ZEFSAII (Michael W. Deem and Ramdas Pophale) SiO2 
 PCOD9031645
Probable space group: P -1
;
_chemical_formula_sum "Si O2"
_cell_formula_units_Z 16
_cell_length_a 18.803573
_cell_length_b 11.173322
_cell_length_c 8.481009
_cell_angle_alpha 55.406647
_cell_angle_beta 115.042738
_cell_angle_gamma 148.954396
_cell_volume 748.058729
_symmetry_space_group_name_H-M "P -1"
_symmetry_group_IT_number 2
_symmetry_cell_setting 'triclinic'
loop_
_space_group_symop_operation_xyz
x,y,z
-x,-y,-z
loop_
_atom_site_type_symbol
_atom_site_label
_atom_site_fract_x
_atom_site_fract_y
_atom_site_fract_z
Si Si1 0.536563 0.342157 0.548523
Si Si2 0.020181 0.731804 0.554149
Si Si3 0.513265 0.982123 0.840444
Si Si4 0.202465 0.088915 0.760286
Si Si5 0.756504 0.146229 0.842265
Si Si6 0.723246 0.936133 0.649783
Si Si7 0.000521 0.998057 0.813755
Si Si8 0.686060 0.551231 0.865776
O O1 0.518592 0.144533 0.637590
O O2 0.655576 0.605309 0.364063
O O3 0.389786 0.194349 0.490086
O O4 0.587725 0.425685 0.715355
O O5 0.904924 0.449030 0.726114
O O6 0.122842 0.943791 0.629396
O O7 0.121346 0.812046 0.461421
O O8 0.955282 0.777538 0.381606
O O9 0.651640 0.102993 0.847432
O O10 0.500000 0.000000 0.000000
O O11 0.384118 0.675949 0.918552
O O12 0.098695 0.023380 0.820774
O O13 0.231480 0.976105 0.945013
O O14 0.702321 0.004268 0.729926
O O15 0.705239 0.738135 0.822057
O O16 0.837334 0.729175 0.816024
O O17 0.000000 0.000000 0.000000
#
# Coordination Sequence:
#
# PCOD9031645 Si02
#       8
#     2   2   2   2   2   2   2   2
#     4  11  23  42  71  96 132 177 229 270 337 398
#     4  11  25  44  69  99 139 178 227 272 332 407
#     4  10  25  41  68  95 136 172 225 278 332 397
#     4  12  24  41  73  98 134 183 229 268 335 407
#     4  12  27  44  65 105 138 175 227 282 336 390
#     4  11  24  43  71  97 138 175 219 282 339 395
#     4  11  24  42  70 101 136 179 220 280 340 395
#     4  10  22  43  67  97 136 174 223 271 335 406
#
# _framework density 21.388694000000001
#
# number of rings (size 3 to 8) (size 9 to 14) (size 15 to 20)
#    0.000    1.000    2.500    4.500    7.000    5.500 
#    0.000    0.000    0.000    0.000    0.000    0.000 
#    0.000    0.000    0.000    0.000    0.000    0.000 
#
# Total GULP energy -89518.461511 kJ/mol
# GULP energy per Si atom -5594.903844 kJ/mol
# Density = 2.134001 g / cm^3
# Si number density = 21.388694 Si / 1000 Ang^3
#
#
#
# Elastic Constant Matrix: (Units=GPa)
#
#
# Indices 1 2 3 4 5 6 
#
# 1 134.5430 22.3021 35.4854 -17.6861 11.7087 7.4742
# 2 22.3021 62.2833 26.5850 -40.4683 11.6953 5.2868
# 3 35.4854 26.5850 116.5907 -40.7342 28.8402 -5.2208
# 4 -17.6861 -40.4683 -40.7342 47.5984 -14.8566 -1.1614
# 5 11.7087 11.6953 28.8402 -14.8566 38.1361 9.0741
# 6 7.4742 5.2868 -5.2208 -1.1614 9.0741 11.4978
#
#
#
# Elastic Compliance Matrix: (Units=1/GPa)
#
#
# Indices 1 2 3 4 5 6 
#
# 1 0.008813 -0.001965 -0.003410 -0.000867 0.002062 -0.008089
# 2 -0.001965 0.039636 0.002310 0.035954 0.004464 -0.015790
# 3 -0.003410 0.002310 0.017458 0.012061 -0.013071 0.020615
# 4 -0.000867 0.035954 0.012061 0.063590 0.007215 -0.009762
# 5 0.002062 0.004464 -0.013071 0.007215 0.047969 -0.046456
# 6 -0.008089 -0.015790 0.020615 -0.009762 -0.046456 0.144530
#
#
# Mechanical properties :
#
#
# Convention : Reuss Voigt Hill
#
# Bulk Modulus (GPa) = 16.72816 53.57355 35.15085
# Shear Modulus (GPa) = 14.36570 34.71610 24.54090
#
# Velocity S-wave (km/s) = 2.59443 4.03315 3.39097
# Velocity P-wave (km/s) = 4.10034 6.84035 5.63929
#
# Compressibility (1/GPa) = 0.05977944
#
# Stress axis : x y z
#
# Youngs Moduli (GPa) = 113.46297 25.22968 57.27930
#
# Poissons Ratio (x) = 0.04956 0.19531
# Poissons Ratio (y) = 0.22290 -0.13233
# Poissons Ratio (z) = 0.38689 -0.05829
#
# Static dielectric constant tensor:
#      x y z
#    x 1.763260 -0.019430 0.006710 
#    y -0.019430 1.784080 -0.004360 
#    z 0.006710 -0.004360 1.791980 
# 
# From -- ./inp_files/226149.got.cif
#   From: 2010.05.17/outbox.cif.g08.bks.cpg/sg2_114_cif.got.tgz:226149.got - 2010.06.03 11:33:40.
