data_PCOD9031273
_publ_section_title
;
Structure prediction by ZEFSAII (Michael W. Deem and Ramdas Pophale) SiO2 
 PCOD9031273
Probable space group: P -1
;
_chemical_formula_sum "Si O2"
_cell_formula_units_Z 16
_cell_length_a 13.718889
_cell_length_b 8.531293
_cell_length_c 13.317810
_cell_angle_alpha 100.264096
_cell_angle_beta 148.388100
_cell_angle_gamma 60.608067
_cell_volume 605.854316
_symmetry_space_group_name_H-M "P -1"
_symmetry_group_IT_number 2
_symmetry_cell_setting 'triclinic'
loop_
_space_group_symop_operation_xyz
x,y,z
-x,-y,-z
loop_
_atom_site_type_symbol
_atom_site_label
_atom_site_fract_x
_atom_site_fract_y
_atom_site_fract_z
Si Si1 0.824688 0.845700 0.501348
Si Si2 0.203904 0.453973 0.424985
Si Si3 0.391240 0.336664 0.366285
Si Si4 0.320349 0.182554 0.999860
Si Si5 0.796985 0.365436 0.357390
Si Si6 0.440240 0.783862 0.966259
Si Si7 0.055267 0.000349 0.211635
Si Si8 0.917133 0.801056 0.940383
O O1 0.782655 0.715291 0.518746
O O2 0.958991 0.726385 0.501543
O O3 0.560810 0.065773 0.265406
O O4 0.995060 0.871559 0.717386
O O5 0.202591 0.595693 0.521055
O O6 0.336400 0.782428 0.447140
O O7 0.397454 0.354941 0.494709
O O8 0.298500 0.207646 0.253960
O O9 0.064914 0.384131 0.845089
O O10 0.178871 0.566631 0.160430
O O11 0.360169 0.262571 0.943205
O O12 0.320725 0.000395 0.941640
O O13 0.741735 0.215950 0.262228
O O14 0.577410 0.594529 0.143851
O O15 0.890351 0.947603 0.022026
O O16 0.068179 0.115918 0.143125
#
# Coordination Sequence:
#
# PCOD9031273 Si02
#       8
#     2   2   2   2   2   2   2   2
#     4  12  25  43  70  99 137 179 216 287 336 402
#     4  12  25  44  69 100 137 178 220 284 335 403
#     4  11  25  46  73 101 138 181 229 283 345 400
#     4  11  24  40  69  95 134 180 227 264 342 399
#     4  11  23  45  66 100 144 169 228 273 341 398
#     4  10  22  43  65  98 134 185 221 275 323 413
#     4  11  25  47  72 102 138 180 231 280 349 399
#     4  10  24  46  70 102 136 178 229 293 326 410
#
# _framework density 26.408991
#
# number of rings (size 3 to 8) (size 9 to 14) (size 15 to 20)
#    0.000    1.000    3.750    2.625    3.500    4.000 
#   11.250    0.000    0.000    0.000    0.000    0.000 
#    0.000    0.000    0.000    0.000    0.000    0.000 
#
# Total GULP energy -89839.318147 kJ/mol
# GULP energy per Si atom -5614.957384 kJ/mol
# Density = 2.634888 g / cm^3
# Si number density = 26.408991 Si / 1000 Ang^3
#
#
#
# Elastic Constant Matrix: (Units=GPa)
#
#
# Indices 1 2 3 4 5 6 
#
# 1 66.5971 27.8821 14.0455 7.6312 -9.6390 -18.5116
# 2 27.8821 65.2106 37.0108 34.5653 -8.4322 4.4544
# 3 14.0455 37.0108 125.1753 17.8271 -11.1495 -3.8887
# 4 7.6312 34.5653 17.8271 64.8726 -11.8169 -1.9059
# 5 -9.6390 -8.4322 -11.1495 -11.8169 28.1233 6.8461
# 6 -18.5116 4.4544 -3.8887 -1.9059 6.8461 41.8050
#
#
#
# Elastic Compliance Matrix: (Units=1/GPa)
#
#
# Indices 1 2 3 4 5 6 
#
# 1 0.023901 -0.014235 0.001470 0.005428 0.003904 0.011845
# 2 -0.014235 0.033795 -0.006692 -0.015002 -0.001014 -0.011045
# 3 0.001470 -0.006692 0.009914 0.001171 0.002448 0.001939
# 4 0.005428 -0.015002 0.001171 0.023814 0.006840 0.004077
# 5 0.003904 -0.001014 0.002448 0.006840 0.041513 -0.004422
# 6 0.011845 -0.011045 0.001939 0.004077 -0.004422 0.031433
#
#
# Mechanical properties :
#
#
# Convention : Reuss Voigt Hill
#
# Bulk Modulus (GPa) = 34.84901 46.09551 40.47226
# Shear Modulus (GPa) = 23.49081 38.82981 31.16031
#
# Velocity S-wave (km/s) = 2.98568 3.83864 3.43871
# Velocity P-wave (km/s) = 5.01102 6.09420 5.57896
#
# Compressibility (1/GPa) = 0.02869522
#
# Stress axis : x y z
#
# Youngs Moduli (GPa) = 41.83901 29.59027 100.86809
#
# Poissons Ratio (x) = 0.42123 -0.14825
# Poissons Ratio (y) = 0.59559 0.67499
# Poissons Ratio (z) = -0.06149 0.19801
#
# Static dielectric constant tensor:
#      x y z
#    x 2.031350 0.006200 0.016510 
#    y 0.006200 2.062330 0.031280 
#    z 0.016510 0.031280 2.050220 
# 
# From -- ./inp_files/446148.got.cif
#   From: 2010.05.17/outbox.cif.g08.bks.cpg/sg2_224_cif.got.tgz:446148.got - 2010.06.03 11:33:40.
