data_PCOD9031935
_publ_section_title
;
Structure prediction by ZEFSAII (Michael W. Deem and Ramdas Pophale) SiO2 
 PCOD9031935
Probable space group: P -1
;
_chemical_formula_sum "Si O2"
_cell_formula_units_Z 10
_cell_length_a 9.190801
_cell_length_b 6.389112
_cell_length_c 13.169205
_cell_angle_alpha 96.870416
_cell_angle_beta 34.232947
_cell_angle_gamma 101.371358
_cell_volume 425.170793
_symmetry_space_group_name_H-M "P -1"
_symmetry_group_IT_number 2
_symmetry_cell_setting 'triclinic'
loop_
_space_group_symop_operation_xyz
x,y,z
-x,-y,-z
loop_
_atom_site_type_symbol
_atom_site_label
_atom_site_fract_x
_atom_site_fract_y
_atom_site_fract_z
Si Si1 0.256318 0.314159 0.605469
Si Si2 0.388248 0.136290 0.159344
Si Si3 0.454151 0.980036 0.324324
Si Si4 0.935897 0.396741 0.421759
Si Si5 0.116150 0.716585 0.004257
O O1 0.500000 0.500000 0.500000
O O2 0.355107 0.135277 0.471509
O O3 0.064136 0.426074 0.652884
O O4 0.099879 0.227256 0.790854
O O5 0.315327 0.994118 0.294883
O O6 0.629157 0.310531 0.075429
O O7 0.146519 0.243234 0.269817
O O8 0.500000 0.000000 0.000000
O O9 0.751390 0.088493 0.132985
O O10 0.355934 0.744262 0.408543
O O11 0.000000 0.500000 0.500000
O O12 0.000000 0.500000 0.000000
#
# Coordination Sequence:
#
# PCOD9031935 Si02
#       5
#     2   2   2   2   2
#     4  12  24  46  72 100 147 188 235 294 360 426
#     4  10  22  43  72 101 145 181 236 296 353 416
#     4  10  24  45  69 100 146 181 236 299 351 419
#     4  12  25  43  74 107 137 191 241 289 364 424
#     4  10  22  43  68  99 141 186 226 291 355 418
#
# _framework density 23.519957000000002
#
# number of rings (size 3 to 8) (size 9 to 14) (size 15 to 20)
#    1.200    0.000    4.000    1.800    2.800    1.600 
#    3.600    1.000    0.000    0.000    0.000    0.000 
#    0.000    0.000    0.000    0.000    0.000    0.000 
#
# Total GULP energy -55910.615802 kJ/mol
# GULP energy per Si atom -5591.061580 kJ/mol
# Density = 2.346642 g / cm^3
# Si number density = 23.519957 Si / 1000 Ang^3
#
#
#
# Elastic Constant Matrix: (Units=GPa)
#
#
# Indices 1 2 3 4 5 6 
#
# 1 91.5229 36.8812 37.5616 2.7248 -2.1526 15.7284
# 2 36.8812 89.5571 60.7448 -13.4823 10.9968 23.6430
# 3 37.5616 60.7448 197.9793 -4.9928 18.3012 4.9384
# 4 2.7248 -13.4823 -4.9928 44.6964 10.8279 -1.6581
# 5 -2.1526 10.9968 18.3012 10.8279 41.9921 0.1867
# 6 15.7284 23.6430 4.9384 -1.6581 0.1867 37.2202
#
#
#
# Elastic Compliance Matrix: (Units=1/GPa)
#
#
# Indices 1 2 3 4 5 6 
#
# 1 0.014269 -0.005121 -0.001495 -0.003570 0.003657 -0.002756
# 2 -0.005121 0.020661 -0.004432 0.007011 -0.005505 -0.010032
# 3 -0.001495 -0.004432 0.006810 0.000074 -0.001914 0.002556
# 4 -0.003570 0.007011 0.000074 0.026821 -0.008959 -0.001715
# 5 0.003657 -0.005505 -0.001914 -0.008959 0.028580 0.001663
# 6 -0.002756 -0.010032 0.002556 -0.001715 0.001663 0.033980
#
#
# Mechanical properties :
#
#
# Convention : Reuss Voigt Hill
#
# Bulk Modulus (GPa) = 50.90732 72.15938 61.53335
# Shear Modulus (GPa) = 31.29594 41.03983 36.16789
#
# Velocity S-wave (km/s) = 3.65171 4.18172 3.92567
# Velocity P-wave (km/s) = 6.28262 7.35272 6.83863
#
# Compressibility (1/GPa) = 0.01964354
#
# Stress axis : x y z
#
# Youngs Moduli (GPa) = 70.07962 48.40080 146.85285
#
# Poissons Ratio (x) = 0.24786 0.21960
# Poissons Ratio (y) = 0.35888 0.65081
# Poissons Ratio (z) = 0.10479 0.21450
#
# Static dielectric constant tensor:
#      x y z
#    x 1.984100 0.002660 -0.040040 
#    y 0.002660 1.841030 -0.030950 
#    z -0.040040 -0.030950 1.876260 
# 
# From -- ./inp_files/94079.got.cif
#   From: 2010.05.17/outbox.cif.g08.bks.cpg/sg2_48_cif.got.tgz:94079.got - 2010.06.03 11:33:40.
