data_PCOD9031222
_publ_section_title
;
Structure prediction by ZEFSAII (Michael W. Deem and Ramdas Pophale) SiO2 
 PCOD9031222
Probable space group: P -1
;
_chemical_formula_sum "Si O2"
_cell_formula_units_Z 14
_cell_length_a 26.793155
_cell_length_b 12.412808
_cell_length_c 4.995681
_cell_angle_alpha 66.030965
_cell_angle_beta 61.584573
_cell_angle_gamma 21.603752
_cell_volume 534.652945
_symmetry_space_group_name_H-M "P -1"
_symmetry_group_IT_number 2
_symmetry_cell_setting 'triclinic'
loop_
_space_group_symop_operation_xyz
x,y,z
-x,-y,-z
loop_
_atom_site_type_symbol
_atom_site_label
_atom_site_fract_x
_atom_site_fract_y
_atom_site_fract_z
Si Si1 0.165873 0.738320 0.128807
Si Si2 0.088808 0.645658 0.554160
Si Si3 0.726372 0.228566 0.350242
Si Si4 0.742614 0.878318 0.169060
Si Si5 0.557594 0.226612 0.794989
Si Si6 0.450789 0.167775 0.209864
Si Si7 0.122345 0.147683 0.166034
O O1 0.281518 0.505633 0.303954
O O2 0.138205 0.654107 0.214702
O O3 0.023182 0.071502 0.259959
O O4 0.244866 0.685118 0.799893
O O5 0.206910 0.353737 0.723763
O O6 0.006677 0.691628 0.582594
O O7 0.580425 0.473016 0.327264
O O8 0.749217 0.139661 0.679125
O O9 0.840932 0.956327 0.127421
O O10 0.684714 0.004793 0.487881
O O11 0.618331 0.148316 0.006558
O O12 0.872068 0.722376 0.946790
O O13 0.522877 0.156397 0.010032
O O14 0.500000 0.000000 0.500000
O O15 0.500000 0.000000 0.000000
#
# Coordination Sequence:
#
# PCOD9031222 Si02
#       7
#     2   2   2   2   2   2   2
#     4   9  21  41  68  94 128 167 208 266 322 380
#     4  10  22  43  65  95 130 171 218 259 317 382
#     4  10  23  43  66  97 126 164 215 268 328 380
#     4  12  25  42  65  95 131 174 215 261 314 378
#     4  11  24  41  65  97 130 166 214 266 324 379
#     4  11  22  40  66  97 130 164 207 263 323 383
#     4  11  24  42  66  92 129 172 217 266 312 375
#
# _framework density 26.185209
#
# number of rings (size 3 to 8) (size 9 to 14) (size 15 to 20)
#    0.000    1.429    0.000    4.714    0.000   12.000 
#    0.000   10.714    0.000    0.000    0.000    0.000 
#    0.000    0.000    0.000    0.000    0.000    0.000 
#
# Total GULP energy -78295.834824 kJ/mol
# GULP energy per Si atom -5592.559630 kJ/mol
# Density = 2.612561 g / cm^3
# Si number density = 26.185209 Si / 1000 Ang^3
#
#
#
# Elastic Constant Matrix: (Units=GPa)
#
#
# Indices 1 2 3 4 5 6 
#
# 1 102.6310 3.9455 53.0113 1.0717 -35.6818 -5.4557
# 2 3.9455 85.6074 27.1006 -12.0804 -7.4487 6.1110
# 3 53.0113 27.1006 87.6005 -4.2910 -7.9569 -5.7376
# 4 1.0717 -12.0804 -4.2910 22.3941 -6.3792 -6.1338
# 5 -35.6818 -7.4487 -7.9569 -6.3792 70.8095 0.7166
# 6 -5.4557 6.1110 -5.7376 -6.1338 0.7166 24.2903
#
#
#
# Elastic Compliance Matrix: (Units=1/GPa)
#
#
# Indices 1 2 3 4 5 6 
#
# 1 0.018508 0.003683 -0.011444 0.001527 0.008559 0.000660
# 2 0.003683 0.015006 -0.006414 0.006873 0.003361 -0.002827
# 3 -0.011444 -0.006414 0.020272 0.000946 -0.004121 0.004192
# 4 0.001527 0.006873 0.000946 0.053604 0.006305 0.012188
# 5 0.008559 0.003361 -0.004121 0.006305 0.018882 0.001138
# 6 0.000660 -0.002827 0.004192 0.012188 0.001138 0.046062
#
#
# Mechanical properties :
#
#
# Convention : Reuss Voigt Hill
#
# Bulk Modulus (GPa) = 39.31566 49.32818 44.32192
# Shear Modulus (GPa) = 23.90471 36.28422 30.09446
#
# Velocity S-wave (km/s) = 3.02472 3.72651 3.39380
# Velocity P-wave (km/s) = 5.21973 6.11513 5.68509
#
# Compressibility (1/GPa) = 0.02543516
#
# Stress axis : x y z
#
# Youngs Moduli (GPa) = 54.03115 66.63923 49.32993
#
# Poissons Ratio (x) = -0.24542 0.56453
# Poissons Ratio (y) = -0.19899 0.31641
# Poissons Ratio (z) = 0.61833 0.42744
#
# Static dielectric constant tensor:
#      x y z
#    x 1.960310 -0.139870 0.109280 
#    y -0.139870 2.056370 0.176760 
#    z 0.109280 0.176760 1.659540 
# 
# From -- ./inp_files/93188.got.cif
#   From: 2010.05.17/outbox.cif.g08.bks.cpg/sg2_47_cif.got.tgz:93188.got - 2010.06.03 11:33:40.
