data_PCOD9031658
_publ_section_title
;
Structure prediction by ZEFSAII (Michael W. Deem and Ramdas Pophale) SiO2 
 PCOD9031658
Probable space group: P -1
;
_chemical_formula_sum "Si O2"
_cell_formula_units_Z 14
_cell_length_a 10.889543
_cell_length_b 5.359592
_cell_length_c 13.596213
_cell_angle_alpha 113.255743
_cell_angle_beta 135.214056
_cell_angle_gamma 75.532999
_cell_volume 513.019620
_symmetry_space_group_name_H-M "P -1"
_symmetry_group_IT_number 2
_symmetry_cell_setting 'triclinic'
loop_
_space_group_symop_operation_xyz
x,y,z
-x,-y,-z
loop_
_atom_site_type_symbol
_atom_site_label
_atom_site_fract_x
_atom_site_fract_y
_atom_site_fract_z
Si Si1 0.772814 0.520906 0.682001
Si Si2 0.084134 0.852606 0.138662
Si Si3 0.414616 0.970218 0.805849
Si Si4 0.563536 0.524689 0.382834
Si Si5 0.148697 0.730278 0.736262
Si Si6 0.808379 0.819678 0.448558
Si Si7 0.222024 0.791261 0.999817
O O1 0.819546 0.844958 0.755742
O O2 0.724885 0.440314 0.530846
O O3 0.597960 0.460507 0.636222
O O4 0.897917 0.333001 0.784910
O O5 0.882701 0.926976 0.022128
O O6 0.169306 0.713987 0.069449
O O7 0.484177 0.688696 0.762326
O O8 0.321344 0.930734 0.851668
O O9 0.243572 0.006451 0.646358
O O10 0.570982 0.182666 0.899494
O O11 0.637132 0.799523 0.417170
O O12 0.172151 0.473144 0.639065
O O13 0.144230 0.642552 0.834212
O O14 0.974986 0.864791 0.619621
#
# Coordination Sequence:
#
# PCOD9031658 Si02
#       7
#     2   2   2   2   2   2   2
#     4  11  24  45  70 106 138 187 231 283 345 408
#     4  11  26  47  68 102 143 183 234 281 341 416
#     4  11  22  43  66 102 133 180 225 295 337 420
#     4  10  23  37  72  98 141 173 232 285 349 405
#     4  10  23  43  65  99 132 182 230 284 348 412
#     4  10  22  43  67  98 134 173 238 285 346 407
#     4  11  24  44  67  98 142 179 233 280 353 407
#
# _framework density 27.289406
#
# number of rings (size 3 to 8) (size 9 to 14) (size 15 to 20)
#    0.000    1.429    1.429    2.571    4.000    4.000 
#   10.286    0.000    0.000    0.000    0.000    0.000 
#    0.000    0.000    0.000    0.000    0.000    0.000 
#
# Total GULP energy -78247.401717 kJ/mol
# GULP energy per Si atom -5589.100123 kJ/mol
# Density = 2.722729 g / cm^3
# Si number density = 27.289406 Si / 1000 Ang^3
#
#
#
# Elastic Constant Matrix: (Units=GPa)
#
#
# Indices 1 2 3 4 5 6 
#
# 1 137.9070 17.2862 31.6529 9.9414 -3.5205 19.8800
# 2 17.2862 66.9152 17.5991 -7.5630 -0.7612 21.3647
# 3 31.6529 17.5991 107.8463 -2.7676 0.8929 7.1713
# 4 9.9414 -7.5630 -2.7676 37.2608 8.3977 -6.7244
# 5 -3.5205 -0.7612 0.8929 8.3977 42.0771 -9.1224
# 6 19.8800 21.3647 7.1713 -6.7244 -9.1224 32.9544
#
#
#
# Elastic Compliance Matrix: (Units=1/GPa)
#
#
# Indices 1 2 3 4 5 6 
#
# 1 0.008850 -0.000435 -0.002278 -0.003643 0.000381 -0.005200
# 2 -0.000435 0.019832 -0.002200 0.002369 -0.002793 -0.012407
# 3 -0.002278 -0.002200 0.010291 0.001164 -0.000540 0.000649
# 4 -0.003643 0.002369 0.001164 0.030495 -0.005250 0.005178
# 5 0.000381 -0.002793 -0.000540 -0.005250 0.026535 0.007973
# 6 -0.005200 -0.012407 0.000649 0.005178 0.007973 0.044647
#
#
# Mechanical properties :
#
#
# Convention : Reuss Voigt Hill
#
# Bulk Modulus (GPa) = 34.30573 49.52721 41.91647
# Shear Modulus (GPa) = 31.21262 38.86714 35.03988
#
# Velocity S-wave (km/s) = 3.38563 3.77803 3.58720
# Velocity P-wave (km/s) = 5.28031 6.10079 5.70532
#
# Compressibility (1/GPa) = 0.02914965
#
# Stress axis : x y z
#
# Youngs Moduli (GPa) = 112.98960 50.42297 97.17102
#
# Poissons Ratio (x) = 0.02191 0.22131
# Poissons Ratio (y) = 0.04910 0.21377
# Poissons Ratio (z) = 0.25734 0.11093
#
# Static dielectric constant tensor:
#      x y z
#    x 2.126740 -0.005690 0.010000 
#    y -0.005690 2.121420 0.014760 
#    z 0.010000 0.014760 2.241390 
# 
# From -- ./inp_files/70875.got.cif
#   From: 2010.05.17/outbox.cif.g08.bks.cpg/sg2_36_cif.got.tgz:70875.got - 2010.06.03 11:33:40.
