data_PCOD9031385
_publ_section_title
;
Structure prediction by ZEFSAII (Michael W. Deem and Ramdas Pophale) SiO2 
 PCOD9031385
Probable space group: P -1
;
_chemical_formula_sum "Si O2"
_cell_formula_units_Z 14
_cell_length_a 7.697921
_cell_length_b 9.628953
_cell_length_c 20.516398
_cell_angle_alpha 40.377881
_cell_angle_beta 39.031995
_cell_angle_gamma 38.051032
_cell_volume 544.368825
_symmetry_space_group_name_H-M "P -1"
_symmetry_group_IT_number 2
_symmetry_cell_setting 'triclinic'
loop_
_space_group_symop_operation_xyz
x,y,z
-x,-y,-z
loop_
_atom_site_type_symbol
_atom_site_label
_atom_site_fract_x
_atom_site_fract_y
_atom_site_fract_z
Si Si1 0.063049 0.003576 0.248026
Si Si2 0.757254 0.612613 0.947458
Si Si3 0.808253 0.124475 0.075695
Si Si4 0.946870 0.090610 0.388349
Si Si5 0.719711 0.286780 0.831931
Si Si6 0.722676 0.700305 0.466115
Si Si7 0.001569 0.623574 0.615047
O O1 0.163363 0.968065 0.307126
O O2 0.009502 0.274323 0.153326
O O3 0.794355 0.922973 0.353116
O O4 0.312273 0.828038 0.185309
O O5 0.546016 0.727352 0.902208
O O6 0.901673 0.325058 0.001522
O O7 0.526189 0.686376 0.050684
O O8 0.934111 0.911813 0.168809
O O9 0.000000 0.000000 0.000000
O O10 0.580447 0.233097 0.426487
O O11 0.985163 0.295646 0.343723
O O12 0.950212 0.870703 0.507177
O O13 0.744824 0.530159 0.723983
O O14 0.000000 0.500000 0.500000
O O15 0.724663 0.585561 0.435423
#
# Coordination Sequence:
#
# PCOD9031385 Si02
#       7
#     2   2   2   2   2   2   2
#     4  11  24  41  66  98 134 173 216 272 335 391
#     4  10  22  43  66  94 136 173 215 274 328 397
#     4   9  21  41  64  93 130 170 223 267 323 393
#     4  11  24  44  66  98 133 176 226 270 334 395
#     4  10  23  43  66  99 132 173 220 272 330 394
#     4  11  23  45  63  96 134 173 219 275 329 392
#     4  10  24  43  69  95 133 176 223 273 331 394
#
# _framework density 25.717858
#
# number of rings (size 3 to 8) (size 9 to 14) (size 15 to 20)
#    0.000    1.714    1.429    1.286    6.000    4.000 
#   10.286    0.000    0.000    0.000    0.000    0.000 
#    0.000    0.000    0.000    0.000    0.000    0.000 
#
# Total GULP energy -78202.127170 kJ/mol
# GULP energy per Si atom -5585.866226 kJ/mol
# Density = 2.565932 g / cm^3
# Si number density = 25.717858 Si / 1000 Ang^3
#
#
#
# Elastic Constant Matrix: (Units=GPa)
#
#
# Indices 1 2 3 4 5 6 
#
# 1 75.7272 56.4788 44.3511 -4.7438 4.4330 32.3701
# 2 56.4788 125.3911 42.0321 -13.2263 -0.8244 51.4546
# 3 44.3511 42.0321 126.2433 -10.4988 1.7594 30.7718
# 4 -4.7438 -13.2263 -10.4988 42.5467 19.9053 3.9559
# 5 4.4330 -0.8244 1.7594 19.9053 36.5320 -9.0430
# 6 32.3701 51.4546 30.7718 3.9559 -9.0430 55.6590
#
#
#
# Elastic Compliance Matrix: (Units=1/GPa)
#
#
# Indices 1 2 3 4 5 6 
#
# 1 0.023898 -0.006027 -0.004229 0.003485 -0.006538 -0.007299
# 2 -0.006027 0.017862 0.001000 0.010601 -0.008578 -0.015708
# 3 -0.004229 0.001000 0.010874 0.004914 -0.004022 -0.005480
# 4 0.003485 0.010601 0.004914 0.044731 -0.030403 -0.022663
# 5 -0.006538 -0.008578 -0.004022 -0.030403 0.050764 0.024365
# 6 -0.007299 -0.015708 -0.005480 -0.022663 0.024365 0.045331
#
#
# Mechanical properties :
#
#
# Convention : Reuss Voigt Hill
#
# Bulk Modulus (GPa) = 29.30595 68.12063 48.71329
# Shear Modulus (GPa) = 22.38671 39.24750 30.81710
#
# Velocity S-wave (km/s) = 2.95358 3.91074 3.46537
# Velocity P-wave (km/s) = 4.80119 6.85106 5.91559
#
# Compressibility (1/GPa) = 0.03412276
#
# Stress axis : x y z
#
# Youngs Moduli (GPa) = 41.84451 55.98469 91.95942
#
# Poissons Ratio (x) = 0.33742 0.38891
# Poissons Ratio (y) = 0.25219 -0.09198
# Poissons Ratio (z) = 0.17697 -0.05600
#
# Static dielectric constant tensor:
#      x y z
#    x 2.137780 -0.037720 0.008810 
#    y -0.037720 1.995610 0.027290 
#    z 0.008810 0.027290 2.007670 
# 
# From -- ./inp_files/60410.got.cif
#   From: 2010.05.17/outbox.cif.g08.bks.cpg/sg2_31_cif.got.tgz:60410.got - 2010.06.03 11:33:40.
