data_PCOD9031759
_publ_section_title
;
Structure prediction by ZEFSAII (Michael W. Deem and Ramdas Pophale) SiO2 
 PCOD9031759
Probable space group: P -1
;
_chemical_formula_sum "Si O2"
_cell_formula_units_Z 14
_cell_length_a 12.996815
_cell_length_b 7.347028
_cell_length_c 9.155489
_cell_angle_alpha 83.578129
_cell_angle_beta 132.766642
_cell_angle_gamma 81.011265
_cell_volume 604.608869
_symmetry_space_group_name_H-M "P -1"
_symmetry_group_IT_number 2
_symmetry_cell_setting 'triclinic'
loop_
_space_group_symop_operation_xyz
x,y,z
-x,-y,-z
loop_
_atom_site_type_symbol
_atom_site_label
_atom_site_fract_x
_atom_site_fract_y
_atom_site_fract_z
Si Si1 0.688915 0.360678 0.443500
Si Si2 0.840320 0.024801 0.411275
Si Si3 0.351650 0.666058 0.290469
Si Si4 0.830557 0.592211 0.976036
Si Si5 0.561666 0.139724 0.917266
Si Si6 0.573206 0.735277 0.933938
Si Si7 0.838527 0.669974 0.652499
O O1 0.711864 0.236796 0.626849
O O2 0.523771 0.376457 0.230110
O O3 0.728330 0.552879 0.505822
O O4 0.791953 0.227964 0.433229
O O5 0.840551 0.847440 0.534980
O O6 0.000000 0.000000 0.500000
O O7 0.715660 0.052265 0.163233
O O8 0.500000 0.500000 0.500000
O O9 0.232459 0.578572 0.116989
O O10 0.398078 0.783477 0.200671
O O11 0.731116 0.683436 0.012442
O O12 0.811303 0.717349 0.796156
O O13 0.001233 0.495301 0.185459
O O14 0.501731 0.965869 0.829498
O O15 0.450235 0.279805 0.914185
#
# Coordination Sequence:
#
# PCOD9031759 Si02
#       7
#     2   2   2   2   2   2   2
#     4  10  24  44  71 102 131 180 237 272 344 397
#     4  11  25  48  68 101 140 183 224 284 339 412
#     4  11  22  43  68 101 133 177 226 287 335 408
#     4  10  22  43  68 104 134 178 231 278 342 400
#     4  10  25  43  63 103 139 171 237 278 339 407
#     4  10  22  44  66 100 138 181 218 289 339 396
#     4  10  24  45  70 101 139 180 231 280 334 413
#
# _framework density 23.155465
#
# number of rings (size 3 to 8) (size 9 to 14) (size 15 to 20)
#    0.000    1.714    1.429    0.857    4.000    8.571 
#    7.714    2.857    0.000    0.000    0.000    0.000 
#    0.000    0.000    0.000    0.000    0.000    0.000 
#
# Total GULP energy -78201.989850 kJ/mol
# GULP energy per Si atom -5585.856418 kJ/mol
# Density = 2.310276 g / cm^3
# Si number density = 23.155465 Si / 1000 Ang^3
#
#
#
# Elastic Constant Matrix: (Units=GPa)
#
#
# Indices 1 2 3 4 5 6 
#
# 1 150.9144 6.8465 38.6400 -17.7321 3.9142 9.4920
# 2 6.8465 35.7421 9.5517 6.3822 -5.6888 15.5402
# 3 38.6400 9.5517 96.2644 -13.1249 1.0597 16.2755
# 4 -17.7321 6.3822 -13.1249 26.6755 9.2850 -6.1561
# 5 3.9142 -5.6888 1.0597 9.2850 40.8539 -12.5193
# 6 9.4920 15.5402 16.2755 -6.1561 -12.5193 55.4138
#
#
#
# Elastic Compliance Matrix: (Units=1/GPa)
#
#
# Indices 1 2 3 4 5 6 
#
# 1 0.008012 -0.002327 -0.002200 0.005607 -0.002300 0.000030
# 2 -0.002327 0.037487 -0.003527 -0.016673 0.006418 -0.009481
# 3 -0.002200 -0.003527 0.012885 0.006127 -0.002728 -0.002354
# 4 0.005607 -0.016673 0.006127 0.054148 -0.013853 0.004802
# 5 -0.002300 0.006418 -0.002728 -0.013853 0.030248 0.004690
# 6 0.000030 -0.009481 -0.002354 0.004802 0.004690 0.022984
#
#
# Mechanical properties :
#
#
# Convention : Reuss Voigt Hill
#
# Bulk Modulus (GPa) = 23.65402 43.66636 33.66019
# Shear Modulus (GPa) = 25.51495 39.78081 32.64788
#
# Velocity S-wave (km/s) = 3.32309 4.14936 3.75899
# Velocity P-wave (km/s) = 4.99613 6.46955 5.77998
#
# Compressibility (1/GPa) = 0.04227611
#
# Stress axis : x y z
#
# Youngs Moduli (GPa) = 124.81591 26.67582 77.61227
#
# Poissons Ratio (x) = 0.06207 0.17076
# Poissons Ratio (y) = 0.29044 0.27370
# Poissons Ratio (z) = 0.27462 0.09407
#
# Static dielectric constant tensor:
#      x y z
#    x 1.935500 -0.013910 -0.022660 
#    y -0.013910 1.884630 -0.057220 
#    z -0.022660 -0.057220 1.898830 
# 
# From -- ./inp_files/244193.got.cif
#   From: 2010.05.17/outbox.cif.g08.bks.cpg/sg2_123_cif.got.tgz:244193.got - 2010.06.03 11:33:40.
