data_PCOD9031805
_publ_section_title
;
Structure prediction by ZEFSAII (Michael W. Deem and Ramdas Pophale) SiO2 
 PCOD9031805
Probable space group: P -1
;
_chemical_formula_sum "Si O2"
_cell_formula_units_Z 16
_cell_length_a 8.921683
_cell_length_b 24.023530
_cell_length_c 16.852578
_cell_angle_alpha 163.714137
_cell_angle_beta 59.141586
_cell_angle_gamma 129.616686
_cell_volume 693.247228
_symmetry_space_group_name_H-M "P -1"
_symmetry_group_IT_number 2
_symmetry_cell_setting 'triclinic'
loop_
_space_group_symop_operation_xyz
x,y,z
-x,-y,-z
loop_
_atom_site_type_symbol
_atom_site_label
_atom_site_fract_x
_atom_site_fract_y
_atom_site_fract_z
Si Si1 0.930209 0.085151 0.710156
Si Si2 0.199864 0.955700 0.869162
Si Si3 0.212267 0.557659 0.974735
Si Si4 0.538076 0.296276 0.737702
Si Si5 0.831138 0.696744 0.741298
Si Si6 0.048482 0.008044 0.251825
Si Si7 0.018615 0.532169 0.230829
Si Si8 0.617979 0.118678 0.045174
O O1 0.672828 0.940685 0.570230
O O2 0.009058 0.033324 0.696684
O O3 0.000000 0.000000 0.500000
O O4 0.025214 0.369203 0.072589
O O5 0.034807 0.752545 0.571206
O O6 0.070776 0.850103 0.843085
O O7 0.272775 0.224666 0.188299
O O8 0.416341 0.975585 0.843289
O O9 0.165310 0.298302 0.608390
O O10 0.187123 0.642061 0.010762
O O11 0.418015 0.698885 0.172444
O O12 0.000000 0.500000 0.000000
O O13 0.759822 0.357726 0.726749
O O14 0.500000 0.500000 0.000000
O O15 0.732992 0.414072 0.403580
O O16 0.854028 0.833153 0.004069
O O17 0.211871 0.936910 0.095917
O O18 0.500000 0.000000 0.000000
#
# Coordination Sequence:
#
# PCOD9031805 Si02
#       8
#     2   2   2   2   2   2   2   2
#     4  12  24  40  69  99 131 177 230 288 344 409
#     4  11  24  45  72  97 141 184 227 283 350 414
#     4  10  22  43  68  93 136 178 222 281 339 407
#     4  11  21  42  65  94 135 171 222 283 339 408
#     4  11  25  47  69  99 141 183 229 286 344 419
#     4  12  23  45  70  99 136 181 229 283 348 405
#     4  11  23  41  67  97 130 179 225 275 350 406
#     4  12  26  43  70 108 139 179 236 288 342 414
#
# _framework density 23.079789000000002
#
# number of rings (size 3 to 8) (size 9 to 14) (size 15 to 20)
#    0.000    0.750    5.000    3.000    1.750    0.500 
#    0.000    1.250    0.000    0.000    0.000    0.000 
#    0.000    0.000    0.000    0.000    0.000    0.000 
#
# Total GULP energy -89200.521480 kJ/mol
# GULP energy per Si atom -5575.032592 kJ/mol
# Density = 2.302726 g / cm^3
# Si number density = 23.079789 Si / 1000 Ang^3
#
#
#
# Elastic Constant Matrix: (Units=GPa)
#
#
# Indices 1 2 3 4 5 6 
#
# 1 67.5646 18.7959 -1.3013 -6.4000 3.0670 -13.5085
# 2 18.7959 92.1799 30.3243 -0.9871 -0.4034 -24.0844
# 3 -1.3013 30.3243 95.2725 6.0637 -8.5690 -4.4722
# 4 -6.4000 -0.9871 6.0637 36.9491 -9.4649 -2.2762
# 5 3.0670 -0.4034 -8.5690 -9.4649 42.0925 -5.3026
# 6 -13.5085 -24.0844 -4.4722 -2.2762 -5.3026 27.4129
#
#
#
# Elastic Compliance Matrix: (Units=1/GPa)
#
#
# Indices 1 2 3 4 5 6 
#
# 1 0.017098 -0.001858 0.001013 0.003359 0.000625 0.007358
# 2 -0.001858 0.016143 -0.004553 0.002028 0.001454 0.012974
# 3 0.001013 -0.004553 0.012164 -0.001548 0.001848 -0.001288
# 4 0.003359 0.002028 -0.001548 0.030221 0.007146 0.007076
# 5 0.000625 0.001454 0.001848 0.007146 0.026671 0.007639
# 6 0.007358 0.012974 -0.001288 0.007076 0.007639 0.053359
#
#
# Mechanical properties :
#
#
# Convention : Reuss Voigt Hill
#
# Bulk Modulus (GPa) = 28.89540 38.96166 33.92853
# Shear Modulus (GPa) = 28.09180 35.10410 31.59795
#
# Velocity S-wave (km/s) = 3.49257 3.90422 3.70411
# Velocity P-wave (km/s) = 5.36759 6.10261 5.74686
#
# Compressibility (1/GPa) = 0.03460758
#
# Stress axis : x y z
#
# Youngs Moduli (GPa) = 58.48618 61.94681 82.21303
#
# Poissons Ratio (x) = 0.11513 -0.08327
# Poissons Ratio (y) = 0.10869 0.37430
# Poissons Ratio (z) = -0.05924 0.28203
#
# Static dielectric constant tensor:
#      x y z
#    x 1.900990 -0.078110 0.026450 
#    y -0.078110 1.969040 -0.016410 
#    z 0.026450 -0.016410 1.893480 
# 
# From -- ./inp_files/296810.got.cif
#   From: 2010.05.17/outbox.cif.g08.bks.cpg/sg2_149_cif.got.tgz:296810.got - 2010.06.03 11:33:40.
