data_PCOD9031540
_publ_section_title
;
Structure prediction by ZEFSAII (Michael W. Deem and Ramdas Pophale) SiO2 
 PCOD9031540
Probable space group: P -1
;
_chemical_formula_sum "Si O2"
_cell_formula_units_Z 16
_cell_length_a 19.745869
_cell_length_b 13.508263
_cell_length_c 25.727966
_cell_angle_alpha 28.973825
_cell_angle_beta 19.409709
_cell_angle_gamma 21.097715
_cell_volume 820.157395
_symmetry_space_group_name_H-M "P -1"
_symmetry_group_IT_number 2
_symmetry_cell_setting 'triclinic'
loop_
_space_group_symop_operation_xyz
x,y,z
-x,-y,-z
loop_
_atom_site_type_symbol
_atom_site_label
_atom_site_fract_x
_atom_site_fract_y
_atom_site_fract_z
Si Si1 0.539693 0.872159 0.780391
Si Si2 0.975448 0.571077 0.425344
Si Si3 0.935136 0.326285 0.472970
Si Si4 0.422746 0.369968 0.575990
Si Si5 0.163764 0.075446 0.252834
Si Si6 0.961960 0.784194 0.947955
Si Si7 0.237475 0.166167 0.043372
Si Si8 0.598517 0.215334 0.405731
O O1 0.485397 0.108680 0.675799
O O2 0.258636 0.989380 0.954986
O O3 0.722274 0.592441 0.743159
O O4 0.751864 0.812252 0.698514
O O5 0.881295 0.442662 0.517302
O O6 0.000000 0.500000 0.500000
O O7 0.766178 0.896419 0.421926
O O8 0.713606 0.584039 0.479206
O O9 0.900044 0.108204 0.596282
O O10 0.500000 0.500000 0.500000
O O11 0.591092 0.276767 0.443675
O O12 0.100007 0.610138 0.687738
O O13 0.448872 0.966962 0.118932
O O14 0.188907 0.064089 0.176860
O O15 0.037318 0.499032 0.037553
O O16 0.243750 0.718442 0.771550
O O17 0.830738 0.886717 0.938331
#
# Coordination Sequence:
#
# PCOD9031540 Si02
#       8
#     2   2   2   2   2   2   2   2
#     4  10  23  40  62  88 125 156 208 256 301 365
#     4  10  22  43  67  89 118 161 217 257 303 357
#     4  10  23  39  64  94 118 160 213 254 301 357
#     4  12  22  36  62  92 122 163 210 247 303 375
#     4  11  21  38  60  90 130 162 200 251 310 368
#     4  11  23  39  60  90 128 162 203 247 315 367
#     4  10  23  36  57  91 132 166 192 249 313 379
#     4  12  24  40  67  90 124 167 206 259 304 357
#
# _framework density 19.508448999999999
#
# number of rings (size 3 to 8) (size 9 to 14) (size 15 to 20)
#    0.750    0.500    5.000    1.125    5.250    1.000 
#    0.000    0.000    0.000    0.750    0.000    0.000 
#    0.000    0.000    0.000    0.000    0.000    0.000 
#
# Total GULP energy -89283.481478 kJ/mol
# GULP energy per Si atom -5580.217592 kJ/mol
# Density = 1.946405 g / cm^3
# Si number density = 19.508449 Si / 1000 Ang^3
#
#
#
# Elastic Constant Matrix: (Units=GPa)
#
#
# Indices 1 2 3 4 5 6 
#
# 1 47.6883 10.5241 4.0783 15.6549 3.8301 -6.8655
# 2 10.5241 95.4505 0.5376 18.9252 6.6380 -6.1534
# 3 4.0783 0.5376 51.9085 24.0683 16.5439 6.8561
# 4 15.6549 18.9252 24.0683 32.6346 1.9342 1.3683
# 5 3.8301 6.6380 16.5439 1.9342 22.4464 3.3431
# 6 -6.8655 -6.1534 6.8561 1.3683 3.3431 20.0544
#
#
#
# Elastic Compliance Matrix: (Units=1/GPa)
#
#
# Indices 1 2 3 4 5 6 
#
# 1 0.030329 0.003408 0.012677 -0.025460 -0.015021 0.011336
# 2 0.003408 0.014788 0.011159 -0.017923 -0.012407 0.005180
# 3 0.012677 0.011159 0.054895 -0.050553 -0.041472 -0.000641
# 4 -0.025460 -0.017923 -0.050553 0.088528 0.040730 -0.009762
# 5 -0.015021 -0.012407 -0.041472 0.040730 0.079447 -0.010794
# 6 0.011336 0.005180 -0.000641 -0.009762 -0.010794 0.058019
#
#
# Mechanical properties :
#
#
# Convention : Reuss Voigt Hill
#
# Bulk Modulus (GPa) = 6.47245 25.03635 15.75440
# Shear Modulus (GPa) = 15.47892 27.02089 21.24991
#
# Velocity S-wave (km/s) = 2.81988 3.72571 3.30398
# Velocity P-wave (km/s) = 3.73192 5.60084 4.75902
#
# Compressibility (1/GPa) = 0.15450096
#
# Stress axis : x y z
#
# Youngs Moduli (GPa) = 32.97120 67.62056 18.21648
#
# Poissons Ratio (x) = -0.23044 -0.23092
# Poissons Ratio (y) = -0.11236 -0.20328
# Poissons Ratio (z) = -0.41797 -0.75460
#
# Static dielectric constant tensor:
#      x y z
#    x 1.686450 -0.007560 0.002700 
#    y -0.007560 1.675520 0.014630 
#    z 0.002700 0.014630 1.694810 
# 
# From -- ./inp_files/620812.got.cif
#   From: 2010.05.17/outbox.cif.g08.bks.cpg/sg2_311_cif.got.tgz:620812.got - 2010.06.03 11:33:40.
