data_PCOD9031279
_publ_section_title
;
Structure prediction by ZEFSAII (Michael W. Deem and Ramdas Pophale) SiO2 
 PCOD9031279
Probable space group: P -1
;
_chemical_formula_sum "Si O2"
_cell_formula_units_Z 16
_cell_length_a 11.224583
_cell_length_b 5.295490
_cell_length_c 15.779366
_cell_angle_alpha 80.452398
_cell_angle_beta 77.606859
_cell_angle_gamma 126.857617
_cell_volume 678.893174
_symmetry_space_group_name_H-M "P -1"
_symmetry_group_IT_number 2
_symmetry_cell_setting 'triclinic'
loop_
_space_group_symop_operation_xyz
x,y,z
-x,-y,-z
loop_
_atom_site_type_symbol
_atom_site_label
_atom_site_fract_x
_atom_site_fract_y
_atom_site_fract_z
Si Si1 0.341475 0.640875 0.895091
Si Si2 0.130333 0.171318 0.114735
Si Si3 0.818923 0.250280 0.650335
Si Si4 0.589469 0.395996 0.444058
Si Si5 0.947229 0.429322 0.110556
Si Si6 0.665313 0.360868 0.792662
Si Si7 0.082713 0.286009 0.543425
Si Si8 0.525269 0.479941 0.263265
O O1 0.363329 0.436703 0.837809
O O2 0.236661 0.716710 0.858403
O O3 0.522553 0.985143 0.874786
O O4 0.235874 0.401825 0.003729
O O5 0.997071 0.214352 0.146110
O O6 0.257306 0.353164 0.162917
O O7 0.048371 0.786124 0.126801
O O8 0.818849 0.448298 0.716280
O O9 0.839587 0.384312 0.544736
O O10 0.955219 0.223515 0.632678
O O11 0.636031 0.909757 0.703384
O O12 0.500000 0.500000 0.500000
O O13 0.771287 0.644725 0.436526
O O14 0.595032 0.482854 0.340426
O O15 0.500000 0.000000 0.500000
O O16 0.000000 0.500000 0.000000
O O17 0.559407 0.361497 0.737571
O O18 0.000000 0.000000 0.500000
#
# Coordination Sequence:
#
# PCOD9031279 Si02
#       8
#     2   2   2   2   2   2   2   2
#     4  10  24  43  69  99 139 187 234 290 352 413
#     4  11  25  44  73 102 141 191 238 290 352 420
#     4  10  22  43  65  99 138 177 231 288 353 405
#     4  12  26  47  73 102 138 183 230 279 357 424
#     4  10  23  45  70 100 139 184 239 294 350 416
#     4  11  25  42  69 100 145 182 237 294 346 419
#     4  11  23  43  75  99 134 184 235 290 348 422
#     4  11  25  44  68  98 145 180 232 294 349 419
#
# _framework density 23.567772000000001
#
# number of rings (size 3 to 8) (size 9 to 14) (size 15 to 20)
#    0.000    1.250    1.250    4.125   12.250    1.500 
#    2.250    0.000    0.000    0.000    0.000    0.000 
#    0.000    0.000    0.000    0.000    0.000    0.000 
#
# Total GULP energy -89406.298595 kJ/mol
# GULP energy per Si atom -5587.893662 kJ/mol
# Density = 2.351413 g / cm^3
# Si number density = 23.567772 Si / 1000 Ang^3
#
#
#
# Elastic Constant Matrix: (Units=GPa)
#
#
# Indices 1 2 3 4 5 6 
#
# 1 162.1983 49.8350 52.8097 23.4110 -20.2384 11.0121
# 2 49.8350 110.9820 35.2371 22.7912 -11.0181 2.4379
# 3 52.8097 35.2371 97.7623 20.5663 -16.3734 8.2589
# 4 23.4110 22.7912 20.5663 21.7207 -6.0165 3.9321
# 5 -20.2384 -11.0181 -16.3734 -6.0165 44.0061 7.2356
# 6 11.0121 2.4379 8.2589 3.9321 7.2356 45.7602
#
#
#
# Elastic Compliance Matrix: (Units=1/GPa)
#
#
# Indices 1 2 3 4 5 6 
#
# 1 0.008546 -0.001981 -0.002613 -0.003779 0.002192 -0.001501
# 2 -0.001981 0.012307 -0.001394 -0.009558 0.000203 0.000862
# 3 -0.002613 -0.001394 0.014545 -0.008360 0.002994 -0.001677
# 4 -0.003779 -0.009558 -0.008360 0.069472 0.002831 -0.003490
# 5 0.002192 0.000203 0.002994 0.002831 0.026182 -0.005462
# 6 -0.001501 0.000862 -0.001677 -0.003490 -0.005462 0.023635
#
#
# Mechanical properties :
#
#
# Convention : Reuss Voigt Hill
#
# Bulk Modulus (GPa) = 42.69708 71.85626 57.27667
# Shear Modulus (GPa) = 28.65850 37.83480 33.24665
#
# Velocity S-wave (km/s) = 3.49091 4.01104 3.75998
# Velocity P-wave (km/s) = 5.86555 7.21157 6.57310
#
# Compressibility (1/GPa) = 0.02342081
#
# Stress axis : x y z
#
# Youngs Moduli (GPa) = 117.01877 81.25727 68.75413
#
# Poissons Ratio (x) = 0.16097 0.17968
# Poissons Ratio (y) = 0.23181 0.09582
# Poissons Ratio (z) = 0.30581 0.11325
#
# Static dielectric constant tensor:
#      x y z
#    x 2.185140 -0.171460 0.052100 
#    y -0.171460 2.039570 -0.029880 
#    z 0.052100 -0.029880 1.910220 
# 
# From -- ./inp_files/510982.got.cif
#   From: 2010.05.17/outbox.cif.g08.bks.cpg/sg2_256_cif.got.tgz:510982.got - 2010.06.03 11:33:40.
