data_PCOD9031193
_publ_section_title
;
Structure prediction by ZEFSAII (Michael W. Deem and Ramdas Pophale) SiO2 
 PCOD9031193
Probable space group: P -1
;
_chemical_formula_sum "Si O2"
_cell_formula_units_Z 16
_cell_length_a 15.777808
_cell_length_b 6.686073
_cell_length_c 7.736358
_cell_angle_alpha 59.048826
_cell_angle_beta 65.494034
_cell_angle_gamma 70.030881
_cell_volume 628.209562
_symmetry_space_group_name_H-M "P -1"
_symmetry_group_IT_number 2
_symmetry_cell_setting 'triclinic'
loop_
_space_group_symop_operation_xyz
x,y,z
-x,-y,-z
loop_
_atom_site_type_symbol
_atom_site_label
_atom_site_fract_x
_atom_site_fract_y
_atom_site_fract_z
Si Si1 0.771375 0.496495 0.744698
Si Si2 0.733871 0.409266 0.424340
Si Si3 0.926918 0.792986 0.548642
Si Si4 0.589534 0.136675 0.518261
Si Si5 0.928887 0.538978 0.199528
Si Si6 0.593422 0.406944 0.066234
Si Si7 0.089908 0.982278 0.160354
Si Si8 0.612188 0.889459 0.261236
O O1 0.731566 0.449567 0.612270
O O2 0.837277 0.695413 0.594025
O O3 0.842410 0.258124 0.840788
O O4 0.679181 0.551290 0.917695
O O5 0.679945 0.196615 0.513173
O O6 0.843506 0.398335 0.296726
O O7 0.681711 0.651706 0.273697
O O8 0.009825 0.580239 0.639257
O O9 0.982817 0.933615 0.304095
O O10 0.892305 0.931527 0.695457
O O11 0.564168 0.355687 0.308259
O O12 0.494556 0.115775 0.708666
O O13 0.608235 0.921185 0.461827
O O14 0.000000 0.500000 0.000000
O O15 0.895858 0.819516 0.080309
O O16 0.636594 0.142695 0.075486
O O17 0.500000 0.500000 0.000000
#
# Coordination Sequence:
#
# PCOD9031193 Si02
#       8
#     2   2   2   2   2   2   2   2
#     4  12  25  40  67  96 131 168 218 269 319 390
#     4  12  23  41  65  98 127 170 217 264 322 386
#     4  10  23  46  61  95 134 168 217 274 320 379
#     4   9  22  42  67  89 130 165 211 263 324 384
#     4  10  23  41  66  93 132 173 218 268 324 384
#     4  10  22  44  64  94 129 165 212 269 328 381
#     4  10  22  43  65  93 128 170 221 264 327 377
#     4   9  21  43  67  93 124 167 215 260 321 387
#
# _framework density 25.469204999999999
#
# number of rings (size 3 to 8) (size 9 to 14) (size 15 to 20)
#    0.750    1.000    1.250    2.250    3.500    1.500 
#    2.250    1.250    0.000    0.000    0.000    0.000 
#    0.000    0.000    0.000    0.000    0.000    0.000 
#
# Total GULP energy -89434.490303 kJ/mol
# GULP energy per Si atom -5589.655644 kJ/mol
# Density = 2.541124 g / cm^3
# Si number density = 25.469205 Si / 1000 Ang^3
#
#
#
# Elastic Constant Matrix: (Units=GPa)
#
#
# Indices 1 2 3 4 5 6 
#
# 1 153.5938 29.0350 49.2075 -5.5910 -29.9095 23.1894
# 2 29.0350 57.2640 -13.9320 -12.9326 3.0364 -6.2094
# 3 49.2075 -13.9320 62.4116 -7.2377 -33.6857 5.2442
# 4 -5.5910 -12.9326 -7.2377 31.1269 1.8703 0.9554
# 5 -29.9095 3.0364 -33.6857 1.8703 38.2473 -3.5647
# 6 23.1894 -6.2094 5.2442 0.9554 -3.5647 44.4628
#
#
#
# Elastic Compliance Matrix: (Units=1/GPa)
#
#
# Indices 1 2 3 4 5 6 
#
# 1 0.014548 -0.013218 -0.015256 -0.006107 -0.001422 -0.007617
# 2 -0.013218 0.034125 0.023185 0.016468 0.007424 0.009166
# 3 -0.015256 0.023185 0.051560 0.016766 0.031498 0.007279
# 4 -0.006107 0.016468 0.016766 0.041254 0.006962 0.003179
# 5 -0.001422 0.007424 0.031498 0.006962 0.052040 0.002086
# 6 -0.007617 0.009166 0.007279 0.003179 0.002086 0.026984
#
#
# Mechanical properties :
#
#
# Convention : Reuss Voigt Hill
#
# Bulk Modulus (GPa) = 11.15378 44.65450 27.90414
# Shear Modulus (GPa) = 19.15902 36.69798 27.92850
#
# Velocity S-wave (km/s) = 2.74568 3.80001 3.31503
# Velocity P-wave (km/s) = 3.80007 6.06829 5.06284
#
# Compressibility (1/GPa) = 0.08965567
#
# Stress axis : x y z
#
# Youngs Moduli (GPa) = 68.73903 29.30392 19.39473
#
# Poissons Ratio (x) = 0.38733 0.29589
# Poissons Ratio (y) = 0.90857 -0.44967
# Poissons Ratio (z) = 1.04871 -0.67942
#
# Static dielectric constant tensor:
#      x y z
#    x 1.991280 0.006270 0.025000 
#    y 0.006270 2.091530 -0.012820 
#    z 0.025000 -0.012820 1.955490 
# 
# From -- ./inp_files/291488.got.cif
#   From: 2010.05.17/outbox.cif.g08.bks.cpg/sg2_146_cif.got.tgz:291488.got - 2010.06.03 11:33:40.
