data_PCOD9031782
_publ_section_title
;
Structure prediction by ZEFSAII (Michael W. Deem and Ramdas Pophale) SiO2 
 PCOD9031782
Probable space group: P -1
;
_chemical_formula_sum "Si O2"
_cell_formula_units_Z 16
_cell_length_a 9.734206
_cell_length_b 12.503163
_cell_length_c 13.685214
_cell_angle_alpha 106.988941
_cell_angle_beta 107.211910
_cell_angle_gamma 135.827150
_cell_volume 723.352216
_symmetry_space_group_name_H-M "P -1"
_symmetry_group_IT_number 2
_symmetry_cell_setting 'triclinic'
loop_
_space_group_symop_operation_xyz
x,y,z
-x,-y,-z
loop_
_atom_site_type_symbol
_atom_site_label
_atom_site_fract_x
_atom_site_fract_y
_atom_site_fract_z
Si Si1 0.253126 0.411620 0.378979
Si Si2 0.140876 0.744216 0.360874
Si Si3 0.396392 0.482050 0.871198
Si Si4 0.729897 0.237137 0.921862
Si Si5 0.742614 0.834923 0.322093
Si Si6 0.129397 0.715613 0.575188
Si Si7 0.741511 0.914399 0.125836
Si Si8 0.215805 0.553973 0.244546
O O1 0.500000 0.500000 0.500000
O O2 0.345447 0.569987 0.364976
O O3 0.063934 0.342388 0.406251
O O4 0.019341 0.171268 0.210814
O O5 0.059015 0.700520 0.445278
O O6 0.092073 0.585826 0.268669
O O7 0.943443 0.700022 0.249236
O O8 0.500000 0.000000 0.500000
O O9 0.416610 0.395168 0.776828
O O10 0.500000 0.500000 0.000000
O O11 0.610932 0.735307 0.975926
O O12 0.519821 0.179016 0.921808
O O13 0.487212 0.991351 0.747408
O O14 0.000000 0.500000 0.000000
O O15 0.937245 0.309937 0.061193
O O16 0.839113 0.927744 0.255856
O O17 0.500394 0.760604 0.286664
O O18 0.000000 0.000000 0.500000
O O19 0.000000 0.500000 0.500000
#
# Coordination Sequence:
#
# PCOD9031782 Si02
#       8
#     2   2   2   2   2   2   2   2
#     4  11  26  46  67  97 142 184 233 277 352 422
#     4  12  25  42  74 105 137 183 243 285 348 421
#     4  10  24  43  65 100 141 171 228 287 359 399
#     4  11  22  42  71 101 137 174 237 288 348 404
#     4  11  23  40  66  99 134 178 226 286 354 403
#     4  11  26  47  68 102 143 185 226 298 346 415
#     4  10  22  43  68  91 139 180 221 289 343 407
#     4  12  24  42  70 100 132 184 235 281 346 420
#
# _framework density 22.119240000000001
#
# number of rings (size 3 to 8) (size 9 to 14) (size 15 to 20)
#    0.000    1.000    3.750    2.250    7.000    4.000 
#    2.250    0.625    0.000    0.000    0.000    0.000 
#    0.000    0.000    0.000    0.000    0.000    0.000 
#
# Total GULP energy -89269.365555 kJ/mol
# GULP energy per Si atom -5579.335347 kJ/mol
# Density = 2.206890 g / cm^3
# Si number density = 22.119240 Si / 1000 Ang^3
#
#
#
# Elastic Constant Matrix: (Units=GPa)
#
#
# Indices 1 2 3 4 5 6 
#
# 1 76.2274 14.5440 46.6714 0.0000 0.5915 -16.1490
# 2 14.5440 59.7838 27.3520 -0.5563 6.0606 -6.8689
# 3 46.6714 27.3520 155.2177 -2.0214 6.8487 -12.5815
# 4 0.0000 -0.5563 -2.0214 37.9959 -11.4794 -1.4414
# 5 0.5915 6.0606 6.8487 -11.4794 51.6996 -4.7466
# 6 -16.1490 -6.8689 -12.5815 -1.4414 -4.7466 27.2842
#
#
#
# Elastic Compliance Matrix: (Units=1/GPa)
#
#
# Indices 1 2 3 4 5 6 
#
# 1 0.017937 -0.001474 -0.004507 0.000497 0.001450 0.008446
# 2 -0.001474 0.018708 -0.002594 -0.000284 -0.001681 0.002334
# 3 -0.004507 -0.002594 0.008320 0.000221 -0.000660 0.000413
# 4 0.000497 -0.000284 0.000221 0.028428 0.006583 0.002972
# 5 0.001450 -0.001681 -0.000660 0.006583 0.021459 0.004212
# 6 0.008446 0.002334 0.000413 0.002972 0.004212 0.043318
#
#
# Mechanical properties :
#
#
# Convention : Reuss Voigt Hill
#
# Bulk Modulus (GPa) = 35.94933 52.04040 43.99487
# Shear Modulus (GPa) = 30.37824 36.90670 33.64247
#
# Velocity S-wave (km/s) = 3.70994 4.08920 3.90418
# Velocity P-wave (km/s) = 5.88552 6.77301 6.34480
#
# Compressibility (1/GPa) = 0.02781693
#
# Stress axis : x y z
#
# Youngs Moduli (GPa) = 55.75023 53.45249 120.18970
#
# Poissons Ratio (x) = 0.07878 0.54165
# Poissons Ratio (y) = 0.08217 0.31176
# Poissons Ratio (z) = 0.25124 0.13865
#
# Static dielectric constant tensor:
#      x y z
#    x 1.819830 -0.058250 -0.002700 
#    y -0.058250 1.973240 -0.051800 
#    z -0.002700 -0.051800 1.933870 
# 
# From -- ./inp_files/500588.got.cif
#   From: 2010.05.17/outbox.cif.g08.bks.cpg/sg2_251_cif.got.tgz:500588.got - 2010.06.03 11:33:40.
