data_PCOD9031845
_publ_section_title
;
Structure prediction by ZEFSAII (Michael W. Deem and Ramdas Pophale) SiO2 
 PCOD9031845
Probable space group: P -1
;
_chemical_formula_sum "Si O2"
_cell_formula_units_Z 13
_cell_length_a 11.707704
_cell_length_b 12.864279
_cell_length_c 10.509818
_cell_angle_alpha 146.423255
_cell_angle_beta 57.600861
_cell_angle_gamma 140.441366
_cell_volume 531.423911
_symmetry_space_group_name_H-M "P -1"
_symmetry_group_IT_number 2
_symmetry_cell_setting 'triclinic'
loop_
_space_group_symop_operation_xyz
x,y,z
-x,-y,-z
loop_
_atom_site_type_symbol
_atom_site_label
_atom_site_fract_x
_atom_site_fract_y
_atom_site_fract_z
Si Si1 0.819569 0.338718 0.855063
Si Si2 0.305803 0.902407 0.569107
Si Si3 0.238949 0.020538 0.083184
Si Si4 0.187074 0.566633 0.554021
Si Si5 0.416912 0.190850 0.411704
Si Si6 0.000000 0.000000 0.000000
Si Si7 0.458081 0.607311 0.925869
O O1 0.833264 0.245385 0.617165
O O2 0.657060 0.073688 0.757882
O O3 0.732104 0.460130 0.008237
O O4 0.000000 0.500000 0.000000
O O5 0.241343 0.712163 0.532081
O O6 0.500000 0.000000 0.500000
O O7 0.376701 0.174764 0.852107
O O8 0.284612 0.117164 0.298652
O O9 0.437317 0.237419 0.110223
O O10 0.090463 0.003451 0.080271
O O11 0.171528 0.739319 0.824955
O O12 0.367068 0.632493 0.571979
O O13 0.040234 0.261232 0.295194
O O14 0.416798 0.349239 0.680977
#
# Coordination Sequence:
#
# PCOD9031845 Si02
#       7
#     2   2   2   2   2   1   2
#     4  11  25  44  66  97 133 177 223 281 324 385
#     4   9  19  44  66  92 132 171 226 263 327 400
#     4  11  24  43  66 102 134 173 219 269 339 397
#     4  11  23  43  68  98 132 180 216 269 340 388
#     4  12  23  42  71  97 133 176 221 272 336 402
#     4  12  26  40  64 100 138 166 226 270 320 402
#     4  10  22  43  68  96 129 177 224 263 340 396
#
# _framework density 24.462579999999999
#
# number of rings (size 3 to 8) (size 9 to 14) (size 15 to 20)
#    0.000    1.231    6.154    1.385    2.154    1.231 
#    5.538    0.000    0.000    0.000    0.000    0.000 
#    0.000    0.000    0.000    0.000    0.000    0.000 
#
# Total GULP energy -72442.166377 kJ/mol
# GULP energy per Si atom -5572.474337 kJ/mol
# Density = 2.440690 g / cm^3
# Si number density = 24.462580 Si / 1000 Ang^3
#
#
#
# Elastic Constant Matrix: (Units=GPa)
#
#
# Indices 1 2 3 4 5 6 
#
# 1 141.8530 -12.9871 62.8810 -1.9744 21.4143 8.4300
# 2 -12.9871 19.6382 8.6281 5.9729 7.7344 -0.9778
# 3 62.8810 8.6281 148.5678 2.8094 8.3978 6.9455
# 4 -1.9744 5.9729 2.8094 27.3962 -3.3895 13.5207
# 5 21.4143 7.7344 8.3978 -3.3895 59.4454 -7.0264
# 6 8.4300 -0.9778 6.9455 13.5207 -7.0264 18.3449
#
#
#
# Elastic Compliance Matrix: (Units=1/GPa)
#
#
# Indices 1 2 3 4 5 6 
#
# 1 0.011466 0.011374 -0.004958 0.000927 -0.005517 -0.005582
# 2 0.011374 0.074902 -0.008714 -0.023320 -0.012219 0.014572
# 3 -0.004958 -0.008714 0.009345 0.002112 0.001396 -0.002746
# 4 0.000927 -0.023320 0.002112 0.067029 0.000097 -0.051834
# 5 -0.005517 -0.012219 0.001396 0.000097 0.021325 0.009452
# 6 -0.005582 0.014572 -0.002746 -0.051834 0.009452 0.100716
#
#
# Mechanical properties :
#
#
# Convention : Reuss Voigt Hill
#
# Bulk Modulus (GPa) = 10.97475 47.45589 29.21532
# Shear Modulus (GPa) = 15.63711 37.80644 26.72177
#
# Velocity S-wave (km/s) = 2.53103 3.93552 3.30866
# Velocity P-wave (km/s) = 3.61076 6.33187 5.15414
#
# Compressibility (1/GPa) = 0.09111826
#
# Stress axis : x y z
#
# Youngs Moduli (GPa) = 87.21162 13.35071 107.00709
#
# Poissons Ratio (x) = -0.15185 0.53058
# Poissons Ratio (y) = -0.99197 0.93242
# Poissons Ratio (z) = 0.43243 0.11633
#
# Static dielectric constant tensor:
#      x y z
#    x 1.856570 0.070260 0.031940 
#    y 0.070260 2.059960 -0.009100 
#    z 0.031940 -0.009100 1.945620 
# 
# From -- ./inp_files/433493.got.cif
#   From: 2010.05.17/outbox.cif.g08.bks.cpg/sg2_217_cif.got.tgz:433493.got - 2010.06.03 11:33:40.
