data_PCOD9031322
_publ_section_title
;
Structure prediction by ZEFSAII (Michael W. Deem and Ramdas Pophale) SiO2 
 PCOD9031322
Probable space group: P -1
;
_chemical_formula_sum "Si O2"
_cell_formula_units_Z 13
_cell_length_a 5.106962
_cell_length_b 13.063279
_cell_length_c 15.694138
_cell_angle_alpha 36.595092
_cell_angle_beta 110.268101
_cell_angle_gamma 122.319842
_cell_volume 520.303818
_symmetry_space_group_name_H-M "P -1"
_symmetry_group_IT_number 2
_symmetry_cell_setting 'triclinic'
loop_
_space_group_symop_operation_xyz
x,y,z
-x,-y,-z
loop_
_atom_site_type_symbol
_atom_site_label
_atom_site_fract_x
_atom_site_fract_y
_atom_site_fract_z
Si Si1 0.630309 0.483642 0.650988
Si Si2 0.140201 0.112882 0.574918
Si Si3 0.473153 0.752904 0.029441
Si Si4 0.395499 0.840306 0.262854
Si Si5 0.244546 0.430134 0.942840
Si Si6 0.000000 0.500000 0.500000
Si Si7 0.434682 0.181580 0.379214
O O1 0.917141 0.698501 0.546626
O O2 0.553918 0.358761 0.811147
O O3 0.701949 0.359975 0.668599
O O4 0.335427 0.517392 0.568999
O O5 0.291510 0.088532 0.695169
O O6 0.351600 0.187032 0.463908
O O7 0.879997 0.901927 0.658672
O O8 0.695946 0.717493 0.012251
O O9 0.879843 0.339836 0.986352
O O10 0.596659 0.980991 0.905516
O O11 0.117745 0.737603 0.366939
O O12 0.326634 0.617986 0.768164
O O13 0.500000 0.500000 0.000000
O O14 0.500000 0.000000 0.500000
#
# Coordination Sequence:
#
# PCOD9031322 Si02
#       7
#     2   2   2   2   2   1   2
#     4  11  24  47  70 108 149 194 250 307 373 439
#     4  10  22  43  66 105 141 186 250 302 371 430
#     4  12  28  48  78 109 152 195 249 309 372 450
#     4  11  26  44  72 104 146 196 247 306 372 447
#     4  12  28  50  76 109 154 197 248 306 373 446
#     4  10  24  42  74  98 148 186 256 296 362 434
#     4  11  24  40  73 101 142 192 247 306 370 436
#
# _framework density 24.985399000000001
#
# number of rings (size 3 to 8) (size 9 to 14) (size 15 to 20)
#    0.000    0.923    1.538    4.615    8.615    5.538 
#    0.000    0.000    0.000    0.000    0.000    0.000 
#    0.000    0.000    0.000    0.000    0.000    0.000 
#
# Total GULP energy -72484.698951 kJ/mol
# GULP energy per Si atom -5575.746073 kJ/mol
# Density = 2.492853 g / cm^3
# Si number density = 24.985399 Si / 1000 Ang^3
#
#
#
# Elastic Constant Matrix: (Units=GPa)
#
#
# Indices 1 2 3 4 5 6 
#
# 1 58.5974 14.5670 -0.8967 -3.7493 6.5121 -0.9882
# 2 14.5670 87.3483 13.6713 -6.8047 11.0864 -29.1980
# 3 -0.8967 13.6713 137.3844 -19.5885 3.6159 -0.9878
# 4 -3.7493 -6.8047 -19.5885 50.2038 11.4763 -3.7649
# 5 6.5121 11.0864 3.6159 11.4763 23.5132 1.6033
# 6 -0.9882 -29.1980 -0.9878 -3.7649 1.6033 39.8549
#
#
#
# Elastic Compliance Matrix: (Units=1/GPa)
#
#
# Indices 1 2 3 4 5 6 
#
# 1 0.018461 -0.002756 0.000864 0.002413 -0.005048 -0.001109
# 2 -0.002756 0.018963 -0.000630 0.005979 -0.012012 0.014857
# 3 0.000864 -0.000630 0.007971 0.003802 -0.003040 0.000239
# 4 0.002413 0.005979 0.003802 0.027049 -0.017806 0.007806
# 5 -0.005048 -0.012012 -0.003040 -0.017806 0.059642 -0.013082
# 6 -0.001109 0.014857 0.000239 0.007806 -0.013082 0.037217
#
#
# Mechanical properties :
#
#
# Convention : Reuss Voigt Hill
#
# Bulk Modulus (GPa) = 24.78222 37.55703 31.16963
# Shear Modulus (GPa) = 26.62463 39.78028 33.20245
#
# Velocity S-wave (km/s) = 3.26791 3.99449 3.64933
# Velocity P-wave (km/s) = 4.91723 6.02817 5.50082
#
# Compressibility (1/GPa) = 0.04035152
#
# Stress axis : x y z
#
# Youngs Moduli (GPa) = 54.16935 52.73413 125.45478
#
# Poissons Ratio (x) = 0.14532 -0.10835
# Poissons Ratio (y) = 0.14927 0.07898
# Poissons Ratio (z) = -0.04678 0.03320
#
# Static dielectric constant tensor:
#      x y z
#    x 1.885400 0.384780 0.094940 
#    y 0.384780 2.115000 -0.257540 
#    z 0.094940 -0.257540 2.055790 
# 
# From -- ./inp_files/481964.got.cif
#   From: 2010.05.17/outbox.cif.g08.bks.cpg/sg2_241_cif.got.tgz:481964.got - 2010.06.03 11:33:40.
