data_PCOD9031141
_publ_section_title
;
Structure prediction by ZEFSAII (Michael W. Deem and Ramdas Pophale) SiO2 
 PCOD9031141
Probable space group: P -1
;
_chemical_formula_sum "Si O2"
_cell_formula_units_Z 16
_cell_length_a 5.521404
_cell_length_b 21.622697
_cell_length_c 9.236418
_cell_angle_alpha 59.010719
_cell_angle_beta 96.378532
_cell_angle_gamma 71.464211
_cell_volume 843.509251
_symmetry_space_group_name_H-M "P -1"
_symmetry_group_IT_number 2
_symmetry_cell_setting 'triclinic'
loop_
_space_group_symop_operation_xyz
x,y,z
-x,-y,-z
loop_
_atom_site_type_symbol
_atom_site_label
_atom_site_fract_x
_atom_site_fract_y
_atom_site_fract_z
Si Si1 0.553521 0.035128 0.670823
Si Si2 0.038684 0.129850 0.988486
Si Si3 0.661141 0.405025 0.609146
Si Si4 0.528644 0.845989 0.220008
Si Si5 0.465013 0.241743 0.080398
Si Si6 0.902317 0.279014 0.022924
Si Si7 0.733928 0.674616 0.350882
Si Si8 0.710670 0.055885 0.349478
O O1 0.515521 0.102855 0.700000
O O2 0.525513 0.067490 0.466736
O O3 0.341141 0.997151 0.711560
O O4 0.830192 0.954731 0.816275
O O5 0.268086 0.132127 0.892323
O O6 0.767656 0.136389 0.885057
O O7 0.974626 0.205632 0.999491
O O8 0.500000 0.500000 0.500000
O O9 0.762678 0.360880 0.824267
O O10 0.455661 0.369962 0.578603
O O11 0.943122 0.379850 0.571464
O O12 0.672103 0.749632 0.360767
O O13 0.625074 0.146063 0.186770
O O14 0.679332 0.271258 0.118661
O O15 0.361281 0.284248 0.865460
O O16 0.189498 0.265306 0.121485
O O17 0.000000 0.000000 0.500000
#
# Coordination Sequence:
#
# PCOD9031141 Si02
#       8
#     2   2   2   2   2   2   2   2
#     4  11  26  35  51  77 101 145 186 227 262 298
#     4  12  20  37  55  75 105 140 180 221 256 309
#     4  10  18  30  50  79 110 133 158 199 263 328
#     4  12  22  36  55  76 106 140 185 211 263 316
#     4  10  18  33  52  67 100 139 171 206 260 295
#     4  10  17  32  53  74 100 137 164 205 258 305
#     4  10  18  33  52  77 105 139 162 212 255 316
#     4  11  24  38  50  70 105 142 186 236 258 287
#
# _framework density 18.968377
#
# number of rings (size 3 to 8) (size 9 to 14) (size 15 to 20)
#    0.000    1.250    6.250    1.875    5.250    0.000 
#    0.000    0.000    0.000    0.000    0.000    0.000 
#    0.000   24.000    0.000    0.000    0.000    0.000 
#
# Total GULP energy -89198.630336 kJ/mol
# GULP energy per Si atom -5574.914396 kJ/mol
# Density = 1.892520 g / cm^3
# Si number density = 18.968377 Si / 1000 Ang^3
#
#
#
# Elastic Constant Matrix: (Units=GPa)
#
#
# Indices 1 2 3 4 5 6 
#
# 1 166.5039 28.5971 23.8912 -11.6220 17.6634 6.7338
# 2 28.5971 86.5099 43.7243 -29.5311 9.8129 0.8146
# 3 23.8912 43.7243 35.8024 -20.8476 3.7789 0.9431
# 4 -11.6220 -29.5311 -20.8476 29.2550 -4.3458 2.8116
# 5 17.6634 9.8129 3.7789 -4.3458 27.5697 -8.3295
# 6 6.7338 0.8146 0.9431 2.8116 -8.3295 15.5646
#
#
#
# Elastic Compliance Matrix: (Units=1/GPa)
#
#
# Indices 1 2 3 4 5 6 
#
# 1 0.007552 0.001033 -0.005645 -0.000321 -0.006400 -0.006346
# 2 0.001033 0.032348 -0.034742 0.007674 -0.007912 -0.005655
# 3 -0.005645 -0.034742 0.089640 0.027883 0.007414 -0.002240
# 4 -0.000321 0.007674 0.027883 0.062898 -0.000544 -0.013605
# 5 -0.006400 -0.007912 0.007414 -0.000544 0.051224 0.030245
# 6 -0.006346 -0.005655 -0.002240 -0.013605 0.030245 0.086069
#
#
# Mechanical properties :
#
#
# Convention : Reuss Voigt Hill
#
# Bulk Modulus (GPa) = 19.67283 53.47126 36.57204
# Shear Modulus (GPa) = 11.75416 27.31808 19.53612
#
# Velocity S-wave (km/s) = 2.49202 3.79910 3.21274
# Velocity P-wave (km/s) = 4.32136 6.89167 5.75192
#
# Compressibility (1/GPa) = 0.05083153
#
# Stress axis : x y z
#
# Youngs Moduli (GPa) = 132.42180 30.91421 11.15575
#
# Poissons Ratio (x) = -0.03194 0.06297
# Poissons Ratio (y) = -0.13680 0.38757
# Poissons Ratio (z) = 0.74751 1.07402
#
# Static dielectric constant tensor:
#      x y z
#    x 1.823940 -0.020390 -0.024320 
#    y -0.020390 1.620430 -0.008560 
#    z -0.024320 -0.008560 1.676330 
# 
# From -- ./inp_files/50992.got.cif
#   From: 2010.05.17/outbox.cif.g08.bks.cpg/sg2_26_cif.got.tgz:50992.got - 2010.06.03 11:33:40.
