data_PCOD9031200
_publ_section_title
;
Structure prediction by ZEFSAII (Michael W. Deem and Ramdas Pophale) SiO2 
 PCOD9031200
Probable space group: P -1
;
_chemical_formula_sum "Si O2"
_cell_formula_units_Z 14
_cell_length_a 16.902297
_cell_length_b 7.747742
_cell_length_c 4.911353
_cell_angle_alpha 114.449859
_cell_angle_beta 64.673098
_cell_angle_gamma 93.213329
_cell_volume 523.458126
_symmetry_space_group_name_H-M "P -1"
_symmetry_group_IT_number 2
_symmetry_cell_setting 'triclinic'
loop_
_space_group_symop_operation_xyz
x,y,z
-x,-y,-z
loop_
_atom_site_type_symbol
_atom_site_label
_atom_site_fract_x
_atom_site_fract_y
_atom_site_fract_z
Si Si1 0.708354 0.353236 0.601987
Si Si2 0.891331 0.463721 0.318326
Si Si3 0.213505 0.218070 0.650976
Si Si4 0.328051 0.224523 0.971806
Si Si5 0.956350 0.821864 0.353343
Si Si6 0.416787 0.905489 0.253614
Si Si7 0.444685 0.683399 0.560565
O O1 0.810944 0.368000 0.494904
O O2 0.678809 0.171153 0.670686
O O3 0.658300 0.341475 0.373114
O O4 0.659925 0.555272 0.920126
O O5 0.837284 0.567510 0.203512
O O6 0.931685 0.653406 0.485156
O O7 0.972287 0.303311 0.026329
O O8 0.240436 0.206669 0.913998
O O9 0.137211 0.099401 0.597733
O O10 0.299636 0.189895 0.302661
O O11 0.396951 0.083572 0.601697
O O12 0.000000 0.000000 0.500000
O O13 0.471449 0.739167 0.253271
O O14 0.451217 0.863924 0.871829
O O15 0.500000 0.500000 0.500000
#
# Coordination Sequence:
#
# PCOD9031200 Si02
#       7
#     2   2   2   2   2   2   2
#     4   9  23  36  66  86 124 164 204 248 310 359
#     4   8  18  36  53  89 117 158 209 246 300 361
#     4   9  21  37  58  83 124 157 201 260 290 357
#     4  11  21  40  60  93 120 156 212 247 298 366
#     4   9  18  34  59  83 125 161 204 256 307 347
#     4  10  23  37  65  91 122 163 195 256 303 360
#     4  10  22  43  65  94 126 158 200 250 308 368
#
# _framework density 26.745215999999999
#
# number of rings (size 3 to 8) (size 9 to 14) (size 15 to 20)
#    1.714    0.857    0.000    1.286    6.000    0.000 
#    0.000    8.571    0.000    0.000    0.000    0.000 
#    0.000    0.000    0.000    0.000    0.000    0.000 
#
# Total GULP energy -77987.200897 kJ/mol
# GULP energy per Si atom -5570.514350 kJ/mol
# Density = 2.668434 g / cm^3
# Si number density = 26.745216 Si / 1000 Ang^3
#
#
#
# Elastic Constant Matrix: (Units=GPa)
#
#
# Indices 1 2 3 4 5 6 
#
# 1 70.3044 16.0535 38.7749 -0.7967 -1.1167 27.3572
# 2 16.0535 62.6102 43.6816 4.6781 8.1603 12.8598
# 3 38.7749 43.6816 151.5215 10.7989 2.5444 4.1288
# 4 -0.7967 4.6781 10.7989 52.7530 6.3423 10.5588
# 5 -1.1167 8.1603 2.5444 6.3423 59.9991 0.3606
# 6 27.3572 12.8598 4.1288 10.5588 0.3606 53.0396
#
#
#
# Elastic Compliance Matrix: (Units=1/GPa)
#
#
# Indices 1 2 3 4 5 6 
#
# 1 0.021843 0.000440 -0.005671 0.003759 0.000260 -0.011682
# 2 0.000440 0.021515 -0.006182 0.000706 -0.002700 -0.005085
# 3 -0.005671 -0.006182 0.009886 -0.002456 0.000551 0.004139
# 4 0.003759 0.000706 -0.002456 0.020920 -0.002097 -0.006069
# 5 0.000260 -0.002700 0.000551 -0.002097 0.017233 0.000778
# 6 -0.011682 -0.005085 0.004139 -0.006069 0.000778 0.026993
#
#
# Mechanical properties :
#
#
# Convention : Reuss Voigt Hill
#
# Bulk Modulus (GPa) = 32.87276 53.49511 43.18394
# Shear Modulus (GPa) = 33.03515 45.55340 39.29428
#
# Velocity S-wave (km/s) = 3.51833 4.13150 3.83718
# Velocity P-wave (km/s) = 5.36867 6.54250 5.98443
#
# Compressibility (1/GPa) = 0.03042032
#
# Stress axis : x y z
#
# Youngs Moduli (GPa) = 45.78071 46.47868 101.15393
#
# Poissons Ratio (x) = -0.02046 0.57360
# Poissons Ratio (y) = -0.02015 0.62530
# Poissons Ratio (z) = 0.25960 0.28731
#
# Static dielectric constant tensor:
#      x y z
#    x 2.219550 0.042630 -0.066210 
#    y 0.042630 2.165320 -0.018990 
#    z -0.066210 -0.018990 2.146110 
# 
# From -- ./inp_files/105902.got.cif
#   From: 2010.05.17/outbox.cif.g08.bks.cpg/sg2_53_cif.got.tgz:105902.got - 2010.06.03 11:33:40.
