data_PCOD9031131
_publ_section_title
;
Structure prediction by ZEFSAII (Michael W. Deem and Ramdas Pophale) SiO2 
 PCOD9031131
Probable space group: P -1
;
_chemical_formula_sum "Si O2"
_cell_formula_units_Z 14
_cell_length_a 9.292420
_cell_length_b 17.906789
_cell_length_c 5.159396
_cell_angle_alpha 67.476923
_cell_angle_beta 80.709755
_cell_angle_gamma 43.458012
_cell_volume 536.195895
_symmetry_space_group_name_H-M "P -1"
_symmetry_group_IT_number 2
_symmetry_cell_setting 'triclinic'
loop_
_space_group_symop_operation_xyz
x,y,z
-x,-y,-z
loop_
_atom_site_type_symbol
_atom_site_label
_atom_site_fract_x
_atom_site_fract_y
_atom_site_fract_z
Si Si1 0.472137 0.614319 0.656181
Si Si2 0.271499 0.535463 0.718836
Si Si3 0.864937 0.685324 0.935940
Si Si4 0.543491 0.903187 0.372033
Si Si5 0.902234 0.082886 0.169561
Si Si6 0.504025 0.767991 0.196204
Si Si7 0.142607 0.147554 0.037005
O O1 0.281466 0.629075 0.628176
O O2 0.651920 0.516682 0.521015
O O3 0.434397 0.722731 0.461138
O O4 0.556765 0.565706 0.985380
O O5 0.047576 0.590825 0.806129
O O6 0.666413 0.803623 0.683229
O O7 0.943871 0.729995 0.021503
O O8 0.751476 0.664301 0.173834
O O9 0.481434 0.861903 0.225752
O O10 0.325960 0.037275 0.321536
O O11 0.716484 0.892467 0.205121
O O12 0.966908 0.150502 0.061568
O O13 0.652277 0.174742 0.077938
O O14 0.000000 0.000000 0.500000
O O15 0.000000 0.000000 0.000000
#
# Coordination Sequence:
#
# PCOD9031131 Si02
#       7
#     2   2   2   2   2   2   2
#     4  10  25  47  73 104 136 185 233 304 353 424
#     4  10  25  47  73 100 142 180 242 289 365 427
#     4  11  25  42  71 103 140 194 232 295 355 428
#     4  10  22  43  65 101 144 185 237 281 353 423
#     4  12  27  44  69 104 143 188 238 291 342 415
#     4  11  26  43  71 107 145 184 241 297 356 416
#     4  10  23  41  68  96 144 190 234 283 347 422
#
# _framework density 26.109860999999999
#
# number of rings (size 3 to 8) (size 9 to 14) (size 15 to 20)
#    0.000    1.429    1.429    1.286   10.000    3.429 
#    0.000    0.000    0.000    0.000    0.000    0.000 
#    0.000    0.000    0.000    0.000    0.000    0.000 
#
# Total GULP energy -78479.351489 kJ/mol
# GULP energy per Si atom -5605.667964 kJ/mol
# Density = 2.605043 g / cm^3
# Si number density = 26.109861 Si / 1000 Ang^3
#
#
#
# Elastic Constant Matrix: (Units=GPa)
#
#
# Indices 1 2 3 4 5 6 
#
# 1 142.6917 20.2091 38.2486 -0.9404 -26.1981 4.6612
# 2 20.2091 69.3464 7.4827 16.9563 1.5786 1.0728
# 3 38.2486 7.4827 109.2872 -1.7238 -2.7150 18.2728
# 4 -0.9404 16.9563 -1.7238 38.2738 4.8527 -5.4434
# 5 -26.1981 1.5786 -2.7150 4.8527 44.8406 3.0383
# 6 4.6612 1.0728 18.2728 -5.4434 3.0383 27.1833
#
#
#
# Elastic Compliance Matrix: (Units=1/GPa)
#
#
# Indices 1 2 3 4 5 6 
#
# 1 0.009099 -0.002605 -0.002871 0.000595 0.005169 0.000014
# 2 -0.002605 0.017138 -0.000156 -0.007731 -0.001194 -0.001540
# 3 -0.002871 -0.000156 0.011346 -0.000453 -0.000450 -0.007169
# 4 0.000595 -0.007731 -0.000453 0.030963 -0.003237 0.007070
# 5 0.005169 -0.001194 -0.000450 -0.003237 0.025963 -0.004087
# 6 0.000014 -0.001540 -0.007169 0.007070 -0.004087 0.043537
#
#
# Mechanical properties :
#
#
# Convention : Reuss Voigt Hill
#
# Bulk Modulus (GPa) = 37.99498 50.35623 44.17560
# Shear Modulus (GPa) = 31.62916 39.08519 35.35718
#
# Velocity S-wave (km/s) = 3.48428 3.87324 3.68390
# Velocity P-wave (km/s) = 5.54711 6.27143 5.92036
#
# Compressibility (1/GPa) = 0.02631926
#
# Stress axis : x y z
#
# Youngs Moduli (GPa) = 109.90218 58.35060 88.13816
#
# Poissons Ratio (x) = 0.15202 0.25301
# Poissons Ratio (y) = 0.28633 0.01373
# Poissons Ratio (z) = 0.31549 0.00909
#
# Static dielectric constant tensor:
#      x y z
#    x 2.047630 0.008400 0.021730 
#    y 0.008400 2.083550 0.009610 
#    z 0.021730 0.009610 2.075020 
# 
# From -- ./inp_files/40162.got.cif
#   From: 2010.05.17/outbox.cif.g08.bks.cpg/sg2_21_cif.got.tgz:40162.got - 2010.06.03 11:33:40.
