data_PCOD9031901
_publ_section_title
;
Structure prediction by ZEFSAII (Michael W. Deem and Ramdas Pophale) SiO2 
 PCOD9031901
Probable space group: P -1
;
_chemical_formula_sum "Si O2"
_cell_formula_units_Z 16
_cell_length_a 22.623696
_cell_length_b 23.762938
_cell_length_c 8.420639
_cell_angle_alpha 148.878262
_cell_angle_beta 139.098991
_cell_angle_gamma 18.961136
_cell_volume 720.232921
_symmetry_space_group_name_H-M "P -1"
_symmetry_group_IT_number 2
_symmetry_cell_setting 'triclinic'
loop_
_space_group_symop_operation_xyz
x,y,z
-x,-y,-z
loop_
_atom_site_type_symbol
_atom_site_label
_atom_site_fract_x
_atom_site_fract_y
_atom_site_fract_z
Si Si1 0.373355 0.288227 0.569783
Si Si2 0.318237 0.941564 0.572618
Si Si3 0.910887 0.018943 0.234134
Si Si4 0.015795 0.109964 0.248863
Si Si5 0.350273 0.090695 0.518309
Si Si6 0.936990 0.571031 0.729765
Si Si7 0.730977 0.417411 0.673869
Si Si8 0.654387 0.137658 0.201594
O O1 0.478076 0.233692 0.502691
O O2 0.203176 0.384074 0.419294
O O3 0.544831 0.044076 0.426696
O O4 0.301248 0.460986 0.958335
O O5 0.327175 0.879342 0.614277
O O6 0.219011 0.956071 0.294828
O O7 0.184297 0.190815 0.911937
O O8 0.776573 0.249075 0.426235
O O9 0.812207 0.031630 0.165391
O O10 0.000000 0.000000 0.500000
O O11 0.044967 0.825081 0.901438
O O12 0.891606 0.294088 0.582486
O O13 0.000000 0.000000 0.000000
O O14 0.131855 0.366133 0.736104
O O15 0.500000 0.000000 0.500000
O O16 0.336716 0.994054 0.159319
O O17 0.000000 0.500000 0.500000
O O18 0.546641 0.601644 0.634516
#
# Coordination Sequence:
#
# PCOD9031901 Si02
#       8
#     2   2   2   2   2   2   2   2
#     4  11  25  45  68 106 147 182 239 285 344 421
#     4  12  25  44  66 104 143 185 232 288 342 417
#     4  11  24  44  71  99 132 179 230 284 348 420
#     4  10  22  43  68  98 135 174 230 282 344 415
#     4  11  23  42  70 101 135 185 236 288 345 412
#     4  12  23  43  75  98 141 189 235 284 356 409
#     4  10  23  43  69 100 138 179 228 287 349 407
#     4  11  23  41  67  96 139 179 226 287 344 409
#
# _framework density 22.215033999999999
#
# number of rings (size 3 to 8) (size 9 to 14) (size 15 to 20)
#    0.000    1.000    2.500    4.500    3.500    2.500 
#    2.250    3.750    0.000    0.000    0.000    0.000 
#    0.000    0.000    0.000    0.000    0.000    0.000 
#
# Total GULP energy -89408.648541 kJ/mol
# GULP energy per Si atom -5588.040534 kJ/mol
# Density = 2.216447 g / cm^3
# Si number density = 22.215034 Si / 1000 Ang^3
#
#
#
# Elastic Constant Matrix: (Units=GPa)
#
#
# Indices 1 2 3 4 5 6 
#
# 1 172.8528 78.3827 46.6557 -0.9978 13.3350 -27.9936
# 2 78.3827 174.3396 34.3655 7.5866 63.0739 -17.4760
# 3 46.6557 34.3655 87.2239 -4.1341 2.3936 -8.9590
# 4 -0.9978 7.5866 -4.1341 36.7744 1.3675 11.2472
# 5 13.3350 63.0739 2.3936 1.3675 74.5958 -4.6879
# 6 -27.9936 -17.4760 -8.9590 11.2472 -4.6879 46.4298
#
#
#
# Elastic Compliance Matrix: (Units=1/GPa)
#
#
# Indices 1 2 3 4 5 6 
#
# 1 0.008636 -0.003580 -0.002913 -0.000525 0.001813 0.003608
# 2 -0.003580 0.011149 -0.002228 -0.002760 -0.008576 0.001411
# 3 -0.002913 -0.002228 0.013921 0.001931 0.001911 -0.000184
# 4 -0.000525 -0.002760 0.001931 0.030433 0.001291 -0.008225
# 5 0.001813 -0.008576 0.001911 0.001291 0.020246 -0.000035
# 6 0.003608 0.001411 -0.000184 -0.008225 -0.000035 0.026198
#
#
# Mechanical properties :
#
#
# Convention : Reuss Voigt Hill
#
# Bulk Modulus (GPa) = 61.48705 83.69157 72.58931
# Shear Modulus (GPa) = 37.46812 49.89416 43.68114
#
# Velocity S-wave (km/s) = 4.11129 4.74430 4.43909
# Velocity P-wave (km/s) = 7.09050 8.23203 7.68250
#
# Compressibility (1/GPa) = 0.01626359
#
# Stress axis : x y z
#
# Youngs Moduli (GPa) = 115.78900 89.69344 71.83354
#
# Poissons Ratio (x) = 0.32111 0.20926
# Poissons Ratio (y) = 0.41454 0.16006
# Poissons Ratio (z) = 0.33731 0.19986
#
# Static dielectric constant tensor:
#      x y z
#    x 1.474530 -0.026570 0.059400 
#    y -0.026570 1.849440 0.064620 
#    z 0.059400 0.064620 1.820060 
# 
# From -- ./inp_files/350059.got.cif
#   From: 2010.05.17/outbox.cif.g08.bks.cpg/sg2_176_cif.got.tgz:350059.got - 2010.06.03 11:33:40.
