data_PCOD9031947
_publ_section_title
;
Structure prediction by ZEFSAII (Michael W. Deem and Ramdas Pophale) SiO2 
 PCOD9031947
Probable space group: P -1
;
_chemical_formula_sum "Si O2"
_cell_formula_units_Z 16
_cell_length_a 9.122751
_cell_length_b 5.313199
_cell_length_c 20.406815
_cell_angle_alpha 117.776396
_cell_angle_beta 130.908190
_cell_angle_gamma 77.763731
_cell_volume 654.952839
_symmetry_space_group_name_H-M "P -1"
_symmetry_group_IT_number 2
_symmetry_cell_setting 'triclinic'
loop_
_space_group_symop_operation_xyz
x,y,z
-x,-y,-z
loop_
_atom_site_type_symbol
_atom_site_label
_atom_site_fract_x
_atom_site_fract_y
_atom_site_fract_z
Si Si1 0.079723 0.579198 0.863158
Si Si2 0.741705 0.798390 0.237923
Si Si3 0.133568 0.888046 0.154741
Si Si4 0.457383 0.268146 0.589561
Si Si5 0.679561 0.059392 0.918476
Si Si6 0.527755 0.437835 0.763391
Si Si7 0.319428 0.677175 0.460787
Si Si8 0.958154 0.639875 0.574171
O O1 0.161536 0.407039 0.807460
O O2 0.999194 0.342526 0.866319
O O3 0.247598 0.797509 0.975034
O O4 0.929766 0.794941 0.820621
O O5 0.533219 0.860249 0.153561
O O6 0.671987 0.644849 0.266796
O O7 0.885050 0.091076 0.329147
O O8 0.156962 0.840355 0.077410
O O9 0.347455 0.826388 0.232386
O O10 0.489866 0.498569 0.684019
O O11 0.647877 0.255565 0.598978
O O12 0.260520 0.289518 0.494589
O O13 0.390016 0.951652 0.559781
O O14 0.650402 0.713303 0.866709
O O15 0.500000 0.500000 0.500000
O O16 0.100828 0.560766 0.404168
O O17 0.000000 0.500000 0.500000
#
# Coordination Sequence:
#
# PCOD9031947 Si02
#       8
#     2   2   2   2   2   2   2   2
#     4  12  27  48  78 110 149 190 247 318 372 439
#     4  11  28  44  68 112 147 194 247 306 372 444
#     4  11  26  48  75 111 145 194 250 310 368 441
#     4  10  22  43  69 100 136 188 235 298 359 429
#     4  11  25  48  76 104 149 197 247 301 380 445
#     4  11  25  45  71 107 148 197 249 298 373 450
#     4   9  21  41  67  96 133 181 234 296 358 414
#     4  11  23  44  69 101 144 192 239 298 361 441
#
# _framework density 24.42924
#
# number of rings (size 3 to 8) (size 9 to 14) (size 15 to 20)
#    0.000    1.250    1.250    2.625    5.250   10.500 
#    2.250    0.000    0.000    0.000    0.000    0.000 
#    0.000    0.000    0.000    0.000    0.000    0.000 
#
# Total GULP energy -89351.101461 kJ/mol
# GULP energy per Si atom -5584.443841 kJ/mol
# Density = 2.437364 g / cm^3
# Si number density = 24.429240 Si / 1000 Ang^3
#
#
#
# Elastic Constant Matrix: (Units=GPa)
#
#
# Indices 1 2 3 4 5 6 
#
# 1 207.2170 59.8596 97.4565 25.7980 -7.8468 9.0157
# 2 59.8596 97.0787 30.0701 17.8757 5.1843 -10.3450
# 3 97.4565 30.0701 157.8015 26.5051 -5.4996 6.6800
# 4 25.7980 17.8757 26.5051 31.3713 -2.4590 8.0479
# 5 -7.8468 5.1843 -5.4996 -2.4590 33.8495 8.1859
# 6 9.0157 -10.3450 6.6800 8.0479 8.1859 51.4993
#
#
#
# Elastic Compliance Matrix: (Units=1/GPa)
#
#
# Indices 1 2 3 4 5 6 
#
# 1 0.008089 -0.004037 -0.004017 -0.000255 0.002314 -0.002034
# 2 -0.004037 0.014861 0.000491 -0.007388 -0.005018 0.005581
# 3 -0.004017 0.000491 0.009578 -0.005151 0.000091 0.000350
# 4 -0.000255 -0.007388 -0.005151 0.043222 0.005403 -0.008385
# 5 0.002314 -0.005018 0.000091 0.005403 0.033075 -0.007527
# 6 -0.002034 0.005581 0.000350 -0.008385 -0.007527 0.023356
#
#
# Mechanical properties :
#
#
# Convention : Reuss Voigt Hill
#
# Bulk Modulus (GPa) = 57.46275 92.98552 75.22413
# Shear Modulus (GPa) = 32.65666 41.65810 37.15738
#
# Velocity S-wave (km/s) = 3.66017 4.13395 3.90426
# Velocity P-wave (km/s) = 6.43706 7.80589 7.15429
#
# Compressibility (1/GPa) = 0.01740258
#
# Stress axis : x y z
#
# Youngs Moduli (GPa) = 123.62333 67.28948 104.40702
#
# Poissons Ratio (x) = 0.27165 0.41939
# Poissons Ratio (y) = 0.49907 -0.05128
# Poissons Ratio (z) = 0.49659 -0.03305
#
# Static dielectric constant tensor:
#      x y z
#    x 1.980520 0.177870 -0.052620 
#    y 0.177870 2.365860 -0.138730 
#    z -0.052620 -0.138730 1.957590 
# 
# From -- ./inp_files/585954.got.cif
#   From: 2010.05.17/outbox.cif.g08.bks.cpg/sg2_293_cif.got.tgz:585954.got - 2010.06.03 11:33:40.
