data_PCOD9031797
_publ_section_title
;
Structure prediction by ZEFSAII (Michael W. Deem and Ramdas Pophale) SiO2 
 PCOD9031797
Probable space group: P -1
;
_chemical_formula_sum "Si O2"
_cell_formula_units_Z 16
_cell_length_a 17.575104
_cell_length_b 8.565844
_cell_length_c 6.897373
_cell_angle_alpha 56.142309
_cell_angle_beta 122.585732
_cell_angle_gamma 126.549027
_cell_volume 658.598352
_symmetry_space_group_name_H-M "P -1"
_symmetry_group_IT_number 2
_symmetry_cell_setting 'triclinic'
loop_
_space_group_symop_operation_xyz
x,y,z
-x,-y,-z
loop_
_atom_site_type_symbol
_atom_site_label
_atom_site_fract_x
_atom_site_fract_y
_atom_site_fract_z
Si Si1 0.612503 0.451786 0.587061
Si Si2 0.065176 0.393041 0.570227
Si Si3 0.053226 0.201808 0.060735
Si Si4 0.900610 0.180200 0.190206
Si Si5 0.400253 0.818997 0.901572
Si Si6 0.684705 0.912709 0.199865
Si Si7 0.511982 0.728069 0.797305
Si Si8 0.184089 0.511079 0.279702
O O1 0.641071 0.691492 0.406020
O O2 0.510978 0.300238 0.443268
O O3 0.700229 0.402704 0.650385
O O4 0.612759 0.386996 0.853994
O O5 0.150220 0.512850 0.451084
O O6 0.000000 0.500000 0.500000
O O7 0.981032 0.212940 0.448487
O O8 0.110500 0.343984 0.857454
O O9 0.958616 0.196277 0.057771
O O10 0.136343 0.278775 0.286695
O O11 0.000000 0.000000 0.000000
O O12 0.796338 0.988191 0.219653
O O13 0.869637 0.371937 0.997300
O O14 0.427464 0.781506 0.748352
O O15 0.320362 0.908482 0.789304
O O16 0.500000 0.000000 0.000000
O O17 0.614601 0.879599 0.935964
O O18 0.500000 0.500000 0.000000
#
# Coordination Sequence:
#
# PCOD9031797 Si02
#       8
#     2   2   2   2   2   2   2   2
#     4  11  24  43  66  95 132 170 208 272 326 367
#     4  11  21  40  66  87 123 177 208 256 330 376
#     4  11  25  41  62  95 130 168 218 267 321 382
#     4  11  22  43  62  94 130 166 220 268 311 392
#     4  10  22  43  68  93 125 169 215 263 318 386
#     4  10  23  42  64  96 132 167 218 266 316 387
#     4   9  22  44  66  92 128 169 211 261 318 385
#     4  11  23  41  65  92 128 167 218 270 314 388
#
# _framework density 24.294017
#
# number of rings (size 3 to 8) (size 9 to 14) (size 15 to 20)
#    0.000    1.500    3.750    0.750    3.500    9.500 
#    2.250    2.500    0.000    0.000    0.000    0.000 
#    0.000    0.000    0.000    0.000    0.000    0.000 
#
# Total GULP energy -89197.785188 kJ/mol
# GULP energy per Si atom -5574.861574 kJ/mol
# Density = 2.423872 g / cm^3
# Si number density = 24.294017 Si / 1000 Ang^3
#
#
#
# Elastic Constant Matrix: (Units=GPa)
#
#
# Indices 1 2 3 4 5 6 
#
# 1 78.3361 14.8907 32.6662 10.4036 -3.0268 16.1745
# 2 14.8907 74.8512 24.7073 1.7289 -2.7047 -7.7303
# 3 32.6662 24.7073 82.4948 -5.2172 -12.8915 -10.2619
# 4 10.4036 1.7289 -5.2172 30.0507 0.6774 -5.6469
# 5 -3.0268 -2.7047 -12.8915 0.6774 31.8059 -1.0159
# 6 16.1745 -7.7303 -10.2619 -5.6469 -1.0159 31.1696
#
#
#
# Elastic Compliance Matrix: (Units=1/GPa)
#
#
# Indices 1 2 3 4 5 6 
#
# 1 0.024670 -0.002516 -0.013014 -0.014417 -0.003487 -0.020436
# 2 -0.002516 0.015291 -0.003063 0.000237 -0.000054 0.004130
# 3 -0.013014 -0.003063 0.022039 0.011255 0.007691 0.015539
# 4 -0.014417 0.000237 0.011255 0.043764 0.002893 0.019268
# 5 -0.003487 -0.000054 0.007691 0.002893 0.034351 0.005972
# 6 -0.020436 0.004130 0.015539 0.019268 0.005972 0.052513
#
#
# Mechanical properties :
#
#
# Convention : Reuss Voigt Hill
#
# Bulk Modulus (GPa) = 40.29936 42.24561 41.27248
# Shear Modulus (GPa) = 21.00091 29.49977 25.25034
#
# Velocity S-wave (km/s) = 2.94334 3.48843 3.22742
# Velocity P-wave (km/s) = 5.30803 5.80109 5.56003
#
# Compressibility (1/GPa) = 0.02481429
#
# Stress axis : x y z
#
# Youngs Moduli (GPa) = 40.53480 65.40007 45.37333
#
# Poissons Ratio (x) = 0.16452 0.59050
# Poissons Ratio (y) = 0.10197 0.13898
# Poissons Ratio (z) = 0.52753 0.20033
#
# Static dielectric constant tensor:
#      x y z
#    x 1.920500 -0.055930 0.044250 
#    y -0.055930 2.012700 -0.099900 
#    z 0.044250 -0.099900 1.985650 
# 
# From -- ./inp_files/106352.got.cif
#   From: 2010.05.17/outbox.cif.g08.bks.cpg/sg2_54_cif.got.tgz:106352.got - 2010.06.03 11:33:40.
