data_PCOD9031903
_publ_section_title
;
Structure prediction by ZEFSAII (Michael W. Deem and Ramdas Pophale) SiO2 
 PCOD9031903
Probable space group: P -1
;
_chemical_formula_sum "Si O2"
_cell_formula_units_Z 14
_cell_length_a 8.581400
_cell_length_b 14.314520
_cell_length_c 11.594225
_cell_angle_alpha 140.935149
_cell_angle_beta 44.554268
_cell_angle_gamma 140.773811
_cell_volume 545.081782
_symmetry_space_group_name_H-M "P -1"
_symmetry_group_IT_number 2
_symmetry_cell_setting 'triclinic'
loop_
_space_group_symop_operation_xyz
x,y,z
-x,-y,-z
loop_
_atom_site_type_symbol
_atom_site_label
_atom_site_fract_x
_atom_site_fract_y
_atom_site_fract_z
Si Si1 0.835728 0.682880 0.803959
Si Si2 0.817270 0.792904 0.420178
Si Si3 0.198879 0.191908 0.803664
Si Si4 0.260424 0.683587 0.448913
Si Si5 0.019223 0.434237 0.753677
Si Si6 0.660934 0.980290 0.797552
Si Si7 0.390498 0.726105 0.992363
O O1 0.730921 0.479155 0.657009
O O2 0.667575 0.744882 0.880182
O O3 0.122281 0.760125 0.675039
O O4 0.806997 0.724286 0.992659
O O5 0.807167 0.717018 0.226499
O O6 0.893842 0.699529 0.382175
O O7 0.577358 0.803354 0.607348
O O8 0.000000 0.000000 0.500000
O O9 0.461602 0.189951 0.636374
O O10 0.920743 0.024568 0.775979
O O11 0.065238 0.592685 0.358081
O O12 0.247521 0.617074 0.849477
O O13 0.773652 0.381624 0.914103
O O14 0.646301 0.109454 0.836154
O O15 0.500000 0.000000 0.000000
#
# Coordination Sequence:
#
# PCOD9031903 Si02
#       7
#     2   2   2   2   2   2   2
#     4  11  25  42  65 107 142 181 225 283 352 411
#     4  10  22  43  68  98 135 183 225 275 345 408
#     4  11  22  44  70  92 136 182 224 281 341 405
#     4  11  25  41  68 102 146 180 225 285 350 411
#     4  11  22  42  73 105 135 180 234 281 343 414
#     4  11  26  46  71 100 140 184 237 285 343 414
#     4  11  23  43  72 104 135 182 232 285 344 405
#
# _framework density 25.68422
#
# number of rings (size 3 to 8) (size 9 to 14) (size 15 to 20)
#    0.000    1.143    4.286    2.143    8.000    0.571 
#    0.000    7.143    0.000    0.000    0.000    0.000 
#    0.000    0.000    0.000    0.000    0.000    0.000 
#
# Total GULP energy -78081.032640 kJ/mol
# GULP energy per Si atom -5577.216617 kJ/mol
# Density = 2.562576 g / cm^3
# Si number density = 25.684220 Si / 1000 Ang^3
#
#
#
# Elastic Constant Matrix: (Units=GPa)
#
#
# Indices 1 2 3 4 5 6 
#
# 1 132.1698 30.0936 62.9057 -0.0374 -20.7360 13.9056
# 2 30.0936 37.3707 45.2504 -7.1379 2.0985 0.7290
# 3 62.9057 45.2504 180.6358 -21.6908 -14.5103 9.5528
# 4 -0.0374 -7.1379 -21.6908 52.0388 -8.8312 -13.8053
# 5 -20.7360 2.0985 -14.5103 -8.8312 45.4453 -4.4058
# 6 13.9056 0.7290 9.5528 -13.8053 -4.4058 38.2405
#
#
#
# Elastic Compliance Matrix: (Units=1/GPa)
#
#
# Indices 1 2 3 4 5 6 
#
# 1 0.011108 -0.007390 -0.001733 -0.002019 0.004103 -0.003722
# 2 -0.007390 0.044535 -0.009154 0.002066 -0.007562 0.003999
# 3 -0.001733 -0.009154 0.009048 0.003043 0.003112 0.000002
# 4 -0.002019 0.002066 0.003043 0.024177 0.005555 0.009303
# 5 0.004103 -0.007562 0.003112 0.005555 0.026584 0.002943
# 6 -0.003722 0.003999 0.000002 0.009303 0.002943 0.031125
#
#
# Mechanical properties :
#
#
# Convention : Reuss Voigt Hill
#
# Bulk Modulus (GPa) = 35.53995 69.63064 52.58529
# Shear Modulus (GPa) = 25.97265 41.27336 33.62300
#
# Velocity S-wave (km/s) = 3.18343 4.01303 3.62206
# Velocity P-wave (km/s) = 5.23256 6.97436 6.16528
#
# Compressibility (1/GPa) = 0.02813735
#
# Stress axis : x y z
#
# Youngs Moduli (GPa) = 90.02269 22.45439 110.52225
#
# Poissons Ratio (x) = 0.16594 0.19156
# Poissons Ratio (y) = 0.66527 1.01167
# Poissons Ratio (z) = 0.15603 0.20554
#
# Static dielectric constant tensor:
#      x y z
#    x 2.132630 0.103370 0.034330 
#    y 0.103370 2.373080 -0.177140 
#    z 0.034330 -0.177140 2.303500 
# 
# From -- ./inp_files/399746.got.cif
#   From: 2010.05.17/outbox.cif.g08.bks.cpg/sg2_200_cif.got.tgz:399746.got - 2010.06.03 11:33:40.
