data_PCOD9031039
_publ_section_title
;
Structure prediction by ZEFSAII (Michael W. Deem and Ramdas Pophale) SiO2 
 PCOD9031039
Probable space group: P -1
;
_chemical_formula_sum "Si O2"
_cell_formula_units_Z 12
_cell_length_a 11.396220
_cell_length_b 11.012760
_cell_length_c 8.973117
_cell_angle_alpha 86.578019
_cell_angle_beta 140.320418
_cell_angle_gamma 121.903803
_cell_volume 468.895681
_symmetry_space_group_name_H-M "P -1"
_symmetry_group_IT_number 2
_symmetry_cell_setting 'triclinic'
loop_
_space_group_symop_operation_xyz
x,y,z
-x,-y,-z
loop_
_atom_site_type_symbol
_atom_site_label
_atom_site_fract_x
_atom_site_fract_y
_atom_site_fract_z
Si Si1 0.743399 0.209599 0.158916
Si Si2 0.001833 0.006246 0.180396
Si Si3 0.503621 0.104818 0.622288
Si Si4 0.634926 0.313587 0.458811
Si Si5 0.390772 0.427924 0.568265
Si Si6 0.855140 0.547560 0.222169
O O1 0.718945 0.346417 0.142468
O O2 0.021248 0.324318 0.521133
O O3 0.706924 0.174138 0.949112
O O4 0.500000 0.000000 0.000000
O O5 0.165433 0.207844 0.374634
O O6 0.204536 0.992813 0.411785
O O7 0.000000 0.000000 0.000000
O O8 0.673119 0.849281 0.906886
O O9 0.607969 0.270665 0.612097
O O10 0.500000 0.000000 0.500000
O O11 0.131850 0.654759 0.387002
O O12 0.718211 0.493549 0.507360
O O13 0.500000 0.500000 0.500000
O O14 0.642575 0.518020 0.918084
#
# Coordination Sequence:
#
# PCOD9031039 Si02
#       6
#     2   2   2   2   2   2
#     4  11  25  47  74 105 154 201 245 301 369 453
#     4  10  22  43  64 111 150 182 240 308 365 429
#     4  11  23  43  79 112 141 198 251 303 372 437
#     4  11  26  44  78 113 145 188 252 312 378 429
#     4  12  23  44  74 108 152 185 247 314 360 440
#     4  11  27  48  75 112 148 198 248 303 377 442
#
# _framework density 25.592046
#
# number of rings (size 3 to 8) (size 9 to 14) (size 15 to 20)
#    0.000    1.000    5.000    1.000    4.667    6.667 
#    0.000    4.167   11.000    0.000    0.000    0.000 
#    0.000    0.000    0.000    0.000    0.000    0.000 
#
# Total GULP energy -67196.998565 kJ/mol
# GULP energy per Si atom -5599.749880 kJ/mol
# Density = 2.553380 g / cm^3
# Si number density = 25.592046 Si / 1000 Ang^3
#
#
#
# Elastic Constant Matrix: (Units=GPa)
#
#
# Indices 1 2 3 4 5 6 
#
# 1 90.5899 42.2607 64.9210 -0.3783 9.3748 5.8524
# 2 42.2607 135.8703 87.9374 4.5574 1.6726 -0.9500
# 3 64.9210 87.9374 247.1131 -6.1738 -11.2182 3.7617
# 4 -0.3783 4.5574 -6.1738 58.7756 -0.2148 -2.5806
# 5 9.3748 1.6726 -11.2182 -0.2148 47.4389 -0.2944
# 6 5.8524 -0.9500 3.7617 -2.5806 -0.2944 46.1824
#
#
#
# Elastic Compliance Matrix: (Units=1/GPa)
#
#
# Indices 1 2 3 4 5 6 
#
# 1 0.014996 -0.002580 -0.003163 -0.000125 -0.003632 -0.001726
# 2 -0.002580 0.010151 -0.002998 -0.001089 -0.000557 0.000716
# 3 -0.003163 -0.002998 0.006066 0.000853 0.002169 -0.000093
# 4 -0.000125 -0.001089 0.000853 0.017227 0.000348 0.000889
# 5 -0.003632 -0.000557 0.002169 0.000348 0.022334 0.000434
# 6 -0.001726 0.000716 -0.000093 0.000889 0.000434 0.021947
#
#
# Mechanical properties :
#
#
# Convention : Reuss Voigt Hill
#
# Bulk Modulus (GPa) = 72.83143 95.97906 84.40525
# Shear Modulus (GPa) = 43.56106 49.04299 46.30202
#
# Velocity S-wave (km/s) = 4.13017 4.38235 4.25812
# Velocity P-wave (km/s) = 7.15994 7.94931 7.56493
#
# Compressibility (1/GPa) = 0.01373034
#
# Stress axis : x y z
#
# Youngs Moduli (GPa) = 66.68332 98.51032 164.85835
#
# Poissons Ratio (x) = 0.25418 0.52150
# Poissons Ratio (y) = 0.17206 0.49424
# Poissons Ratio (z) = 0.21094 0.29533
#
# Static dielectric constant tensor:
#      x y z
#    x 2.175580 -0.033810 0.106900 
#    y -0.033810 2.091150 -0.007240 
#    z 0.106900 -0.007240 2.088190 
# 
# From -- ./inp_files/470719.got.cif
#   From: 2010.05.17/outbox.cif.g08.bks.cpg/sg2_236_cif.got.tgz:470719.got - 2010.06.03 11:33:40.
