data_PCOD9031089
_publ_section_title
;
Structure prediction by ZEFSAII (Michael W. Deem and Ramdas Pophale) SiO2 
 PCOD9031089
Probable space group: P -1
;
_chemical_formula_sum "Si O2"
_cell_formula_units_Z 14
_cell_length_a 11.705877
_cell_length_b 8.499684
_cell_length_c 13.609451
_cell_angle_alpha 29.947012
_cell_angle_beta 119.972065
_cell_angle_gamma 102.478747
_cell_volume 506.658274
_symmetry_space_group_name_H-M "P -1"
_symmetry_group_IT_number 2
_symmetry_cell_setting 'triclinic'
loop_
_space_group_symop_operation_xyz
x,y,z
-x,-y,-z
loop_
_atom_site_type_symbol
_atom_site_label
_atom_site_fract_x
_atom_site_fract_y
_atom_site_fract_z
Si Si1 0.693520 0.206412 0.631506
Si Si2 0.970055 0.794323 0.515038
Si Si3 0.053673 0.681608 0.083023
Si Si4 0.156587 0.239485 0.770458
Si Si5 0.542498 0.955093 0.288182
Si Si6 0.346823 0.730507 0.985263
Si Si7 0.684702 0.902558 0.592810
O O1 0.628483 0.586276 0.457259
O O2 0.614786 0.011239 0.761916
O O3 0.875097 0.956610 0.846240
O O4 0.657882 0.204671 0.500082
O O5 0.133661 0.545776 0.669876
O O6 0.825046 0.076283 0.238365
O O7 0.000000 0.000000 0.500000
O O8 0.926915 0.515517 0.698194
O O9 0.136399 0.918807 0.982106
O O10 0.134207 0.367976 0.204946
O O11 0.000000 0.500000 0.500000
O O12 0.314245 0.021831 0.899879
O O13 0.624851 0.948841 0.429568
O O14 0.543073 0.256853 0.054757
O O15 0.372359 0.352626 0.240939
#
# Coordination Sequence:
#
# PCOD9031089 Si02
#       7
#     2   2   2   2   2   2   2
#     4  11  25  43  70 102 136 179 232 275 335 414
#     4  11  21  35  60 101 133 167 222 281 339 395
#     4  11  22  39  72  98 134 179 221 286 344 391
#     4   9  20  36  60  91 130 171 211 276 332 392
#     4  11  25  48  69  95 141 186 220 277 343 408
#     4  10  22  43  64  96 134 173 227 275 337 403
#     4  11  24  45  73  99 133 181 228 280 346 394
#
# _framework density 27.632035999999999
#
# number of rings (size 3 to 8) (size 9 to 14) (size 15 to 20)
#    0.000    1.429    1.429    3.857    4.000    4.000 
#    0.000    2.857    9.429    0.000    0.000    0.000 
#    0.000    0.000    0.000    0.000    0.000    0.000 
#
# Total GULP energy -78385.281374 kJ/mol
# GULP energy per Si atom -5598.948670 kJ/mol
# Density = 2.756914 g / cm^3
# Si number density = 27.632036 Si / 1000 Ang^3
#
#
#
# Elastic Constant Matrix: (Units=GPa)
#
#
# Indices 1 2 3 4 5 6 
#
# 1 160.7070 45.7223 29.9800 -8.2266 -8.0318 -25.8788
# 2 45.7223 172.5639 54.4776 -29.7445 22.1578 -46.2202
# 3 29.9800 54.4776 130.1006 -3.5451 -20.3900 -14.9751
# 4 -8.2266 -29.7445 -3.5451 40.8381 -15.7570 19.3340
# 5 -8.0318 22.1578 -20.3900 -15.7570 51.9040 3.1528
# 6 -25.8788 -46.2202 -14.9751 19.3340 3.1528 49.5099
#
#
#
# Elastic Compliance Matrix: (Units=1/GPa)
#
#
# Indices 1 2 3 4 5 6 
#
# 1 0.007128 -0.001214 -0.000685 -0.000196 0.001147 0.002389
# 2 -0.001214 0.010619 -0.004257 0.000684 -0.006681 0.008150
# 3 -0.000685 -0.004257 0.010402 0.000998 0.006221 -0.001972
# 4 -0.000196 0.000684 0.000998 0.036324 0.011954 -0.014107
# 5 0.001147 -0.006681 0.006221 0.011954 0.028992 -0.010270
# 6 0.002389 0.008150 -0.001972 -0.014107 -0.010270 0.034622
#
#
# Mechanical properties :
#
#
# Convention : Reuss Voigt Hill
#
# Bulk Modulus (GPa) = 63.14190 80.41460 71.77825
# Shear Modulus (GPa) = 34.32260 50.66317 42.49289
#
# Velocity S-wave (km/s) = 3.52821 4.28658 3.92575
# Velocity P-wave (km/s) = 6.28477 7.32562 6.82507
#
# Compressibility (1/GPa) = 0.01583734
#
# Stress axis : x y z
#
# Youngs Moduli (GPa) = 140.30106 94.16922 96.13559
#
# Poissons Ratio (x) = 0.11428 0.06584
# Poissons Ratio (y) = 0.17026 0.40928
# Poissons Ratio (z) = 0.09608 0.40091
#
# Static dielectric constant tensor:
#      x y z
#    x 2.409280 -0.120870 0.018020 
#    y -0.120870 2.315310 0.038520 
#    z 0.018020 0.038520 2.190350 
# 
# From -- ./inp_files/514839.got.cif
#   From: 2010.05.17/outbox.cif.g08.bks.cpg/sg2_258_cif.got.tgz:514839.got - 2010.06.03 11:33:40.
