data_PCOD9031660
_publ_section_title
;
Structure prediction by ZEFSAII (Michael W. Deem and Ramdas Pophale) SiO2 
 PCOD9031660
Probable space group: P -1
;
_chemical_formula_sum "Si O2"
_cell_formula_units_Z 14
_cell_length_a 8.344783
_cell_length_b 6.599155
_cell_length_c 10.605022
_cell_angle_alpha 80.883356
_cell_angle_beta 93.705728
_cell_angle_gamma 88.049099
_cell_volume 574.838507
_symmetry_space_group_name_H-M "P -1"
_symmetry_group_IT_number 2
_symmetry_cell_setting 'triclinic'
loop_
_space_group_symop_operation_xyz
x,y,z
-x,-y,-z
loop_
_atom_site_type_symbol
_atom_site_label
_atom_site_fract_x
_atom_site_fract_y
_atom_site_fract_z
Si Si1 0.752823 0.968130 0.288900
Si Si2 0.176519 0.519289 0.300670
Si Si3 0.347563 0.144779 0.443203
Si Si4 0.272395 0.814176 0.054195
Si Si5 0.075477 0.885026 0.390482
Si Si6 0.149784 0.633811 0.821133
Si Si7 0.638570 0.774273 0.063902
O O1 0.750708 0.214707 0.279865
O O2 0.725523 0.831571 0.422774
O O3 0.635213 0.902647 0.181945
O O4 0.940248 0.918023 0.273958
O O5 0.326930 0.363630 0.354497
O O6 0.228080 0.687355 0.186315
O O7 0.121860 0.644728 0.411307
O O8 0.021872 0.408418 0.245934
O O9 0.500000 0.000000 0.500000
O O10 0.235871 0.003305 0.368802
O O11 0.453896 0.736637 0.028388
O O12 0.150635 0.755575 0.942298
O O13 0.284213 0.060630 0.041663
O O14 0.000000 0.000000 0.500000
O O15 0.248093 0.423306 0.880705
#
# Coordination Sequence:
#
# PCOD9031660 Si02
#       7
#     2   2   2   2   2   2   2
#     4  10  22  43  67  98 134 182 232 274 339 422
#     4  12  25  43  72 103 140 185 228 288 350 401
#     4  11  27  44  66 104 141 177 229 295 344 413
#     4  10  25  42  65 107 137 178 233 282 342 417
#     4  10  23  45  66  97 136 180 235 275 339 416
#     4  11  22  42  71  99 135 189 227 279 344 413
#     4  10  22  44  68  95 141 185 224 282 348 403
#
# _framework density 24.354666999999999
#
# number of rings (size 3 to 8) (size 9 to 14) (size 15 to 20)
#    0.000    1.429    2.857    0.857    4.000    6.857 
#    0.000    0.000    0.000    0.000    0.000    0.000 
#    0.000    0.000    0.000    0.000    0.000    0.000 
#
# Total GULP energy -78097.432568 kJ/mol
# GULP energy per Si atom -5578.388041 kJ/mol
# Density = 2.429923 g / cm^3
# Si number density = 24.354667 Si / 1000 Ang^3
#
#
#
# Elastic Constant Matrix: (Units=GPa)
#
#
# Indices 1 2 3 4 5 6 
#
# 1 55.2593 31.5799 10.0780 3.5300 21.7354 -19.2485
# 2 31.5799 109.7853 27.6620 -18.0173 3.0520 -12.0929
# 3 10.0780 27.6620 88.3315 -12.9711 4.8294 2.5947
# 4 3.5300 -18.0173 -12.9711 44.1971 3.3076 14.3583
# 5 21.7354 3.0520 4.8294 3.3076 32.5938 -16.1629
# 6 -19.2485 -12.0929 2.5947 14.3583 -16.1629 34.1815
#
#
#
# Elastic Compliance Matrix: (Units=1/GPa)
#
#
# Indices 1 2 3 4 5 6 
#
# 1 0.035127 -0.009301 -0.002414 -0.011109 -0.013699 0.014863
# 2 -0.009301 0.013091 -0.002533 0.005103 0.004659 -0.000355
# 3 -0.002414 -0.002533 0.013825 0.006277 -0.004945 -0.008280
# 4 -0.011109 0.005103 0.006277 0.036280 -0.010035 -0.024912
# 5 -0.013699 0.004659 -0.004945 -0.010035 0.052774 0.023479
# 6 0.014863 -0.000355 -0.008280 -0.024912 0.023479 0.059695
#
#
# Mechanical properties :
#
#
# Convention : Reuss Voigt Hill
#
# Bulk Modulus (GPa) = 29.80953 43.55734 36.68343
# Shear Modulus (GPa) = 19.96233 34.46489 27.21361
#
# Velocity S-wave (km/s) = 2.86606 3.76590 3.34636
# Velocity P-wave (km/s) = 4.81858 6.06900 5.47957
#
# Compressibility (1/GPa) = 0.03354632
#
# Stress axis : x y z
#
# Youngs Moduli (GPa) = 28.46795 76.38561 72.33193
#
# Poissons Ratio (x) = 0.71049 0.17460
# Poissons Ratio (y) = 0.26479 0.18325
# Poissons Ratio (z) = 0.06872 0.19352
#
# Static dielectric constant tensor:
#      x y z
#    x 2.282190 -0.048250 -0.113290 
#    y -0.048250 2.002780 0.013880 
#    z -0.113290 0.013880 2.020320 
# 
# From -- ./inp_files/372981.got.cif
#   From: 2010.05.17/outbox.cif.g08.bks.cpg/sg2_187_cif.got.tgz:372981.got - 2010.06.03 11:33:40.
