data_PCOD9031793
_publ_section_title
;
Structure prediction by ZEFSAII (Michael W. Deem and Ramdas Pophale) SiO2 
 PCOD9031793
Probable space group: P -1
;
_chemical_formula_sum "Si O2"
_cell_formula_units_Z 16
_cell_length_a 9.476182
_cell_length_b 11.113512
_cell_length_c 17.978005
_cell_angle_alpha 37.633622
_cell_angle_beta 53.534032
_cell_angle_gamma 80.866858
_cell_volume 718.031084
_symmetry_space_group_name_H-M "P -1"
_symmetry_group_IT_number 2
_symmetry_cell_setting 'triclinic'
loop_
_space_group_symop_operation_xyz
x,y,z
-x,-y,-z
loop_
_atom_site_type_symbol
_atom_site_label
_atom_site_fract_x
_atom_site_fract_y
_atom_site_fract_z
Si Si1 0.559751 0.479786 0.750595
Si Si2 0.545893 0.893839 0.631369
Si Si3 0.106647 0.667871 0.788787
Si Si4 0.363550 0.597036 0.974103
Si Si5 0.349602 0.815942 0.023136
Si Si6 0.238536 0.581632 0.415035
Si Si7 0.903454 0.761340 0.050712
Si Si8 0.122704 0.307034 0.740286
O O1 0.585441 0.710874 0.667937
O O2 0.621921 0.342305 0.850802
O O3 0.698065 0.550557 0.596427
O O4 0.295265 0.277068 0.913693
O O5 0.310459 0.820058 0.710230
O O6 0.518992 0.835780 0.754330
O O7 0.760582 0.174957 0.404053
O O8 0.034563 0.390113 0.938782
O O9 0.871385 0.617481 0.891503
O O10 0.500000 0.500000 0.000000
O O11 0.308225 0.681721 0.022906
O O12 0.132104 0.788100 0.127126
O O13 0.568547 0.113234 0.804442
O O14 0.233001 0.499365 0.542164
O O15 0.000000 0.500000 0.500000
O O16 0.799983 0.630511 0.228358
O O17 0.104590 0.060358 0.850661
#
# Coordination Sequence:
#
# PCOD9031793 Si02
#       8
#     2   2   2   2   2   2   2   2
#     4  11  22  45  65  95 136 170 221 270 324 392
#     4  10  24  46  68  96 132 179 225 269 327 394
#     4  10  23  46  68  95 134 176 222 277 323 392
#     4  12  25  43  69 100 132 178 219 273 337 390
#     4  12  24  44  67  98 137 170 219 273 325 394
#     4  12  25  40  70  97 130 180 216 266 334 394
#     4  10  22  43  68  92 137 169 210 285 323 382
#     4  11  23  44  65  98 131 173 215 271 338 381
#
# _framework density 22.283158
#
# number of rings (size 3 to 8) (size 9 to 14) (size 15 to 20)
#    0.000    1.000    5.000    1.500    1.750    2.000 
#   11.250    0.000    0.000    0.000    0.000    0.000 
#    0.000    0.000    0.000    0.000    0.000    0.000 
#
# Total GULP energy -89440.276589 kJ/mol
# GULP energy per Si atom -5590.017287 kJ/mol
# Density = 2.223244 g / cm^3
# Si number density = 22.283158 Si / 1000 Ang^3
#
#
#
# Elastic Constant Matrix: (Units=GPa)
#
#
# Indices 1 2 3 4 5 6 
#
# 1 93.5650 -5.8340 19.2037 9.1025 5.8478 -15.4068
# 2 -5.8340 53.4115 15.0286 -2.7972 -6.2465 -9.5522
# 3 19.2037 15.0286 84.5908 10.7261 14.9361 -8.2416
# 4 9.1025 -2.7972 10.7261 26.7170 2.7545 3.8303
# 5 5.8478 -6.2465 14.9361 2.7545 38.5882 7.6038
# 6 -15.4068 -9.5522 -8.2416 3.8303 7.6038 23.4913
#
#
#
# Elastic Compliance Matrix: (Units=1/GPa)
#
#
# Indices 1 2 3 4 5 6 
#
# 1 0.013807 0.003392 -0.001423 -0.005156 -0.002935 0.011727
# 2 0.003392 0.022360 -0.004674 0.001532 0.003148 0.008409
# 3 -0.001423 -0.004674 0.015680 -0.006415 -0.007353 0.006094
# 4 -0.005156 0.001532 -0.006415 0.043488 0.002983 -0.013066
# 5 -0.002935 0.003148 -0.007353 0.002983 0.032293 -0.014164
# 6 0.011727 0.008409 0.006094 -0.013066 -0.014164 0.062532
#
#
# Mechanical properties :
#
#
# Convention : Reuss Voigt Hill
#
# Bulk Modulus (GPa) = 21.53292 32.04044 26.78668
# Shear Modulus (GPa) = 23.69117 31.30391 27.49754
#
# Velocity S-wave (km/s) = 3.26419 3.75216 3.51665
# Velocity P-wave (km/s) = 4.88783 5.76035 5.34193
#
# Compressibility (1/GPa) = 0.04644051
#
# Stress axis : x y z
#
# Youngs Moduli (GPa) = 72.42521 44.72212 63.77387
#
# Poissons Ratio (x) = -0.15171 0.09072
# Poissons Ratio (y) = -0.24569 0.29805
# Poissons Ratio (z) = 0.10303 0.20901
#
# Static dielectric constant tensor:
#      x y z
#    x 1.840100 0.011800 -0.002710 
#    y 0.011800 1.851950 -0.002080 
#    z -0.002710 -0.002080 1.814380 
# 
# From -- ./inp_files/109883.got.cif
#   From: 2010.05.17/outbox.cif.g08.bks.cpg/sg2_55_cif.got.tgz:109883.got - 2010.06.03 11:33:40.
