data_PCOD9031816
_publ_section_title
;
Structure prediction by ZEFSAII (Michael W. Deem and Ramdas Pophale) SiO2 
 PCOD9031816
Probable space group: P -1
;
_chemical_formula_sum "Si O2"
_cell_formula_units_Z 12
_cell_length_a 6.906401
_cell_length_b 7.372144
_cell_length_c 12.462415
_cell_angle_alpha 67.827902
_cell_angle_beta 92.151314
_cell_angle_gamma 68.061341
_cell_volume 533.148936
_symmetry_space_group_name_H-M "P -1"
_symmetry_group_IT_number 2
_symmetry_cell_setting 'triclinic'
loop_
_space_group_symop_operation_xyz
x,y,z
-x,-y,-z
loop_
_atom_site_type_symbol
_atom_site_label
_atom_site_fract_x
_atom_site_fract_y
_atom_site_fract_z
Si Si1 0.932264 0.572207 0.862381
Si Si2 0.131822 0.761734 0.673664
Si Si3 0.602961 0.615928 0.396022
Si Si4 0.735303 0.891611 0.478634
Si Si5 0.158385 0.098049 0.938913
Si Si6 0.450368 0.048788 0.166724
O O1 0.071153 0.697775 0.799790
O O2 0.013559 0.348351 0.850030
O O3 0.683014 0.731815 0.819329
O O4 0.000000 0.500000 0.000000
O O5 0.287899 0.553653 0.657701
O O6 0.909739 0.843959 0.585111
O O7 0.223908 0.939469 0.633998
O O8 0.500000 0.500000 0.500000
O O9 0.463110 0.844626 0.283322
O O10 0.244908 0.316130 0.540936
O O11 0.500000 0.000000 0.500000
O O12 0.319126 0.991398 0.867450
O O13 0.308510 0.074974 0.050877
O O14 0.000000 0.000000 0.000000
#
# Coordination Sequence:
#
# PCOD9031816 Si02
#       6
#     2   2   2   2   2   2
#     4  10  22  43  68  94 133 176 220 283 340 399
#     4  11  24  45  68  96 142 178 231 289 337 414
#     4  12  24  43  69 102 138 182 229 283 346 409
#     4  11  24  43  67  99 133 184 232 279 349 407
#     4  10  22  43  68  98 127 177 228 275 345 405
#     4  10  23  43  64  94 139 170 223 286 332 405
#
# _framework density 22.507784999999998
#
# number of rings (size 3 to 8) (size 9 to 14) (size 15 to 20)
#    0.000    1.333    3.333    1.500    2.333    4.667 
#    3.000    0.000    0.000    0.000    0.000    0.000 
#    0.000    0.000    0.000    0.000    0.000    0.000 
#
# Total GULP energy -67049.146102 kJ/mol
# GULP energy per Si atom -5587.428842 kJ/mol
# Density = 2.245656 g / cm^3
# Si number density = 22.507785 Si / 1000 Ang^3
#
#
#
# Elastic Constant Matrix: (Units=GPa)
#
#
# Indices 1 2 3 4 5 6 
#
# 1 112.6407 72.5969 49.7629 -18.6702 -34.1142 -1.6671
# 2 72.5969 103.5804 38.0097 -14.5265 -21.5831 -32.1192
# 3 49.7629 38.0097 143.3842 -7.5042 -37.4419 -16.8976
# 4 -18.6702 -14.5265 -7.5042 37.6751 2.4619 4.9195
# 5 -34.1142 -21.5831 -37.4419 2.4619 47.9212 -3.3036
# 6 -1.6671 -32.1192 -16.8976 4.9195 -3.3036 45.0699
#
#
#
# Elastic Compliance Matrix: (Units=1/GPa)
#
#
# Indices 1 2 3 4 5 6 
#
# 1 0.024595 -0.018249 -0.003654 0.005878 0.005187 -0.013727
# 2 -0.018249 0.028721 0.001894 -0.000492 0.002881 0.020768
# 3 -0.003654 0.001894 0.010078 -0.000216 0.006516 0.005494
# 4 0.005878 -0.000492 -0.000216 0.029518 0.002050 -0.003286
# 5 0.005187 0.002881 0.006516 0.002050 0.031309 0.006759
# 6 -0.013727 0.020768 0.005494 -0.003286 0.006759 0.039394
#
#
# Mechanical properties :
#
#
# Convention : Reuss Voigt Hill
#
# Bulk Modulus (GPa) = 42.77883 75.59380 59.18632
# Shear Modulus (GPa) = 23.64901 39.41562 31.53232
#
# Velocity S-wave (km/s) = 3.24497 4.18927 3.74699
# Velocity P-wave (km/s) = 5.75216 7.55371 6.71364
#
# Compressibility (1/GPa) = 0.02337605
#
# Stress axis : x y z
#
# Youngs Moduli (GPa) = 40.65799 34.81808 99.22559
#
# Poissons Ratio (x) = 0.63539 0.36259
# Poissons Ratio (y) = 0.74196 -0.18793
# Poissons Ratio (z) = 0.14857 -0.06594
#
# Static dielectric constant tensor:
#      x y z
#    x 1.817840 -0.002700 0.009250 
#    y -0.002700 1.910270 -0.011680 
#    z 0.009250 -0.011680 1.850100 
# 
# From -- ./inp_files/480176.got.cif
#   From: 2010.05.17/outbox.cif.g08.bks.cpg/sg2_241_cif.got.tgz:480176.got - 2010.06.03 11:33:40.
