data_PCOD9031228
_publ_section_title
;
Structure prediction by ZEFSAII (Michael W. Deem and Ramdas Pophale) SiO2 
 PCOD9031228
Probable space group: P -1
;
_chemical_formula_sum "Si O2"
_cell_formula_units_Z 16
_cell_length_a 15.829032
_cell_length_b 8.664984
_cell_length_c 15.274459
_cell_angle_alpha 29.626989
_cell_angle_beta 120.574408
_cell_angle_gamma 99.341902
_cell_volume 671.872053
_symmetry_space_group_name_H-M "P -1"
_symmetry_group_IT_number 2
_symmetry_cell_setting 'triclinic'
loop_
_space_group_symop_operation_xyz
x,y,z
-x,-y,-z
loop_
_atom_site_type_symbol
_atom_site_label
_atom_site_fract_x
_atom_site_fract_y
_atom_site_fract_z
Si Si1 0.003840 0.741890 0.205227
Si Si2 0.281204 0.050776 0.752423
Si Si3 0.224545 0.537113 0.657903
Si Si4 0.576635 0.017928 0.298954
Si Si5 0.857119 0.463114 0.210064
Si Si6 0.629929 0.837378 0.779873
Si Si7 0.040118 0.778479 0.881667
Si Si8 0.320100 0.032409 0.430144
O O1 0.891904 0.731476 0.131975
O O2 0.140770 0.281620 0.519813
O O3 0.991090 0.978075 0.166706
O O4 0.000000 0.000000 0.000000
O O5 0.268541 0.210063 0.765778
O O6 0.342565 0.172114 0.655557
O O7 0.353799 0.568460 0.030842
O O8 0.242659 0.471873 0.803057
O O9 0.281977 0.749670 0.555218
O O10 0.065418 0.856620 0.418324
O O11 0.481510 0.935700 0.316019
O O12 0.652390 0.918301 0.480292
O O13 0.500000 0.500000 0.000000
O O14 0.766966 0.671006 0.974069
O O15 0.000000 0.000000 0.500000
O O16 0.586200 0.101426 0.537203
O O17 0.193638 0.480033 0.106629
O O18 0.000000 0.500000 0.000000
#
# Coordination Sequence:
#
# PCOD9031228 Si02
#       8
#     2   2   2   2   2   2   2   2
#     4  11  24  37  65  97 131 172 219 266 328 391
#     4  10  22  43  65  95 133 171 222 270 326 387
#     4  10  23  40  64  99 134 174 214 268 330 390
#     4  10  22  44  69  91 126 177 222 268 328 391
#     4  12  25  41  65  97 140 172 218 269 332 393
#     4  11  24  42  67  97 129 177 219 271 328 387
#     4   9  21  36  63  94 132 165 209 261 327 379
#     4  11  22  41  69  93 132 169 222 266 331 393
#
# _framework density 23.814056000000001
#
# number of rings (size 3 to 8) (size 9 to 14) (size 15 to 20)
#    0.000    1.500    1.250    3.375   10.500    1.000 
#    0.000    6.250    0.000    0.000    0.000    0.000 
#    0.000    0.000    0.000    0.000    0.000    0.000 
#
# Total GULP energy -89221.754359 kJ/mol
# GULP energy per Si atom -5576.359647 kJ/mol
# Density = 2.375985 g / cm^3
# Si number density = 23.814056 Si / 1000 Ang^3
#
#
#
# Elastic Constant Matrix: (Units=GPa)
#
#
# Indices 1 2 3 4 5 6 
#
# 1 111.9936 26.4277 15.1166 6.6116 -19.8953 -20.9419
# 2 26.4277 98.4598 32.8658 22.4052 -6.4203 -12.8662
# 3 15.1166 32.8658 30.8511 20.6187 -6.3500 -2.3661
# 4 6.6116 22.4052 20.6187 35.7789 -0.8647 -8.2034
# 5 -19.8953 -6.4203 -6.3500 -0.8647 33.9597 11.1062
# 6 -20.9419 -12.8662 -2.3661 -8.2034 11.1062 43.1786
#
#
#
# Elastic Compliance Matrix: (Units=1/GPa)
#
#
# Indices 1 2 3 4 5 6 
#
# 1 0.011226 -0.001176 -0.004700 0.002441 0.004154 0.004232
# 2 -0.001176 0.016640 -0.018019 0.001087 -0.002254 0.004187
# 3 -0.004700 -0.018019 0.079911 -0.036671 0.012225 -0.013381
# 4 0.002441 0.001087 -0.036671 0.050289 -0.007535 0.010991
# 5 0.004154 -0.002254 0.012225 -0.007535 0.036422 -0.008787
# 6 0.004232 0.004187 -0.013381 0.010991 -0.008787 0.030075
#
#
# Mechanical properties :
#
#
# Convention : Reuss Voigt Hill
#
# Bulk Modulus (GPa) = 16.67035 43.34719 30.00877
# Shear Modulus (GPa) = 17.10291 33.70973 25.40632
#
# Velocity S-wave (km/s) = 2.68281 3.76645 3.26983
# Velocity P-wave (km/s) = 4.07578 6.09563 5.18501
#
# Compressibility (1/GPa) = 0.05998673
#
# Stress axis : x y z
#
# Youngs Moduli (GPa) = 89.07797 60.09712 12.51389
#
# Poissons Ratio (x) = 0.07068 0.05881
# Poissons Ratio (y) = 0.10476 0.22549
# Poissons Ratio (z) = 0.41863 1.08292
#
# Static dielectric constant tensor:
#      x y z
#    x 2.030900 -0.068690 0.082450 
#    y -0.068690 1.860860 -0.014380 
#    z 0.082450 -0.014380 1.991390 
# 
# From -- ./inp_files/516456.got.cif
#   From: 2010.05.17/outbox.cif.g08.bks.cpg/sg2_259_cif.got.tgz:516456.got - 2010.06.03 11:33:40.
