data_PCOD9031054
_publ_section_title
;
Structure prediction by ZEFSAII (Michael W. Deem and Ramdas Pophale) SiO2 
 PCOD9031054
Probable space group: P -1
;
_chemical_formula_sum "Si O2"
_cell_formula_units_Z 14
_cell_length_a 17.252123
_cell_length_b 7.989282
_cell_length_c 15.393016
_cell_angle_alpha 53.757439
_cell_angle_beta 156.112877
_cell_angle_gamma 136.305357
_cell_volume 574.676861
_symmetry_space_group_name_H-M "P -1"
_symmetry_group_IT_number 2
_symmetry_cell_setting 'triclinic'
loop_
_space_group_symop_operation_xyz
x,y,z
-x,-y,-z
loop_
_atom_site_type_symbol
_atom_site_label
_atom_site_fract_x
_atom_site_fract_y
_atom_site_fract_z
Si Si1 0.856539 0.258209 0.570178
Si Si2 0.577335 0.226417 0.443714
Si Si3 0.161583 0.271222 0.039465
Si Si4 0.098109 0.671682 0.877648
Si Si5 0.181554 0.802223 0.719391
Si Si6 0.433976 0.293112 0.888436
Si Si7 0.181108 0.168977 0.847441
O O1 0.623354 0.154736 0.416703
O O2 0.944163 0.535574 0.541360
O O3 0.936905 0.143623 0.614574
O O4 0.021902 0.266822 0.813528
O O5 0.393843 0.295958 0.246649
O O6 0.824869 0.469299 0.650534
O O7 0.500000 0.000000 0.500000
O O8 0.197824 0.507350 0.057516
O O9 0.000000 0.000000 0.000000
O O10 0.191261 0.775993 0.843318
O O11 0.145906 0.904813 0.911412
O O12 0.258767 0.088442 0.700530
O O13 0.376107 0.775616 0.883458
O O14 0.277517 0.240678 0.826852
O O15 0.605345 0.588603 0.959429
#
# Coordination Sequence:
#
# PCOD9031054 Si02
#       7
#     2   2   2   2   2   2   2
#     4   9  18  29  48  74 100 120 160 196 231 282
#     4  10  17  32  53  67  86 125 167 200 229 270
#     4  10  17  32  53  67  86 125 167 200 229 270
#     4   9  18  29  48  74 100 120 160 196 231 282
#     4   7  12  24  42  76  92 120 168 192 210 275
#     4   8  12  22  48  70  96 126 158 186 232 278
#     4   9  16  28  42  76 106 122 148 196 242 287
#
# _framework density 24.361516999999999
#
# number of rings (size 3 to 8) (size 9 to 14) (size 15 to 20)
#    0.000    3.429    2.857    0.000    0.000    0.000 
#    0.000    2.857    0.000    0.000    0.000  472.000 
#    0.000    0.000    0.000    0.000    0.000    0.000 
#
# Total GULP energy -77985.601194 kJ/mol
# GULP energy per Si atom -5570.400085 kJ/mol
# Density = 2.430607 g / cm^3
# Si number density = 24.361517 Si / 1000 Ang^3
#
#
#
# Elastic Constant Matrix: (Units=GPa)
#
#
# Indices 1 2 3 4 5 6 
#
# 1 82.5260 61.4514 49.9171 6.2975 42.3060 -12.2785
# 2 61.4514 208.4754 60.1550 -4.6363 21.5269 -25.3551
# 3 49.9171 60.1550 132.0383 -11.6755 46.6330 -2.2819
# 4 6.2975 -4.6363 -11.6755 37.0446 -0.0092 9.2259
# 5 42.3060 21.5269 46.6330 -0.0092 47.8305 -2.8785
# 6 -12.2785 -25.3551 -2.2819 9.2259 -2.8785 35.5014
#
#
#
# Elastic Compliance Matrix: (Units=1/GPa)
#
#
# Indices 1 2 3 4 5 6 
#
# 1 0.030226 -0.005497 -0.001662 -0.008025 -0.022238 0.006704
# 2 -0.005497 0.007140 -0.002680 0.000151 0.004463 0.003349
# 3 -0.001662 -0.002680 0.013655 0.005206 -0.010867 -0.003845
# 4 -0.008025 0.000151 0.005206 0.032689 0.001316 -0.010722
# 5 -0.022238 0.004463 -0.010867 0.001316 0.049069 -0.001566
# 6 0.006704 0.003349 -0.003845 -0.010722 -0.001566 0.035290
#
#
# Mechanical properties :
#
#
# Convention : Reuss Voigt Hill
#
# Bulk Modulus (GPa) = 31.90533 85.12076 58.51304
# Shear Modulus (GPa) = 25.22775 40.84304 33.03539
#
# Velocity S-wave (km/s) = 3.22150 4.09900 3.68645
# Velocity P-wave (km/s) = 5.19254 7.57753 6.49543
#
# Compressibility (1/GPa) = 0.03134272
#
# Stress axis : x y z
#
# Youngs Moduli (GPa) = 33.08416 140.05487 73.23500
#
# Poissons Ratio (x) = 0.76985 0.12175
# Poissons Ratio (y) = 0.18186 0.19625
# Poissons Ratio (z) = 0.05500 0.37532
#
# Static dielectric constant tensor:
#      x y z
#    x 2.088960 -0.087520 -0.055750 
#    y -0.087520 2.026460 -0.000320 
#    z -0.055750 -0.000320 2.029370 
# 
# From -- ./inp_files/331418.got.cif
#   From: 2010.05.17/outbox.cif.g08.bks.cpg/sg2_166_cif.got.tgz:331418.got - 2010.06.03 11:33:40.
