data_PCOD9031235
_publ_section_title
;
Structure prediction by ZEFSAII (Michael W. Deem and Ramdas Pophale) SiO2 
 PCOD9031235
Probable space group: P -1
;
_chemical_formula_sum "Si O2"
_cell_formula_units_Z 16
_cell_length_a 12.257783
_cell_length_b 24.725814
_cell_length_c 7.289007
_cell_angle_alpha 118.609363
_cell_angle_beta 47.699920
_cell_angle_gamma 150.866161
_cell_volume 758.159922
_symmetry_space_group_name_H-M "P -1"
_symmetry_group_IT_number 2
_symmetry_cell_setting 'triclinic'
loop_
_space_group_symop_operation_xyz
x,y,z
-x,-y,-z
loop_
_atom_site_type_symbol
_atom_site_label
_atom_site_fract_x
_atom_site_fract_y
_atom_site_fract_z
Si Si1 0.382716 0.283861 0.292054
Si Si2 0.173355 0.427972 0.159999
Si Si3 0.460312 0.779523 0.428506
Si Si4 0.695443 0.875922 0.715136
Si Si5 0.336847 0.360353 0.801222
Si Si6 0.560786 0.919267 0.260384
Si Si7 0.264376 0.590000 0.207825
Si Si8 0.973341 0.180562 0.260646
O O1 0.282612 0.181526 0.301898
O O2 0.392125 0.332062 0.533299
O O3 0.169372 0.238111 0.310055
O O4 0.686582 0.378199 0.009288
O O5 0.376502 0.508224 0.234351
O O6 0.285035 0.523587 0.068142
O O7 0.864544 0.326793 0.419189
O O8 0.173430 0.364711 0.945667
O O9 0.509847 0.804469 0.627259
O O10 0.605809 0.884094 0.313668
O O11 0.493094 0.718687 0.243188
O O12 0.584573 0.888667 0.997945
O O13 0.000000 0.000000 0.500000
O O14 0.161688 0.267527 0.014723
O O15 0.264517 0.850465 0.496394
O O16 0.799544 0.056165 0.219898
O O17 0.000000 0.500000 0.500000
#
# Coordination Sequence:
#
# PCOD9031235 Si02
#       8
#     2   2   2   2   2   2   2   2
#     4  12  25  43  73 103 134 185 228 284 345 413
#     4  10  22  44  67  96 141 181 215 294 333 403
#     4  11  23  46  69  98 144 176 231 284 341 404
#     4  12  27  43  71 105 136 184 234 282 339 417
#     4  11  23  43  69 101 139 179 233 275 349 409
#     4  11  25  45  71 102 134 187 227 281 354 403
#     4  10  22  43  65  95 137 179 224 280 332 399
#     4  11  25  45  71 100 143 174 229 292 340 412
#
# _framework density 21.103729000000001
#
# number of rings (size 3 to 8) (size 9 to 14) (size 15 to 20)
#    0.000    1.000    3.750    2.250    3.500    1.500 
#    4.500    6.875    0.000    0.000    0.000    0.000 
#    0.000    0.000    0.000    0.000    0.000    0.000 
#
# Total GULP energy -89147.088475 kJ/mol
# GULP energy per Si atom -5571.693030 kJ/mol
# Density = 2.105570 g / cm^3
# Si number density = 21.103729 Si / 1000 Ang^3
#
#
#
# Elastic Constant Matrix: (Units=GPa)
#
#
# Indices 1 2 3 4 5 6 
#
# 1 76.3354 46.0666 43.0105 -2.2460 6.5980 -23.4682
# 2 46.0666 99.8790 63.6370 12.2486 -4.8702 -26.9749
# 3 43.0105 63.6370 163.2556 16.8784 -0.7273 -9.4118
# 4 -2.2460 12.2486 16.8784 34.4141 -3.9974 -1.7928
# 5 6.5980 -4.8702 -0.7273 -3.9974 29.8250 -0.6900
# 6 -23.4682 -26.9749 -9.4118 -1.7928 -0.6900 48.5579
#
#
#
# Elastic Compliance Matrix: (Units=1/GPa)
#
#
# Indices 1 2 3 4 5 6 
#
# 1 0.021693 -0.007342 -0.003077 0.005239 -0.005234 0.005929
# 2 -0.007342 0.018542 -0.004520 -0.004081 0.004129 0.005784
# 3 -0.003077 -0.004520 0.008879 -0.003108 -0.000313 -0.002396
# 4 0.005239 -0.004081 -0.003108 0.032715 0.002505 0.000906
# 5 -0.005234 0.004129 -0.000313 0.002505 0.035696 0.000303
# 6 0.005929 0.005784 -0.002396 0.000906 0.000303 0.026246
#
#
# Mechanical properties :
#
#
# Convention : Reuss Voigt Hill
#
# Bulk Modulus (GPa) = 51.97816 71.65535 61.81676
# Shear Modulus (GPa) = 27.76853 35.00981 31.38917
#
# Velocity S-wave (km/s) = 3.63135 4.07743 3.86083
# Velocity P-wave (km/s) = 6.50120 7.49632 7.01642
#
# Compressibility (1/GPa) = 0.01923885
#
# Stress axis : x y z
#
# Youngs Moduli (GPa) = 46.09722 53.93198 112.61915
#
# Poissons Ratio (x) = 0.39595 0.34648
# Poissons Ratio (y) = 0.33843 0.50900
# Poissons Ratio (z) = 0.14182 0.24375
#
# Static dielectric constant tensor:
#      x y z
#    x -6.999140 -4.107310 -1.992690 
#    y -4.107310 -0.140070 -0.869740 
#    z -1.992690 -0.869740 1.407650 
# 
# From -- ./inp_files/84421.got.cif
#   From: 2010.05.17/outbox.cif.g08.bks.cpg/sg2_43_cif.got.tgz:84421.got - 2010.06.03 11:33:40.
