data_PCOD9031019
_publ_section_title
;
Structure prediction by ZEFSAII (Michael W. Deem and Ramdas Pophale) SiO2 
 PCOD9031019
Probable space group: P -1
;
_chemical_formula_sum "Si O2"
_cell_formula_units_Z 12
_cell_length_a 16.914476
_cell_length_b 8.720709
_cell_length_c 17.483961
_cell_angle_alpha 36.584499
_cell_angle_beta 164.137260
_cell_angle_gamma 144.265793
_cell_volume 407.710635
_symmetry_space_group_name_H-M "P -1"
_symmetry_group_IT_number 2
_symmetry_cell_setting 'triclinic'
loop_
_space_group_symop_operation_xyz
x,y,z
-x,-y,-z
loop_
_atom_site_type_symbol
_atom_site_label
_atom_site_fract_x
_atom_site_fract_y
_atom_site_fract_z
Si Si1 0.530636 0.131122 0.154749
Si Si2 0.256666 0.613971 0.305664
Si Si3 0.209334 0.052592 0.250758
Si Si4 0.159898 0.499400 0.822082
Si Si5 0.135369 0.052936 0.329838
Si Si6 0.364932 0.326736 0.675518
O O1 0.618324 0.404187 0.079807
O O2 0.762684 0.136821 0.436166
O O3 0.563971 0.923672 0.200372
O O4 0.219446 0.012780 0.953192
O O5 0.558922 0.854016 0.482715
O O6 0.296168 0.506222 0.470502
O O7 0.227600 0.352517 0.334380
O O8 0.963747 0.716988 0.973833
O O9 0.500000 0.000000 0.500000
O O10 0.000000 0.000000 0.000000
O O11 0.965372 0.195483 0.753745
O O12 0.923475 0.683535 0.535767
O O13 0.356780 0.538359 0.066483
#
# Coordination Sequence:
#
# PCOD9031019 Si02
#       6
#     2   2   2   2   2   2
#     4  12  24  43  66  91 130 166 208 258 304 378
#     4  10  22  43  63  99 123 159 210 260 318 363
#     4  10  22  43  63  99 123 159 210 260 318 363
#     4  12  26  42  65  93 128 170 207 254 309 374
#     4  10  22  43  64  97 122 162 210 260 318 358
#     4  12  26  42  65  93 128 170 207 254 309 374
#
# _framework density 29.432639000000002
#
# number of rings (size 3 to 8) (size 9 to 14) (size 15 to 20)
#    1.000    0.000    1.667    5.000    0.000    6.667 
#    0.000    0.000    0.000    0.000    0.000    0.000 
#    0.000    0.000    0.000    0.000    0.000    0.000 
#
# Total GULP energy -67178.637876 kJ/mol
# GULP energy per Si atom -5598.219823 kJ/mol
# Density = 2.936565 g / cm^3
# Si number density = 29.432639 Si / 1000 Ang^3
#
#
#
# Elastic Constant Matrix: (Units=GPa)
#
#
# Indices 1 2 3 4 5 6 
#
# 1 228.8496 92.9124 50.9167 12.2724 34.8997 -13.8802
# 2 92.9124 122.8123 31.5658 -3.3624 18.8693 11.5732
# 3 50.9167 31.5658 244.9375 21.3847 15.9330 -4.4724
# 4 12.2724 -3.3624 21.3847 45.8796 -6.8540 6.1044
# 5 34.8997 18.8693 15.9330 -6.8540 56.0374 0.3103
# 6 -13.8802 11.5732 -4.4724 6.1044 0.3103 46.7209
#
#
#
# Elastic Compliance Matrix: (Units=1/GPa)
#
#
# Indices 1 2 3 4 5 6 
#
# 1 0.007677 -0.005725 -0.000279 -0.003373 -0.003210 0.004134
# 2 -0.005725 0.013372 -0.000943 0.003665 -0.000190 -0.005581
# 3 -0.000279 -0.000943 0.004561 -0.002406 -0.001105 0.000909
# 4 -0.003373 0.003665 -0.002406 0.025524 0.004703 -0.005506
# 5 -0.003210 -0.000190 -0.001105 0.004703 0.020807 -0.001765
# 6 0.004134 -0.005581 0.000909 -0.005506 -0.001765 0.024833
#
#
# Mechanical properties :
#
#
# Convention : Reuss Voigt Hill
#
# Bulk Modulus (GPa) = 85.35958 105.26548 95.31253
# Shear Modulus (GPa) = 43.64058 57.80787 50.72422
#
# Velocity S-wave (km/s) = 3.85480 4.43659 4.15589
# Velocity P-wave (km/s) = 6.99123 7.87953 7.44863
#
# Compressibility (1/GPa) = 0.01171515
#
# Stress axis : x y z
#
# Youngs Moduli (GPa) = 130.25372 74.78560 219.26207
#
# Poissons Ratio (x) = 0.42816 0.06126
# Poissons Ratio (y) = 0.74573 0.20669
# Poissons Ratio (z) = 0.03639 0.07050
#
# Static dielectric constant tensor:
#      x y z
#    x 2.443380 -0.118990 -0.015710 
#    y -0.118990 2.818630 0.192020 
#    z -0.015710 0.192020 2.254680 
# 
# From -- ./inp_files/192572.got.cif
#   From: 2010.05.17/outbox.cif.g08.bks.cpg/sg2_97_cif.got.tgz:192572.got - 2010.06.03 11:33:40.
