data_PCOD9031437
_publ_section_title
;
Structure prediction by ZEFSAII (Michael W. Deem and Ramdas Pophale) SiO2 
 PCOD9031437
Probable space group: P -1
;
_chemical_formula_sum "Si O2"
_cell_formula_units_Z 14
_cell_length_a 12.269530
_cell_length_b 11.921685
_cell_length_c 6.869635
_cell_angle_alpha 57.143037
_cell_angle_beta 73.343059
_cell_angle_gamma 45.365606
_cell_volume 593.104002
_symmetry_space_group_name_H-M "P -1"
_symmetry_group_IT_number 2
_symmetry_cell_setting 'triclinic'
loop_
_space_group_symop_operation_xyz
x,y,z
-x,-y,-z
loop_
_atom_site_type_symbol
_atom_site_label
_atom_site_fract_x
_atom_site_fract_y
_atom_site_fract_z
Si Si1 0.923114 0.841741 0.550743
Si Si2 0.731625 0.070355 0.755412
Si Si3 0.158504 0.770549 0.220491
Si Si4 0.192758 0.625018 0.938602
Si Si5 0.675359 0.828970 0.134758
Si Si6 0.148845 0.373685 0.398653
Si Si7 0.375487 0.416611 0.701696
O O1 0.877872 0.724861 0.645067
O O2 0.998162 0.835891 0.319728
O O3 0.781952 0.034879 0.537949
O O4 0.058311 0.748685 0.730399
O O5 0.823535 0.100254 0.812809
O O6 0.551927 0.247963 0.714688
O O7 0.765063 0.890737 0.970163
O O8 0.179372 0.741207 0.008530
O O9 0.293073 0.572861 0.436398
O O10 0.174235 0.495546 0.171867
O O11 0.349091 0.502246 0.845477
O O12 0.705960 0.780134 0.392631
O O13 0.712465 0.656930 0.181043
O O14 0.500000 0.000000 0.000000
O O15 0.000000 0.500000 0.500000
#
# Coordination Sequence:
#
# PCOD9031437 Si02
#       7
#     2   2   2   2   2   2   2
#     4  11  24  41  66 101 132 170 222 278 329 388
#     4  11  24  43  64  97 140 170 214 280 332 393
#     4  11  23  44  67  95 132 179 222 265 332 396
#     4  11  22  41  70  95 132 171 226 277 317 396
#     4  10  22  43  66  97 135 167 220 279 329 389
#     4  12  20  41  72  99 129 177 226 272 331 393
#     4  10  22  46  67  94 129 176 227 267 325 401
#
# _framework density 23.604628000000002
#
# number of rings (size 3 to 8) (size 9 to 14) (size 15 to 20)
#    0.000    1.143    2.857    3.857    0.000    1.143 
#   10.286    4.286    0.000    0.000    0.000    0.000 
#    0.000    0.000    0.000    0.000    0.000    0.000 
#
# Total GULP energy -78383.197442 kJ/mol
# GULP energy per Si atom -5598.799817 kJ/mol
# Density = 2.355090 g / cm^3
# Si number density = 23.604628 Si / 1000 Ang^3
#
#
#
# Elastic Constant Matrix: (Units=GPa)
#
#
# Indices 1 2 3 4 5 6 
#
# 1 61.3706 31.9016 1.5781 2.7234 -2.2427 25.3356
# 2 31.9016 138.2120 46.8679 31.9409 8.0268 2.8907
# 3 1.5781 46.8679 89.6327 4.5150 10.8559 -6.3784
# 4 2.7234 31.9409 4.5150 51.4197 7.4373 2.8644
# 5 -2.2427 8.0268 10.8559 7.4373 27.8888 5.1193
# 6 25.3356 2.8907 -6.3784 2.8644 5.1193 52.4697
#
#
#
# Elastic Compliance Matrix: (Units=1/GPa)
#
#
# Indices 1 2 3 4 5 6 
#
# 1 0.024925 -0.006993 0.001628 0.002854 0.004840 -0.012080
# 2 -0.006993 0.012371 -0.005768 -0.006872 -0.000489 0.002417
# 3 0.001628 -0.005768 0.014725 0.002835 -0.005000 0.001655
# 4 0.002854 -0.006872 0.002835 0.024131 -0.005060 -0.001478
# 5 0.004840 -0.000489 -0.005000 -0.005060 0.040900 -0.006632
# 6 -0.012080 0.002417 0.001655 -0.001478 -0.006632 0.025687
#
#
# Mechanical properties :
#
#
# Convention : Reuss Voigt Hill
#
# Bulk Modulus (GPa) = 33.60835 49.99006 41.79920
# Shear Modulus (GPa) = 28.58386 40.28014 34.43200
#
# Velocity S-wave (km/s) = 3.48364 4.13540 3.82343
# Velocity P-wave (km/s) = 5.51814 6.63522 6.10230
#
# Compressibility (1/GPa) = 0.02975451
#
# Stress axis : x y z
#
# Youngs Moduli (GPa) = 40.12029 80.83133 67.91283
#
# Poissons Ratio (x) = 0.56527 -0.11058
# Poissons Ratio (y) = 0.28057 0.39175
# Poissons Ratio (z) = -0.06533 0.46627
#
# Static dielectric constant tensor:
#      x y z
#    x 1.923200 -0.017430 -0.027960 
#    y -0.017430 1.914340 -0.004580 
#    z -0.027960 -0.004580 1.881230 
# 
# From -- ./inp_files/68612.got.cif
#   From: 2010.05.17/outbox.cif.g08.bks.cpg/sg2_35_cif.got.tgz:68612.got - 2010.06.03 11:33:40.
