data_PCOD9031440
_publ_section_title
;
Structure prediction by ZEFSAII (Michael W. Deem and Ramdas Pophale) SiO2 
 PCOD9031440
Probable space group: P -1
;
_chemical_formula_sum "Si O2"
_cell_formula_units_Z 16
_cell_length_a 5.312624
_cell_length_b 6.498094
_cell_length_c 19.286359
_cell_angle_alpha 109.222588
_cell_angle_beta 84.572161
_cell_angle_gamma 80.998550
_cell_volume 613.271962
_symmetry_space_group_name_H-M "P -1"
_symmetry_group_IT_number 2
_symmetry_cell_setting 'triclinic'
loop_
_space_group_symop_operation_xyz
x,y,z
-x,-y,-z
loop_
_atom_site_type_symbol
_atom_site_label
_atom_site_fract_x
_atom_site_fract_y
_atom_site_fract_z
Si Si1 0.576698 0.734118 0.166543
Si Si2 0.163468 0.890171 0.797331
Si Si3 0.354970 0.474449 0.397574
Si Si4 0.316464 0.494655 0.245202
Si Si5 0.435607 0.242459 0.983490
Si Si6 0.745078 0.085400 0.473680
Si Si7 0.998192 0.678261 0.891032
Si Si8 0.066715 0.777164 0.643901
O O1 0.387080 0.709563 0.229984
O O2 0.492852 0.836606 0.105499
O O3 0.730037 0.483918 0.122024
O O4 0.776374 0.878610 0.201589
O O5 0.430109 0.705574 0.774365
O O6 0.993879 0.830254 0.731682
O O7 0.051165 0.901912 0.879307
O O8 0.244278 0.558289 0.333476
O O9 0.303320 0.653181 0.479006
O O10 0.664905 0.404932 0.376221
O O11 0.181209 0.288390 0.393672
O O12 0.138610 0.417373 0.181474
O O13 0.500000 0.500000 0.000000
O O14 0.155742 0.313247 0.033765
O O15 0.500000 0.000000 0.000000
O O16 0.821315 0.047404 0.387028
O O17 0.500000 0.000000 0.500000
O O18 0.000000 0.000000 0.500000
#
# Coordination Sequence:
#
# PCOD9031440 Si02
#       8
#     2   2   2   2   2   2   2   2
#     4  11  25  42  69 100 134 183 230 297 359 431
#     4  10  24  41  68  99 132 178 234 291 355 440
#     4  11  23  44  71  95 139 186 233 292 358 439
#     4  10  22  43  66  97 135 175 230 287 361 429
#     4  12  27  46  72 101 142 191 241 302 375 446
#     4  12  26  42  65 103 139 178 235 297 355 433
#     4  11  23  44  68  98 137 177 236 288 363 432
#     4  11  23  45  69  98 134 191 234 286 365 436
#
# _framework density 26.089566999999999
#
# number of rings (size 3 to 8) (size 9 to 14) (size 15 to 20)
#    0.000    1.000    2.500    3.375    5.250    2.500 
#    0.000    0.000    0.000    0.000    0.000    0.000 
#    0.000    0.000    0.000    0.000    0.000    0.000 
#
# Total GULP energy -89096.341371 kJ/mol
# GULP energy per Si atom -5568.521336 kJ/mol
# Density = 2.603019 g / cm^3
# Si number density = 26.089567 Si / 1000 Ang^3
#
#
#
# Elastic Constant Matrix: (Units=GPa)
#
#
# Indices 1 2 3 4 5 6 
#
# 1 70.6977 20.8496 0.8401 -10.5222 -1.3515 0.7574
# 2 20.8496 100.7255 27.5911 -23.6325 -4.0403 9.7215
# 3 0.8401 27.5911 97.5484 -40.4165 2.3048 3.8721
# 4 -10.5222 -23.6325 -40.4165 43.2060 11.2933 -5.8106
# 5 -1.3515 -4.0403 2.3048 11.2933 40.4210 -5.5793
# 6 0.7574 9.7215 3.8721 -5.8106 -5.5793 56.9707
#
#
#
# Elastic Compliance Matrix: (Units=1/GPa)
#
#
# Indices 1 2 3 4 5 6 
#
# 1 0.015741 -0.002894 0.002948 0.005437 -0.001381 0.000504
# 2 -0.002894 0.012101 -0.001540 0.004328 -0.000216 -0.001501
# 3 0.002948 -0.001540 0.018715 0.019097 -0.006421 0.000271
# 4 0.005437 0.004328 0.019097 0.048513 -0.013824 0.001485
# 5 -0.001381 -0.000216 -0.006421 -0.013824 0.029168 0.001938
# 6 0.000504 -0.001501 0.000271 0.001485 0.001938 0.018125
#
#
# Mechanical properties :
#
#
# Convention : Reuss Voigt Hill
#
# Bulk Modulus (GPa) = 22.94395 40.83703 31.89049
# Shear Modulus (GPa) = 31.27707 42.76557 37.02132
#
# Velocity S-wave (km/s) = 3.46618 4.05307 3.77106
# Velocity P-wave (km/s) = 4.98323 6.13105 5.58670
#
# Compressibility (1/GPa) = 0.04358447
#
# Stress axis : x y z
#
# Youngs Moduli (GPa) = 63.52983 82.64111 53.43406
#
# Poissons Ratio (x) = 0.23918 -0.15754
# Poissons Ratio (y) = 0.18387 0.08228
# Poissons Ratio (z) = -0.18731 0.12725
#
# Static dielectric constant tensor:
#      x y z
#    x 2.072260 0.071870 0.051900 
#    y 0.071870 2.159710 0.085760 
#    z 0.051900 0.085760 2.144150 
# 
# From -- ./inp_files/10596.got.cif
#   From: 2010.05.17/outbox.cif.g08.bks.cpg/sg2_6_cif.got.tgz:10596.got - 2010.06.03 11:33:40.
