data_PCOD9031544
_publ_section_title
;
Structure prediction by ZEFSAII (Michael W. Deem and Ramdas Pophale) SiO2 
 PCOD9031544
Probable space group: P -1
;
_chemical_formula_sum "Si O2"
_cell_formula_units_Z 16
_cell_length_a 15.090276
_cell_length_b 18.778142
_cell_length_c 12.385145
_cell_angle_alpha 133.081503
_cell_angle_beta 28.369385
_cell_angle_gamma 149.617700
_cell_volume 800.086168
_symmetry_space_group_name_H-M "P -1"
_symmetry_group_IT_number 2
_symmetry_cell_setting 'triclinic'
loop_
_space_group_symop_operation_xyz
x,y,z
-x,-y,-z
loop_
_atom_site_type_symbol
_atom_site_label
_atom_site_fract_x
_atom_site_fract_y
_atom_site_fract_z
Si Si1 0.599096 0.747517 0.901544
Si Si2 0.224020 0.825698 0.096833
Si Si3 0.210889 0.939885 0.719882
Si Si4 0.876738 0.937595 0.242535
Si Si5 0.057391 0.637610 0.293993
Si Si6 0.379207 0.344503 0.446773
Si Si7 0.353312 0.683008 0.686607
Si Si8 0.287161 0.370400 0.179029
O O1 0.587134 0.677570 0.734555
O O2 0.572564 0.666487 0.948852
O O3 0.344820 0.724360 0.139322
O O4 0.906615 0.919419 0.762996
O O5 0.134678 0.736480 0.211739
O O6 0.956510 0.784255 0.303916
O O7 0.279062 0.762583 0.885721
O O8 0.500000 0.000000 0.000000
O O9 0.986335 0.775884 0.742624
O O10 0.500000 0.000000 0.500000
O O11 0.241487 0.034578 0.692688
O O12 0.068009 0.934978 0.971155
O O13 0.613849 0.789021 0.433873
O O14 0.911999 0.480907 0.245820
O O15 0.829566 0.601953 0.576628
O O16 0.500000 0.500000 0.500000
O O17 0.540986 0.333866 0.339337
O O18 0.500000 0.500000 0.000000
#
# Coordination Sequence:
#
# PCOD9031544 Si02
#       8
#     2   2   2   2   2   2   2   2
#     4  11  23  41  65  91 133 170 212 269 326 378
#     4  12  26  40  65  97 131 176 221 261 320 389
#     4  10  22  43  67  90 130 165 215 274 328 378
#     4  10  24  41  63  97 126 170 216 267 327 388
#     4  12  24  43  66  96 135 170 217 269 321 385
#     4  12  23  42  65  93 137 178 213 268 322 382
#     4  12  25  42  66  97 137 174 219 265 322 389
#     4  11  24  42  68  95 126 167 220 268 326 388
#
# _framework density 19.997845999999999
#
# number of rings (size 3 to 8) (size 9 to 14) (size 15 to 20)
#    0.000    0.750    3.750    3.375    3.500    3.500 
#    0.000    0.000    0.000    0.000    0.000    0.000 
#    0.000    0.000    0.000    0.000    0.000    0.000 
#
# Total GULP energy -89530.312503 kJ/mol
# GULP energy per Si atom -5595.644531 kJ/mol
# Density = 1.995233 g / cm^3
# Si number density = 19.997846 Si / 1000 Ang^3
#
#
#
# Elastic Constant Matrix: (Units=GPa)
#
#
# Indices 1 2 3 4 5 6 
#
# 1 75.5544 9.5941 36.9746 -9.2857 -6.2469 9.2331
# 2 9.5941 89.8840 24.1323 -6.2477 21.9343 10.6070
# 3 36.9746 24.1323 88.3506 -5.7984 2.3719 -1.3073
# 4 -9.2857 -6.2477 -5.7984 35.6991 -4.9575 3.7978
# 5 -6.2469 21.9343 2.3719 -4.9575 41.9257 2.1077
# 6 9.2331 10.6070 -1.3073 3.7978 2.1077 24.0506
#
#
#
# Elastic Compliance Matrix: (Units=1/GPa)
#
#
# Indices 1 2 3 4 5 6 
#
# 1 0.019273 0.000588 -0.008123 0.005360 0.004125 -0.009308
# 2 0.000588 0.014733 -0.004065 0.001827 -0.006841 -0.006633
# 3 -0.008123 -0.004065 0.015866 -0.000935 -0.000391 0.005956
# 4 0.005360 0.001827 -0.000935 0.030993 0.003971 -0.008156
# 5 0.004125 -0.006841 -0.000391 0.003971 0.028624 -0.001723
# 6 -0.009308 -0.006633 0.005956 -0.008156 -0.001723 0.049841
#
#
# Mechanical properties :
#
#
# Convention : Reuss Voigt Hill
#
# Bulk Modulus (GPa) = 37.49262 43.91011 40.70137
# Shear Modulus (GPa) = 26.12054 32.54096 29.33075
#
# Velocity S-wave (km/s) = 3.61802 4.03826 3.83390
# Velocity P-wave (km/s) = 6.02017 6.61427 6.32420
#
# Compressibility (1/GPa) = 0.02667192
#
# Stress axis : x y z
#
# Youngs Moduli (GPa) = 51.88499 67.87385 63.02925
#
# Poissons Ratio (x) = -0.03991 0.51200
# Poissons Ratio (y) = -0.03051 0.25621
# Poissons Ratio (z) = 0.42147 0.27590
#
# Static dielectric constant tensor:
#      x y z
#    x 1.667400 0.024480 -0.029510 
#    y 0.024480 1.688970 0.046590 
#    z -0.029510 0.046590 1.655300 
# 
# From -- ./inp_files/456977.got.cif
#   From: 2010.05.17/outbox.cif.g08.bks.cpg/sg2_229_cif.got.tgz:456977.got - 2010.06.03 11:33:40.
