data_PCOD9031838
_publ_section_title
;
Structure prediction by ZEFSAII (Michael W. Deem and Ramdas Pophale) SiO2 
 PCOD9031838
Probable space group: P -1
;
_chemical_formula_sum "Si O2"
_cell_formula_units_Z 16
_cell_length_a 16.146116
_cell_length_b 9.164778
_cell_length_c 9.028906
_cell_angle_alpha 45.865368
_cell_angle_beta 103.510524
_cell_angle_gamma 75.207380
_cell_volume 746.590975
_symmetry_space_group_name_H-M "P -1"
_symmetry_group_IT_number 2
_symmetry_cell_setting 'triclinic'
loop_
_space_group_symop_operation_xyz
x,y,z
-x,-y,-z
loop_
_atom_site_type_symbol
_atom_site_label
_atom_site_fract_x
_atom_site_fract_y
_atom_site_fract_z
Si Si1 0.082240 0.013919 0.113107
Si Si2 0.183942 0.255990 0.253266
Si Si3 0.603325 0.348883 0.753218
Si Si4 0.985538 0.808605 0.711641
Si Si5 0.645124 0.752966 0.478738
Si Si6 0.286951 0.454436 0.673509
Si Si7 0.770900 0.869608 0.961540
Si Si8 0.505385 0.677612 0.992435
O O1 0.191015 0.734838 0.383184
O O2 0.116055 0.179008 0.937873
O O3 0.028645 0.129895 0.164929
O O4 0.000000 0.000000 0.000000
O O5 0.255216 0.285083 0.372179
O O6 0.249873 0.087554 0.255294
O O7 0.121715 0.168646 0.379784
O O8 0.090535 0.521307 0.948884
O O9 0.500000 0.500000 0.500000
O O10 0.633989 0.534948 0.675178
O O11 0.572098 0.275626 0.939197
O O12 0.690943 0.111856 0.858878
O O13 0.000000 0.000000 0.500000
O O14 0.660999 0.714024 0.334874
O O15 0.543539 0.035604 0.280472
O O16 0.377490 0.446473 0.806495
O O17 0.239901 0.343741 0.834888
O O18 0.500000 0.500000 0.000000
#
# Coordination Sequence:
#
# PCOD9031838 Si02
#       8
#     2   2   2   2   2   2   2   2
#     4  11  24  42  71 100 134 178 230 275 344 406
#     4  10  25  42  65 104 133 178 231 279 338 406
#     4  12  24  45  70  95 139 182 224 282 340 396
#     4  10  22  43  68  95 139 176 224 286 340 395
#     4  12  25  42  70  98 136 177 227 276 337 407
#     4  12  24  46  68 101 140 176 228 284 336 407
#     4  11  24  43  69  98 140 179 223 281 342 396
#     4  12  29  45  69 105 136 181 232 278 340 408
#
# _framework density 21.430745999999999
#
# number of rings (size 3 to 8) (size 9 to 14) (size 15 to 20)
#    0.000    0.750    3.750    2.625    7.000    3.000 
#    0.000    0.000    0.000    0.000    0.000    0.000 
#    0.000    0.000    0.000    0.000    0.000    0.000 
#
# Total GULP energy -89448.233241 kJ/mol
# GULP energy per Si atom -5590.514578 kJ/mol
# Density = 2.138197 g / cm^3
# Si number density = 21.430746 Si / 1000 Ang^3
#
#
#
# Elastic Constant Matrix: (Units=GPa)
#
#
# Indices 1 2 3 4 5 6 
#
# 1 172.7501 45.8504 48.6721 10.7405 -8.9010 30.3631
# 2 45.8504 125.4441 25.9463 -11.4732 14.2592 15.3498
# 3 48.6721 25.9463 58.3937 -14.8262 0.4410 12.3440
# 4 10.7405 -11.4732 -14.8262 27.6499 9.8819 6.0819
# 5 -8.9010 14.2592 0.4410 9.8819 42.8431 11.8337
# 6 30.3631 15.3498 12.3440 6.0819 11.8337 50.2046
#
#
#
# Elastic Compliance Matrix: (Units=1/GPa)
#
#
# Indices 1 2 3 4 5 6 
#
# 1 0.011863 -0.003841 -0.011154 -0.014326 0.008111 -0.003434
# 2 -0.003841 0.010812 0.000857 0.008837 -0.006223 -0.000797
# 3 -0.011154 0.000857 0.033369 0.026149 -0.008158 -0.002966
# 4 -0.014326 0.008837 0.026149 0.067666 -0.020752 -0.003773
# 5 0.008111 -0.006223 -0.008158 -0.020752 0.033746 -0.006437
# 6 -0.003434 -0.000797 -0.002966 -0.003773 -0.006437 0.024942
#
#
# Mechanical properties :
#
#
# Convention : Reuss Voigt Hill
#
# Bulk Modulus (GPa) = 36.01347 66.39171 51.20259
# Shear Modulus (GPa) = 22.73441 39.88079 31.30760
#
# Velocity S-wave (km/s) = 3.26057 4.31851 3.82628
# Velocity P-wave (km/s) = 5.56922 7.47750 6.59277
#
# Compressibility (1/GPa) = 0.02776739
#
# Stress axis : x y z
#
# Youngs Moduli (GPa) = 84.29572 92.49402 29.96749
#
# Poissons Ratio (x) = 0.35526 0.33426
# Poissons Ratio (y) = 0.32377 -0.02567
# Poissons Ratio (z) = 0.94025 -0.07924
#
# Static dielectric constant tensor:
#      x y z
#    x 1.873020 0.001340 -0.002670 
#    y 0.001340 1.796570 -0.045130 
#    z -0.002670 -0.045130 1.828330 
# 
# From -- ./inp_files/297476.got.cif
#   From: 2010.05.17/outbox.cif.g08.bks.cpg/sg2_149_cif.got.tgz:297476.got - 2010.06.03 11:33:40.
