data_PCOD9031538
_publ_section_title
;
Structure prediction by ZEFSAII (Michael W. Deem and Ramdas Pophale) SiO2 
 PCOD9031538
Probable space group: P -1
;
_chemical_formula_sum "Si O2"
_cell_formula_units_Z 15
_cell_length_a 10.284572
_cell_length_b 8.394591
_cell_length_c 6.969999
_cell_angle_alpha 87.326092
_cell_angle_beta 81.632250
_cell_angle_gamma 76.744284
_cell_volume 579.429947
_symmetry_space_group_name_H-M "P -1"
_symmetry_group_IT_number 2
_symmetry_cell_setting 'triclinic'
loop_
_space_group_symop_operation_xyz
x,y,z
-x,-y,-z
loop_
_atom_site_type_symbol
_atom_site_label
_atom_site_fract_x
_atom_site_fract_y
_atom_site_fract_z
Si Si1 0.966620 0.624415 0.183204
Si Si2 0.500000 0.500000 0.500000
Si Si3 0.493051 0.626371 0.824060
Si Si4 0.092245 0.993338 0.767344
Si Si5 0.821710 0.928201 0.665783
Si Si6 0.335815 0.951112 0.954451
Si Si7 0.326940 0.316130 0.806644
Si Si8 0.230422 0.423890 0.260814
O O1 0.096499 0.562757 0.292891
O O2 0.954049 0.818954 0.154244
O O3 0.815638 0.616268 0.277409
O O4 0.000000 0.500000 0.000000
O O5 0.399695 0.633455 0.658898
O O6 0.452948 0.355817 0.666855
O O7 0.464705 0.807366 0.899333
O O8 0.630590 0.551167 0.672376
O O9 0.500000 0.500000 0.000000
O O10 0.164975 0.002310 0.548825
O O11 0.204239 0.901000 0.894934
O O12 0.961434 0.926428 0.747312
O O13 0.803298 0.744745 0.664664
O O14 0.700202 0.022542 0.817144
O O15 0.343882 0.121469 0.844777
O O16 0.284430 0.391652 0.027937
#
# Coordination Sequence:
#
# PCOD9031538 Si02
#       8
#     2   1   2   2   2   2   2   2
#     4   9  20  40  73  98 142 178 227 286 347 415
#     4  12  26  46  68 102 144 176 244 284 344 434
#     4  12  28  47  67  99 139 189 236 288 352 422
#     4  10  22  43  67 111 135 178 237 284 362 408
#     4  10  23  41  71 105 137 178 234 295 346 425
#     4  10  24  45  71  95 143 186 229 289 351 416
#     4   9  21  44  69 105 133 185 231 284 353 411
#     4  10  22  45  66  99 140 184 231 284 352 414
#
# _framework density 25.887512999999998
#
# number of rings (size 3 to 8) (size 9 to 14) (size 15 to 20)
#    0.000    1.867    1.333    1.200    5.600    5.333 
#    2.400    0.000    0.000    0.000    0.000    0.000 
#    0.000    0.000    0.000    0.000    0.000    0.000 
#
# Total GULP energy -83549.524882 kJ/mol
# GULP energy per Si atom -5569.968325 kJ/mol
# Density = 2.582859 g / cm^3
# Si number density = 25.887513 Si / 1000 Ang^3
#
#
#
# Elastic Constant Matrix: (Units=GPa)
#
#
# Indices 1 2 3 4 5 6 
#
# 1 116.5942 44.4244 19.7451 0.6446 -21.1860 5.6495
# 2 44.4244 82.8886 53.7596 17.2777 -28.9589 -8.6847
# 3 19.7451 53.7596 172.1346 -4.6441 2.5864 1.4792
# 4 0.6446 17.2777 -4.6441 36.3859 9.9949 -7.8571
# 5 -21.1860 -28.9589 2.5864 9.9949 38.5307 -4.8932
# 6 5.6495 -8.6847 1.4792 -7.8571 -4.8932 48.2621
#
#
#
# Elastic Compliance Matrix: (Units=1/GPa)
#
#
# Indices 1 2 3 4 5 6 
#
# 1 0.011519 -0.009368 0.001785 0.004556 -0.002337 -0.002584
# 2 -0.009368 0.055541 -0.018179 -0.039918 0.049458 0.010164
# 3 0.001785 -0.018179 0.011959 0.014246 -0.017600 -0.003312
# 4 0.004556 -0.039918 0.014246 0.059717 -0.044315 -0.002924
# 5 -0.002337 0.049458 -0.017600 -0.044315 0.075810 0.010185
# 6 -0.002584 0.010164 -0.003312 -0.002924 0.010185 0.023510
#
#
# Mechanical properties :
#
#
# Convention : Reuss Voigt Hill
#
# Bulk Modulus (GPa) = 36.37084 67.49731 51.93407
# Shear Modulus (GPa) = 16.73662 41.54830 29.14246
#
# Velocity S-wave (km/s) = 2.54542 4.01054 3.35884
# Velocity P-wave (km/s) = 4.76644 6.89752 5.92852
#
# Compressibility (1/GPa) = 0.02749455
#
# Stress axis : x y z
#
# Youngs Moduli (GPa) = 86.81018 18.00488 83.61618
#
# Poissons Ratio (x) = 0.16868 -0.14923
# Poissons Ratio (y) = 0.81326 1.52004
# Poissons Ratio (z) = -0.15493 0.32731
#
# Static dielectric constant tensor:
#      x y z
#    x 1.466770 0.070070 -0.201010 
#    y 0.070070 2.070240 0.023960 
#    z -0.201010 0.023960 1.941200 
# 
# From -- ./inp_files/234546.got.cif
#   From: 2010.05.17/outbox.cif.g08.bks.cpg/sg2_118_cif.got.tgz:234546.got - 2010.06.03 11:33:40.
