data_PCOD9031543
_publ_section_title
;
Structure prediction by ZEFSAII (Michael W. Deem and Ramdas Pophale) SiO2 
 PCOD9031543
Probable space group: P -1
;
_chemical_formula_sum "Si O2"
_cell_formula_units_Z 16
_cell_length_a 8.056959
_cell_length_b 23.912127
_cell_length_c 6.440662
_cell_angle_alpha 84.518796
_cell_angle_beta 121.387667
_cell_angle_gamma 132.510406
_cell_volume 713.081129
_symmetry_space_group_name_H-M "P -1"
_symmetry_group_IT_number 2
_symmetry_cell_setting 'triclinic'
loop_
_space_group_symop_operation_xyz
x,y,z
-x,-y,-z
loop_
_atom_site_type_symbol
_atom_site_label
_atom_site_fract_x
_atom_site_fract_y
_atom_site_fract_z
Si Si1 0.665170 0.651458 0.186026
Si Si2 0.214177 0.052304 0.313766
Si Si3 0.164038 0.611532 0.646772
Si Si4 0.249673 0.514765 0.258488
Si Si5 0.643705 0.241720 0.012242
Si Si6 0.013776 0.095134 0.500043
Si Si7 0.969412 0.623212 0.125495
Si Si8 0.787750 0.166311 0.388454
O O1 0.541226 0.606768 0.346898
O O2 0.787053 0.623692 0.156330
O O3 0.917284 0.749367 0.348387
O O4 0.412776 0.624646 0.892871
O O5 0.129102 0.090961 0.366111
O O6 0.533167 0.118220 0.406422
O O7 0.160239 0.989544 0.459066
O O8 0.000000 0.000000 0.000000
O O9 0.239637 0.688357 0.769260
O O10 0.862864 0.523978 0.573001
O O11 0.136424 0.614462 0.383783
O O12 0.228459 0.452255 0.137980
O O13 0.000000 0.500000 0.000000
O O14 0.718394 0.195184 0.149722
O O15 0.302251 0.171951 0.787913
O O16 0.801635 0.292464 0.885443
O O17 0.828092 0.111802 0.353192
#
# Coordination Sequence:
#
# PCOD9031543 Si02
#       8
#     2   2   2   2   2   2   2   2
#     4  11  22  41  66 100 127 178 229 278 341 397
#     4  11  25  49  73 102 140 175 222 278 341 415
#     4  10  22  43  67  89 139 178 218 283 335 390
#     4   9  22  42  62  93 134 176 230 276 336 399
#     4  11  23  44  63 102 136 174 223 280 332 404
#     4  11  25  46  75 100 138 180 219 278 347 406
#     4  11  23  41  65  95 134 179 230 277 336 396
#     4  12  24  46  72 102 141 177 229 282 341 407
#
# _framework density 22.437839
#
# number of rings (size 3 to 8) (size 9 to 14) (size 15 to 20)
#    0.000    1.250    3.750    1.500    0.000    4.000 
#    6.750    0.000    0.000    0.000    0.000    0.000 
#    0.000    0.000    0.000    0.000    0.000    0.000 
#
# Total GULP energy -89579.973918 kJ/mol
# GULP energy per Si atom -5598.748370 kJ/mol
# Density = 2.238677 g / cm^3
# Si number density = 22.437839 Si / 1000 Ang^3
#
#
#
# Elastic Constant Matrix: (Units=GPa)
#
#
# Indices 1 2 3 4 5 6 
#
# 1 96.3934 64.8384 22.5888 -6.4680 -9.8037 -4.3645
# 2 64.8384 145.4416 36.9378 -7.1476 -0.4094 25.0839
# 3 22.5888 36.9378 70.9366 -11.9866 0.6823 8.6068
# 4 -6.4680 -7.1476 -11.9866 36.8378 -6.4750 5.3872
# 5 -9.8037 -0.4094 0.6823 -6.4750 22.8492 -0.4269
# 6 -4.3645 25.0839 8.6068 5.3872 -0.4269 46.0739
#
#
#
# Elastic Compliance Matrix: (Units=1/GPa)
#
#
# Indices 1 2 3 4 5 6 
#
# 1 0.017701 -0.008456 -0.001886 0.001299 0.007990 0.006555
# 2 -0.008456 0.012644 -0.002897 0.000502 -0.003308 -0.007233
# 3 -0.001886 -0.002897 0.017368 0.005120 0.000026 -0.002444
# 4 0.001299 0.000502 0.005120 0.031448 0.009238 -0.004698
# 5 0.007990 -0.003308 0.000026 0.009238 0.049787 0.001934
# 6 0.006555 -0.007233 -0.002444 -0.004698 0.001934 0.027287
#
#
# Mechanical properties :
#
#
# Convention : Reuss Voigt Hill
#
# Bulk Modulus (GPa) = 47.09369 62.38907 54.74138
# Shear Modulus (GPa) = 26.34476 33.71265 30.02870
#
# Velocity S-wave (km/s) = 3.43026 3.88040 3.66226
# Velocity P-wave (km/s) = 6.05995 6.92404 6.50636
#
# Compressibility (1/GPa) = 0.02123427
#
# Stress axis : x y z
#
# Youngs Moduli (GPa) = 56.49467 79.08892 57.57870
#
# Poissons Ratio (x) = 0.66880 0.10859
# Poissons Ratio (y) = 0.47774 0.16680
# Poissons Ratio (z) = 0.10654 0.22911
#
# Static dielectric constant tensor:
#      x y z
#    x 1.833660 -0.012410 0.002730 
#    y -0.012410 1.812180 -0.005280 
#    z 0.002730 -0.005280 1.827690 
# 
# From -- ./inp_files/56409.got.cif
#   From: 2010.05.17/outbox.cif.g08.bks.cpg/sg2_29_cif.got.tgz:56409.got - 2010.06.03 11:33:40.
