data_PCOD9031991
_publ_section_title
;
Structure prediction by ZEFSAII (Michael W. Deem and Ramdas Pophale) SiO2 
 PCOD9031991
Probable space group: P -1
;
_chemical_formula_sum "Si O2"
_cell_formula_units_Z 12
_cell_length_a 15.165365
_cell_length_b 14.863948
_cell_length_c 10.598882
_cell_angle_alpha 44.998880
_cell_angle_beta 138.731697
_cell_angle_gamma 161.176220
_cell_volume 508.361560
_symmetry_space_group_name_H-M "P -1"
_symmetry_group_IT_number 2
_symmetry_cell_setting 'triclinic'
loop_
_space_group_symop_operation_xyz
x,y,z
-x,-y,-z
loop_
_atom_site_type_symbol
_atom_site_label
_atom_site_fract_x
_atom_site_fract_y
_atom_site_fract_z
Si Si1 0.801960 0.123518 0.740626
Si Si2 0.633642 0.122043 0.316179
Si Si3 0.718782 0.298210 0.978106
Si Si4 0.886600 0.089075 0.521001
Si Si5 0.349242 0.508441 0.829180
Si Si6 0.407402 0.542408 0.438868
O O1 0.781616 0.214023 0.518816
O O2 0.130790 0.350161 0.868294
O O3 0.670053 0.072933 0.774691
O O4 0.582308 0.821096 0.766213
O O5 0.654062 0.004348 0.384348
O O6 0.771001 0.329186 0.153453
O O7 0.604791 0.340816 0.775580
O O8 0.000000 0.500000 0.000000
O O9 0.500000 0.000000 0.000000
O O10 0.123123 0.307790 0.668589
O O11 0.092500 0.266965 0.442315
O O12 0.673511 0.788321 0.581148
O O13 0.500000 0.500000 0.000000
O O14 0.500000 0.500000 0.500000
#
# Coordination Sequence:
#
# PCOD9031991 Si02
#       6
#     2   2   2   2   2   2
#     4  10  24  40  70 104 136 182 230 305 345 417
#     4  10  22  43  69 102 139 175 243 288 359 410
#     4  12  24  42  70 102 135 185 242 288 345 426
#     4  11  23  43  71  93 140 187 226 294 359 419
#     4  11  24  44  68 101 141 183 235 280 366 430
#     4  12  25  44  67 105 139 186 237 290 361 421
#
# _framework density 23.605246000000001
#
# number of rings (size 3 to 8) (size 9 to 14) (size 15 to 20)
#    0.000    1.000    3.333    3.000    0.000   10.000 
#    0.000    1.667    0.000    0.000    0.000    0.000 
#    0.000    0.000    0.000    0.000    0.000    0.000 
#
# Total GULP energy -67031.014531 kJ/mol
# GULP energy per Si atom -5585.917878 kJ/mol
# Density = 2.355152 g / cm^3
# Si number density = 23.605246 Si / 1000 Ang^3
#
#
#
# Elastic Constant Matrix: (Units=GPa)
#
#
# Indices 1 2 3 4 5 6 
#
# 1 196.6646 65.6870 59.5509 -17.2969 28.1344 35.9323
# 2 65.6870 166.1095 30.2777 -15.0665 16.3586 11.6128
# 3 59.5509 30.2777 94.8898 -10.3565 23.0303 14.2745
# 4 -17.2969 -15.0665 -10.3565 9.7738 4.4004 -1.2330
# 5 28.1344 16.3586 23.0303 4.4004 42.2619 -5.2598
# 6 35.9323 11.6128 14.2745 -1.2330 -5.2598 53.4104
#
#
#
# Elastic Compliance Matrix: (Units=1/GPa)
#
#
# Indices 1 2 3 4 5 6 
#
# 1 0.009476 -0.000743 -0.000836 0.017623 -0.008195 -0.006390
# 2 -0.000743 0.007984 0.000782 0.013714 -0.004647 -0.001586
# 3 -0.000836 0.000782 0.016834 0.022291 -0.011833 -0.004757
# 4 0.017623 0.013714 0.022291 0.199243 -0.052593 -0.021375
# 5 -0.008195 -0.004647 -0.011833 -0.052593 0.044440 0.012849
# 6 -0.006390 -0.001586 -0.004757 -0.021375 0.012849 0.025410
#
#
# Mechanical properties :
#
#
# Convention : Reuss Voigt Hill
#
# Bulk Modulus (GPa) = 30.58088 85.41055 57.99571
# Shear Modulus (GPa) = 15.82873 41.23243 28.53058
#
# Velocity S-wave (km/s) = 2.59233 4.18395 3.48034
# Velocity P-wave (km/s) = 4.68438 7.72023 6.38535
#
# Compressibility (1/GPa) = 0.03270017
#
# Stress axis : x y z
#
# Youngs Moduli (GPa) = 105.53030 125.25545 59.40302
#
# Poissons Ratio (x) = 0.09300 0.04967
# Poissons Ratio (y) = 0.07836 -0.04645
# Poissons Ratio (z) = 0.08824 -0.09794
#
# Static dielectric constant tensor:
#      x y z
#    x 1.917790 -0.034960 -0.061460 
#    y -0.034960 1.935550 0.060980 
#    z -0.061460 0.060980 1.975060 
# 
# From -- ./inp_files/454551.got.cif
#   From: 2010.05.17/outbox.cif.g08.bks.cpg/sg2_228_cif.got.tgz:454551.got - 2010.06.03 11:33:40.
