data_PCOD9031445
_publ_section_title
;
Structure prediction by ZEFSAII (Michael W. Deem and Ramdas Pophale) SiO2 
 PCOD9031445
Probable space group: P -1
;
_chemical_formula_sum "Si O2"
_cell_formula_units_Z 15
_cell_length_a 11.114282
_cell_length_b 9.184447
_cell_length_c 6.248101
_cell_angle_alpha 78.223644
_cell_angle_beta 84.652252
_cell_angle_gamma 109.262818
_cell_volume 580.456395
_symmetry_space_group_name_H-M "P -1"
_symmetry_group_IT_number 2
_symmetry_cell_setting 'triclinic'
loop_
_space_group_symop_operation_xyz
x,y,z
-x,-y,-z
loop_
_atom_site_type_symbol
_atom_site_label
_atom_site_fract_x
_atom_site_fract_y
_atom_site_fract_z
Si Si1 0.605189 0.088845 0.283710
Si Si2 0.981516 0.659591 0.797912
Si Si3 0.297454 0.407792 0.943334
Si Si4 0.166830 0.979299 0.905951
Si Si5 0.485141 0.714265 0.078710
Si Si6 0.292127 0.624702 0.514310
Si Si7 0.002345 0.878205 0.349859
Si Si8 0.000000 0.500000 0.500000
O O1 0.691573 0.994370 0.207259
O O2 0.698651 0.244252 0.346701
O O3 0.500000 0.000000 0.500000
O O4 0.537084 0.144870 0.086558
O O5 0.987171 0.710350 0.516282
O O6 0.078546 0.811058 0.858293
O O7 0.018671 0.508834 0.772937
O O8 0.840489 0.641543 0.905603
O O9 0.369553 0.282241 0.965646
O O10 0.293104 0.470075 0.686386
O O11 0.393141 0.556359 0.016668
O O12 0.109404 0.111344 0.793032
O O13 0.133013 0.945515 0.171090
O O14 0.420279 0.692620 0.328042
O O15 0.161592 0.585419 0.415826
O O16 0.000000 0.000000 0.500000
#
# Coordination Sequence:
#
# PCOD9031445 Si02
#       8
#     2   2   2   2   2   2   2   1
#     4  11  26  44  69 100 135 182 231 284 342 410
#     4  11  23  38  67  99 135 177 221 285 342 409
#     4  10  23  41  65  97 134 178 224 271 342 411
#     4  10  22  43  66  97 137 174 230 283 343 407
#     4  10  23  44  65  93 137 179 225 278 334 409
#     4  11  24  44  66  99 137 181 225 283 342 414
#     4   9  22  42  64  94 133 177 223 284 339 412
#     4  12  24  40  70 102 140 174 222 286 356 404
#
# _framework density 25.841735
#
# number of rings (size 3 to 8) (size 9 to 14) (size 15 to 20)
#    0.000    1.600    2.667    0.400    5.600    1.067 
#    7.200    0.000    0.000    0.000    0.000    0.000 
#    0.000    0.000    0.000    0.000    0.000    0.000 
#
# Total GULP energy -83901.829288 kJ/mol
# GULP energy per Si atom -5593.455286 kJ/mol
# Density = 2.578292 g / cm^3
# Si number density = 25.841735 Si / 1000 Ang^3
#
#
#
# Elastic Constant Matrix: (Units=GPa)
#
#
# Indices 1 2 3 4 5 6 
#
# 1 148.0914 18.1649 52.0025 -10.0867 -47.1015 -10.2481
# 2 18.1649 110.0956 12.5280 20.1852 -5.8072 3.2560
# 3 52.0025 12.5280 156.1608 2.4245 -45.2589 -5.1456
# 4 -10.0867 20.1852 2.4245 48.9516 0.0999 -1.0736
# 5 -47.1015 -5.8072 -45.2589 0.0999 52.0732 5.0971
# 6 -10.2481 3.2560 -5.1456 -1.0736 5.0971 28.6304
#
#
#
# Elastic Compliance Matrix: (Units=1/GPa)
#
#
# Indices 1 2 3 4 5 6 
#
# 1 0.010192 -0.001760 -0.000901 0.002906 0.008002 0.002371
# 2 -0.001760 0.010294 -0.000405 -0.004629 -0.000597 -0.001941
# 3 -0.000901 -0.000405 0.008681 -0.000461 0.006679 0.000078
# 4 0.002906 -0.004629 -0.000461 0.023001 0.001464 0.002086
# 5 0.008002 -0.000597 0.006679 0.001464 0.032331 -0.001568
# 6 0.002371 -0.001941 0.000078 0.002086 -0.001568 0.036369
#
#
# Mechanical properties :
#
#
# Convention : Reuss Voigt Hill
#
# Bulk Modulus (GPa) = 43.40917 64.41542 53.91230
# Shear Modulus (GPa) = 37.12564 48.04117 42.58341
#
# Velocity S-wave (km/s) = 3.79443 4.31635 4.06378
# Velocity P-wave (km/s) = 6.00263 7.05848 6.55186
#
# Compressibility (1/GPa) = 0.02303661
#
# Stress axis : x y z
#
# Youngs Moduli (GPa) = 98.11786 97.14396 115.18814
#
# Poissons Ratio (x) = 0.17097 0.10373
# Poissons Ratio (y) = 0.17268 0.04664
# Poissons Ratio (z) = 0.08836 0.03933
#
# Static dielectric constant tensor:
#      x y z
#    x 2.155770 -0.281870 0.000260 
#    y -0.281870 2.721810 0.181320 
#    z 0.000260 0.181320 2.202500 
# 
# From -- ./inp_files/66179.got.cif
#   From: 2010.05.17/outbox.cif.g08.bks.cpg/sg2_34_cif.got.tgz:66179.got - 2010.06.03 11:33:40.
