data_PCOD9031763
_publ_section_title
;
Structure prediction by ZEFSAII (Michael W. Deem and Ramdas Pophale) SiO2 
 PCOD9031763
Probable space group: P -1
;
_chemical_formula_sum "Si O2"
_cell_formula_units_Z 14
_cell_length_a 5.515369
_cell_length_b 7.691743
_cell_length_c 14.572065
_cell_angle_alpha 89.140426
_cell_angle_beta 86.894688
_cell_angle_gamma 61.777118
_cell_volume 543.854950
_symmetry_space_group_name_H-M "P -1"
_symmetry_group_IT_number 2
_symmetry_cell_setting 'triclinic'
loop_
_space_group_symop_operation_xyz
x,y,z
-x,-y,-z
loop_
_atom_site_type_symbol
_atom_site_label
_atom_site_fract_x
_atom_site_fract_y
_atom_site_fract_z
Si Si1 0.026150 0.425621 0.895636
Si Si2 0.926601 0.612831 0.371513
Si Si3 0.418946 0.303048 0.437413
Si Si4 0.595531 0.379566 0.158992
Si Si5 0.640989 0.017775 0.089516
Si Si6 0.900383 0.217043 0.337721
Si Si7 0.462393 0.981760 0.290510
O O1 0.264435 0.478747 0.855196
O O2 0.111387 0.196744 0.898213
O O3 0.732769 0.523278 0.848884
O O4 0.000000 0.500000 0.000000
O O5 0.742225 0.682915 0.467004
O O6 0.947593 0.407502 0.338106
O O7 0.248015 0.522568 0.393514
O O8 0.745469 0.783877 0.303299
O O9 0.740309 0.238832 0.435355
O O10 0.441668 0.126866 0.373166
O O11 0.697565 0.270684 0.254828
O O12 0.708359 0.199176 0.084920
O O13 0.455451 0.049234 0.184938
O O14 0.500000 0.000000 0.000000
O O15 0.157861 0.005007 0.313571
#
# Coordination Sequence:
#
# PCOD9031763 Si02
#       7
#     2   2   2   2   2   2   2
#     4  12  28  49  77 109 144 205 260 317 387 457
#     4  10  23  42  72 100 144 186 244 300 384 453
#     4  10  22  43  68 104 139 188 235 313 371 452
#     4  12  27  50  74 109 154 196 255 319 377 460
#     4  12  27  47  76 106 151 200 255 315 387 449
#     4  11  24  41  70  98 147 184 243 305 374 447
#     4  11  24  44  65 103 140 193 245 310 374 454
#
# _framework density 25.742156000000001
#
# number of rings (size 3 to 8) (size 9 to 14) (size 15 to 20)
#    0.000    0.857    2.857    3.000    4.000    5.714 
#    0.000    0.000    0.000    0.000    0.000    0.000 
#    0.000    0.000    0.000    0.000    0.000    0.000 
#
# Total GULP energy -78131.557204 kJ/mol
# GULP energy per Si atom -5580.825515 kJ/mol
# Density = 2.568357 g / cm^3
# Si number density = 25.742156 Si / 1000 Ang^3
#
#
#
# Elastic Constant Matrix: (Units=GPa)
#
#
# Indices 1 2 3 4 5 6 
#
# 1 83.4076 22.7173 1.8351 0.3819 2.7427 -9.8844
# 2 22.7173 139.6304 -1.9674 -3.0793 14.0315 -12.5601
# 3 1.8351 -1.9674 88.6952 8.6970 6.9261 -1.4759
# 4 0.3819 -3.0793 8.6970 39.7676 3.8500 11.3833
# 5 2.7427 14.0315 6.9261 3.8500 38.9652 14.5464
# 6 -9.8844 -12.5601 -1.4759 11.3833 14.5464 29.8467
#
#
#
# Elastic Compliance Matrix: (Units=1/GPa)
#
#
# Indices 1 2 3 4 5 6 
#
# 1 0.013113 -0.001441 0.000127 -0.001611 -0.002315 0.005485
# 2 -0.001441 0.008451 0.000793 -0.000697 -0.005229 0.005932
# 3 0.000127 0.000793 0.011964 -0.003352 -0.003579 0.003990
# 4 -0.001611 -0.000697 -0.003352 0.029480 0.003197 -0.013794
# 5 -0.002315 -0.005229 -0.003579 0.003197 0.036255 -0.022033
# 6 0.005485 0.005932 0.003990 -0.013794 -0.022033 0.054014
#
#
# Mechanical properties :
#
#
# Convention : Reuss Voigt Hill
#
# Bulk Modulus (GPa) = 30.78400 39.65592 35.21996
# Shear Modulus (GPa) = 30.27584 40.99245 35.63415
#
# Velocity S-wave (km/s) = 3.43318 3.99485 3.72462
# Velocity P-wave (km/s) = 5.26310 6.05945 5.67526
#
# Compressibility (1/GPa) = 0.03248441
#
# Stress axis : x y z
#
# Youngs Moduli (GPa) = 76.26277 118.32825 83.58346
#
# Poissons Ratio (x) = 0.17052 -0.01060
# Poissons Ratio (y) = 0.10990 -0.06625
# Poissons Ratio (z) = -0.00967 -0.09379
#
# Static dielectric constant tensor:
#      x y z
#    x 2.547090 -0.064910 0.041320 
#    y -0.064910 2.027800 -0.023790 
#    z 0.041320 -0.023790 2.080510 
# 
# From -- ./inp_files/480535.got.cif
#   From: 2010.05.17/outbox.cif.g08.bks.cpg/sg2_241_cif.got.tgz:480535.got - 2010.06.03 11:33:40.
