data_PCOD9031913
_publ_section_title
;
Structure prediction by ZEFSAII (Michael W. Deem and Ramdas Pophale) SiO2 
 PCOD9031913
Probable space group: P -1
;
_chemical_formula_sum "Si O2"
_cell_formula_units_Z 12
_cell_length_a 11.405438
_cell_length_b 11.697845
_cell_length_c 6.827832
_cell_angle_alpha 107.803355
_cell_angle_beta 83.937237
_cell_angle_gamma 42.407316
_cell_volume 501.016373
_symmetry_space_group_name_H-M "P -1"
_symmetry_group_IT_number 2
_symmetry_cell_setting 'triclinic'
loop_
_space_group_symop_operation_xyz
x,y,z
-x,-y,-z
loop_
_atom_site_type_symbol
_atom_site_label
_atom_site_fract_x
_atom_site_fract_y
_atom_site_fract_z
Si Si1 0.688955 0.774526 0.563486
Si Si2 0.013060 0.338488 0.280151
Si Si3 0.606518 0.353768 0.596254
Si Si4 0.174081 0.953061 0.924796
Si Si5 0.566251 0.608992 0.958863
Si Si6 0.301090 0.231103 0.904408
O O1 0.844514 0.743579 0.606621
O O2 0.688154 0.780350 0.335380
O O3 0.783658 0.566181 0.486916
O O4 0.471244 0.989106 0.799952
O O5 0.095397 0.359189 0.106879
O O6 0.060420 0.170191 0.103880
O O7 0.500000 0.500000 0.500000
O O8 0.739744 0.139539 0.358356
O O9 0.473479 0.403882 0.818301
O O10 0.697330 0.396231 0.714649
O O11 0.354277 0.788692 0.967377
O O12 0.000000 0.000000 0.000000
O O13 0.647407 0.676770 0.991066
#
# Coordination Sequence:
#
# PCOD9031913 Si02
#       6
#     2   2   2   2   2   2
#     4  10  24  40  65 101 133 179 218 273 335 400
#     4  11  24  43  65 100 140 173 223 273 338 398
#     4   9  22  42  66  91 128 173 220 272 328 399
#     4  11  25  42  63  98 137 179 222 276 335 399
#     4  10  22  43  68  99 128 173 234 272 335 405
#     4  11  23  42  71  99 132 177 222 280 338 391
#
# _framework density 23.951312000000001
#
# number of rings (size 3 to 8) (size 9 to 14) (size 15 to 20)
#    0.000    1.667    1.667    1.000    4.667    8.667 
#    0.000    0.000    0.000    0.000    0.000    0.000 
#    0.000    0.000    0.000    0.000    0.000    0.000 
#
# Total GULP energy -67065.455508 kJ/mol
# GULP energy per Si atom -5588.787959 kJ/mol
# Density = 2.389680 g / cm^3
# Si number density = 23.951312 Si / 1000 Ang^3
#
#
#
# Elastic Constant Matrix: (Units=GPa)
#
#
# Indices 1 2 3 4 5 6 
#
# 1 56.5115 22.5978 21.0975 6.6879 19.4020 35.6619
# 2 22.5978 83.2642 42.7617 34.8947 9.6443 16.8342
# 3 21.0975 42.7617 192.0110 3.3367 29.4482 20.7579
# 4 6.6879 34.8947 3.3367 54.5018 13.6405 11.5174
# 5 19.4020 9.6443 29.4482 13.6405 35.2377 13.0721
# 6 35.6619 16.8342 20.7579 11.5174 13.0721 35.8131
#
#
#
# Elastic Compliance Matrix: (Units=1/GPa)
#
#
# Indices 1 2 3 4 5 6 
#
# 1 0.061119 -0.012699 0.004963 0.017209 -0.020244 -0.055914
# 2 -0.012699 0.022682 -0.005542 -0.016417 0.009120 0.007147
# 3 0.004963 -0.005542 0.007586 0.005590 -0.007581 -0.005765
# 4 0.017209 -0.016417 0.005590 0.034236 -0.016338 -0.017707
# 5 -0.020244 0.009120 -0.007581 -0.016338 0.046521 0.008539
# 6 -0.055914 0.007147 -0.005765 -0.017707 0.008539 0.086160
#
#
# Mechanical properties :
#
#
# Convention : Reuss Voigt Hill
#
# Bulk Modulus (GPa) = 15.42506 56.07786 35.75146
# Shear Modulus (GPa) = 16.31486 41.46583 28.89035
#
# Velocity S-wave (km/s) = 2.61275 4.16535 3.47682
# Velocity P-wave (km/s) = 3.94412 6.82624 5.57466
#
# Compressibility (1/GPa) = 0.06482959
#
# Stress axis : x y z
#
# Youngs Moduli (GPa) = 16.36150 44.08877 131.82846
#
# Poissons Ratio (x) = 0.55990 -0.65427
# Poissons Ratio (y) = 0.20778 0.73059
# Poissons Ratio (z) = -0.08120 0.24434
#
# Static dielectric constant tensor:
#      x y z
#    x 1.898500 -0.021960 -0.009100 
#    y -0.021960 2.024380 0.027760 
#    z -0.009100 0.027760 1.922830 
# 
# From -- ./inp_files/67597.got.cif
#   From: 2010.05.17/outbox.cif.g08.bks.cpg/sg2_34_cif.got.tgz:67597.got - 2010.06.03 11:33:40.
