data_PCOD9031799
_publ_section_title
;
Structure prediction by ZEFSAII (Michael W. Deem and Ramdas Pophale) SiO2 
 PCOD9031799
Probable space group: P -1
;
_chemical_formula_sum "Si O2"
_cell_formula_units_Z 13
_cell_length_a 13.231121
_cell_length_b 9.837830
_cell_length_c 7.104704
_cell_angle_alpha 95.584156
_cell_angle_beta 132.523331
_cell_angle_gamma 58.494548
_cell_volume 530.729173
_symmetry_space_group_name_H-M "P -1"
_symmetry_group_IT_number 2
_symmetry_cell_setting 'triclinic'
loop_
_space_group_symop_operation_xyz
x,y,z
-x,-y,-z
loop_
_atom_site_type_symbol
_atom_site_label
_atom_site_fract_x
_atom_site_fract_y
_atom_site_fract_z
Si Si1 0.445092 0.738443 0.687846
Si Si2 0.525940 0.685058 0.224305
Si Si3 0.071898 0.622185 0.403000
Si Si4 0.906947 0.191657 0.830942
Si Si5 0.985657 0.384633 0.238005
Si Si6 0.500000 0.500000 0.500000
Si Si7 0.396645 0.075403 0.684668
O O1 0.301432 0.714791 0.428037
O O2 0.596686 0.580799 0.732578
O O3 0.399614 0.918985 0.595096
O O4 0.455972 0.720377 0.924006
O O5 0.731125 0.521249 0.441686
O O6 0.444635 0.628911 0.256745
O O7 0.515279 0.850184 0.296370
O O8 0.021310 0.800557 0.278631
O O9 0.954229 0.565384 0.182667
O O10 0.076019 0.612961 0.630347
O O11 0.060321 0.700028 0.982473
O O12 0.000000 0.000000 0.000000
O O13 0.198145 0.240458 0.497981
O O14 0.500000 0.000000 0.000000
#
# Coordination Sequence:
#
# PCOD9031799 Si02
#       7
#     2   2   2   2   2   1   2
#     4  11  24  42  64  97 133 167 219 265 321 384
#     4  10  23  43  69  93 129 171 218 271 314 379
#     4  10  23  43  67  95 126 171 221 267 311 390
#     4  12  24  41  63  96 136 170 209 270 321 388
#     4  10  22  43  68  93 127 174 215 261 331 376
#     4  12  24  40  68  98 126 170 214 272 326 370
#     4   9  20  45  66  92 130 170 216 267 315 386
#
# _framework density 24.494600999999999
#
# number of rings (size 3 to 8) (size 9 to 14) (size 15 to 20)
#    0.000    1.538    3.077    0.923    2.154    1.231 
#    5.538    0.000    0.000    0.000    0.000    0.000 
#    0.000    0.000    0.000    0.000    0.000    0.000 
#
# Total GULP energy -72472.999509 kJ/mol
# GULP energy per Si atom -5574.846116 kJ/mol
# Density = 2.443885 g / cm^3
# Si number density = 24.494601 Si / 1000 Ang^3
#
#
#
# Elastic Constant Matrix: (Units=GPa)
#
#
# Indices 1 2 3 4 5 6 
#
# 1 76.3565 32.9386 31.1390 -5.2998 -24.1288 23.6003
# 2 32.9386 127.0087 22.0811 -9.0118 -22.3080 45.2081
# 3 31.1390 22.0811 90.7512 8.2843 -8.3030 15.8540
# 4 -5.2998 -9.0118 8.2843 46.2196 6.0262 -4.2414
# 5 -24.1288 -22.3080 -8.3030 6.0262 45.3414 -4.3890
# 6 23.6003 45.2081 15.8540 -4.2414 -4.3890 32.3957
#
#
#
# Elastic Compliance Matrix: (Units=1/GPa)
#
#
# Indices 1 2 3 4 5 6 
#
# 1 0.022218 0.002735 -0.004583 0.001032 0.010626 -0.016185
# 2 0.002735 0.017581 -0.000132 0.000450 0.007565 -0.025379
# 3 -0.004583 -0.000132 0.013550 -0.003314 0.000076 -0.003532
# 4 0.001032 0.000450 -0.003314 0.023044 -0.002618 0.002905
# 5 0.010626 0.007565 0.000076 -0.002618 0.030384 -0.014562
# 6 -0.016185 -0.025379 -0.003532 0.002905 -0.014562 0.078211
#
#
# Mechanical properties :
#
#
# Convention : Reuss Voigt Hill
#
# Bulk Modulus (GPa) = 20.24711 51.82600 36.03655
# Shear Modulus (GPa) = 24.34149 38.65520 31.49835
#
# Velocity S-wave (km/s) = 3.15580 3.97685 3.58988
# Velocity P-wave (km/s) = 4.64356 6.50317 5.65039
#
# Compressibility (1/GPa) = 0.04938977
#
# Stress axis : x y z
#
# Youngs Moduli (GPa) = 45.00947 56.87938 73.79840
#
# Poissons Ratio (x) = -0.15559 0.33825
# Poissons Ratio (y) = -0.12312 0.00972
# Poissons Ratio (z) = 0.20630 0.00749
#
# Static dielectric constant tensor:
#      x y z
#    x 1.194390 0.697640 0.121400 
#    y 0.697640 1.412160 -0.013010 
#    z 0.121400 -0.013010 2.038190 
# 
# From -- ./inp_files/59495.got.cif
#   From: 2010.05.17/outbox.cif.g08.bks.cpg/sg2_30_cif.got.tgz:59495.got - 2010.06.03 11:33:40.
