data_PCOD9031834
_publ_section_title
;
Structure prediction by ZEFSAII (Michael W. Deem and Ramdas Pophale) SiO2 
 PCOD9031834
Probable space group: P -1
;
_chemical_formula_sum "Si O2"
_cell_formula_units_Z 14
_cell_length_a 6.875588
_cell_length_b 14.834143
_cell_length_c 8.445916
_cell_angle_alpha 117.032245
_cell_angle_beta 125.180493
_cell_angle_gamma 57.832614
_cell_volume 582.253131
_symmetry_space_group_name_H-M "P -1"
_symmetry_group_IT_number 2
_symmetry_cell_setting 'triclinic'
loop_
_space_group_symop_operation_xyz
x,y,z
-x,-y,-z
loop_
_atom_site_type_symbol
_atom_site_label
_atom_site_fract_x
_atom_site_fract_y
_atom_site_fract_z
Si Si1 0.473799 0.619871 0.132810
Si Si2 0.672033 0.868645 0.590741
Si Si3 0.145590 0.924135 0.865119
Si Si4 0.216781 0.041103 0.698269
Si Si5 0.314320 0.478164 0.519671
Si Si6 0.994324 0.659897 0.759514
Si Si7 0.387737 0.216570 0.830756
O O1 0.541181 0.606862 0.339305
O O2 0.659417 0.660658 0.144888
O O3 0.500000 0.500000 0.000000
O O4 0.183452 0.685874 0.991122
O O5 0.474117 0.972523 0.667987
O O6 0.537676 0.837090 0.352895
O O7 0.927148 0.885231 0.661956
O O8 0.780498 0.770486 0.686781
O O9 0.238083 0.996914 0.850441
O O10 0.383201 0.825081 0.968800
O O11 0.000000 0.000000 0.000000
O O12 0.185171 0.166809 0.762972
O O13 0.000000 0.000000 0.500000
O O14 0.500000 0.500000 0.500000
O O15 0.151716 0.590570 0.625502
O O16 0.135671 0.422967 0.306801
#
# Coordination Sequence:
#
# PCOD9031834 Si02
#       7
#     2   2   2   2   2   2   2
#     4  10  22  43  69  97 134 177 227 284 342 401
#     4  12  24  44  69 101 142 180 230 284 347 417
#     4  12  25  45  69 100 138 179 229 286 344 416
#     4  12  26  45  70 103 140 184 233 282 351 421
#     4  10  22  43  69  97 133 177 230 280 346 407
#     4  10  22  43  68  95 135 178 222 288 341 403
#     4  12  23  44  70  98 138 185 227 288 347 407
#
# _framework density 24.044526000000001
#
# number of rings (size 3 to 8) (size 9 to 14) (size 15 to 20)
#    0.000    0.857    5.714    1.714    0.000    1.714 
#    0.000    1.429    0.000    0.000    0.000    0.000 
#    0.000    0.000    0.000    0.000    0.000    0.000 
#
# Total GULP energy -78231.121671 kJ/mol
# GULP energy per Si atom -5587.937262 kJ/mol
# Density = 2.398980 g / cm^3
# Si number density = 24.044526 Si / 1000 Ang^3
#
#
#
# Elastic Constant Matrix: (Units=GPa)
#
#
# Indices 1 2 3 4 5 6 
#
# 1 103.1355 32.4639 18.8070 2.1199 21.0611 40.2768
# 2 32.4639 120.6589 14.4625 -7.8598 5.8285 39.3610
# 3 18.8070 14.4625 84.9096 -14.7758 27.0670 12.2933
# 4 2.1199 -7.8598 -14.7758 37.0443 8.0997 4.9132
# 5 21.0611 5.8285 27.0670 8.0997 36.0398 2.4553
# 6 40.2768 39.3610 12.2933 4.9132 2.4553 46.4169
#
#
#
# Elastic Compliance Matrix: (Units=1/GPa)
#
#
# Indices 1 2 3 4 5 6 
#
# 1 0.018361 0.001660 0.003912 0.006377 -0.014123 -0.018304
# 2 0.001660 0.012465 0.002074 0.006199 -0.005054 -0.012948
# 3 0.003912 0.002074 0.021687 0.015078 -0.021524 -0.011354
# 4 0.006377 0.006199 0.015078 0.041624 -0.024188 -0.017911
# 5 -0.014123 -0.005054 -0.021524 -0.024188 0.056935 0.021790
# 6 -0.018304 -0.012948 -0.011354 -0.017911 0.021790 0.052156
#
#
# Mechanical properties :
#
#
# Convention : Reuss Voigt Hill
#
# Bulk Modulus (GPa) = 14.74845 48.90786 31.82815
# Shear Modulus (GPa) = 23.74885 40.09826 31.92355
#
# Velocity S-wave (km/s) = 3.14618 4.08814 3.64769
# Velocity P-wave (km/s) = 4.39830 6.53211 5.56838
#
# Compressibility (1/GPa) = 0.06780375
#
# Stress axis : x y z
#
# Youngs Moduli (GPa) = 54.46293 80.22764 46.11133
#
# Poissons Ratio (x) = -0.13314 -0.18040
# Poissons Ratio (y) = -0.09038 -0.09563
# Poissons Ratio (z) = -0.21307 -0.16639
#
# Static dielectric constant tensor:
#      x y z
#    x 1.925910 0.006320 0.066550 
#    y 0.006320 2.018290 -0.024810 
#    z 0.066550 -0.024810 2.039690 
# 
# From -- ./inp_files/39587.got.cif
#   From: 2010.05.17/outbox.cif.g08.bks.cpg/sg2_20_cif.got.tgz:39587.got - 2010.06.03 11:33:40.
