data_PCOD9031088
_publ_section_title
;
Structure prediction by ZEFSAII (Michael W. Deem and Ramdas Pophale) SiO2 
 PCOD9031088
Probable space group: P -1
;
_chemical_formula_sum "Si O2"
_cell_formula_units_Z 12
_cell_length_a 18.167339
_cell_length_b 6.580376
_cell_length_c 17.363807
_cell_angle_alpha 50.673867
_cell_angle_beta 23.569134
_cell_angle_gamma 64.376259
_cell_volume 563.332492
_symmetry_space_group_name_H-M "P -1"
_symmetry_group_IT_number 2
_symmetry_cell_setting 'triclinic'
loop_
_space_group_symop_operation_xyz
x,y,z
-x,-y,-z
loop_
_atom_site_type_symbol
_atom_site_label
_atom_site_fract_x
_atom_site_fract_y
_atom_site_fract_z
Si Si1 0.894543 0.714551 0.543735
Si Si2 0.131806 0.340043 0.581532
Si Si3 0.939834 0.324961 0.179026
Si Si4 0.754929 0.625548 0.003375
Si Si5 0.405333 0.753807 0.355986
Si Si6 0.713598 0.401007 0.935614
O O1 0.000000 0.500000 0.500000
O O2 0.761891 0.606103 0.618144
O O3 0.783965 0.671253 0.742351
O O4 0.069305 0.053261 0.276482
O O5 0.261270 0.584147 0.462314
O O6 0.914115 0.349092 0.774642
O O7 0.087902 0.008243 0.726332
O O8 0.733250 0.304901 0.421131
O O9 0.118560 0.478883 0.036574
O O10 0.000000 0.500000 0.000000
O O11 0.645869 0.442008 0.075570
O O12 0.582442 0.652931 0.213224
O O13 0.536079 0.109497 0.134364
#
# Coordination Sequence:
#
# PCOD9031088 Si02
#       6
#     2   2   2   2   2   2
#     4   9  18  39  66  93 136 175 205 261 311 369
#     4  10  22  43  64  96 134 166 216 265 308 382
#     4  11  25  46  69  94 125 168 217 274 328 377
#     4  11  22  43  66  95 135 167 214 269 310 384
#     4  12  23  42  70  92 132 170 214 261 329 376
#     4  11  21  42  67  96 137 172 208 262 317 379
#
# _framework density 21.301805999999999
#
# number of rings (size 3 to 8) (size 9 to 14) (size 15 to 20)
#    0.000    1.333    6.667    1.500    0.000    2.000 
#    0.000    5.833    0.000    0.000    0.000    0.000 
#    0.000    0.000    0.000    0.000    0.000    0.000 
#
# Total GULP energy -67000.123157 kJ/mol
# GULP energy per Si atom -5583.343596 kJ/mol
# Density = 2.125332 g / cm^3
# Si number density = 21.301806 Si / 1000 Ang^3
#
#
#
# Elastic Constant Matrix: (Units=GPa)
#
#
# Indices 1 2 3 4 5 6 
#
# 1 127.4976 31.7324 53.9650 -27.6132 12.9089 16.0385
# 2 31.7324 55.2835 37.2228 1.5336 12.8683 -6.0893
# 3 53.9650 37.2228 121.5556 10.7604 16.8101 -19.7626
# 4 -27.6132 1.5336 10.7604 34.1647 -3.3204 2.3961
# 5 12.9089 12.8683 16.8101 -3.3204 28.8901 -13.1121
# 6 16.0385 -6.0893 -19.7626 2.3961 -13.1121 34.3630
#
#
#
# Elastic Compliance Matrix: (Units=1/GPa)
#
#
# Indices 1 2 3 4 5 6 
#
# 1 0.026336 -0.006390 -0.015378 0.027448 -0.009427 -0.027779
# 2 -0.006390 0.025762 -0.003056 -0.006198 -0.005721 0.004039
# 3 -0.015378 -0.003056 0.020731 -0.019971 0.003543 0.021303
# 4 0.027448 -0.006198 -0.019971 0.059718 -0.005365 -0.031606
# 5 -0.009427 -0.005721 0.003543 -0.005365 0.049984 0.024871
# 6 -0.027779 0.004039 0.021303 -0.031606 0.024871 0.066728
#
#
# Mechanical properties :
#
#
# Convention : Reuss Voigt Hill
#
# Bulk Modulus (GPa) = 43.13561 61.13079 52.13320
# Shear Modulus (GPa) = 16.30617 31.57801 23.94209
#
# Velocity S-wave (km/s) = 2.76974 3.85438 3.35617
# Velocity P-wave (km/s) = 5.52470 6.96908 6.28850
#
# Compressibility (1/GPa) = 0.02318270
#
# Stress axis : x y z
#
# Youngs Moduli (GPa) = 37.97078 38.81668 48.23759
#
# Poissons Ratio (x) = 0.24802 0.74179
# Poissons Ratio (y) = 0.24262 0.14740
# Poissons Ratio (z) = 0.58391 0.11861
#
# Static dielectric constant tensor:
#      x y z
#    x 1.794680 0.025640 -0.022130 
#    y 0.025640 1.812830 0.068920 
#    z -0.022130 0.068920 1.800260 
# 
# From -- ./inp_files/329765.got.cif
#   From: 2010.05.17/outbox.cif.g08.bks.cpg/sg2_165_cif.got.tgz:329765.got - 2010.06.03 11:33:40.
