data_PCOD9031359
_publ_section_title
;
Structure prediction by ZEFSAII (Michael W. Deem and Ramdas Pophale) SiO2 
 PCOD9031359
Probable space group: P -1
;
_chemical_formula_sum "Si O2"
_cell_formula_units_Z 16
_cell_length_a 8.791046
_cell_length_b 15.035760
_cell_length_c 11.946410
_cell_angle_alpha 93.968226
_cell_angle_beta 147.880645
_cell_angle_gamma 97.495415
_cell_volume 782.546862
_symmetry_space_group_name_H-M "P -1"
_symmetry_group_IT_number 2
_symmetry_cell_setting 'triclinic'
loop_
_space_group_symop_operation_xyz
x,y,z
-x,-y,-z
loop_
_atom_site_type_symbol
_atom_site_label
_atom_site_fract_x
_atom_site_fract_y
_atom_site_fract_z
Si Si1 0.138978 0.906197 0.021168
Si Si2 0.869766 0.554680 0.241186
Si Si3 0.739021 0.282906 0.935241
Si Si4 0.809822 0.412778 0.795488
Si Si5 0.891211 0.607334 0.623235
Si Si6 0.135038 0.967673 0.262228
Si Si7 0.953019 0.734650 0.465622
Si Si8 0.826953 0.057547 0.466598
O O1 0.018032 0.902062 0.073442
O O2 0.474850 0.987548 0.242190
O O3 0.167750 0.807811 0.997965
O O4 0.947140 0.940312 0.814289
O O5 0.945790 0.651257 0.367783
O O6 0.021761 0.581102 0.215982
O O7 0.028890 0.481974 0.380441
O O8 0.500000 0.500000 0.000000
O O9 0.934116 0.363894 0.148635
O O10 0.791457 0.318550 0.843847
O O11 0.386953 0.261833 0.740692
O O12 0.466221 0.414371 0.577932
O O13 0.000000 0.500000 0.000000
O O14 0.010063 0.695105 0.617984
O O15 0.032510 0.927330 0.318402
O O16 0.500000 0.000000 0.500000
O O17 0.154802 0.841568 0.565272
O O18 0.000000 0.000000 0.500000
#
# Coordination Sequence:
#
# PCOD9031359 Si02
#       8
#     2   2   2   2   2   2   2   2
#     4  10  22  43  66  92 129 177 217 268 328 384
#     4  12  23  46  69  95 136 170 212 283 327 388
#     4  11  23  42  68  94 131 176 218 265 328 401
#     4  11  24  44  69  99 131 171 224 266 330 399
#     4  11  24  45  67  95 136 177 218 266 335 396
#     4   9  22  42  62  88 125 170 223 269 320 375
#     4  11  25  42  64 100 130 172 222 266 336 389
#     4  11  23  41  65  95 135 167 215 276 325 387
#
# _framework density 20.446058000000001
#
# number of rings (size 3 to 8) (size 9 to 14) (size 15 to 20)
#    0.000    1.250    3.750    1.500    3.500    2.500 
#    4.500    0.000    0.000    0.000    0.000    0.000 
#    0.000    0.000    0.000    0.000    0.000    0.000 
#
# Total GULP energy -89355.569565 kJ/mol
# GULP energy per Si atom -5584.723098 kJ/mol
# Density = 2.039952 g / cm^3
# Si number density = 20.446058 Si / 1000 Ang^3
#
#
#
# Elastic Constant Matrix: (Units=GPa)
#
#
# Indices 1 2 3 4 5 6 
#
# 1 121.2889 45.5767 8.6055 -10.9393 -5.4024 7.8759
# 2 45.5767 124.7942 3.5768 -16.9908 2.0748 -15.8321
# 3 8.6055 3.5768 32.5089 -16.8194 5.7117 7.3170
# 4 -10.9393 -16.9908 -16.8194 37.7047 -0.8388 2.7080
# 5 -5.4024 2.0748 5.7117 -0.8388 22.2555 -5.7708
# 6 7.8759 -15.8321 7.3170 2.7080 -5.7708 29.6595
#
#
#
# Elastic Compliance Matrix: (Units=1/GPa)
#
#
# Indices 1 2 3 4 5 6 
#
# 1 0.010379 -0.004220 -0.001174 0.000948 0.002110 -0.004395
# 2 -0.004220 0.010823 0.000207 0.003272 -0.000279 0.006494
# 3 -0.001174 0.000207 0.049579 0.022729 -0.016610 -0.017116
# 4 0.000948 0.003272 0.022729 0.038905 -0.006771 -0.008982
# 5 0.002110 -0.000279 -0.016610 -0.006771 0.053202 0.014358
# 6 -0.004395 0.006494 -0.017116 -0.008982 0.014358 0.046185
#
#
# Mechanical properties :
#
#
# Convention : Reuss Voigt Hill
#
# Bulk Modulus (GPa) = 16.55479 43.78997 30.17238
# Shear Modulus (GPa) = 20.86969 32.64614 26.75791
#
# Velocity S-wave (km/s) = 3.19834 4.00020 3.62153
# Velocity P-wave (km/s) = 4.66407 6.54212 5.68123
#
# Compressibility (1/GPa) = 0.06040547
#
# Stress axis : x y z
#
# Youngs Moduli (GPa) = 96.34913 92.39916 20.16998
#
# Poissons Ratio (x) = 0.38997 0.02368
# Poissons Ratio (y) = 0.40664 -0.00417
# Poissons Ratio (z) = 0.11310 -0.01913
#
# Static dielectric constant tensor:
#      x y z
#    x 1.856810 0.009140 -0.003580 
#    y 0.009140 1.749330 -0.002880 
#    z -0.003580 -0.002880 1.706700 
# 
# From -- ./inp_files/37897.got.cif
#   From: 2010.05.17/outbox.cif.g08.bks.cpg/sg2_19_cif.got.tgz:37897.got - 2010.06.03 11:33:40.
