data_PCOD9031326
_publ_section_title
;
Structure prediction by ZEFSAII (Michael W. Deem and Ramdas Pophale) SiO2 
 PCOD9031326
Probable space group: P -1
;
_chemical_formula_sum "Si O2"
_cell_formula_units_Z 12
_cell_length_a 11.623924
_cell_length_b 6.559858
_cell_length_c 8.721505
_cell_angle_alpha 101.324741
_cell_angle_beta 104.126783
_cell_angle_gamma 111.699715
_cell_volume 568.088982
_symmetry_space_group_name_H-M "P -1"
_symmetry_group_IT_number 2
_symmetry_cell_setting 'triclinic'
loop_
_space_group_symop_operation_xyz
x,y,z
-x,-y,-z
loop_
_atom_site_type_symbol
_atom_site_label
_atom_site_fract_x
_atom_site_fract_y
_atom_site_fract_z
Si Si1 0.100145 0.892028 0.558098
Si Si2 0.388098 0.171251 0.590002
Si Si3 0.810345 0.512942 0.949586
Si Si4 0.426557 0.382109 0.113942
Si Si5 0.587464 0.996853 0.748136
Si Si6 0.007901 0.551001 0.756001
O O1 0.077484 0.678831 0.404537
O O2 0.070570 0.770328 0.696466
O O3 0.247339 0.089863 0.611392
O O4 0.000000 0.000000 0.500000
O O5 0.489692 0.431795 0.701643
O O6 0.373942 0.125319 0.397376
O O7 0.455607 0.015438 0.657797
O O8 0.723612 0.653792 0.948102
O O9 0.917159 0.590891 0.860116
O O10 0.702548 0.252442 0.841308
O O11 0.883781 0.503051 0.127134
O O12 0.430734 0.145978 0.124617
O O13 0.500000 0.500000 0.000000
#
# Coordination Sequence:
#
# PCOD9031326 Si02
#       6
#     2   2   2   2   2   2
#     4  11  25  40  67  93 123 164 207 250 305 365
#     4  10  23  42  63  92 122 162 205 253 312 359
#     4  10  23  43  64  91 125 164 204 249 315 358
#     4  11  26  38  66  96 120 161 208 258 306 364
#     4  10  22  43  66  87 124 162 204 258 308 363
#     4  10  24  43  63  91 128 163 203 255 298 372
#
# _framework density 21.123449000000001
#
# number of rings (size 3 to 8) (size 9 to 14) (size 15 to 20)
#    0.000    1.667    1.667    0.500    9.333    2.667 
#    0.000    3.333    0.000    0.000    0.000    0.000 
#    0.000    0.000    0.000    0.000    0.000    0.000 
#
# Total GULP energy -67110.609699 kJ/mol
# GULP energy per Si atom -5592.550808 kJ/mol
# Density = 2.107537 g / cm^3
# Si number density = 21.123449 Si / 1000 Ang^3
#
#
#
# Elastic Constant Matrix: (Units=GPa)
#
#
# Indices 1 2 3 4 5 6 
#
# 1 108.4231 25.0655 12.2827 -24.6644 21.1203 9.9535
# 2 25.0655 55.9162 12.7760 -29.3229 0.9861 4.4912
# 3 12.2827 12.7760 69.6364 -20.9775 4.9673 8.1897
# 4 -24.6644 -29.3229 -20.9775 35.5451 1.9574 -4.2058
# 5 21.1203 0.9861 4.9673 1.9574 25.7219 5.0660
# 6 9.9535 4.4912 8.1897 -4.2058 5.0660 18.8454
#
#
#
# Elastic Compliance Matrix: (Units=1/GPa)
#
#
# Indices 1 2 3 4 5 6 
#
# 1 0.014301 -0.000727 0.002092 0.010949 -0.012461 -0.002496
# 2 -0.000727 0.032358 0.003014 0.027949 -0.003041 -0.001583
# 3 0.002092 0.003014 0.018906 0.014782 -0.005577 -0.005241
# 4 0.010949 0.027949 0.014782 0.068693 -0.018423 0.001415
# 5 -0.012461 -0.003041 -0.005577 -0.018423 0.053427 -0.008744
# 6 -0.002496 -0.001583 -0.005241 0.001415 -0.008744 0.059703
#
#
# Mechanical properties :
#
#
# Convention : Reuss Voigt Hill
#
# Bulk Modulus (GPa) = 13.45474 37.13598 25.29536
# Shear Modulus (GPa) = 18.98224 28.27925 23.63075
#
# Velocity S-wave (km/s) = 3.00097 3.66288 3.34832
# Velocity P-wave (km/s) = 4.28850 5.95882 5.19128
#
# Compressibility (1/GPa) = 0.07432325
#
# Stress axis : x y z
#
# Youngs Moduli (GPa) = 69.92352 30.90401 52.89439
#
# Poissons Ratio (x) = 0.02245 -0.11064
# Poissons Ratio (y) = 0.05080 -0.15942
# Poissons Ratio (z) = -0.14625 -0.09314
#
# Static dielectric constant tensor:
#      x y z
#    x 1.749970 -0.021020 -0.022810 
#    y -0.021020 1.721740 0.017220 
#    z -0.022810 0.017220 1.786080 
# 
# From -- ./inp_files/20921.got.cif
#   From: 2010.05.17/outbox.cif.g08.bks.cpg/sg2_11_cif.got.tgz:20921.got - 2010.06.03 11:33:40.
