data_PCOD9031571
_publ_section_title
;
Structure prediction by ZEFSAII (Michael W. Deem and Ramdas Pophale) SiO2 
 PCOD9031571
Probable space group: P -1
;
_chemical_formula_sum "Si O2"
_cell_formula_units_Z 16
_cell_length_a 8.972996
_cell_length_b 13.791801
_cell_length_c 18.405571
_cell_angle_alpha 143.974095
_cell_angle_beta 130.904298
_cell_angle_gamma 75.762908
_cell_volume 779.634160
_symmetry_space_group_name_H-M "P -1"
_symmetry_group_IT_number 2
_symmetry_cell_setting 'triclinic'
loop_
_space_group_symop_operation_xyz
x,y,z
-x,-y,-z
loop_
_atom_site_type_symbol
_atom_site_label
_atom_site_fract_x
_atom_site_fract_y
_atom_site_fract_z
Si Si1 0.064923 0.347708 0.448187
Si Si2 0.186535 0.521287 0.240949
Si Si3 0.298957 0.909670 0.101846
Si Si4 0.644687 0.688460 0.600589
Si Si5 0.644429 0.663358 0.213290
Si Si6 0.446616 0.050889 0.934725
Si Si7 0.760059 0.090463 0.468084
Si Si8 0.444462 0.432522 0.161689
O O1 0.132762 0.287023 0.358410
O O2 0.301324 0.433509 0.626922
O O3 0.000000 0.500000 0.500000
O O4 0.817338 0.169183 0.306767
O O5 0.417915 0.604487 0.420295
O O6 0.213723 0.731796 0.366420
O O7 0.237918 0.441739 0.137668
O O8 0.924411 0.317571 0.070302
O O9 0.338014 0.873219 0.009396
O O10 0.253571 0.082571 0.197451
O O11 0.563584 0.020722 0.297382
O O12 0.500000 0.500000 0.500000
O O13 0.508449 0.523709 0.156878
O O14 0.946468 0.781436 0.384243
O O15 0.648690 0.864486 0.331196
O O16 0.500000 0.500000 0.000000
O O17 0.377111 0.205186 0.007735
O O18 0.500000 0.000000 0.000000
#
# Coordination Sequence:
#
# PCOD9031571 Si02
#       8
#     2   2   2   2   2   2   2   2
#     4  11  22  41  60  87 128 163 212 260 307 368
#     4  10  23  41  63  90 128 167 212 259 318 379
#     4  11  23  42  63  89 130 167 211 263 315 380
#     4  10  23  37  60  88 122 173 213 260 315 370
#     4  11  23  42  70  97 126 160 210 262 317 381
#     4  12  24  36  61  91 122 168 212 256 312 367
#     4  10  22  43  67  94 121 164 209 255 325 376
#     4  11  24  42  63  94 127 165 211 261 314 375
#
# _framework density 20.522445999999999
#
# number of rings (size 3 to 8) (size 9 to 14) (size 15 to 20)
#    0.000    1.250    1.250    4.500    3.500    4.000 
#    0.000    2.500    0.000    0.000    0.000    0.000 
#    0.000    0.000    0.000    0.000    0.000    0.000 
#
# Total GULP energy -89302.369331 kJ/mol
# GULP energy per Si atom -5581.398083 kJ/mol
# Density = 2.047574 g / cm^3
# Si number density = 20.522446 Si / 1000 Ang^3
#
#
#
# Elastic Constant Matrix: (Units=GPa)
#
#
# Indices 1 2 3 4 5 6 
#
# 1 120.5511 72.2972 31.8217 15.3757 -12.6445 -3.1631
# 2 72.2972 116.3103 34.5356 30.0584 -14.5905 1.8159
# 3 31.8217 34.5356 94.4640 20.8856 -0.3619 -0.6708
# 4 15.3757 30.0584 20.8856 39.6582 -10.3663 -3.0541
# 5 -12.6445 -14.5905 -0.3619 -10.3663 35.8930 8.1655
# 6 -3.1631 1.8159 -0.6708 -3.0541 8.1655 32.6319
#
#
#
# Elastic Compliance Matrix: (Units=1/GPa)
#
#
# Indices 1 2 3 4 5 6 
#
# 1 0.013821 -0.008464 -0.002163 0.002802 0.001860 0.001563
# 2 -0.008464 0.016757 -0.001444 -0.008346 0.002108 -0.003091
# 3 -0.002163 -0.001444 0.013095 -0.005707 -0.002943 0.000342
# 4 0.002802 -0.008346 -0.005707 0.035536 0.007320 0.002113
# 5 0.001860 0.002108 -0.002943 0.007320 0.033190 -0.007618
# 6 0.001563 -0.003091 0.000342 0.002113 -0.007618 0.033079
#
#
# Mechanical properties :
#
#
# Convention : Reuss Voigt Hill
#
# Bulk Modulus (GPa) = 51.19719 67.62604 59.41161
# Shear Modulus (GPa) = 28.38805 34.48135 31.43470
#
# Velocity S-wave (km/s) = 3.72327 4.10344 3.91797
# Velocity P-wave (km/s) = 6.59429 7.44814 7.03418
#
# Compressibility (1/GPa) = 0.01953232
#
# Stress axis : x y z
#
# Youngs Moduli (GPa) = 72.35427 59.67630 76.36345
#
# Poissons Ratio (x) = 0.50510 0.16516
# Poissons Ratio (y) = 0.61241 0.11025
# Poissons Ratio (z) = 0.15648 0.08616
#
# Static dielectric constant tensor:
#      x y z
#    x 1.748790 -0.029260 -0.034050 
#    y -0.029260 1.727050 -0.017090 
#    z -0.034050 -0.017090 1.741000 
# 
# From -- ./inp_files/90830.got.cif
#   From: 2010.05.17/outbox.cif.g08.bks.cpg/sg2_46_cif.got.tgz:90830.got - 2010.06.03 11:33:40.
