data_PCOD9031124
_publ_section_title
;
Structure prediction by ZEFSAII (Michael W. Deem and Ramdas Pophale) SiO2 
 PCOD9031124
Probable space group: P -1
;
_chemical_formula_sum "Si O2"
_cell_formula_units_Z 14
_cell_length_a 11.712971
_cell_length_b 5.946079
_cell_length_c 19.903518
_cell_angle_alpha 110.052828
_cell_angle_beta 149.198368
_cell_angle_gamma 58.864351
_cell_volume 591.144483
_symmetry_space_group_name_H-M "P -1"
_symmetry_group_IT_number 2
_symmetry_cell_setting 'triclinic'
loop_
_space_group_symop_operation_xyz
x,y,z
-x,-y,-z
loop_
_atom_site_type_symbol
_atom_site_label
_atom_site_fract_x
_atom_site_fract_y
_atom_site_fract_z
Si Si1 0.879100 0.418882 0.491077
Si Si2 0.297049 0.926122 0.857526
Si Si3 0.170540 0.503364 0.294888
Si Si4 0.509090 0.301133 0.576730
Si Si5 0.655788 0.068167 0.271229
Si Si6 0.890261 0.833901 0.976252
Si Si7 0.038458 0.857529 0.832867
O O1 0.672356 0.672107 0.451863
O O2 0.737772 0.255055 0.375377
O O3 0.000000 0.500000 0.500000
O O4 0.105216 0.227286 0.634227
O O5 0.030572 0.197946 0.752938
O O6 0.373712 0.833196 0.810862
O O7 0.239470 0.743234 0.862730
O O8 0.500000 0.000000 0.000000
O O9 0.347764 0.376293 0.435799
O O10 0.366055 0.496003 0.336979
O O11 0.997261 0.371912 0.169801
O O12 0.760602 0.024724 0.678438
O O13 0.407725 0.062316 0.173126
O O14 0.000000 0.500000 0.000000
O O15 0.914658 0.944831 0.073759
O O16 0.000000 0.000000 0.000000
#
# Coordination Sequence:
#
# PCOD9031124 Si02
#       7
#     2   2   2   2   2   2   2
#     4  11  26  44  72 101 141 192 247 311 372 445
#     4  11  23  45  65 101 141 178 242 293 374 435
#     4  10  23  42  68  97 140 184 233 306 362 444
#     4  10  22  43  65 100 140 179 246 295 373 431
#     4  11  26  47  70 104 143 194 245 314 372 445
#     4  12  30  51  77 109 151 199 252 308 376 455
#     4  11  25  41  73 102 136 193 236 304 371 444
#
# _framework density 23.682872
#
# number of rings (size 3 to 8) (size 9 to 14) (size 15 to 20)
#    0.000    1.143    2.857    1.286   12.000    1.714 
#    0.000    0.000    0.000    0.000    0.000    0.000 
#    0.000    0.000    0.000    0.000    0.000    0.000 
#
# Total GULP energy -78102.353132 kJ/mol
# GULP energy per Si atom -5578.739509 kJ/mol
# Density = 2.362897 g / cm^3
# Si number density = 23.682872 Si / 1000 Ang^3
#
#
#
# Elastic Constant Matrix: (Units=GPa)
#
#
# Indices 1 2 3 4 5 6 
#
# 1 160.7540 19.5802 34.6570 12.0463 32.9999 18.9975
# 2 19.5802 56.8083 15.4030 21.6345 16.0416 17.4513
# 3 34.6570 15.4030 115.9992 3.8590 24.4751 9.2256
# 4 12.0463 21.6345 3.8590 26.7787 11.9534 10.6712
# 5 32.9999 16.0416 24.4751 11.9534 39.6482 6.1671
# 6 18.9975 17.4513 9.2256 10.6712 6.1671 22.9666
#
#
#
# Elastic Compliance Matrix: (Units=1/GPa)
#
#
# Indices 1 2 3 4 5 6 
#
# 1 0.008140 0.000430 -0.000842 0.000951 -0.005845 -0.005593
# 2 0.000430 0.029472 -0.001533 -0.016584 -0.004270 -0.013282
# 3 -0.000842 -0.001533 0.010376 0.003700 -0.005816 -0.002464
# 4 0.000951 -0.016584 0.003700 0.061263 -0.012538 -0.014770
# 5 -0.005845 -0.004270 -0.005816 -0.012538 0.038256 0.005969
# 6 -0.005593 -0.013282 -0.002464 -0.014770 0.005969 0.064510
#
#
# Mechanical properties :
#
#
# Convention : Reuss Voigt Hill
#
# Bulk Modulus (GPa) = 22.67745 52.53800 37.60773
# Shear Modulus (GPa) = 21.68181 35.47344 28.57763
#
# Velocity S-wave (km/s) = 3.02902 3.87441 3.47750
# Velocity P-wave (km/s) = 4.67221 6.49976 5.66023
#
# Compressibility (1/GPa) = 0.04409666
#
# Stress axis : x y z
#
# Youngs Moduli (GPa) = 122.85581 33.93005 96.37611
#
# Poissons Ratio (x) = -0.01458 0.08119
# Poissons Ratio (y) = -0.05278 0.14773
# Poissons Ratio (z) = 0.10350 0.05201
#
# Static dielectric constant tensor:
#      x y z
#    x 1.949660 0.116380 -0.002050 
#    y 0.116380 2.043240 -0.012950 
#    z -0.002050 -0.012950 1.860670 
# 
# From -- ./inp_files/67956.got.cif
#   From: 2010.05.17/outbox.cif.g08.bks.cpg/sg2_34_cif.got.tgz:67956.got - 2010.06.03 11:33:40.
