data_PCOD9031398
_publ_section_title
;
Structure prediction by ZEFSAII (Michael W. Deem and Ramdas Pophale) SiO2 
 PCOD9031398
Probable space group: P -1
;
_chemical_formula_sum "Si O2"
_cell_formula_units_Z 16
_cell_length_a 9.971419
_cell_length_b 17.076020
_cell_length_c 12.002148
_cell_angle_alpha 118.858357
_cell_angle_beta 143.323970
_cell_angle_gamma 88.602287
_cell_volume 770.362535
_symmetry_space_group_name_H-M "P -1"
_symmetry_group_IT_number 2
_symmetry_cell_setting 'triclinic'
loop_
_space_group_symop_operation_xyz
x,y,z
-x,-y,-z
loop_
_atom_site_type_symbol
_atom_site_label
_atom_site_fract_x
_atom_site_fract_y
_atom_site_fract_z
Si Si1 0.262262 0.736975 0.736242
Si Si2 0.262252 0.212458 0.087847
Si Si3 0.566868 0.799557 0.205817
Si Si4 0.888372 0.415746 0.760788
Si Si5 0.203013 0.887688 0.656788
Si Si6 0.237475 0.812659 0.395378
Si Si7 0.726367 0.475984 0.132589
Si Si8 0.322334 0.045800 0.402980
O O1 0.549893 0.783392 0.883895
O O2 0.107059 0.772761 0.584458
O O3 0.016592 0.588457 0.478642
O O4 0.385002 0.795826 0.980182
O O5 0.530372 0.331155 0.423898
O O6 0.027240 0.218273 0.880859
O O7 0.041110 0.079362 0.911101
O O8 0.925448 0.881558 0.469067
O O9 0.569937 0.858967 0.360560
O O10 0.424309 0.660315 0.029105
O O11 0.891835 0.313338 0.725714
O O12 0.120528 0.494848 0.867206
O O13 0.000000 0.500000 0.000000
O O14 0.290485 0.890258 0.590140
O O15 0.500000 0.000000 0.000000
O O16 0.546929 0.881492 0.576408
O O17 0.500000 0.500000 0.000000
O O18 0.500000 0.000000 0.500000
#
# Coordination Sequence:
#
# PCOD9031398 Si02
#       8
#     2   2   2   2   2   2   2   2
#     4  11  23  42  70 100 134 175 222 272 340 395
#     4  10  22  43  66  95 131 176 214 271 336 384
#     4  12  24  44  70  97 137 176 220 281 330 400
#     4  11  24  44  66  93 131 175 225 262 329 408
#     4  12  25  41  70 104 129 177 227 267 340 400
#     4  11  22  46  66  93 139 170 214 281 325 391
#     4  11  22  45  64 101 133 167 226 278 332 389
#     4  10  25  44  66 100 135 171 224 270 331 399
#
# _framework density 20.769442000000002
#
# number of rings (size 3 to 8) (size 9 to 14) (size 15 to 20)
#    0.000    1.000    5.000    1.875    3.500    2.000 
#    6.750    0.000    0.000    0.000    0.000    0.000 
#    0.000    0.000    0.000    0.000    0.000    0.000 
#
# Total GULP energy -89370.777645 kJ/mol
# GULP energy per Si atom -5585.673603 kJ/mol
# Density = 2.072217 g / cm^3
# Si number density = 20.769442 Si / 1000 Ang^3
#
#
#
# Elastic Constant Matrix: (Units=GPa)
#
#
# Indices 1 2 3 4 5 6 
#
# 1 47.7227 78.2045 -24.8856 -82.6100 -99.5610 -90.7816
# 2 78.2045 -34.1566 119.6731 69.2394 76.1655 98.4551
# 3 -24.8856 119.6731 12.6135 -107.6518 -125.4683 -117.1578
# 4 -82.6100 69.2394 -107.6518 -49.1695 -82.5254 -105.7251
# 5 -99.5610 76.1655 -125.4683 -82.5254 -44.0681 -99.6906
# 6 -90.7816 98.4551 -117.1578 -105.7251 -99.6906 -91.4407
#
#
#
# Elastic Compliance Matrix: (Units=1/GPa)
#
#
# Indices 1 2 3 4 5 6 
#
# 1 0.012280 0.003741 -0.006814 0.000199 0.002054 -0.001904
# 2 0.003741 0.025134 -0.003389 0.012916 0.005734 0.006506
# 3 -0.006814 -0.003389 0.010517 -0.003960 -0.000058 -0.005716
# 4 0.000199 0.012916 -0.003960 0.026079 -0.006842 -0.003911
# 5 0.002054 0.005734 -0.000058 -0.006842 0.021729 -0.011569
# 6 -0.001904 0.006506 -0.005716 -0.003911 -0.011569 0.022418
#
#
# Mechanical properties :
#
#
# Convention : Reuss Voigt Hill
#
# Bulk Modulus (GPa) = 28.56591 41.35152 34.95871
# Shear Modulus (GPa) = 35.02632 -46.72315 -5.84841
#
# Velocity S-wave (km/s) = 4.11108 -4.74815 -1.67988
# Velocity P-wave (km/s) = 6.02647 3.17914 3.62018
#
# Compressibility (1/GPa) = 0.03500677
#
# Stress axis : x y z
#
# Youngs Moduli (GPa) = 81.43316 39.78707 95.08848
#
# Poissons Ratio (x) = -0.14883 0.64789
# Poissons Ratio (y) = -0.30462 0.32225
# Poissons Ratio (z) = 0.55485 0.13484
#
# Static dielectric constant tensor:
#      x y z
#    x 1.759420 0.006210 0.004940 
#    y 0.006210 1.886560 0.008990 
#    z 0.004940 0.008990 1.796580 
# 
# From -- ./inp_files/403293.got.cif
#   From: 2010.05.17/outbox.cif.g08.bks.cpg/sg2_202_cif.got.tgz:403293.got - 2010.06.03 11:33:40.
