data_PCOD9031657
_publ_section_title
;
Structure prediction by ZEFSAII (Michael W. Deem and Ramdas Pophale) SiO2 
 PCOD9031657
Probable space group: P -1
;
_chemical_formula_sum "Si O2"
_cell_formula_units_Z 16
_cell_length_a 16.464566
_cell_length_b 18.047920
_cell_length_c 7.372040
_cell_angle_alpha 146.490836
_cell_angle_beta 38.526419
_cell_angle_gamma 147.225956
_cell_volume 630.003530
_symmetry_space_group_name_H-M "P -1"
_symmetry_group_IT_number 2
_symmetry_cell_setting 'triclinic'
loop_
_space_group_symop_operation_xyz
x,y,z
-x,-y,-z
loop_
_atom_site_type_symbol
_atom_site_label
_atom_site_fract_x
_atom_site_fract_y
_atom_site_fract_z
Si Si1 0.116999 0.454225 0.266915
Si Si2 0.872589 0.108375 0.905456
Si Si3 0.512046 0.394068 0.528566
Si Si4 0.212602 0.135969 0.723918
Si Si5 0.532041 0.340139 0.978546
Si Si6 0.186861 0.832440 0.243865
Si Si7 0.853228 0.602985 0.495670
Si Si8 0.626174 0.015821 0.455978
O O1 0.136598 0.466026 0.472120
O O2 0.000000 0.500000 0.500000
O O3 0.285130 0.571615 0.131529
O O4 0.040274 0.269997 0.967993
O O5 0.783579 0.148267 0.984515
O O6 0.874286 0.965124 0.513161
O O7 0.776599 0.066032 0.171379
O O8 0.390823 0.254195 0.587196
O O9 0.464515 0.328999 0.273935
O O10 0.489856 0.543043 0.871758
O O11 0.693234 0.471941 0.410821
O O12 0.179896 0.990682 0.613289
O O13 0.161334 0.246948 0.123663
O O14 0.455194 0.161537 0.681660
O O15 0.015890 0.676804 0.258874
O O16 0.312943 0.858397 0.225975
O O17 0.500000 0.000000 0.500000
#
# Coordination Sequence:
#
# PCOD9031657 Si02
#       8
#     2   2   2   2   2   2   2   2
#     4  12  26  45  66  97 140 185 224 276 338 407
#     4  10  24  47  65  99 134 172 235 272 343 394
#     4  11  23  43  67 104 133 175 225 286 350 398
#     4  10  22  43  67  98 134 170 222 282 339 400
#     4  11  24  43  68  97 139 176 227 284 341 405
#     4  10  24  43  68 100 134 175 220 284 337 400
#     4  12  23  42  68 102 134 178 226 276 346 405
#     4  12  24  45  70  97 135 180 232 276 333 404
#
# _framework density 25.396682999999999
#
# number of rings (size 3 to 8) (size 9 to 14) (size 15 to 20)
#    0.750    0.250    3.750    3.000    1.750    1.000 
#    4.500    1.250    0.000    0.000    0.000    0.000 
#    0.000    0.000    0.000    0.000    0.000    0.000 
#
# Total GULP energy -89557.097129 kJ/mol
# GULP energy per Si atom -5597.318571 kJ/mol
# Density = 2.533888 g / cm^3
# Si number density = 25.396683 Si / 1000 Ang^3
#
#
#
# Elastic Constant Matrix: (Units=GPa)
#
#
# Indices 1 2 3 4 5 6 
#
# 1 104.2501 15.4840 -2.6824 -5.0557 7.9365 16.4817
# 2 15.4840 142.8181 18.4157 -4.0881 9.2890 19.8545
# 3 -2.6824 18.4157 53.7224 12.8090 2.5956 3.3289
# 4 -5.0557 -4.0881 12.8090 22.7072 -1.3993 7.0114
# 5 7.9365 9.2890 2.5956 -1.3993 33.2019 -0.3038
# 6 16.4817 19.8545 3.3289 7.0114 -0.3038 49.2728
#
#
#
# Elastic Compliance Matrix: (Units=1/GPa)
#
#
# Indices 1 2 3 4 5 6 
#
# 1 0.010604 -0.000401 0.000258 0.003194 -0.002344 -0.003872
# 2 -0.000401 0.008250 -0.003594 0.004422 -0.001778 -0.003587
# 3 0.000258 -0.003594 0.023239 -0.014352 -0.001461 0.001825
# 4 0.003194 0.004422 -0.014352 0.056803 0.001424 -0.009955
# 5 -0.002344 -0.001778 -0.001461 0.001424 0.031365 0.001590
# 6 -0.003872 -0.003587 0.001825 -0.009955 0.001590 0.024339
#
#
# Mechanical properties :
#
#
# Convention : Reuss Voigt Hill
#
# Bulk Modulus (GPa) = 28.88552 40.35835 34.62193
# Shear Modulus (GPa) = 28.79981 39.00792 33.90387
#
# Velocity S-wave (km/s) = 3.37114 3.92337 3.65769
# Velocity P-wave (km/s) = 5.15279 6.03734 5.61252
#
# Compressibility (1/GPa) = 0.03461942
#
# Stress axis : x y z
#
# Youngs Moduli (GPa) = 94.30438 121.21628 43.03199
#
# Poissons Ratio (x) = 0.04859 -0.01112
# Poissons Ratio (y) = 0.03780 0.15466
# Poissons Ratio (z) = -0.02437 0.43565
#
# Static dielectric constant tensor:
#      x y z
#    x 2.066990 0.017760 -0.032110 
#    y 0.017760 1.939430 0.043330 
#    z -0.032110 0.043330 2.019280 
# 
# From -- ./inp_files/318139.got.cif
#   From: 2010.05.17/outbox.cif.g08.bks.cpg/sg2_160_cif.got.tgz:318139.got - 2010.06.03 11:33:40.
