data_PCOD9031151
_publ_section_title
;
Structure prediction by ZEFSAII (Michael W. Deem and Ramdas Pophale) SiO2 
 PCOD9031151
Probable space group: P -1
;
_chemical_formula_sum "Si O2"
_cell_formula_units_Z 16
_cell_length_a 12.782748
_cell_length_b 7.789968
_cell_length_c 11.954739
_cell_angle_alpha 87.261624
_cell_angle_beta 34.470642
_cell_angle_gamma 85.209677
_cell_volume 670.936031
_symmetry_space_group_name_H-M "P -1"
_symmetry_group_IT_number 2
_symmetry_cell_setting 'triclinic'
loop_
_space_group_symop_operation_xyz
x,y,z
-x,-y,-z
loop_
_atom_site_type_symbol
_atom_site_label
_atom_site_fract_x
_atom_site_fract_y
_atom_site_fract_z
Si Si1 0.529059 0.216176 0.839119
Si Si2 0.841303 0.201732 0.105436
Si Si3 0.083841 0.654022 0.746238
Si Si4 0.450965 0.332825 0.120960
Si Si5 0.326293 0.419930 0.819000
Si Si6 0.145929 0.583035 0.447189
Si Si7 0.743528 0.723310 0.336602
Si Si8 0.538685 0.103837 0.241537
O O1 0.453887 0.367206 0.813831
O O2 0.727501 0.266197 0.709809
O O3 0.529519 0.052011 0.765807
O O4 0.407286 0.209137 0.059380
O O5 0.847456 0.202806 0.234885
O O6 0.714010 0.379095 0.182255
O O7 0.726416 0.062717 0.148891
O O8 0.051359 0.211948 0.873956
O O9 0.071809 0.666687 0.624392
O O10 0.207692 0.475157 0.662385
O O11 0.878913 0.627884 0.968547
O O12 0.282603 0.409371 0.343037
O O13 0.583565 0.236891 0.097475
O O14 0.500000 0.500000 0.000000
O O15 0.376204 0.305371 0.669249
O O16 0.000000 0.500000 0.500000
O O17 0.621131 0.829453 0.532497
#
# Coordination Sequence:
#
# PCOD9031151 Si02
#       8
#     2   2   2   2   2   2   2   2
#     4  11  25  40  59  94 128 168 209 261 322 381
#     4   9  20  38  66  93 128 165 206 267 311 374
#     4   9  18  38  64  95 121 159 220 265 305 360
#     4  10  22  43  65  86 118 165 220 260 306 373
#     4   9  19  39  63  90 128 162 214 260 303 378
#     4  11  22  39  64  90 116 163 222 266 307 373
#     4   9  20  37  62  98 126 166 211 259 311 375
#     4  12  23  41  64  93 136 168 201 259 329 386
#
# _framework density 23.847280000000001
#
# number of rings (size 3 to 8) (size 9 to 14) (size 15 to 20)
#    0.000    2.000    1.250    4.125    1.750    4.500 
#    4.500    1.875    0.000    0.000    0.000    0.000 
#    0.000    0.000    0.000    0.000    0.000    0.000 
#
# Total GULP energy -89182.626290 kJ/mol
# GULP energy per Si atom -5573.914143 kJ/mol
# Density = 2.379300 g / cm^3
# Si number density = 23.847280 Si / 1000 Ang^3
#
#
#
# Elastic Constant Matrix: (Units=GPa)
#
#
# Indices 1 2 3 4 5 6 
#
# 1 149.0678 41.6407 41.3959 4.3735 16.7500 39.3188
# 2 41.6407 82.0556 30.4990 10.3828 7.9263 25.7500
# 3 41.3959 30.4990 80.7513 15.0325 25.5952 25.4469
# 4 4.3735 10.3828 15.0325 26.6859 15.8275 4.9858
# 5 16.7500 7.9263 25.5952 15.8275 40.3311 6.2118
# 6 39.3188 25.7500 25.4469 4.9858 6.2118 44.7605
#
#
#
# Elastic Compliance Matrix: (Units=1/GPa)
#
#
# Indices 1 2 3 4 5 6 
#
# 1 0.009720 -0.002482 -0.001893 0.003136 -0.002652 -0.006016
# 2 -0.002482 0.016707 -0.003244 -0.004738 0.002498 -0.005406
# 3 -0.001893 -0.003244 0.020008 -0.003149 -0.009077 -0.006235
# 4 0.003136 -0.004738 -0.003149 0.051808 -0.018482 -0.001444
# 5 -0.002652 0.002498 -0.009077 -0.018482 0.037981 0.002841
# 6 -0.006016 -0.005406 -0.006235 -0.001444 0.002841 0.034047
#
#
# Mechanical properties :
#
#
# Convention : Reuss Voigt Hill
#
# Bulk Modulus (GPa) = 32.05480 59.88290 45.96885
# Shear Modulus (GPa) = 25.52240 35.57809 30.55024
#
# Velocity S-wave (km/s) = 3.27501 3.86672 3.58310
# Velocity P-wave (km/s) = 5.26989 6.71572 6.03625
#
# Compressibility (1/GPa) = 0.03119657
#
# Stress axis : x y z
#
# Youngs Moduli (GPa) = 102.88083 59.85662 49.98090
#
# Poissons Ratio (x) = 0.14856 0.09461
# Poissons Ratio (y) = 0.25534 0.16214
# Poissons Ratio (z) = 0.19475 0.19418
#
# Static dielectric constant tensor:
#      x y z
#    x 2.029800 -0.028410 0.097890 
#    y -0.028410 2.080940 -0.055720 
#    z 0.097890 -0.055720 2.056100 
# 
# From -- ./inp_files/292302.got.cif
#   From: 2010.05.17/outbox.cif.g08.bks.cpg/sg2_147_cif.got.tgz:292302.got - 2010.06.03 11:33:40.
