data_PCOD9031692
_publ_section_title
;
Structure prediction by ZEFSAII (Michael W. Deem and Ramdas Pophale) SiO2 
 PCOD9031692
Probable space group: P -1
;
_chemical_formula_sum "Si O2"
_cell_formula_units_Z 14
_cell_length_a 18.330808
_cell_length_b 20.845442
_cell_length_c 7.302282
_cell_angle_alpha 36.182387
_cell_angle_beta 44.220617
_cell_angle_gamma 18.979057
_cell_volume 519.709494
_symmetry_space_group_name_H-M "P -1"
_symmetry_group_IT_number 2
_symmetry_cell_setting 'triclinic'
loop_
_space_group_symop_operation_xyz
x,y,z
-x,-y,-z
loop_
_atom_site_type_symbol
_atom_site_label
_atom_site_fract_x
_atom_site_fract_y
_atom_site_fract_z
Si Si1 0.019870 0.115511 0.819812
Si Si2 0.513009 0.574607 0.141601
Si Si3 0.795514 0.161391 0.353614
Si Si4 0.202427 0.161602 0.459445
Si Si5 0.586615 0.661272 0.348896
Si Si6 0.160371 0.415354 0.163273
Si Si7 0.316708 0.361633 0.351706
O O1 0.780738 0.393559 0.547084
O O2 0.104889 0.134300 0.761366
O O3 0.936242 0.075486 0.126542
O O4 0.274439 0.857148 0.878227
O O5 0.500000 0.500000 0.500000
O O6 0.606093 0.426611 0.140001
O O7 0.686053 0.512624 0.009852
O O8 0.658959 0.174276 0.577925
O O9 0.000000 0.000000 0.500000
O O10 0.044830 0.347572 0.142276
O O11 0.452027 0.915463 0.488406
O O12 0.183390 0.269082 0.401934
O O13 0.614085 0.731606 0.990418
O O14 0.659993 0.643202 0.458474
O O15 0.135959 0.469014 0.296044
#
# Coordination Sequence:
#
# PCOD9031692 Si02
#       7
#     2   2   2   2   2   2   2
#     4  10  22  43  67  99 144 178 235 291 343 423
#     4  11  22  39  66  98 136 189 229 277 357 406
#     4  12  24  42  66 100 144 186 236 291 349 424
#     4   9  22  44  69 103 133 188 231 288 356 417
#     4  11  25  44  69 105 140 184 239 291 348 430
#     4  10  22  46  72  96 145 180 233 295 353 416
#     4  11  23  42  67 103 136 182 234 283 356 415
#
# _framework density 26.938126
#
# number of rings (size 3 to 8) (size 9 to 14) (size 15 to 20)
#    0.000    1.429    2.857    1.714    2.000    2.286 
#    5.143    6.429    0.000    0.000    0.000    0.000 
#    0.000    0.000    0.000    0.000    0.000    0.000 
#
# Total GULP energy -78116.913346 kJ/mol
# GULP energy per Si atom -5579.779525 kJ/mol
# Density = 2.687681 g / cm^3
# Si number density = 26.938126 Si / 1000 Ang^3
#
#
#
# Elastic Constant Matrix: (Units=GPa)
#
#
# Indices 1 2 3 4 5 6 
#
# 1 210.8351 38.8646 47.9827 9.9842 3.0727 -11.5320
# 2 38.8646 113.6435 18.1809 3.0640 10.6570 0.2250
# 3 47.9827 18.1809 63.4657 -1.9356 9.7639 -8.0790
# 4 9.9842 3.0640 -1.9356 31.9019 -9.6526 -18.6783
# 5 3.0727 10.6570 9.7639 -9.6526 29.8907 21.7176
# 6 -11.5320 0.2250 -8.0790 -18.6783 21.7176 46.4549
#
#
#
# Elastic Compliance Matrix: (Units=1/GPa)
#
#
# Indices 1 2 3 4 5 6 
#
# 1 0.006075 -0.001406 -0.004510 -0.002065 0.001144 -0.000635
# 2 -0.001406 0.009864 -0.001099 -0.001351 -0.003980 0.000729
# 3 -0.004510 -0.001099 0.023090 0.005545 -0.013061 0.011237
# 4 -0.002065 -0.001351 0.005545 0.042796 -0.000200 0.017759
# 5 0.001144 -0.003980 -0.013061 -0.000200 0.061252 -0.030684
# 6 -0.000635 0.000729 0.011237 0.017759 -0.030684 0.044804
#
#
# Mechanical properties :
#
#
# Convention : Reuss Voigt Hill
#
# Bulk Modulus (GPa) = 40.00130 66.44450 53.22290
# Shear Modulus (GPa) = 23.78187 40.51058 32.14623
#
# Velocity S-wave (km/s) = 2.97447 3.88214 3.45822
# Velocity P-wave (km/s) = 5.16510 6.69431 5.97880
#
# Compressibility (1/GPa) = 0.02499919
#
# Stress axis : x y z
#
# Youngs Moduli (GPa) = 164.60607 101.37487 43.30911
#
# Poissons Ratio (x) = 0.14258 0.19532
# Poissons Ratio (y) = 0.23151 0.04758
# Poissons Ratio (z) = 0.74238 0.11137
#
# Static dielectric constant tensor:
#      x y z
#    x 2.415880 0.009670 0.106520 
#    y 0.009670 2.188140 0.013290 
#    z 0.106520 0.013290 2.239820 
# 
# From -- ./inp_files/337425.got.cif
#   From: 2010.05.17/outbox.cif.g08.bks.cpg/sg2_169_cif.got.tgz:337425.got - 2010.06.03 11:33:40.
