data_PCOD9031265
_publ_section_title
;
Structure prediction by ZEFSAII (Michael W. Deem and Ramdas Pophale) SiO2 
 PCOD9031265
Probable space group: P -1
;
_chemical_formula_sum "Si O2"
_cell_formula_units_Z 16
_cell_length_a 8.300555
_cell_length_b 14.554478
_cell_length_c 12.089866
_cell_angle_alpha 150.432773
_cell_angle_beta 88.505596
_cell_angle_gamma 97.988179
_cell_volume 700.163979
_symmetry_space_group_name_H-M "P -1"
_symmetry_group_IT_number 2
_symmetry_cell_setting 'triclinic'
loop_
_space_group_symop_operation_xyz
x,y,z
-x,-y,-z
loop_
_atom_site_type_symbol
_atom_site_label
_atom_site_fract_x
_atom_site_fract_y
_atom_site_fract_z
Si Si1 0.250494 0.288570 0.573315
Si Si2 0.614935 0.534726 0.819170
Si Si3 0.138851 0.845037 0.146703
Si Si4 0.119964 0.341159 0.226694
Si Si5 0.022093 0.285550 0.764901
Si Si6 0.510746 0.133884 0.748285
Si Si7 0.012454 0.719737 0.609548
Si Si8 0.758691 0.171314 0.463757
O O1 0.434868 0.399036 0.658276
O O2 0.194826 0.309871 0.722988
O O3 0.125785 0.355539 0.560900
O O4 0.212326 0.059380 0.326749
O O5 0.709556 0.646985 0.829176
O O6 0.724837 0.384944 0.692757
O O7 0.580596 0.691722 0.070757
O O8 0.300359 0.784408 0.129923
O O9 0.012575 0.816440 0.223283
O O10 0.031106 0.737350 0.936282
O O11 0.080645 0.233761 0.231583
O O12 0.111705 0.561701 0.478359
O O13 0.881834 0.170626 0.563066
O O14 0.000000 0.500000 0.000000
O O15 0.500000 0.000000 0.500000
O O16 0.410016 0.984249 0.681557
O O17 0.148282 0.866556 0.689090
#
# Coordination Sequence:
#
# PCOD9031265 Si02
#       8
#     2   2   2   2   2   2   2   2
#     4  11  24  40  65  96 133 169 217 272 327 392
#     4  11  24  43  66  98 133 172 219 270 332 385
#     4  12  24  42  62  97 132 172 222 262 329 390
#     4  10  23  44  71  93 126 176 222 271 327 392
#     4  11  22  40  63  91 130 173 216 265 325 393
#     4  12  25  42  64  96 138 172 219 270 324 392
#     4   9  21  45  70  92 130 169 224 272 328 387
#     4  10  22  43  65  98 129 171 218 271 327 389
#
# _framework density 22.851790000000001
#
# number of rings (size 3 to 8) (size 9 to 14) (size 15 to 20)
#    0.000    1.250    2.500    4.125    3.500    3.500 
#    0.000    1.875    0.000    0.000    0.000    0.000 
#    0.000    0.000    0.000    0.000    0.000    0.000 
#
# Total GULP energy -89381.121202 kJ/mol
# GULP energy per Si atom -5586.320075 kJ/mol
# Density = 2.279978 g / cm^3
# Si number density = 22.851790 Si / 1000 Ang^3
#
#
#
# Elastic Constant Matrix: (Units=GPa)
#
#
# Indices 1 2 3 4 5 6 
#
# 1 88.1767 43.5938 28.8562 -1.5733 4.0956 33.2073
# 2 43.5938 127.0923 42.6872 -11.2121 16.5896 28.2645
# 3 28.8562 42.6872 63.4445 6.0237 -5.9804 17.6366
# 4 -1.5733 -11.2121 6.0237 34.5770 -2.5160 -3.4973
# 5 4.0956 16.5896 -5.9804 -2.5160 35.3640 13.0279
# 6 33.2073 28.2645 17.6366 -3.4973 13.0279 38.5321
#
#
#
# Elastic Compliance Matrix: (Units=1/GPa)
#
#
# Indices 1 2 3 4 5 6 
#
# 1 0.018803 -0.003268 -0.001803 -0.001045 0.004333 -0.014542
# 2 -0.003268 0.013227 -0.008470 0.005096 -0.006806 -0.000246
# 3 -0.001803 -0.008470 0.026557 -0.007527 0.011430 -0.008936
# 4 -0.001045 0.005096 -0.007527 0.032080 -0.002921 0.004508
# 5 0.004333 -0.006806 0.011430 -0.002921 0.039128 -0.017468
# 6 -0.014542 -0.000246 -0.008936 0.004508 -0.017468 0.049071
#
#
# Mechanical properties :
#
#
# Convention : Reuss Voigt Hill
#
# Bulk Modulus (GPa) = 31.74123 56.55420 44.14772
# Shear Modulus (GPa) = 23.10002 32.59970 27.84986
#
# Velocity S-wave (km/s) = 3.18286 3.78110 3.49480
# Velocity P-wave (km/s) = 5.23714 6.62301 5.97042
#
# Compressibility (1/GPa) = 0.03150476
#
# Stress axis : x y z
#
# Youngs Moduli (GPa) = 53.18210 75.60569 37.65496
#
# Poissons Ratio (x) = 0.24706 0.06790
# Poissons Ratio (y) = 0.17378 0.31894
# Poissons Ratio (z) = 0.09590 0.64038
#
# Static dielectric constant tensor:
#      x y z
#    x 1.872180 -0.001680 -0.075950 
#    y -0.001680 1.881380 0.021360 
#    z -0.075950 0.021360 1.896490 
# 
# From -- ./inp_files/400020.got.cif
#   From: 2010.05.17/outbox.cif.g08.bks.cpg/sg2_201_cif.got.tgz:400020.got - 2010.06.03 11:33:40.
