data_PCOD9031464
_publ_section_title
;
Structure prediction by ZEFSAII (Michael W. Deem and Ramdas Pophale) SiO2 
 PCOD9031464
Probable space group: P -1
;
_chemical_formula_sum "Si O2"
_cell_formula_units_Z 16
_cell_length_a 13.176521
_cell_length_b 6.356882
_cell_length_c 11.743789
_cell_angle_alpha 49.881942
_cell_angle_beta 100.192555
_cell_angle_gamma 87.679299
_cell_volume 724.595455
_symmetry_space_group_name_H-M "P -1"
_symmetry_group_IT_number 2
_symmetry_cell_setting 'triclinic'
loop_
_space_group_symop_operation_xyz
x,y,z
-x,-y,-z
loop_
_atom_site_type_symbol
_atom_site_label
_atom_site_fract_x
_atom_site_fract_y
_atom_site_fract_z
Si Si1 0.377426 0.753403 0.769498
Si Si2 0.082564 0.242344 0.246218
Si Si3 0.525573 0.646324 0.628803
Si Si4 0.898240 0.377652 0.496341
Si Si5 0.237825 0.356966 0.827895
Si Si6 0.747143 0.664943 0.568900
Si Si7 0.446956 0.123614 0.828047
Si Si8 0.079792 0.186000 0.999430
O O1 0.467639 0.611733 0.748629
O O2 0.297736 0.547839 0.851425
O O3 0.302081 0.026288 0.600664
O O4 0.444512 0.855729 0.844157
O O5 0.173507 0.317911 0.317204
O O6 0.982873 0.495121 0.141021
O O7 0.061936 0.952922 0.388290
O O8 0.107881 0.170719 0.143296
O O9 0.645989 0.572828 0.637845
O O10 0.483281 0.365378 0.671345
O O11 0.500000 0.000000 0.500000
O O12 0.850142 0.473321 0.331439
O O13 0.811674 0.476720 0.545871
O O14 0.000000 0.500000 0.500000
O O15 0.325870 0.225420 0.801915
O O16 0.186261 0.141481 0.963830
O O17 0.500000 0.000000 0.000000
O O18 0.000000 0.000000 0.000000
#
# Coordination Sequence:
#
# PCOD9031464 Si02
#       8
#     2   2   2   2   2   2   2   2
#     4  10  22  43  66  98 135 176 231 285 346 414
#     4  11  25  43  67  97 136 177 235 285 343 415
#     4   9  23  42  66  98 134 176 228 287 344 408
#     4  12  25  41  70 105 135 180 237 283 347 417
#     4  11  24  44  70  97 140 182 225 285 354 417
#     4  11  22  40  68  99 134 176 229 287 349 402
#     4  11  25  43  69 103 137 183 230 286 356 424
#     4  11  26  46  65  98 140 185 230 286 352 418
#
# _framework density 22.081287
#
# number of rings (size 3 to 8) (size 9 to 14) (size 15 to 20)
#    0.000    1.250    2.500    2.250    1.750   12.000 
#    0.000    0.000    0.000    0.000    0.000    0.000 
#    0.000    0.000    0.000    0.000    0.000    0.000 
#
# Total GULP energy -89067.870032 kJ/mol
# GULP energy per Si atom -5566.741877 kJ/mol
# Density = 2.203103 g / cm^3
# Si number density = 22.081287 Si / 1000 Ang^3
#
#
#
# Elastic Constant Matrix: (Units=GPa)
#
#
# Indices 1 2 3 4 5 6 
#
# 1 102.6321 14.6607 9.7085 1.8564 -27.8245 16.5317
# 2 14.6607 64.1318 2.1161 6.6321 -8.3395 16.9493
# 3 9.7085 2.1161 72.0380 9.8892 6.9269 4.0134
# 4 1.8564 6.6321 9.8892 39.9811 5.8146 9.9721
# 5 -27.8245 -8.3395 6.9269 5.8146 28.4251 -4.3459
# 6 16.5317 16.9493 4.0134 9.9721 -4.3459 31.4961
#
#
#
# Elastic Compliance Matrix: (Units=1/GPa)
#
#
# Indices 1 2 3 4 5 6 
#
# 1 0.014838 0.000059 -0.003013 -0.000796 0.014649 -0.005162
# 2 0.000059 0.018701 -0.000295 -0.001455 0.004543 -0.008970
# 3 -0.003013 -0.000295 0.015271 -0.002618 -0.006258 -0.000240
# 4 -0.000796 -0.001455 -0.002618 0.029291 -0.007910 -0.008831
# 5 0.014649 0.004543 -0.006258 -0.007910 0.054093 0.000632
# 6 -0.005162 -0.008970 -0.000240 -0.008831 0.000632 0.042200
#
#
# Mechanical properties :
#
#
# Convention : Reuss Voigt Hill
#
# Bulk Modulus (GPa) = 23.63373 32.41916 28.02644
# Shear Modulus (GPa) = 25.64175 34.13489 29.88832
#
# Velocity S-wave (km/s) = 3.41140 3.93603 3.68307
# Velocity P-wave (km/s) = 5.12281 5.94727 5.55037
#
# Compressibility (1/GPa) = 0.04231241
#
# Stress axis : x y z
#
# Youngs Moduli (GPa) = 67.39611 53.47347 65.48406
#
# Poissons Ratio (x) = -0.00317 0.19731
# Poissons Ratio (y) = -0.00399 0.01929
# Poissons Ratio (z) = 0.20307 0.01575
#
# Static dielectric constant tensor:
#      x y z
#    x 1.813420 0.044900 0.024150 
#    y 0.044900 1.960370 -0.016950 
#    z 0.024150 -0.016950 1.913250 
# 
# From -- ./inp_files/409889.got.cif
#   From: 2010.05.17/outbox.cif.g08.bks.cpg/sg2_205_cif.got.tgz:409889.got - 2010.06.03 11:33:40.
