data_PCOD9031743
_publ_section_title
;
Structure prediction by ZEFSAII (Michael W. Deem and Ramdas Pophale) SiO2 
 PCOD9031743
Probable space group: P -1
;
_chemical_formula_sum "Si O2"
_cell_formula_units_Z 14
_cell_length_a 10.401069
_cell_length_b 7.113933
_cell_length_c 10.286790
_cell_angle_alpha 135.863473
_cell_angle_beta 97.111899
_cell_angle_gamma 89.510891
_cell_volume 522.396245
_symmetry_space_group_name_H-M "P -1"
_symmetry_group_IT_number 2
_symmetry_cell_setting 'triclinic'
loop_
_space_group_symop_operation_xyz
x,y,z
-x,-y,-z
loop_
_atom_site_type_symbol
_atom_site_label
_atom_site_fract_x
_atom_site_fract_y
_atom_site_fract_z
Si Si1 0.247948 0.783051 0.008757
Si Si2 0.167954 0.609312 0.499808
Si Si3 0.996178 0.421085 0.783704
Si Si4 0.470721 0.243058 0.961294
Si Si5 0.616462 0.072388 0.449419
Si Si6 0.191994 0.073513 0.399603
Si Si7 0.182799 0.132161 0.949314
O O1 0.149065 0.509468 0.862540
O O2 0.172718 0.986555 0.015490
O O3 0.391244 0.773089 0.959230
O O4 0.261227 0.898781 0.213401
O O5 0.046308 0.561006 0.363359
O O6 0.292278 0.649747 0.436100
O O7 0.165021 0.886068 0.720065
O O8 0.820686 0.642695 0.529666
O O9 0.937870 0.124016 0.677605
O O10 0.918413 0.646847 0.956999
O O11 0.441559 0.000411 0.735336
O O12 0.333657 0.263456 0.022636
O O13 0.500000 0.500000 0.000000
O O14 0.500000 0.000000 0.500000
O O15 0.722793 0.904720 0.448277
#
# Coordination Sequence:
#
# PCOD9031743 Si02
#       7
#     2   2   2   2   2   2   2
#     4  12  24  45  74 107 144 200 242 300 375 438
#     4  10  25  46  71 110 145 192 247 309 363 435
#     4  11  25  50  75 105 150 199 244 300 370 442
#     4  11  25  44  69 108 148 188 244 307 367 434
#     4  10  22  43  68 102 142 191 241 300 364 435
#     4  11  23  44  74 104 143 195 245 301 368 433
#     4  11  25  47  74 107 149 190 249 306 365 440
#
# _framework density 26.799579999999999
#
# number of rings (size 3 to 8) (size 9 to 14) (size 15 to 20)
#    0.000    1.143    2.857    2.143    4.000    1.143 
#    2.571    0.714    0.000    0.000    0.000    0.000 
#    0.000    0.000    0.000    0.000    0.000    0.000 
#
# Total GULP energy -78414.028222 kJ/mol
# GULP energy per Si atom -5601.002016 kJ/mol
# Density = 2.673858 g / cm^3
# Si number density = 26.799580 Si / 1000 Ang^3
#
#
#
# Elastic Constant Matrix: (Units=GPa)
#
#
# Indices 1 2 3 4 5 6 
#
# 1 210.0706 50.6046 80.5672 18.1611 9.0647 15.8384
# 2 50.6046 163.5910 30.1272 16.2407 4.2413 6.5522
# 3 80.5672 30.1272 107.3572 12.1025 2.1666 -9.9907
# 4 18.1611 16.2407 12.1025 39.3594 -6.0835 2.3892
# 5 9.0647 4.2413 2.1666 -6.0835 35.2526 -9.5060
# 6 15.8384 6.5522 -9.9907 2.3892 -9.5060 40.9776
#
#
#
# Elastic Compliance Matrix: (Units=1/GPa)
#
#
# Indices 1 2 3 4 5 6 
#
# 1 0.007890 -0.000913 -0.005878 -0.001646 -0.003185 -0.004980
# 2 -0.000913 0.006893 -0.001085 -0.002208 -0.001224 -0.001169
# 3 -0.005878 -0.001085 0.014766 -0.001432 0.002283 0.006659
# 4 -0.001646 -0.002208 -0.001432 0.028389 0.005763 0.000322
# 5 -0.003185 -0.001224 0.002283 0.005763 0.032675 0.009227
# 6 -0.004980 -0.001169 0.006659 0.000322 0.009227 0.030260
#
#
# Mechanical properties :
#
#
# Convention : Reuss Voigt Hill
#
# Bulk Modulus (GPa) = 72.48089 89.29077 80.88583
# Shear Modulus (GPa) = 35.40505 44.43256 39.91881
#
# Velocity S-wave (km/s) = 3.63864 4.07622 3.86363
# Velocity P-wave (km/s) = 6.69008 7.45281 7.08172
#
# Compressibility (1/GPa) = 0.01379674
#
# Stress axis : x y z
#
# Youngs Moduli (GPa) = 126.74483 145.08363 67.72503
#
# Poissons Ratio (x) = 0.13240 0.39812
# Poissons Ratio (y) = 0.11566 0.07345
# Poissons Ratio (z) = 0.74507 0.15736
#
# Static dielectric constant tensor:
#      x y z
#    x 2.087260 0.084700 -0.128120 
#    y 0.084700 1.952430 0.126970 
#    z -0.128120 0.126970 1.981420 
# 
# From -- ./inp_files/180433.got.cif
#   From: 2010.05.17/outbox.cif.g08.bks.cpg/sg2_91_cif.got.tgz:180433.got - 2010.06.03 11:33:40.
