data_PCOD9031230
_publ_section_title
;
Structure prediction by ZEFSAII (Michael W. Deem and Ramdas Pophale) SiO2 
 PCOD9031230
Probable space group: P -1
;
_chemical_formula_sum "Si O2"
_cell_formula_units_Z 12
_cell_length_a 5.730349
_cell_length_b 9.782292
_cell_length_c 13.823661
_cell_angle_alpha 45.587470
_cell_angle_beta 55.997571
_cell_angle_gamma 67.130848
_cell_volume 458.875157
_symmetry_space_group_name_H-M "P -1"
_symmetry_group_IT_number 2
_symmetry_cell_setting 'triclinic'
loop_
_space_group_symop_operation_xyz
x,y,z
-x,-y,-z
loop_
_atom_site_type_symbol
_atom_site_label
_atom_site_fract_x
_atom_site_fract_y
_atom_site_fract_z
Si Si1 0.283657 0.196489 0.683964
Si Si2 0.281535 0.780944 0.096845
Si Si3 0.890082 0.586242 0.777601
Si Si4 0.480867 0.511819 0.354714
Si Si5 0.299299 0.087604 0.208841
Si Si6 0.802030 0.914512 0.499851
O O1 0.271677 0.346154 0.523862
O O2 0.448331 0.335808 0.652737
O O3 0.000933 0.132841 0.835559
O O4 0.484558 0.014973 0.716526
O O5 0.193395 0.635001 0.102677
O O6 0.388497 0.643795 0.223879
O O7 0.531186 0.906898 0.933069
O O8 0.782968 0.701760 0.838220
O O9 0.772991 0.701449 0.654264
O O10 0.226934 0.592226 0.687797
O O11 0.013199 0.964907 0.337460
O O12 0.500000 0.000000 0.500000
O O13 0.000000 0.000000 0.500000
#
# Coordination Sequence:
#
# PCOD9031230 Si02
#       6
#     2   2   2   2   2   2
#     4  10  22  44  65  93 138 181 231 277 347 424
#     4  11  24  41  68 100 137 181 228 287 356 410
#     4  10  23  42  68  96 138 180 229 284 351 419
#     4  10  22  43  65  95 133 181 232 280 342 428
#     4  11  23  44  67 103 137 174 233 297 349 410
#     4  10  23  44  67 102 139 184 234 285 351 424
#
# _framework density 26.150904000000001
#
# number of rings (size 3 to 8) (size 9 to 14) (size 15 to 20)
#    0.000    1.667    1.667    1.500    4.667    1.333 
#   18.000    0.000    0.000    0.000    0.000    0.000 
#    0.000    0.000    0.000    0.000    0.000    0.000 
#
# Total GULP energy -67164.335812 kJ/mol
# GULP energy per Si atom -5597.027984 kJ/mol
# Density = 2.609138 g / cm^3
# Si number density = 26.150904 Si / 1000 Ang^3
#
#
#
# Elastic Constant Matrix: (Units=GPa)
#
#
# Indices 1 2 3 4 5 6 
#
# 1 85.3288 29.9481 28.2648 3.9422 -16.5742 -11.2781
# 2 29.9481 125.2618 10.2667 14.2370 -14.3674 -28.4791
# 3 28.2648 10.2667 133.5609 30.1488 -28.8761 -11.6066
# 4 3.9422 14.2370 30.1488 39.3034 -6.4228 -4.3202
# 5 -16.5742 -14.3674 -28.8761 -6.4228 44.9521 2.4803
# 6 -11.2781 -28.4791 -11.6066 -4.3202 2.4803 53.7673
#
#
#
# Elastic Compliance Matrix: (Units=1/GPa)
#
#
# Indices 1 2 3 4 5 6 
#
# 1 0.014165 -0.002875 -0.002551 0.002157 0.002922 0.000937
# 2 -0.002875 0.010344 0.001618 -0.003765 0.002482 0.004808
# 3 -0.002551 0.001618 0.010961 -0.007651 0.005424 0.001823
# 4 0.002157 -0.003765 -0.007651 0.032286 -0.000678 -0.000568
# 5 0.002922 0.002482 0.005424 -0.000678 0.027405 0.001780
# 6 0.000937 0.004808 0.001823 -0.000568 0.001780 0.021608
#
#
# Mechanical properties :
#
#
# Convention : Reuss Voigt Hill
#
# Bulk Modulus (GPa) = 35.90128 53.45677 44.67902
# Shear Modulus (GPa) = 37.40591 45.98269 41.69430
#
# Velocity S-wave (km/s) = 3.78615 4.19783 3.99729
# Velocity P-wave (km/s) = 5.73337 6.63187 6.19892
#
# Compressibility (1/GPa) = 0.02785416
#
# Stress axis : x y z
#
# Youngs Moduli (GPa) = 70.59734 96.67697 91.23436
#
# Poissons Ratio (x) = 0.27791 0.23269
# Poissons Ratio (y) = 0.20294 -0.14758
# Poissons Ratio (z) = 0.18006 -0.15638
#
# Static dielectric constant tensor:
#      x y z
#    x 2.128650 0.078920 0.006300 
#    y 0.078920 2.085440 0.034220 
#    z 0.006300 0.034220 2.090050 
# 
# From -- ./inp_files/38925.got.cif
#   From: 2010.05.17/outbox.cif.g08.bks.cpg/sg2_20_cif.got.tgz:38925.got - 2010.06.03 11:33:40.
