data_PCOD9031836
_publ_section_title
;
Structure prediction by ZEFSAII (Michael W. Deem and Ramdas Pophale) SiO2 
 PCOD9031836
Probable space group: P -1
;
_chemical_formula_sum "Si O2"
_cell_formula_units_Z 16
_cell_length_a 11.371962
_cell_length_b 9.584368
_cell_length_c 16.231613
_cell_angle_alpha 131.182241
_cell_angle_beta 146.750610
_cell_angle_gamma 66.357092
_cell_volume 680.349175
_symmetry_space_group_name_H-M "P -1"
_symmetry_group_IT_number 2
_symmetry_cell_setting 'triclinic'
loop_
_space_group_symop_operation_xyz
x,y,z
-x,-y,-z
loop_
_atom_site_type_symbol
_atom_site_label
_atom_site_fract_x
_atom_site_fract_y
_atom_site_fract_z
Si Si1 0.484513 0.881789 0.528486
Si Si2 0.369490 0.191197 0.691167
Si Si3 0.722045 0.706993 0.710788
Si Si4 0.961404 0.440251 0.803271
Si Si5 0.577261 0.564882 0.871509
Si Si6 0.342865 0.698920 0.931098
Si Si7 0.026793 0.724970 0.429892
Si Si8 0.563374 0.862281 0.837835
O O1 0.700113 0.823455 0.661085
O O2 0.262864 0.678474 0.320959
O O3 0.500000 0.000000 0.500000
O O4 0.432897 0.015348 0.621727
O O5 0.391160 0.343995 0.688057
O O6 0.124437 0.155533 0.575323
O O7 0.550422 0.289066 0.909633
O O8 0.500000 0.500000 0.500000
O O9 0.933318 0.637007 0.825174
O O10 0.682704 0.828647 0.811768
O O11 0.973077 0.305420 0.679825
O O12 0.185256 0.470940 0.998412
O O13 0.527056 0.673903 0.965102
O O14 0.573773 0.699562 0.845487
O O15 0.113280 0.503921 0.711841
O O16 0.319480 0.908111 0.979357
O O17 0.291714 0.816182 0.646815
#
# Coordination Sequence:
#
# PCOD9031836 Si02
#       8
#     2   2   2   2   2   2   2   2
#     4  11  25  44  69 106 140 179 241 292 334 426
#     4  11  22  42  73 101 138 181 233 287 352 413
#     4  10  22  43  68  95 136 191 232 281 344 416
#     4  11  22  45  71  93 140 190 224 288 351 403
#     4  11  25  43  67 104 143 175 231 303 338 414
#     4  11  22  45  69 107 140 177 236 291 346 424
#     4  11  22  43  77 100 136 189 228 284 359 415
#     4  12  25  44  70 101 145 186 230 291 355 407
#
# _framework density 23.517334999999999
#
# number of rings (size 3 to 8) (size 9 to 14) (size 15 to 20)
#    0.000    1.000    6.250    1.125    5.250    3.500 
#    4.500    1.250    0.000    0.000    0.000    0.000 
#    0.000    0.000    0.000    0.000    0.000    0.000 
#
# Total GULP energy -89491.768228 kJ/mol
# GULP energy per Si atom -5593.235514 kJ/mol
# Density = 2.346381 g / cm^3
# Si number density = 23.517335 Si / 1000 Ang^3
#
#
#
# Elastic Constant Matrix: (Units=GPa)
#
#
# Indices 1 2 3 4 5 6 
#
# 1 69.6969 38.1031 14.3265 -10.2094 1.8877 7.6561
# 2 38.1031 133.6497 5.0865 -3.8789 -2.8868 12.0892
# 3 14.3265 5.0865 38.8977 3.2370 7.0623 -3.8446
# 4 -10.2094 -3.8789 3.2370 34.5904 -1.9224 -1.7045
# 5 1.8877 -2.8868 7.0623 -1.9224 22.6030 3.8486
# 6 7.6561 12.0892 -3.8446 -1.7045 3.8486 58.6069
#
#
#
# Elastic Compliance Matrix: (Units=1/GPa)
#
#
# Indices 1 2 3 4 5 6 
#
# 1 0.019629 -0.004951 -0.007420 0.005887 0.000874 -0.001916
# 2 -0.004951 0.009027 0.000245 -0.000444 0.001677 -0.001322
# 3 -0.007420 0.000245 0.031039 -0.005458 -0.010101 0.003460
# 4 0.005887 -0.000444 -0.005458 0.031305 0.003884 -0.000380
# 5 0.000874 0.001677 -0.010101 0.003884 0.048585 -0.004200
# 6 -0.001916 -0.001322 0.003460 -0.000380 -0.004200 0.018078
#
#
# Mechanical properties :
#
#
# Convention : Reuss Voigt Hill
#
# Bulk Modulus (GPa) = 28.21411 39.69739 33.95575
# Shear Modulus (GPa) = 25.80917 35.47528 30.64223
#
# Velocity S-wave (km/s) = 3.31638 3.88812 3.61357
# Velocity P-wave (km/s) = 5.16601 6.08879 5.64628
#
# Compressibility (1/GPa) = 0.03544326
#
# Stress axis : x y z
#
# Youngs Moduli (GPa) = 50.94589 110.77473 32.21714
#
# Poissons Ratio (x) = 0.54841 0.23905
# Poissons Ratio (y) = 0.25222 -0.00788
# Poissons Ratio (z) = 0.37802 -0.02709
#
# Static dielectric constant tensor:
#      x y z
#    x 1.890140 0.007320 0.024600 
#    y 0.007320 1.931650 0.038880 
#    z 0.024600 0.038880 1.903140 
# 
# From -- ./inp_files/282770.got.cif
#   From: 2010.05.17/outbox.cif.g08.bks.cpg/sg2_142_cif.got.tgz:282770.got - 2010.06.03 11:33:40.
