data_PCOD9031422
_publ_section_title
;
Structure prediction by ZEFSAII (Michael W. Deem and Ramdas Pophale) SiO2 
 PCOD9031422
Probable space group: P -1
;
_chemical_formula_sum "Si O2"
_cell_formula_units_Z 13
_cell_length_a 26.670026
_cell_length_b 10.290479
_cell_length_c 9.712468
_cell_angle_alpha 144.442224
_cell_angle_beta 31.547013
_cell_angle_gamma 155.434692
_cell_volume 570.651513
_symmetry_space_group_name_H-M "P -1"
_symmetry_group_IT_number 2
_symmetry_cell_setting 'triclinic'
loop_
_space_group_symop_operation_xyz
x,y,z
-x,-y,-z
loop_
_atom_site_type_symbol
_atom_site_label
_atom_site_fract_x
_atom_site_fract_y
_atom_site_fract_z
Si Si1 0.196076 0.841703 0.642740
Si Si2 0.055545 0.779326 0.437072
Si Si3 0.407020 0.835228 0.208705
Si Si4 0.739781 0.850642 0.515848
Si Si5 0.519692 0.817319 0.389516
Si Si6 0.000000 0.000000 0.000000
Si Si7 0.740959 0.842818 0.945042
O O1 0.262110 0.713974 0.414988
O O2 0.046928 0.567013 0.689134
O O3 0.286241 0.087556 0.518547
O O4 0.198719 0.989185 0.902562
O O5 0.979524 0.836874 0.756677
O O6 0.160864 0.839231 0.350473
O O7 0.144004 0.033008 0.326272
O O8 0.482173 0.101066 0.378891
O O9 0.370600 0.531436 0.088378
O O10 0.500000 0.000000 0.000000
O O11 0.605537 0.558658 0.658040
O O12 0.837910 0.801153 0.217212
O O13 0.662458 0.926462 0.137903
O O14 0.500000 0.000000 0.500000
#
# Coordination Sequence:
#
# PCOD9031422 Si02
#       7
#     2   2   2   2   2   1   2
#     4  11  24  42  66 101 132 177 220 270 333 392
#     4  10  23  44  67  98 133 175 223 275 325 395
#     4  11  25  41  68  97 134 180 217 269 332 392
#     4  10  22  43  66  96 135 170 225 272 320 399
#     4  11  25  44  67  98 132 173 222 276 329 393
#     4   8  24  40  68 100 124 180 228 264 336 382
#     4  11  25  45  66 102 135 174 220 274 335 392
#
# _framework density 22.780978999999999
#
# number of rings (size 3 to 8) (size 9 to 14) (size 15 to 20)
#    0.923    0.615    0.000    3.692    4.308    8.000 
#    2.769    0.000    0.000    0.000    0.000    0.000 
#    0.000    0.000    0.000    0.000    0.000    0.000 
#
# Total GULP energy -72371.293599 kJ/mol
# GULP energy per Si atom -5567.022585 kJ/mol
# Density = 2.272913 g / cm^3
# Si number density = 22.780979 Si / 1000 Ang^3
#
#
#
# Elastic Constant Matrix: (Units=GPa)
#
#
# Indices 1 2 3 4 5 6 
#
# 1 85.7737 15.0854 12.2289 5.3611 13.6501 7.1523
# 2 15.0854 77.3182 9.8246 -3.2452 5.5067 0.3803
# 3 12.2289 9.8246 64.9296 -4.9920 23.2973 5.5802
# 4 5.3611 -3.2452 -4.9920 23.3225 -5.1386 8.3968
# 5 13.6501 5.5067 23.2973 -5.1386 22.5644 3.9426
# 6 7.1523 0.3803 5.5802 8.3968 3.9426 42.1271
#
#
#
# Elastic Compliance Matrix: (Units=1/GPa)
#
#
# Indices 1 2 3 4 5 6 
#
# 1 0.013890 -0.002343 0.000929 -0.005338 -0.009924 -0.000467
# 2 -0.002343 0.013663 -0.001508 0.002129 0.000118 0.000039
# 3 0.000929 -0.001508 0.024697 -0.000452 -0.025634 -0.000926
# 4 -0.005338 0.002129 -0.000452 0.051997 0.016940 -0.011002
# 5 -0.009924 0.000118 -0.025634 0.016940 0.081655 -0.005939
# 6 -0.000467 0.000039 -0.000926 -0.011002 -0.005939 0.026688
#
#
# Mechanical properties :
#
#
# Convention : Reuss Voigt Hill
#
# Bulk Modulus (GPa) = 21.54884 33.58881 27.56883
# Shear Modulus (GPa) = 21.37630 30.32832 25.85231
#
# Velocity S-wave (km/s) = 3.06656 3.65266 3.37236
# Velocity P-wave (km/s) = 4.69234 5.70661 5.22415
#
# Compressibility (1/GPa) = 0.04640621
#
# Stress axis : x y z
#
# Youngs Moduli (GPa) = 71.99319 73.18979 40.49031
#
# Poissons Ratio (x) = 0.17149 -0.03762
# Poissons Ratio (y) = 0.16869 0.06107
# Poissons Ratio (z) = -0.06689 0.11038
#
# Static dielectric constant tensor:
#      x y z
#    x 1.906390 0.018110 -0.023130 
#    y 0.018110 1.845290 0.005500 
#    z -0.023130 0.005500 1.820940 
# 
# From -- ./inp_files/351916.got.cif
#   From: 2010.05.17/outbox.cif.g08.bks.cpg/sg2_176_cif.got.tgz:351916.got - 2010.06.03 11:33:40.
