data_PCOD9031695
_publ_section_title
;
Structure prediction by ZEFSAII (Michael W. Deem and Ramdas Pophale) SiO2 
 PCOD9031695
Probable space group: P -1
;
_chemical_formula_sum "Si O2"
_cell_formula_units_Z 14
_cell_length_a 11.433427
_cell_length_b 7.410539
_cell_length_c 10.957975
_cell_angle_alpha 41.503640
_cell_angle_beta 115.655854
_cell_angle_gamma 103.789437
_cell_volume 548.829618
_symmetry_space_group_name_H-M "P -1"
_symmetry_group_IT_number 2
_symmetry_cell_setting 'triclinic'
loop_
_space_group_symop_operation_xyz
x,y,z
-x,-y,-z
loop_
_atom_site_type_symbol
_atom_site_label
_atom_site_fract_x
_atom_site_fract_y
_atom_site_fract_z
Si Si1 0.306155 0.345662 0.971042
Si Si2 0.385342 0.611646 0.201406
Si Si3 0.596485 0.126098 0.186166
Si Si4 0.854389 0.675774 0.859632
Si Si5 0.025199 0.880490 0.438754
Si Si6 0.163960 0.348391 0.676133
Si Si7 0.653252 0.476586 0.509896
O O1 0.454449 0.219774 0.135159
O O2 0.195321 0.278626 0.047506
O O3 0.307867 0.676934 0.811628
O O4 0.280301 0.257463 0.867363
O O5 0.264974 0.455736 0.187142
O O6 0.530132 0.445054 0.382773
O O7 0.345955 0.703267 0.276967
O O8 0.407500 0.793836 0.000547
O O9 0.634124 0.800433 0.377572
O O10 0.870115 0.956169 0.657810
O O11 0.000000 0.500000 0.000000
O O12 0.066010 0.552522 0.613161
O O13 0.895040 0.902926 0.283929
O O14 0.000000 0.000000 0.500000
O O15 0.215166 0.536697 0.500065
#
# Coordination Sequence:
#
# PCOD9031695 Si02
#       7
#     2   2   2   2   2   2   2
#     4  10  23  42  64 101 138 177 239 282 352 428
#     4  10  23  41  66 106 136 180 242 279 358 429
#     4  10  22  43  67  99 146 186 219 298 360 410
#     4  11  25  43  69 100 137 192 233 292 359 420
#     4  11  26  47  68  97 143 187 234 294 346 424
#     4  11  25  43  70 105 134 186 243 280 356 427
#     4  11  23  41  72 103 139 184 230 300 353 420
#
# _framework density 25.508825999999999
#
# number of rings (size 3 to 8) (size 9 to 14) (size 15 to 20)
#    0.000    1.429    1.429    2.143    8.000    4.000 
#    0.000    2.857    0.000    0.000    0.000    0.000 
#    0.000    0.000    0.000    0.000    0.000    0.000 
#
# Total GULP energy -78290.623634 kJ/mol
# GULP energy per Si atom -5592.187402 kJ/mol
# Density = 2.545077 g / cm^3
# Si number density = 25.508826 Si / 1000 Ang^3
#
#
#
# Elastic Constant Matrix: (Units=GPa)
#
#
# Indices 1 2 3 4 5 6 
#
# 1 169.4421 49.0719 24.0144 -0.4371 -22.5105 -0.1773
# 2 49.0719 151.6162 33.3528 8.3811 -0.1574 5.6161
# 3 24.0144 33.3528 87.8808 -1.5897 -22.0510 -4.5546
# 4 -0.4371 8.3811 -1.5897 42.0966 -5.1739 1.7947
# 5 -22.5105 -0.1574 -22.0510 -5.1739 44.6936 -0.6298
# 6 -0.1773 5.6161 -4.5546 1.7947 -0.6298 48.5201
#
#
#
# Elastic Compliance Matrix: (Units=1/GPa)
#
#
# Indices 1 2 3 4 5 6 
#
# 1 0.007074 -0.002326 -0.000110 0.000964 0.003616 0.000296
# 2 -0.002326 0.008249 -0.003367 -0.002118 -0.003066 -0.001241
# 3 -0.000110 -0.003367 0.014684 0.002062 0.007441 0.001788
# 4 0.000964 -0.002118 0.002062 0.024818 0.004363 -0.000419
# 5 0.003616 -0.003066 0.007441 0.004363 0.028380 0.001274
# 6 0.000296 -0.001241 0.001788 -0.000419 0.001274 0.020955
#
#
# Mechanical properties :
#
#
# Convention : Reuss Voigt Hill
#
# Bulk Modulus (GPa) = 54.34499 69.09080 61.71790
# Shear Modulus (GPa) = 41.01727 47.22874 44.12301
#
# Velocity S-wave (km/s) = 4.01429 4.30754 4.16350
# Velocity P-wave (km/s) = 6.54498 7.20303 6.88187
#
# Compressibility (1/GPa) = 0.01840096
#
# Stress axis : x y z
#
# Youngs Moduli (GPa) = 141.35986 121.22796 68.10024
#
# Poissons Ratio (x) = 0.28196 0.00751
# Poissons Ratio (y) = 0.32878 0.22930
# Poissons Ratio (z) = 0.01558 0.40819
#
# Static dielectric constant tensor:
#      x y z
#    x 2.059940 -0.027080 0.122060 
#    y -0.027080 2.054240 0.019030 
#    z 0.122060 0.019030 2.119830 
# 
# From -- ./inp_files/416193.got.cif
#   From: 2010.05.17/outbox.cif.g08.bks.cpg/sg2_209_cif.got.tgz:416193.got - 2010.06.03 11:33:40.
