data_PCOD9031882
_publ_section_title
;
Structure prediction by ZEFSAII (Michael W. Deem and Ramdas Pophale) SiO2 
 PCOD9031882
Probable space group: P -1
;
_chemical_formula_sum "Si O2"
_cell_formula_units_Z 14
_cell_length_a 11.729672
_cell_length_b 23.980771
_cell_length_c 24.765123
_cell_angle_alpha 11.608729
_cell_angle_beta 24.519149
_cell_angle_gamma 25.542930
_cell_volume 576.614110
_symmetry_space_group_name_H-M "P -1"
_symmetry_group_IT_number 2
_symmetry_cell_setting 'triclinic'
loop_
_space_group_symop_operation_xyz
x,y,z
-x,-y,-z
loop_
_atom_site_type_symbol
_atom_site_label
_atom_site_fract_x
_atom_site_fract_y
_atom_site_fract_z
Si Si1 0.948213 0.804968 0.757151
Si Si2 0.570347 0.599239 0.196935
Si Si3 0.348436 0.908952 0.583747
Si Si4 0.814343 0.796645 0.304457
Si Si5 0.030040 0.397754 0.393928
Si Si6 0.091085 0.980385 0.106824
Si Si7 0.923290 0.493926 0.851443
O O1 0.168167 0.848550 0.667211
O O2 0.662297 0.778011 0.937658
O O3 0.000000 0.000000 0.500000
O O4 0.000000 0.500000 0.000000
O O5 0.461714 0.317468 0.489607
O O6 0.351180 0.814762 0.120185
O O7 0.829425 0.499567 0.218628
O O8 0.646539 0.728640 0.622547
O O9 0.315435 0.244084 0.283833
O O10 0.198422 0.791719 0.811718
O O11 0.000000 0.500000 0.500000
O O12 0.824822 0.900790 0.263007
O O13 0.000000 0.000000 0.000000
O O14 0.969341 0.470546 0.288756
O O15 0.890128 0.155859 0.712833
O O16 0.943090 0.685562 0.191447
#
# Coordination Sequence:
#
# PCOD9031882 Si02
#       7
#     2   2   2   2   2   2   2
#     4  11  25  44  71 106 142 189 237 299 362 422
#     4  10  25  47  74 107 150 188 240 299 366 440
#     4  11  24  46  67 102 140 188 244 295 359 425
#     4  10  22  43  68  97 139 192 233 280 355 429
#     4  12  25  44  70 104 143 188 247 293 346 441
#     4  11  25  43  68 105 143 190 234 295 365 418
#     4  11  24  45  74 100 139 195 237 299 364 410
#
# _framework density 24.279668000000001
#
# number of rings (size 3 to 8) (size 9 to 14) (size 15 to 20)
#    0.000    1.143    0.000    6.000    2.000   11.429 
#    2.571    0.000    0.000    0.000    0.000    0.000 
#    0.000    0.000    0.000    0.000    0.000    0.000 
#
# Total GULP energy -78277.512684 kJ/mol
# GULP energy per Si atom -5591.250906 kJ/mol
# Density = 2.422441 g / cm^3
# Si number density = 24.279668 Si / 1000 Ang^3
#
#
#
# Elastic Constant Matrix: (Units=GPa)
#
#
# Indices 1 2 3 4 5 6 
#
# 1 83.4317 30.1401 35.2729 8.3297 10.5671 6.1183
# 2 30.1401 100.6003 52.2875 10.5116 15.1131 4.1508
# 3 35.2729 52.2875 180.6656 -6.3972 28.1969 -0.5144
# 4 8.3297 10.5116 -6.3972 53.8040 15.3120 3.8515
# 5 10.5671 15.1131 28.1969 15.3120 30.6793 8.6517
# 6 6.1183 4.1508 -0.5144 3.8515 8.6517 33.7668
#
#
#
# Elastic Compliance Matrix: (Units=1/GPa)
#
#
# Indices 1 2 3 4 5 6 
#
# 1 0.014218 -0.002957 -0.001939 -0.001631 -0.000285 -0.001983
# 2 -0.002957 0.012815 -0.002977 -0.001953 -0.001445 -0.000492
# 3 -0.001939 -0.002977 0.008181 0.003972 -0.008059 0.002454
# 4 -0.001631 -0.001953 0.003972 0.023674 -0.014389 0.001583
# 5 -0.000285 -0.001445 -0.008059 -0.014389 0.051200 -0.011371
# 6 -0.001983 -0.000492 0.002454 0.001583 -0.011371 0.032805
#
#
# Mechanical properties :
#
#
# Convention : Reuss Voigt Hill
#
# Bulk Modulus (GPa) = 51.36485 66.67763 59.02124
# Shear Modulus (GPa) = 30.27971 40.11649 35.19810
#
# Velocity S-wave (km/s) = 3.53529 4.06922 3.81162
# Velocity P-wave (km/s) = 6.15352 7.04273 6.61309
#
# Compressibility (1/GPa) = 0.01946856
#
# Stress axis : x y z
#
# Youngs Moduli (GPa) = 70.33227 78.03502 122.24149
#
# Poissons Ratio (x) = 0.23074 0.23703
# Poissons Ratio (y) = 0.20797 0.36386
# Poissons Ratio (z) = 0.13638 0.23227
#
# Static dielectric constant tensor:
#      x y z
#    x 2.017240 -0.164260 -0.036960 
#    y -0.164260 2.319440 0.201510 
#    z -0.036960 0.201510 1.953140 
# 
# From -- ./inp_files/610991.got.cif
#   From: 2010.05.17/outbox.cif.g08.bks.cpg/sg2_306_cif.got.tgz:610991.got - 2010.06.03 11:33:40.
