data_PCOD9031796
_publ_section_title
;
Structure prediction by ZEFSAII (Michael W. Deem and Ramdas Pophale) SiO2 
 PCOD9031796
Probable space group: P -1
;
_chemical_formula_sum "Si O2"
_cell_formula_units_Z 16
_cell_length_a 10.754824
_cell_length_b 16.265431
_cell_length_c 8.330529
_cell_angle_alpha 99.399996
_cell_angle_beta 137.949235
_cell_angle_gamma 58.793856
_cell_volume 769.969972
_symmetry_space_group_name_H-M "P -1"
_symmetry_group_IT_number 2
_symmetry_cell_setting 'triclinic'
loop_
_space_group_symop_operation_xyz
x,y,z
-x,-y,-z
loop_
_atom_site_type_symbol
_atom_site_label
_atom_site_fract_x
_atom_site_fract_y
_atom_site_fract_z
Si Si1 0.527565 0.460047 0.795577
Si Si2 0.176075 0.113480 0.577108
Si Si3 0.363731 0.715227 0.382043
Si Si4 0.909062 0.095927 0.061278
Si Si5 0.106901 0.701337 0.408594
Si Si6 0.243581 0.459355 0.801002
Si Si7 0.647460 0.079305 0.098813
Si Si8 0.652095 0.718993 0.914944
O O1 0.574236 0.391329 0.664953
O O2 0.320632 0.581932 0.607337
O O3 0.432691 0.424522 0.832251
O O4 0.745307 0.456365 0.063488
O O5 0.113168 0.094823 0.337795
O O6 0.979116 0.228622 0.491817
O O7 0.199857 0.031203 0.700312
O O8 0.421007 0.094731 0.813260
O O9 0.184400 0.746909 0.364696
O O10 0.579454 0.702873 0.668413
O O11 0.255099 0.800028 0.165931
O O12 0.777717 0.091116 0.085492
O O13 0.000000 0.000000 0.000000
O O14 0.888102 0.707900 0.137442
O O15 0.000000 0.500000 0.500000
O O16 0.314082 0.367073 0.958905
O O17 0.548306 0.168760 0.166857
#
# Coordination Sequence:
#
# PCOD9031796 Si02
#       8
#     2   2   2   2   2   2   2   2
#     4  11  25  40  64  91 126 164 209 259 312 364
#     4  10  23  42  68  91 122 164 209 258 308 368
#     4  12  26  40  60  93 133 165 199 260 312 372
#     4  12  25  40  65  95 126 162 205 256 316 372
#     4  11  23  42  64  90 125 168 209 253 311 369
#     4  11  23  41  65  89 119 164 213 259 304 364
#     4  10  22  43  68  93 121 162 211 258 307 368
#     4  11  23  41  66  91 124 165 212 254 311 371
#
# _framework density 20.78003
#
# number of rings (size 3 to 8) (size 9 to 14) (size 15 to 20)
#    0.000    1.000    2.500    3.750    3.500    3.000 
#    0.000    0.000    0.000    0.000    0.000    0.000 
#    0.000    0.000    0.000    0.000    0.000    0.000 
#
# Total GULP energy -89525.662318 kJ/mol
# GULP energy per Si atom -5595.353895 kJ/mol
# Density = 2.073273 g / cm^3
# Si number density = 20.780030 Si / 1000 Ang^3
#
#
#
# Elastic Constant Matrix: (Units=GPa)
#
#
# Indices 1 2 3 4 5 6 
#
# 1 28.6166 -2.4416 19.1959 5.2599 9.4942 9.0433
# 2 -2.4416 112.7447 71.8915 15.8622 6.4986 -13.9477
# 3 19.1959 71.8915 135.4802 24.2546 -2.6262 -7.0644
# 4 5.2599 15.8622 24.2546 50.6715 6.8682 -8.3494
# 5 9.4942 6.4986 -2.6262 6.8682 24.5657 3.3049
# 6 9.0433 -13.9477 -7.0644 -8.3494 3.3049 34.2478
#
#
#
# Elastic Compliance Matrix: (Units=1/GPa)
#
#
# Indices 1 2 3 4 5 6 
#
# 1 0.058150 0.010929 -0.014995 -0.000808 -0.025159 -0.011766
# 2 0.010929 0.016718 -0.010571 0.000565 -0.010322 0.002876
# 3 -0.014995 -0.010571 0.016144 -0.004268 0.011397 0.000844
# 4 -0.000808 0.000565 -0.004268 0.023740 -0.007751 0.006099
# 5 -0.025159 -0.010322 0.011397 -0.007751 0.056895 -0.002589
# 6 -0.011766 0.002876 0.000844 0.006099 -0.002589 0.035388
#
#
# Mechanical properties :
#
#
# Convention : Reuss Voigt Hill
#
# Bulk Modulus (GPa) = 16.19745 50.45925 33.32835
# Shear Modulus (GPa) = 19.46364 34.44337 26.95351
#
# Velocity S-wave (km/s) = 3.06380 4.07569 3.60542
# Velocity P-wave (km/s) = 4.50860 6.81789 5.77975
#
# Compressibility (1/GPa) = 0.06173812
#
# Stress axis : x y z
#
# Youngs Moduli (GPa) = 17.19698 59.81498 61.94148
#
# Poissons Ratio (x) = -0.65373 0.92882
# Poissons Ratio (y) = -0.18795 0.65480
# Poissons Ratio (z) = 0.25787 0.63232
#
# Static dielectric constant tensor:
#      x y z
#    x 1.716350 0.006030 0.010530 
#    y 0.006030 1.750630 0.014130 
#    z 0.010530 0.014130 1.747260 
# 
# From -- ./inp_files/273519.got.cif
#   From: 2010.05.17/outbox.cif.g08.bks.cpg/sg2_137_cif.got.tgz:273519.got - 2010.06.03 11:33:40.
