data_PCOD9031145
_publ_section_title
;
Structure prediction by ZEFSAII (Michael W. Deem and Ramdas Pophale) SiO2 
 PCOD9031145
Probable space group: P -1
;
_chemical_formula_sum "Si O2"
_cell_formula_units_Z 14
_cell_length_a 9.295541
_cell_length_b 13.624931
_cell_length_c 9.125380
_cell_angle_alpha 40.708206
_cell_angle_beta 87.978057
_cell_angle_gamma 62.959494
_cell_volume 568.275434
_symmetry_space_group_name_H-M "P -1"
_symmetry_group_IT_number 2
_symmetry_cell_setting 'triclinic'
loop_
_space_group_symop_operation_xyz
x,y,z
-x,-y,-z
loop_
_atom_site_type_symbol
_atom_site_label
_atom_site_fract_x
_atom_site_fract_y
_atom_site_fract_z
Si Si1 0.811248 0.460089 0.429346
Si Si2 0.188622 0.793320 0.050787
Si Si3 0.247248 0.526524 0.926751
Si Si4 0.345536 0.776603 0.777993
Si Si5 0.220015 0.100118 0.811796
Si Si6 0.917936 0.808947 0.812101
Si Si7 0.398528 0.095496 0.085079
O O1 0.802002 0.441789 0.276752
O O2 0.674730 0.692133 0.208250
O O3 0.038394 0.328660 0.590781
O O4 0.759943 0.355693 0.653370
O O5 0.353998 0.711584 0.017843
O O6 0.023350 0.828169 0.918102
O O7 0.144141 0.987866 0.897632
O O8 0.291758 0.669428 0.804664
O O9 0.077169 0.602091 0.957410
O O10 0.449693 0.304109 0.189170
O O11 0.174695 0.010583 0.502389
O O12 0.341944 0.014114 0.054509
O O13 0.373848 0.052624 0.741265
O O14 0.738360 0.843853 0.843016
#
# Coordination Sequence:
#
# PCOD9031145 Si02
#       7
#     2   2   2   2   2   2   2
#     4  12  24  44  71 102 136 172 226 287 325 404
#     4  11  23  43  77  99 130 176 235 274 333 386
#     4  10  23  40  67 100 132 176 225 270 341 383
#     4  10  22  43  65 103 135 171 225 282 320 403
#     4  11  24  44  65 102 133 179 219 278 333 398
#     4  11  23  45  68  98 137 179 216 280 328 408
#     4  11  27  43  65 102 144 173 219 273 354 388
#
# _framework density 24.635942
#
# number of rings (size 3 to 8) (size 9 to 14) (size 15 to 20)
#    0.000    1.143    1.429    5.143    2.000    4.000 
#   10.286    5.000    0.000    0.000    0.000    0.000 
#    0.000    0.000    0.000    0.000    0.000    0.000 
#
# Total GULP energy -78322.487674 kJ/mol
# GULP energy per Si atom -5594.463405 kJ/mol
# Density = 2.457987 g / cm^3
# Si number density = 24.635942 Si / 1000 Ang^3
#
#
#
# Elastic Constant Matrix: (Units=GPa)
#
#
# Indices 1 2 3 4 5 6 
#
# 1 85.3026 47.9794 17.0701 0.0600 -0.0852 -14.9565
# 2 47.9794 127.7455 25.4256 -1.2953 -5.7437 -17.0539
# 3 17.0701 25.4256 49.5440 0.9191 -4.9593 0.5647
# 4 0.0600 -1.2953 0.9191 38.9638 -6.9735 12.3929
# 5 -0.0852 -5.7437 -4.9593 -6.9735 22.7152 5.3262
# 6 -14.9565 -17.0539 0.5647 12.3929 5.3262 67.8130
#
#
#
# Elastic Compliance Matrix: (Units=1/GPa)
#
#
# Indices 1 2 3 4 5 6 
#
# 1 0.015661 -0.005050 -0.003108 -0.001523 -0.003003 0.002724
# 2 -0.005050 0.010712 -0.003613 0.000292 0.001656 0.001427
# 3 -0.003108 -0.003613 0.023628 0.000994 0.005095 -0.002373
# 4 -0.001523 0.000292 0.000994 0.029697 0.010939 -0.006557
# 5 -0.003003 0.001656 0.005095 0.010939 0.050365 -0.006243
# 6 0.002724 0.001427 -0.002373 -0.006557 -0.006243 0.017414
#
#
# Mechanical properties :
#
#
# Convention : Reuss Voigt Hill
#
# Bulk Modulus (GPa) = 37.79496 49.28246 43.53871
# Shear Modulus (GPa) = 27.80266 37.37288 32.58777
#
# Velocity S-wave (km/s) = 3.36302 3.89910 3.64094
# Velocity P-wave (km/s) = 5.51857 6.34968 5.94865
#
# Compressibility (1/GPa) = 0.02645856
#
# Stress axis : x y z
#
# Youngs Moduli (GPa) = 63.85212 93.35388 42.32342
#
# Poissons Ratio (x) = 0.47148 0.13152
# Poissons Ratio (y) = 0.32248 0.15292
# Poissons Ratio (z) = 0.19842 0.33730
#
# Static dielectric constant tensor:
#      x y z
#    x 2.036570 -0.018270 0.016740 
#    y -0.018270 1.989910 0.013230 
#    z 0.016740 0.013230 1.931570 
# 
# From -- ./inp_files/205110.got.cif
#   From: 2010.05.17/outbox.cif.g08.bks.cpg/sg2_103_cif.got.tgz:205110.got - 2010.06.03 11:33:40.
