data_PCOD9031420
_publ_section_title
;
Structure prediction by ZEFSAII (Michael W. Deem and Ramdas Pophale) SiO2 
 PCOD9031420
Probable space group: P -1
;
_chemical_formula_sum "Si O2"
_cell_formula_units_Z 16
_cell_length_a 6.049142
_cell_length_b 8.448289
_cell_length_c 16.367501
_cell_angle_alpha 62.147626
_cell_angle_beta 65.832820
_cell_angle_gamma 88.610057
_cell_volume 660.120143
_symmetry_space_group_name_H-M "P -1"
_symmetry_group_IT_number 2
_symmetry_cell_setting 'triclinic'
loop_
_space_group_symop_operation_xyz
x,y,z
-x,-y,-z
loop_
_atom_site_type_symbol
_atom_site_label
_atom_site_fract_x
_atom_site_fract_y
_atom_site_fract_z
Si Si1 0.846015 0.166641 0.208309
Si Si2 0.044150 0.696044 0.399721
Si Si3 0.345373 0.969837 0.418627
Si Si4 0.597449 0.737423 0.538388
Si Si5 0.358341 0.517182 0.894739
Si Si6 0.368252 0.203267 0.084496
Si Si7 0.422416 0.585837 0.263007
Si Si8 0.749156 0.966622 0.097566
O O1 0.837874 0.382503 0.144911
O O2 0.122309 0.141454 0.191470
O O3 0.617264 0.079898 0.321424
O O4 0.793877 0.060957 0.156137
O O5 0.210863 0.856431 0.390116
O O6 0.182753 0.665596 0.303445
O O7 0.000000 0.500000 0.500000
O O8 0.770790 0.734465 0.434017
O O9 0.373518 0.819431 0.518869
O O10 0.254058 0.126834 0.447182
O O11 0.531550 0.543716 0.638748
O O12 0.448772 0.649611 0.924390
O O13 0.580143 0.519456 0.796367
O O14 0.290919 0.315085 0.992184
O O15 0.522746 0.051331 0.075243
O O16 0.651039 0.753300 0.178651
O O17 0.000000 0.000000 0.000000
#
# Coordination Sequence:
#
# PCOD9031420 Si02
#       8
#     2   2   2   2   2   2   2   2
#     4  11  22  42  70  93 133 176 218 280 324 395
#     4  10  23  43  65  94 135 173 209 276 327 388
#     4  11  22  44  68  98 128 173 226 266 330 395
#     4  10  24  43  67  96 129 175 221 276 323 392
#     4  10  22  43  66  96 134 167 230 276 323 391
#     4  10  24  44  67  97 128 179 229 267 335 396
#     4  11  22  42  65  97 136 171 217 268 338 386
#     4  11  25  44  67  97 138 172 216 278 336 398
#
# _framework density 24.238012000000001
#
# number of rings (size 3 to 8) (size 9 to 14) (size 15 to 20)
#    0.000    1.500    2.500    1.500    1.750    6.000 
#    9.000    1.250    0.000    0.000    0.000    0.000 
#    0.000    0.000    0.000    0.000    0.000    0.000 
#
# Total GULP energy -89372.422152 kJ/mol
# GULP energy per Si atom -5585.776384 kJ/mol
# Density = 2.418285 g / cm^3
# Si number density = 24.238012 Si / 1000 Ang^3
#
#
#
# Elastic Constant Matrix: (Units=GPa)
#
#
# Indices 1 2 3 4 5 6 
#
# 1 35.4619 25.3969 17.7158 -17.5276 -5.4705 -16.7480
# 2 25.3969 96.2427 40.2660 0.5429 4.3722 -25.7626
# 3 17.7158 40.2660 123.1050 1.5784 -13.8242 -21.1616
# 4 -17.5276 0.5429 1.5784 56.1007 -3.6136 -1.4969
# 5 -5.4705 4.3722 -13.8242 -3.6136 30.0738 8.5627
# 6 -16.7480 -25.7626 -21.1616 -1.4969 8.5627 31.1584
#
#
#
# Elastic Compliance Matrix: (Units=1/GPa)
#
#
# Indices 1 2 3 4 5 6 
#
# 1 0.054900 -0.009165 -0.000834 0.018279 0.007376 0.020216
# 2 -0.009165 0.017201 -0.003702 -0.003253 -0.008839 0.009055
# 3 -0.000834 -0.003702 0.010351 -0.000167 0.004474 0.002284
# 4 0.018279 -0.003253 -0.000167 0.024056 0.004647 0.006901
# 5 0.007376 -0.008839 0.004474 0.004647 0.041786 -0.011564
# 6 0.020216 0.009055 0.002284 0.006901 -0.011564 0.055508
#
#
# Mechanical properties :
#
#
# Convention : Reuss Voigt Hill
#
# Bulk Modulus (GPa) = 18.16480 46.84076 32.50278
# Shear Modulus (GPa) = 20.03580 34.89530 27.46555
#
# Velocity S-wave (km/s) = 2.87823 3.79845 3.36990
# Velocity P-wave (km/s) = 4.30769 6.21328 5.34608
#
# Compressibility (1/GPa) = 0.05505154
#
# Stress axis : x y z
#
# Youngs Moduli (GPa) = 18.21496 58.13509 96.60855
#
# Poissons Ratio (x) = 0.53281 0.08054
# Poissons Ratio (y) = 0.16694 0.35762
# Poissons Ratio (z) = 0.01519 0.21520
#
# Static dielectric constant tensor:
#      x y z
#    x 1.998900 -0.048970 -0.011190 
#    y -0.048970 1.969860 -0.003670 
#    z -0.011190 -0.003670 1.940060 
# 
# From -- ./inp_files/279753.got.cif
#   From: 2010.05.17/outbox.cif.g08.bks.cpg/sg2_140_cif.got.tgz:279753.got - 2010.06.03 11:33:40.
