data_PCOD9031680
_publ_section_title
;
Structure prediction by ZEFSAII (Michael W. Deem and Ramdas Pophale) SiO2 
 PCOD9031680
Probable space group: P -1
;
_chemical_formula_sum "Si O2"
_cell_formula_units_Z 14
_cell_length_a 8.365712
_cell_length_b 15.438270
_cell_length_c 11.671072
_cell_angle_alpha 47.953122
_cell_angle_beta 119.095852
_cell_angle_gamma 77.471108
_cell_volume 536.393729
_symmetry_space_group_name_H-M "P -1"
_symmetry_group_IT_number 2
_symmetry_cell_setting 'triclinic'
loop_
_space_group_symop_operation_xyz
x,y,z
-x,-y,-z
loop_
_atom_site_type_symbol
_atom_site_label
_atom_site_fract_x
_atom_site_fract_y
_atom_site_fract_z
Si Si1 0.705432 0.568890 0.012399
Si Si2 0.911017 0.251478 0.257827
Si Si3 0.315467 0.346590 0.825928
Si Si4 0.403224 0.570554 0.627901
Si Si5 0.318868 0.973520 0.437643
Si Si6 0.185924 0.827497 0.118399
Si Si7 0.300222 0.994796 0.892407
O O1 0.987707 0.320323 0.307234
O O2 0.588421 0.726818 0.740474
O O3 0.366837 0.678155 0.835684
O O4 0.798126 0.592227 0.136915
O O5 0.720808 0.434207 0.933180
O O6 0.131278 0.057496 0.420523
O O7 0.425882 0.419175 0.772754
O O8 0.000000 0.500000 0.500000
O O9 0.594692 0.098778 0.116577
O O10 0.376721 0.632805 0.436125
O O11 0.078290 0.780803 0.401294
O O12 0.500000 0.000000 0.500000
O O13 0.065643 0.094359 0.133875
O O14 0.391005 0.822952 0.136007
O O15 0.000000 0.000000 0.000000
O O16 0.500000 0.000000 0.000000
#
# Coordination Sequence:
#
# PCOD9031680 Si02
#       7
#     2   2   2   2   2   2   2
#     4  10  23  43  66  95 133 175 224 275 338 404
#     4  10  23  46  71  96 132 181 227 280 337 404
#     4  11  23  39  64 100 130 170 224 279 331 391
#     4  10  22  43  67  99 135 173 227 275 340 395
#     4  12  27  45  69 101 141 184 226 277 346 407
#     4  10  23  44  68  99 137 180 222 280 337 401
#     4  11  22  40  67  99 138 172 219 282 337 402
#
# _framework density 26.10023
#
# number of rings (size 3 to 8) (size 9 to 14) (size 15 to 20)
#    0.000    1.429    1.429    3.857    2.000    6.286 
#    5.143    0.000    0.000    0.000    0.000    0.000 
#    0.000    0.000    0.000    0.000    0.000    0.000 
#
# Total GULP energy -78181.856930 kJ/mol
# GULP energy per Si atom -5584.418352 kJ/mol
# Density = 2.604083 g / cm^3
# Si number density = 26.100230 Si / 1000 Ang^3
#
#
#
# Elastic Constant Matrix: (Units=GPa)
#
#
# Indices 1 2 3 4 5 6 
#
# 1 66.7909 19.8336 20.5869 16.4350 -13.6188 21.3105
# 2 19.8336 160.7569 24.2126 -20.4861 -3.5988 9.8095
# 3 20.5869 24.2126 60.8085 -9.3841 -22.6529 11.4305
# 4 16.4350 -20.4861 -9.3841 68.3441 -5.5511 0.5940
# 5 -13.6188 -3.5988 -22.6529 -5.5511 43.7597 -6.5591
# 6 21.3105 9.8095 11.4305 0.5940 -6.5591 40.6142
#
#
#
# Elastic Compliance Matrix: (Units=1/GPa)
#
#
# Indices 1 2 3 4 5 6 
#
# 1 0.022126 -0.002163 -0.005219 -0.006459 0.001803 -0.009233
# 2 -0.002163 0.007076 -0.002023 0.002294 -0.000875 -0.000179
# 3 -0.005219 -0.002023 0.024266 0.004899 0.011111 -0.001880
# 4 -0.006459 0.002294 0.004899 0.017793 0.003229 0.001717
# 5 0.001803 -0.000875 0.011111 0.003229 0.029634 0.000877
# 6 -0.009233 -0.000179 -0.001880 0.001717 0.000877 0.030155
#
#
# Mechanical properties :
#
#
# Convention : Reuss Voigt Hill
#
# Bulk Modulus (GPa) = 28.85401 46.40251 37.62826
# Shear Modulus (GPa) = 30.97648 45.45848 38.21748
#
# Velocity S-wave (km/s) = 3.44877 4.17788 3.83071
# Velocity P-wave (km/s) = 5.19016 6.41016 5.83215
#
# Compressibility (1/GPa) = 0.03465723
#
# Stress axis : x y z
#
# Youngs Moduli (GPa) = 45.19596 141.32544 41.20976
#
# Poissons Ratio (x) = 0.30570 0.21507
# Poissons Ratio (y) = 0.09776 0.08338
# Poissons Ratio (z) = 0.23588 0.28593
#
# Static dielectric constant tensor:
#      x y z
#    x 2.184010 -0.075020 0.012900 
#    y -0.075020 2.483580 -0.117780 
#    z 0.012900 -0.117780 2.474410 
# 
# From -- ./inp_files/397113.got.cif
#   From: 2010.05.17/outbox.cif.g08.bks.cpg/sg2_199_cif.got.tgz:397113.got - 2010.06.03 11:33:40.
