data_PCOD9031883
_publ_section_title
;
Structure prediction by ZEFSAII (Michael W. Deem and Ramdas Pophale) SiO2 
 PCOD9031883
Probable space group: P -1
;
_chemical_formula_sum "Si O2"
_cell_formula_units_Z 16
_cell_length_a 11.745345
_cell_length_b 9.085477
_cell_length_c 12.234366
_cell_angle_alpha 43.658165
_cell_angle_beta 132.422875
_cell_angle_gamma 126.580846
_cell_volume 650.238045
_symmetry_space_group_name_H-M "P -1"
_symmetry_group_IT_number 2
_symmetry_cell_setting 'triclinic'
loop_
_space_group_symop_operation_xyz
x,y,z
-x,-y,-z
loop_
_atom_site_type_symbol
_atom_site_label
_atom_site_fract_x
_atom_site_fract_y
_atom_site_fract_z
Si Si1 0.553592 0.351225 0.361577
Si Si2 0.690059 0.802819 0.537230
Si Si3 0.055012 0.375213 0.779978
Si Si4 0.613548 0.731231 0.918965
Si Si5 0.951798 0.528981 0.830411
Si Si6 0.614937 0.866011 0.086236
Si Si7 0.136813 0.778848 0.451014
Si Si8 0.159436 0.958684 0.684465
O O1 0.473362 0.282776 0.462354
O O2 0.452001 0.214497 0.270023
O O3 0.558112 0.607940 0.212051
O O4 0.727816 0.315316 0.473114
O O5 0.697242 0.933514 0.358699
O O6 0.792302 0.620492 0.681437
O O7 0.793044 0.985193 0.583801
O O8 0.938732 0.356342 0.817830
O O9 0.078244 0.607767 0.603760
O O10 0.990996 0.212861 0.727687
O O11 0.216116 0.322496 0.953933
O O12 0.500000 0.500000 0.000000
O O13 0.616725 0.882645 0.946519
O O14 0.110393 0.701308 0.801121
O O15 0.000000 0.500000 0.000000
O O16 0.785805 0.943489 0.214341
O O17 0.500000 0.000000 0.000000
O O18 0.000000 0.000000 0.500000
#
# Coordination Sequence:
#
# PCOD9031883 Si02
#       8
#     2   2   2   2   2   2   2   2
#     4  11  25  47  69 101 146 189 236 287 361 415
#     4  11  25  44  71 102 146 187 238 292 349 423
#     4  11  23  42  74 101 137 181 243 287 354 413
#     4  10  22  43  68  97 140 184 226 285 355 420
#     4  11  25  44  71 100 144 186 231 291 361 415
#     4  11  26  42  71 106 139 185 236 289 355 423
#     4  11  24  42  73 102 138 186 240 291 349 421
#     4  10  25  43  72  99 141 179 238 282 360 408
#
# _framework density 24.606373999999999
#
# number of rings (size 3 to 8) (size 9 to 14) (size 15 to 20)
#    0.000    1.250    3.750    1.125   14.000    0.500 
#    2.250    1.250    0.000    0.000    0.000    0.000 
#    0.000    0.000    0.000    0.000    0.000    0.000 
#
# Total GULP energy -89458.156356 kJ/mol
# GULP energy per Si atom -5591.134772 kJ/mol
# Density = 2.455037 g / cm^3
# Si number density = 24.606374 Si / 1000 Ang^3
#
#
#
# Elastic Constant Matrix: (Units=GPa)
#
#
# Indices 1 2 3 4 5 6 
#
# 1 145.3534 13.8248 36.9489 5.0358 -5.8087 -34.2506
# 2 13.8248 64.4950 2.4591 22.1410 9.9038 -22.9646
# 3 36.9489 2.4591 62.3413 28.9833 -1.8319 2.0908
# 4 5.0358 22.1410 28.9833 32.4764 -5.8373 -0.8821
# 5 -5.8087 9.9038 -1.8319 -5.8373 41.8726 -1.1950
# 6 -34.2506 -22.9646 2.0908 -0.8821 -1.1950 30.6066
#
#
#
# Elastic Compliance Matrix: (Units=1/GPa)
#
#
# Indices 1 2 3 4 5 6 
#
# 1 0.014649 -0.002664 -0.015987 0.015062 0.004522 0.016097
# 2 -0.002664 0.046856 0.023966 -0.055262 -0.017301 0.028271
# 3 -0.015987 0.023966 0.054863 -0.065651 -0.014813 -0.006126
# 4 0.015062 -0.055262 -0.065651 0.129687 0.029933 -0.015218
# 5 0.004522 -0.017301 -0.014813 0.029933 0.031989 -0.004797
# 6 0.016097 0.028271 -0.006126 -0.015218 -0.004797 0.071690
#
#
# Mechanical properties :
#
#
# Convention : Reuss Voigt Hill
#
# Bulk Modulus (GPa) = 7.87408 42.07280 24.97344
# Shear Modulus (GPa) = 13.10833 35.58825 24.34829
#
# Velocity S-wave (km/s) = 2.31058 3.80715 3.14906
# Velocity P-wave (km/s) = 3.21330 6.03832 4.83667
#
# Compressibility (1/GPa) = 0.12699898
#
# Stress axis : x y z
#
# Youngs Moduli (GPa) = 68.26477 21.34176 18.22738
#
# Poissons Ratio (x) = 0.05685 0.29139
# Poissons Ratio (y) = 0.18186 -0.43684
# Poissons Ratio (z) = 1.09132 -0.51148
#
# Static dielectric constant tensor:
#      x y z
#    x 1.910900 -0.033290 -0.035820 
#    y -0.033290 2.011930 0.004620 
#    z -0.035820 0.004620 1.967570 
# 
# From -- ./inp_files/419020.got.cif
#   From: 2010.05.17/outbox.cif.g08.bks.cpg/sg2_210_cif.got.tgz:419020.got - 2010.06.03 11:33:40.
