data_PCOD9031414
_publ_section_title
;
Structure prediction by ZEFSAII (Michael W. Deem and Ramdas Pophale) SiO2 
 PCOD9031414
Probable space group: P -1
;
_chemical_formula_sum "Si O2"
_cell_formula_units_Z 13
_cell_length_a 15.219308
_cell_length_b 7.900418
_cell_length_c 5.379075
_cell_angle_alpha 60.579980
_cell_angle_beta 104.769647
_cell_angle_gamma 125.594732
_cell_volume 457.666470
_symmetry_space_group_name_H-M "P -1"
_symmetry_group_IT_number 2
_symmetry_cell_setting 'triclinic'
loop_
_space_group_symop_operation_xyz
x,y,z
-x,-y,-z
loop_
_atom_site_type_symbol
_atom_site_label
_atom_site_fract_x
_atom_site_fract_y
_atom_site_fract_z
Si Si1 0.061033 0.327653 0.051209
Si Si2 0.632416 0.822814 0.474971
Si Si3 0.838655 0.232003 0.445760
Si Si4 0.500000 0.000000 0.500000
Si Si5 0.862348 0.916422 0.086204
Si Si6 0.252248 0.535358 0.444017
Si Si7 0.569953 0.335671 0.860620
O O1 0.160315 0.435570 0.235548
O O2 0.061402 0.544947 0.777414
O O3 0.089800 0.215347 0.927303
O O4 0.947062 0.102653 0.213772
O O5 0.573236 0.883547 0.595670
O O6 0.640011 0.611816 0.734969
O O7 0.548535 0.733787 0.252234
O O8 0.747160 0.047761 0.326877
O O9 0.782191 0.338221 0.484644
O O10 0.855364 0.077956 0.762376
O O11 0.430909 0.810930 0.810561
O O12 0.757442 0.693570 0.288244
O O13 0.374090 0.710231 0.303932
#
# Coordination Sequence:
#
# PCOD9031414 Si02
#       7
#     2   2   2   1   2   2   2
#     4  10  22  43  66  96 132 170 216 268 321 381
#     4  11  25  44  66  95 131 170 213 266 324 385
#     4  11  24  41  66  98 131 171 217 264 319 383
#     4  12  24  44  68  92 124 166 216 268 318 378
#     4  10  23  42  67  95 132 173 215 266 322 382
#     4  11  24  42  66  98 131 170 217 267 324 384
#     4  11  26  45  67  95 130 171 216 266 324 387
#
# _framework density 28.404965000000001
#
# number of rings (size 3 to 8) (size 9 to 14) (size 15 to 20)
#    0.000    1.231    0.000    4.615    0.000   11.692 
#    0.000    0.000    0.000    0.000    0.000    0.000 
#    0.000    0.000    0.000    0.000    0.000    0.000 
#
# Total GULP energy -72739.626010 kJ/mol
# GULP energy per Si atom -5595.355847 kJ/mol
# Density = 2.834031 g / cm^3
# Si number density = 28.404965 Si / 1000 Ang^3
#
#
#
# Elastic Constant Matrix: (Units=GPa)
#
#
# Indices 1 2 3 4 5 6 
#
# 1 87.1500 9.6949 25.7944 -23.1422 -7.6399 -6.5820
# 2 9.6949 129.5466 39.7334 -31.4565 11.3032 3.3870
# 3 25.7944 39.7334 195.7140 -43.0015 12.4873 4.7148
# 4 -23.1422 -31.4565 -43.0015 57.1129 2.4303 10.9643
# 5 -7.6399 11.3032 12.4873 2.4303 48.3683 -5.4020
# 6 -6.5820 3.3870 4.7148 10.9643 -5.4020 65.0824
#
#
#
# Elastic Compliance Matrix: (Units=1/GPa)
#
#
# Indices 1 2 3 4 5 6 
#
# 1 0.013173 0.000183 -0.000946 0.004478 0.002148 0.000815
# 2 0.000183 0.009403 -0.000600 0.005195 -0.002443 -0.001505
# 3 -0.000946 -0.000600 0.006531 0.004577 -0.002091 -0.001482
# 4 0.004478 0.005195 0.004577 0.026734 -0.003584 -0.004950
# 5 0.002148 -0.002443 -0.002091 -0.003584 0.022637 0.002979
# 6 0.000815 -0.001505 -0.001482 -0.004950 0.002979 0.016714
#
#
# Mechanical properties :
#
#
# Convention : Reuss Voigt Hill
#
# Bulk Modulus (GPa) = 37.90495 62.53958 50.22227
# Shear Modulus (GPa) = 46.85488 56.59191 51.72340
#
# Velocity S-wave (km/s) = 4.06585 4.46839 4.27186
# Velocity P-wave (km/s) = 5.95105 6.97760 6.48467
#
# Compressibility (1/GPa) = 0.02638178
#
# Stress axis : x y z
#
# Youngs Moduli (GPa) = 75.91164 106.34511 153.12371
#
# Poissons Ratio (x) = -0.01946 0.14486
# Poissons Ratio (y) = -0.01389 0.09182
# Poissons Ratio (z) = 0.07182 0.06377
#
# Static dielectric constant tensor:
#      x y z
#    x 2.207280 0.057300 -0.052010 
#    y 0.057300 1.707610 -0.179260 
#    z -0.052010 -0.179260 2.066890 
# 
# From -- ./inp_files/104455.got.cif
#   From: 2010.05.17/outbox.cif.g08.bks.cpg/sg2_53_cif.got.tgz:104455.got - 2010.06.03 11:33:40.
