data_PCOD9031340
_publ_section_title
;
Structure prediction by ZEFSAII (Michael W. Deem and Ramdas Pophale) SiO2 
 PCOD9031340
Probable space group: P -1
;
_chemical_formula_sum "Si O2"
_cell_formula_units_Z 14
_cell_length_a 22.705730
_cell_length_b 22.041869
_cell_length_c 13.055150
_cell_angle_alpha 29.674847
_cell_angle_beta 159.822981
_cell_angle_gamma 161.938742
_cell_volume 681.580170
_symmetry_space_group_name_H-M "P -1"
_symmetry_group_IT_number 2
_symmetry_cell_setting 'triclinic'
loop_
_space_group_symop_operation_xyz
x,y,z
-x,-y,-z
loop_
_atom_site_type_symbol
_atom_site_label
_atom_site_fract_x
_atom_site_fract_y
_atom_site_fract_z
Si Si1 0.283111 0.288810 0.312615
Si Si2 0.728299 0.557117 0.355471
Si Si3 0.295646 0.280428 0.738329
Si Si4 0.669735 0.117638 0.208190
Si Si5 0.339059 0.035345 0.160157
Si Si6 0.729158 0.874111 0.674918
Si Si7 0.314268 0.099721 0.789267
O O1 0.481627 0.507478 0.269381
O O2 0.238221 0.160117 0.337823
O O3 0.391868 0.277612 0.607556
O O4 0.979703 0.166662 0.027584
O O5 0.809641 0.700628 0.364899
O O6 0.553842 0.350647 0.422974
O O7 0.006654 0.664474 0.600515
O O8 0.500000 0.500000 0.000000
O O9 0.017701 0.100432 0.481438
O O10 0.414101 0.214835 0.064540
O O11 0.687742 0.991123 0.462422
O O12 0.500000 0.000000 0.000000
O O13 0.499000 0.112315 0.006108
O O14 0.500000 0.000000 0.500000
O O15 0.362486 0.085242 0.005400
O O16 0.000000 0.000000 0.000000
#
# Coordination Sequence:
#
# PCOD9031340 Si02
#       7
#     2   2   2   2   2   2   2
#     4  10  22  43  66  90 129 170 216 263 324 385
#     4  11  23  38  65  99 129 173 213 256 327 385
#     4  10  22  43  67  92 129 168 218 265 321 388
#     4  12  22  41  65  95 137 163 215 274 316 383
#     4  11  26  42  65  94 126 168 220 268 327 382
#     4  11  23  38  67  96 131 174 212 261 328 381
#     4  11  24  41  66  94 127 173 215 268 321 385
#
# _framework density 20.540503999999999
#
# number of rings (size 3 to 8) (size 9 to 14) (size 15 to 20)
#    0.000    1.143    4.286    2.571    2.000    4.571 
#    0.000    0.000    0.000    0.000    0.000    0.000 
#    0.000    0.000    0.000    0.000    0.000    0.000 
#
# Total GULP energy -78055.777318 kJ/mol
# GULP energy per Si atom -5575.412666 kJ/mol
# Density = 2.049375 g / cm^3
# Si number density = 20.540504 Si / 1000 Ang^3
#
#
#
# Elastic Constant Matrix: (Units=GPa)
#
#
# Indices 1 2 3 4 5 6 
#
# 1 75.6185 14.3211 27.9398 6.0621 23.9526 17.3821
# 2 14.3211 104.9078 40.8967 -9.3369 17.7446 20.7443
# 3 27.9398 40.8967 139.4592 -19.9840 31.4604 12.1126
# 4 6.0621 -9.3369 -19.9840 33.2665 -0.7992 1.7501
# 5 23.9526 17.7446 31.4604 -0.7992 42.5286 6.3650
# 6 17.3821 20.7443 12.1126 1.7501 6.3650 29.2262
#
#
#
# Elastic Compliance Matrix: (Units=1/GPa)
#
#
# Indices 1 2 3 4 5 6 
#
# 1 0.018785 0.001039 -0.002002 -0.004057 -0.008256 -0.009039
# 2 0.001039 0.012558 -0.002177 0.002384 -0.002953 -0.008129
# 3 -0.002002 -0.002177 0.010329 0.005867 -0.005386 -0.000723
# 4 -0.004057 0.002384 0.005867 0.035127 -0.001880 -0.003405
# 5 -0.008256 -0.002953 -0.005386 -0.001880 0.033022 0.002160
# 6 -0.009039 -0.008129 -0.000723 -0.003405 0.002160 0.045395
#
#
# Mechanical properties :
#
#
# Convention : Reuss Voigt Hill
#
# Bulk Modulus (GPa) = 28.25506 54.03341 41.14424
# Shear Modulus (GPa) = 28.85278 36.79278 32.82278
#
# Velocity S-wave (km/s) = 3.75197 4.23688 4.00178
# Velocity P-wave (km/s) = 5.70573 7.09210 6.43635
#
# Compressibility (1/GPa) = 0.03539189
#
# Stress axis : x y z
#
# Youngs Moduli (GPa) = 53.23265 79.62995 96.81800
#
# Poissons Ratio (x) = -0.08272 0.19383
# Poissons Ratio (y) = -0.05530 0.21077
# Poissons Ratio (z) = 0.10657 0.17335
#
# Static dielectric constant tensor:
#      x y z
#    x 1.777810 -0.018480 -0.017870 
#    y -0.018480 1.717830 -0.002700 
#    z -0.017870 -0.002700 1.670760 
# 
# From -- ./inp_files/236718.got.cif
#   From: 2010.05.17/outbox.cif.g08.bks.cpg/sg2_119_cif.got.tgz:236718.got - 2010.06.03 11:33:40.
