data_PCOD9031768
_publ_section_title
;
Structure prediction by ZEFSAII (Michael W. Deem and Ramdas Pophale) SiO2 
 PCOD9031768
Probable space group: P -1
;
_chemical_formula_sum "Si O2"
_cell_formula_units_Z 13
_cell_length_a 24.001132
_cell_length_b 10.030688
_cell_length_c 13.488898
_cell_angle_alpha 146.274205
_cell_angle_beta 24.407067
_cell_angle_gamma 155.480496
_cell_volume 556.791743
_symmetry_space_group_name_H-M "P -1"
_symmetry_group_IT_number 2
_symmetry_cell_setting 'triclinic'
loop_
_space_group_symop_operation_xyz
x,y,z
-x,-y,-z
loop_
_atom_site_type_symbol
_atom_site_label
_atom_site_fract_x
_atom_site_fract_y
_atom_site_fract_z
Si Si1 0.646428 0.056840 0.011584
Si Si2 0.833055 0.160000 0.420410
Si Si3 0.000000 0.500000 0.000000
Si Si4 0.533128 0.669987 0.757558
Si Si5 0.972707 0.687521 0.372868
Si Si6 0.619307 0.217575 0.351088
Si Si7 0.187505 0.318816 0.985391
O O1 0.831504 0.156101 0.806997
O O2 0.566493 0.817118 0.902317
O O3 0.544970 0.980516 0.230682
O O4 0.701784 0.385453 0.087147
O O5 0.852610 0.435622 0.501773
O O6 0.660247 0.949842 0.642231
O O7 0.836403 0.964085 0.205339
O O8 0.006774 0.260418 0.262626
O O9 0.921820 0.511032 0.240600
O O10 0.824778 0.400900 0.160513
O O11 0.595016 0.469367 0.527421
O O12 0.321618 0.438840 0.933039
O O13 0.000000 0.000000 0.500000
O O14 0.500000 0.000000 0.500000
#
# Coordination Sequence:
#
# PCOD9031768 Si02
#       7
#     2   2   1   2   2   2   2
#     4  10  23  45  64 104 138 169 236 284 326 417
#     4  10  23  42  73 101 137 183 224 283 345 399
#     4  10  24  46  68  94 136 182 224 278 330 404
#     4  12  24  43  72 102 138 179 227 284 345 404
#     4  10  22  44  68 100 138 179 231 277 338 408
#     4  11  26  44  68  96 137 183 226 275 344 400
#     4  10  22  43  68 105 138 175 229 282 339 409
#
# _framework density 23.348047000000001
#
# number of rings (size 3 to 8) (size 9 to 14) (size 15 to 20)
#    0.000    1.538    1.538    1.846    4.308    3.077 
#    2.769    6.154    0.000    2.769    0.000    0.000 
#    0.000    0.000    0.000    0.000    0.000    0.000 
#
# Total GULP energy -72399.530226 kJ/mol
# GULP energy per Si atom -5569.194633 kJ/mol
# Density = 2.329491 g / cm^3
# Si number density = 23.348047 Si / 1000 Ang^3
#
#
#
# Elastic Constant Matrix: (Units=GPa)
#
#
# Indices 1 2 3 4 5 6 
#
# 1 -769.7048 1586.2403 341.9174 396.9143 -482.9416-1284.4793
# 2 1586.2403-2479.9169 -431.2273 -628.5482 792.3773 2168.3984
# 3 341.9174 -431.2273 -5.4125 -115.0216 156.9233 407.5696
# 4 396.9143 -628.5482 -115.0216 -140.0355 203.6213 534.7163
# 5 -482.9416 792.3773 156.9233 203.6213 -198.6694 -677.4677
# 6 -1284.4793 2168.3984 407.5696 534.7163 -677.4677-1813.0284
#
#
#
# Elastic Compliance Matrix: (Units=1/GPa)
#
#
# Indices 1 2 3 4 5 6 
#
# 1 0.010766 -0.000853 -0.005609 -0.009151 0.001425 -0.013140
# 2 -0.000853 0.015671 -0.009593 -0.007438 0.006433 0.012593
# 3 -0.005609 -0.009593 0.021220 0.006713 -0.005728 0.001391
# 4 -0.009151 -0.007438 0.006713 0.070440 -0.008445 0.023027
# 5 0.001425 0.006433 -0.005728 -0.008445 0.021623 -0.005175
# 6 -0.013140 0.012593 0.001391 0.023027 -0.005175 0.032857
#
#
# Mechanical properties :
#
#
# Convention : Reuss Voigt Hill
#
# Bulk Modulus (GPa) = 64.32835 -29.01928 17.65453
# Shear Modulus (GPa) = 23.82431 -747.14431 -361.66000
#
# Velocity S-wave (km/s) = 3.19783 -17.90803 -12.45936
# Velocity P-wave (km/s) = 6.42235 20.97744 14.12102
#
# Compressibility (1/GPa) = 0.01554525
#
# Stress axis : x y z
#
# Youngs Moduli (GPa) = 92.88581 63.81301 47.12573
#
# Poissons Ratio (x) = 0.05446 0.26434
# Poissons Ratio (y) = 0.07927 0.45208
# Poissons Ratio (z) = 0.52101 0.61216
#
# Static dielectric constant tensor:
#      x y z
#    x 1.966730 -0.138230 -0.080570 
#    y -0.138230 2.131250 0.073730 
#    z -0.080570 0.073730 1.936550 
# 
# From -- ./inp_files/306392.got.cif
#   From: 2010.05.17/outbox.cif.g08.bks.cpg/sg2_154_cif.got.tgz:306392.got - 2010.06.03 11:33:40.
