data_PCOD9031428
_publ_section_title
;
Structure prediction by ZEFSAII (Michael W. Deem and Ramdas Pophale) SiO2 
 PCOD9031428
Probable space group: P -1
;
_chemical_formula_sum "Si O2"
_cell_formula_units_Z 13
_cell_length_a 19.368394
_cell_length_b 4.951727
_cell_length_c 14.158664
_cell_angle_alpha 79.251808
_cell_angle_beta 160.224667
_cell_angle_gamma 105.949977
_cell_volume 430.754077
_symmetry_space_group_name_H-M "P -1"
_symmetry_group_IT_number 2
_symmetry_cell_setting 'triclinic'
loop_
_space_group_symop_operation_xyz
x,y,z
-x,-y,-z
loop_
_atom_site_type_symbol
_atom_site_label
_atom_site_fract_x
_atom_site_fract_y
_atom_site_fract_z
Si Si1 0.000000 0.500000 0.500000
Si Si2 0.673160 0.867130 0.359164
Si Si3 0.049998 0.708392 0.182688
Si Si4 0.696625 0.587301 0.004021
Si Si5 0.308318 0.143550 0.826467
Si Si6 0.222313 0.852828 0.053316
Si Si7 0.333542 0.127822 0.383800
O O1 0.125595 0.573543 0.766660
O O2 0.142882 0.829877 0.625818
O O3 0.671453 0.739843 0.260918
O O4 0.891679 0.062860 0.671430
O O5 0.543078 0.615931 0.278645
O O6 0.523502 0.079865 0.142518
O O7 0.251283 0.854255 0.365222
O O8 0.987377 0.404044 0.172754
O O9 0.844981 0.705093 0.853916
O O10 0.763071 0.657911 0.200758
O O11 0.742890 0.884479 0.991765
O O12 0.298781 0.012096 0.240695
O O13 0.416667 0.710958 0.289666
#
# Coordination Sequence:
#
# PCOD9031428 Si02
#       7
#     1   2   2   2   2   2   2
#     4  10  24  42  64  98 132 178 236 280 332 412
#     4  10  24  42  67 100 135 184 230 281 348 416
#     4  11  24  45  74 101 143 181 235 287 353 416
#     4  11  24  44  69  98 141 182 232 285 350 410
#     4  10  22  43  66  96 139 180 229 288 340 412
#     4  11  25  44  74 105 137 185 234 290 353 419
#     4  10  25  46  68 106 142 180 229 296 351 421
#
# _framework density 30.179635999999999
#
# number of rings (size 3 to 8) (size 9 to 14) (size 15 to 20)
#    0.000    1.538    0.000    2.769    4.308    9.846 
#    2.769    0.000    0.000    0.000    0.000    0.000 
#    0.000    0.000    0.000    0.000    0.000    0.000 
#
# Total GULP energy -72772.425583 kJ/mol
# GULP energy per Si atom -5597.878891 kJ/mol
# Density = 3.011095 g / cm^3
# Si number density = 30.179636 Si / 1000 Ang^3
#
#
#
# Elastic Constant Matrix: (Units=GPa)
#
#
# Indices 1 2 3 4 5 6 
#
# 1 111.3270 55.5567 -23.4101 -0.5445 -2.2073 29.0126
# 2 55.5567 219.1765 48.7248 30.6170 0.1759 38.9962
# 3 -23.4101 48.7248 140.5611 7.1152 3.0282 22.9403
# 4 -0.5445 30.6170 7.1152 55.3764 5.3025 1.3794
# 5 -2.2073 0.1759 3.0282 5.3025 37.6572 -3.2908
# 6 29.0126 38.9962 22.9403 1.3794 -3.2908 51.2106
#
#
#
# Elastic Compliance Matrix: (Units=1/GPa)
#
#
# Indices 1 2 3 4 5 6 
#
# 1 0.013480 -0.003374 0.004509 0.001636 -0.000413 -0.007158
# 2 -0.003374 0.006808 -0.002413 -0.003461 0.000270 -0.002081
# 3 0.004509 -0.002413 0.009530 0.000374 -0.000986 -0.005059
# 4 0.001636 -0.003461 0.000374 0.020177 -0.002687 0.000825
# 5 -0.000413 0.000270 -0.000986 -0.002687 0.027188 0.002289
# 6 -0.007158 -0.002081 -0.005059 0.000825 0.002289 0.027558
#
#
# Mechanical properties :
#
#
# Convention : Reuss Voigt Hill
#
# Bulk Modulus (GPa) = 36.68215 70.31193 53.49704
# Shear Modulus (GPa) = 42.96197 54.86174 48.91185
#
# Velocity S-wave (km/s) = 3.77708 4.26824 4.03015
# Velocity P-wave (km/s) = 5.58594 6.90209 6.27860
#
# Compressibility (1/GPa) = 0.02726122
#
# Stress axis : x y z
#
# Youngs Moduli (GPa) = 74.18653 146.89369 104.93591
#
# Poissons Ratio (x) = 0.49560 -0.47313
# Poissons Ratio (y) = 0.25029 0.25318
# Poissons Ratio (z) = -0.33449 0.35441
#
# Static dielectric constant tensor:
#      x y z
#    x 2.591920 -0.149040 0.102770 
#    y -0.149040 2.349060 -0.227600 
#    z 0.102770 -0.227600 2.542500 
# 
# From -- ./inp_files/37755.got.cif
#   From: 2010.05.17/outbox.cif.g08.bks.cpg/sg2_19_cif.got.tgz:37755.got - 2010.06.03 11:33:40.
