data_PCOD9031875
_publ_section_title
;
Structure prediction by ZEFSAII (Michael W. Deem and Ramdas Pophale) SiO2 
 PCOD9031875
Probable space group: P -1
;
_chemical_formula_sum "Si O2"
_cell_formula_units_Z 14
_cell_length_a 10.957228
_cell_length_b 8.297500
_cell_length_c 14.410958
_cell_angle_alpha 49.500015
_cell_angle_beta 125.091308
_cell_angle_gamma 87.604827
_cell_volume 607.203409
_symmetry_space_group_name_H-M "P -1"
_symmetry_group_IT_number 2
_symmetry_cell_setting 'triclinic'
loop_
_space_group_symop_operation_xyz
x,y,z
-x,-y,-z
loop_
_atom_site_type_symbol
_atom_site_label
_atom_site_fract_x
_atom_site_fract_y
_atom_site_fract_z
Si Si1 0.402953 0.567246 0.031944
Si Si2 0.810373 0.746768 0.078339
Si Si3 0.333165 0.810048 0.467660
Si Si4 0.547559 0.693114 0.210827
Si Si5 0.812455 0.446225 0.578082
Si Si6 0.012754 0.878202 0.651591
Si Si7 0.434098 0.039000 0.282968
O O1 0.168686 0.834533 0.809356
O O2 0.500000 0.500000 0.000000
O O3 0.516860 0.630002 0.120315
O O4 0.430106 0.298845 0.179937
O O5 0.979529 0.702566 0.227770
O O6 0.891838 0.435944 0.215391
O O7 0.739194 0.875105 0.895797
O O8 0.606840 0.976003 0.960510
O O9 0.507808 0.473914 0.693820
O O10 0.221275 0.774176 0.354314
O O11 0.192010 0.958748 0.441130
O O12 0.392478 0.974253 0.388154
O O13 0.760005 0.545273 0.408180
O O14 0.641512 0.743150 0.445885
O O15 0.000000 0.000000 0.500000
#
# Coordination Sequence:
#
# PCOD9031875 Si02
#       7
#     2   2   2   2   2   2   2
#     4  11  24  44  70  96 140 178 225 285 331 396
#     4  10  22  43  68  97 136 178 221 276 340 400
#     4  10  22  44  68  99 139 172 225 282 331 403
#     4   9  22  43  64  98 134 173 225 272 338 398
#     4   9  21  39  68  98 133 178 213 278 332 400
#     4  11  25  45  69 100 132 179 233 279 333 399
#     4  10  23  43  66 105 134 176 226 275 341 396
#
# _framework density 23.056522999999999
#
# number of rings (size 3 to 8) (size 9 to 14) (size 15 to 20)
#    0.857    1.143    0.000    2.143    4.000    3.429 
#    5.143    4.286    0.000    0.000    0.000    0.000 
#    0.000    0.000    0.000    0.000    0.000    0.000 
#
# Total GULP energy -78005.652187 kJ/mol
# GULP energy per Si atom -5571.832299 kJ/mol
# Density = 2.300405 g / cm^3
# Si number density = 23.056523 Si / 1000 Ang^3
#
#
#
# Elastic Constant Matrix: (Units=GPa)
#
#
# Indices 1 2 3 4 5 6 
#
# 1 83.7840 40.1323 45.6452 -0.1000 -21.1889 -2.6587
# 2 40.1323 119.2513 45.8079 10.8328 -3.8839 1.8526
# 3 45.6452 45.8079 98.9513 7.2540 4.3245 12.4320
# 4 -0.1000 10.8328 7.2540 52.7545 13.3108 7.9225
# 5 -21.1889 -3.8839 4.3245 13.3108 28.5535 1.5994
# 6 -2.6587 1.8526 12.4320 7.9225 1.5994 24.9688
#
#
#
# Elastic Compliance Matrix: (Units=1/GPa)
#
#
# Indices 1 2 3 4 5 6 
#
# 1 0.026179 -0.002989 -0.012500 -0.004711 0.022590 0.009281
# 2 -0.002989 0.011045 -0.003784 -0.002159 0.000787 0.001381
# 3 -0.012500 -0.003784 0.019345 0.003143 -0.013581 -0.010810
# 4 -0.004711 -0.002159 0.003143 0.024026 -0.014986 -0.008570
# 5 0.022590 0.000787 -0.013581 -0.014986 0.060376 0.009996
# 6 0.009281 0.001381 -0.010810 -0.008570 0.009996 0.048397
#
#
# Mechanical properties :
#
#
# Convention : Reuss Voigt Hill
#
# Bulk Modulus (GPa) = 55.48489 62.79528 59.14008
# Shear Modulus (GPa) = 21.37452 32.61544 26.99498
#
# Velocity S-wave (km/s) = 3.04805 3.76518 3.42543
# Velocity P-wave (km/s) = 6.04189 6.79681 6.43044
#
# Compressibility (1/GPa) = 0.01802293
#
# Stress axis : x y z
#
# Youngs Moduli (GPa) = 38.19822 90.53488 51.69207
#
# Poissons Ratio (x) = 0.27060 0.64617
# Poissons Ratio (y) = 0.11417 0.19561
# Poissons Ratio (z) = 0.47750 0.34260
#
# Static dielectric constant tensor:
#      x y z
#    x 1.926530 0.013450 0.041550 
#    y 0.013450 1.926520 0.065030 
#    z 0.041550 0.065030 1.938890 
# 
# From -- ./inp_files/514025.got.cif
#   From: 2010.05.17/outbox.cif.g08.bks.cpg/sg2_258_cif.got.tgz:514025.got - 2010.06.03 11:33:40.
