data_PCOD9031626
_publ_section_title
;
Structure prediction by ZEFSAII (Michael W. Deem and Ramdas Pophale) SiO2 
 PCOD9031626
Probable space group: P -1
;
_chemical_formula_sum "Si O2"
_cell_formula_units_Z 12
_cell_length_a 18.124162
_cell_length_b 8.217226
_cell_length_c 18.826231
_cell_angle_alpha 139.577827
_cell_angle_beta 160.700305
_cell_angle_gamma 34.469050
_cell_volume 522.342339
_symmetry_space_group_name_H-M "P -1"
_symmetry_group_IT_number 2
_symmetry_cell_setting 'triclinic'
loop_
_space_group_symop_operation_xyz
x,y,z
-x,-y,-z
loop_
_atom_site_type_symbol
_atom_site_label
_atom_site_fract_x
_atom_site_fract_y
_atom_site_fract_z
Si Si1 0.553621 0.727151 0.878984
Si Si2 0.090925 0.878257 0.964486
Si Si3 0.475874 0.828346 0.188764
Si Si4 0.291008 0.796221 0.526137
Si Si5 0.735759 0.168239 0.210569
Si Si6 0.937886 0.264135 0.831656
O O1 0.814658 0.462671 0.061020
O O2 0.503815 0.636612 0.726602
O O3 0.323693 0.796759 0.747392
O O4 0.577193 0.012350 0.989801
O O5 0.352579 0.868370 0.169399
O O6 0.000000 0.000000 0.000000
O O7 0.889631 0.090335 0.793196
O O8 0.642561 0.980211 0.378507
O O9 0.377121 0.504202 0.808562
O O10 0.209615 0.009514 0.963985
O O11 0.254328 0.621705 0.370679
O O12 0.027646 0.974060 0.388858
O O13 0.000000 0.500000 0.000000
#
# Coordination Sequence:
#
# PCOD9031626 Si02
#       6
#     2   2   2   2   2   2
#     4  10  23  44  66 101 131 171 215 259 326 388
#     4   9  22  46  67  86 133 172 212 270 328 371
#     4   9  23  42  63  99 127 167 219 263 320 383
#     4  12  23  39  71  96 130 170 220 263 321 385
#     4  10  22  43  67  96 140 170 205 268 324 387
#     4  10  25  46  64  93 131 171 221 269 320 379
#
# _framework density 22.973438000000002
#
# number of rings (size 3 to 8) (size 9 to 14) (size 15 to 20)
#    1.000    1.000    0.000    2.000    4.667    4.667 
#    6.000    1.667    0.000    0.000    0.000    0.000 
#    0.000    0.000    0.000    0.000    0.000    0.000 
#
# Total GULP energy -66906.223849 kJ/mol
# GULP energy per Si atom -5575.518654 kJ/mol
# Density = 2.292115 g / cm^3
# Si number density = 22.973438 Si / 1000 Ang^3
#
#
#
# Elastic Constant Matrix: (Units=GPa)
#
#
# Indices 1 2 3 4 5 6 
#
# 1 130.0520 13.9171 28.3916 1.8941 -10.7543 -6.9909
# 2 13.9171 78.3220 15.8207 1.5021 -9.2783 0.9445
# 3 28.3916 15.8207 66.1190 8.3443 -22.1552 9.1501
# 4 1.8941 1.5021 8.3443 23.6973 -2.3840 7.1019
# 5 -10.7543 -9.2783 -22.1552 -2.3840 51.2936 -7.8393
# 6 -6.9909 0.9445 9.1501 7.1019 -7.8393 27.5430
#
#
#
# Elastic Compliance Matrix: (Units=1/GPa)
#
#
# Indices 1 2 3 4 5 6 
#
# 1 0.008888 -0.000755 -0.003919 -0.000377 0.000606 0.003853
# 2 -0.000755 0.013566 -0.002582 0.000074 0.001267 0.000542
# 3 -0.003919 -0.002582 0.020969 -0.004815 0.006828 -0.004687
# 4 -0.000377 0.000074 -0.004815 0.047083 -0.001655 -0.011110
# 5 0.000606 0.001267 0.006828 -0.001655 0.023481 0.004952
# 6 0.003853 0.000542 -0.004687 -0.011110 0.004952 0.043097
#
#
# Mechanical properties :
#
#
# Convention : Reuss Voigt Hill
#
# Bulk Modulus (GPa) = 34.58794 43.41687 39.00240
# Shear Modulus (GPa) = 27.58891 34.93103 31.25997
#
# Velocity S-wave (km/s) = 3.46917 3.90358 3.69277
# Velocity P-wave (km/s) = 5.57989 6.26554 5.93263
#
# Compressibility (1/GPa) = 0.02891182
#
# Stress axis : x y z
#
# Youngs Moduli (GPa) = 112.50831 73.71598 47.68942
#
# Poissons Ratio (x) = 0.05568 0.18688
# Poissons Ratio (y) = 0.08498 0.12311
# Poissons Ratio (z) = 0.44088 0.19030
#
# Static dielectric constant tensor:
#      x y z
#    x 1.915520 0.023160 -0.042580 
#    y 0.023160 1.862880 -0.039020 
#    z -0.042580 -0.039020 1.873840 
# 
# From -- ./inp_files/575191.got.cif
#   From: 2010.05.17/outbox.cif.g08.bks.cpg/sg2_288_cif.got.tgz:575191.got - 2010.06.03 11:33:40.
