data_PCOD9031351
_publ_section_title
;
Structure prediction by ZEFSAII (Michael W. Deem and Ramdas Pophale) SiO2 
 PCOD9031351
Probable space group: P -1
;
_chemical_formula_sum "Si O2"
_cell_formula_units_Z 14
_cell_length_a 5.775318
_cell_length_b 25.233133
_cell_length_c 15.259170
_cell_angle_alpha 161.175928
_cell_angle_beta 90.708477
_cell_angle_gamma 79.889632
_cell_volume 618.062264
_symmetry_space_group_name_H-M "P -1"
_symmetry_group_IT_number 2
_symmetry_cell_setting 'triclinic'
loop_
_space_group_symop_operation_xyz
x,y,z
-x,-y,-z
loop_
_atom_site_type_symbol
_atom_site_label
_atom_site_fract_x
_atom_site_fract_y
_atom_site_fract_z
Si Si1 0.258852 0.431085 0.646086
Si Si2 0.885552 0.482221 0.563276
Si Si3 0.855329 0.846465 0.704793
Si Si4 0.209318 0.789102 0.776124
Si Si5 0.081882 0.817352 0.329669
Si Si6 0.420026 0.846518 0.231226
Si Si7 0.824016 0.390306 0.819232
O O1 0.549669 0.386238 0.548656
O O2 0.113776 0.424982 0.547988
O O3 0.302465 0.264378 0.451804
O O4 0.066888 0.638286 0.009562
O O5 0.825921 0.307934 0.290426
O O6 0.000000 0.500000 0.500000
O O7 0.634905 0.675972 0.904338
O O8 0.950979 0.871168 0.839779
O O9 0.104205 0.703144 0.422095
O O10 0.719070 0.044734 0.962374
O O11 0.342200 0.789177 0.233685
O O12 0.085560 0.775102 0.365882
O O13 0.849936 0.026447 0.628194
O O14 0.500000 0.000000 0.500000
O O15 0.500000 0.500000 0.000000
O O16 0.000000 0.500000 0.000000
#
# Coordination Sequence:
#
# PCOD9031351 Si02
#       7
#     2   2   2   2   2   2   2
#     4  11  20  41  68  90 130 173 225 280 359 420
#     4  11  25  41  64  98 130 175 229 291 344 414
#     4  10  23  41  65 101 130 180 225 284 355 425
#     4  10  22  43  66  91 137 179 227 280 355 430
#     4  11  24  42  70  99 129 190 226 291 354 424
#     4  11  24  44  69  93 133 180 238 285 350 426
#     4  12  27  44  72 108 145 181 236 299 356 426
#
# _framework density 22.651439
#
# number of rings (size 3 to 8) (size 9 to 14) (size 15 to 20)
#    0.000    1.143    4.286    1.286    4.000    2.857 
#    0.000    0.000    0.000    0.000    0.000    0.000 
#    0.000    0.000    0.000    0.000    0.000    0.000 
#
# Total GULP energy -78038.501455 kJ/mol
# GULP energy per Si atom -5574.178675 kJ/mol
# Density = 2.259988 g / cm^3
# Si number density = 22.651439 Si / 1000 Ang^3
#
#
#
# Elastic Constant Matrix: (Units=GPa)
#
#
# Indices 1 2 3 4 5 6 
#
# 1 64.0069 36.7204 32.2640 8.3774 -8.4269 28.8574
# 2 36.7204 127.6215 33.1623 15.2436 8.5883 52.2033
# 3 32.2640 33.1623 96.6264 15.6932 -4.2684 25.4723
# 4 8.3774 15.2436 15.6932 31.6374 8.2749 5.5180
# 5 -8.4269 8.5883 -4.2684 8.2749 35.0975 4.6372
# 6 28.8574 52.2033 25.4723 5.5180 4.6372 44.3565
#
#
#
# Elastic Compliance Matrix: (Units=1/GPa)
#
#
# Indices 1 2 3 4 5 6 
#
# 1 0.026150 -0.000732 -0.003497 -0.004674 0.009051 -0.014508
# 2 -0.000732 0.015724 0.000111 -0.004201 -0.000708 -0.017496
# 3 -0.003497 0.000111 0.014010 -0.005893 0.002950 -0.005476
# 4 -0.004674 -0.004201 -0.005893 0.039365 -0.011101 0.007632
# 5 0.009051 -0.000708 0.002950 -0.011101 0.035007 -0.009029
# 6 -0.014508 -0.017496 -0.005476 0.007632 -0.009029 0.055714
#
#
# Mechanical properties :
#
#
# Convention : Reuss Voigt Hill
#
# Bulk Modulus (GPa) = 20.98700 54.72760 37.85730
# Shear Modulus (GPa) = 23.79955 34.62549 29.21252
#
# Velocity S-wave (km/s) = 3.24495 3.91400 3.59507
# Velocity P-wave (km/s) = 4.82958 6.68125 5.82941
#
# Compressibility (1/GPa) = 0.04764853
#
# Stress axis : x y z
#
# Youngs Moduli (GPa) = 38.24052 63.59907 71.37888
#
# Poissons Ratio (x) = 0.04654 0.24961
# Poissons Ratio (y) = 0.02798 -0.00794
# Poissons Ratio (z) = 0.13373 -0.00708
#
# Static dielectric constant tensor:
#      x y z
#    x 1.937250 -0.002410 0.024140 
#    y -0.002410 1.852140 0.040610 
#    z 0.024140 0.040610 1.885580 
# 
# From -- ./inp_files/27017.got.cif
#   From: 2010.05.17/outbox.cif.g08.bks.cpg/sg2_14_cif.got.tgz:27017.got - 2010.06.03 11:33:40.
