data_PCOD9031792
_publ_section_title
;
Structure prediction by ZEFSAII (Michael W. Deem and Ramdas Pophale) SiO2 
 PCOD9031792
Probable space group: P -1
;
_chemical_formula_sum "Si O2"
_cell_formula_units_Z 14
_cell_length_a 7.662082
_cell_length_b 11.910286
_cell_length_c 8.565788
_cell_angle_alpha 82.367056
_cell_angle_beta 61.632626
_cell_angle_gamma 68.120648
_cell_volume 637.346023
_symmetry_space_group_name_H-M "P -1"
_symmetry_group_IT_number 2
_symmetry_cell_setting 'triclinic'
loop_
_space_group_symop_operation_xyz
x,y,z
-x,-y,-z
loop_
_atom_site_type_symbol
_atom_site_label
_atom_site_fract_x
_atom_site_fract_y
_atom_site_fract_z
Si Si1 0.020526 0.542462 0.656849
Si Si2 0.957179 0.012895 0.700201
Si Si3 0.742089 0.680791 0.188884
Si Si4 0.676215 0.934024 0.310756
Si Si5 0.554524 0.617295 0.982775
Si Si6 0.568103 0.128817 0.047319
Si Si7 0.060013 0.233269 0.182290
O O1 0.174046 0.430275 0.708954
O O2 0.000000 0.500000 0.500000
O O3 0.788160 0.578987 0.821226
O O4 0.059212 0.667762 0.653638
O O5 0.097387 0.082343 0.706170
O O6 0.024942 0.876674 0.766609
O O7 0.713675 0.080079 0.842584
O O8 0.000000 0.000000 0.500000
O O9 0.657951 0.807799 0.290635
O O10 0.578756 0.653180 0.145112
O O11 0.929522 0.696267 0.995373
O O12 0.500000 0.000000 0.500000
O O13 0.644276 0.023875 0.161286
O O14 0.410334 0.742926 0.940816
O O15 0.500000 0.500000 0.000000
O O16 0.314170 0.166916 0.123837
#
# Coordination Sequence:
#
# PCOD9031792 Si02
#       7
#     2   2   2   2   2   2   2
#     4  10  23  41  66  97 129 171 218 269 328 390
#     4  12  26  39  67  98 128 178 221 273 327 395
#     4  10  23  43  69  90 134 173 217 263 336 386
#     4  12  27  41  67  97 135 174 220 275 332 391
#     4  10  24  42  70  93 128 174 214 273 327 393
#     4  10  23  44  65  96 136 167 221 272 337 385
#     4  10  22  43  68  92 135 175 214 275 328 394
#
# _framework density 21.966090999999999
#
# number of rings (size 3 to 8) (size 9 to 14) (size 15 to 20)
#    0.000    1.714    1.429    3.429   14.000    1.143 
#    0.000    0.714    0.000    0.000    0.000    0.000 
#    0.000    0.000    0.000    0.000    0.000    0.000 
#
# Total GULP energy -78177.444942 kJ/mol
# GULP energy per Si atom -5584.103210 kJ/mol
# Density = 2.191610 g / cm^3
# Si number density = 21.966091 Si / 1000 Ang^3
#
#
#
# Elastic Constant Matrix: (Units=GPa)
#
#
# Indices 1 2 3 4 5 6 
#
# 1 62.0636 43.4100 22.8494 9.7367 16.1110 10.3838
# 2 43.4100 165.6468 37.0409 29.6653 12.0869 20.5054
# 3 22.8494 37.0409 99.5452 25.6351 18.8366 -6.3854
# 4 9.7367 29.6653 25.6351 37.0281 5.8002 11.4874
# 5 16.1110 12.0869 18.8366 5.8002 22.5540 -1.7322
# 6 10.3838 20.5054 -6.3854 11.4874 -1.7322 47.5755
#
#
#
# Elastic Compliance Matrix: (Units=1/GPa)
#
#
# Indices 1 2 3 4 5 6 
#
# 1 0.024211 -0.004729 -0.002088 0.002503 -0.014017 -0.004641
# 2 -0.004729 0.008471 -0.001231 -0.004289 0.000837 -0.001718
# 3 -0.002088 -0.001231 0.015160 -0.009295 -0.007738 0.004983
# 4 0.002503 -0.004289 -0.009295 0.039616 -0.002652 -0.009607
# 5 -0.014017 0.000837 -0.007738 -0.002652 0.061395 0.004536
# 6 -0.004641 -0.001718 0.004983 -0.009607 0.004536 0.025926
#
#
# Mechanical properties :
#
#
# Convention : Reuss Voigt Hill
#
# Bulk Modulus (GPa) = 31.49802 59.31737 45.40769
# Shear Modulus (GPa) = 24.81923 36.36188 30.59055
#
# Velocity S-wave (km/s) = 3.36503 4.07303 3.73584
# Velocity P-wave (km/s) = 5.42848 7.01300 6.27099
#
# Compressibility (1/GPa) = 0.03174803
#
# Stress axis : x y z
#
# Youngs Moduli (GPa) = 41.30313 118.04717 65.96201
#
# Poissons Ratio (x) = 0.55825 0.13770
# Poissons Ratio (y) = 0.19532 0.08118
# Poissons Ratio (z) = 0.08623 0.14528
#
# Static dielectric constant tensor:
#      x y z
#    x 1.902470 0.078620 0.038610 
#    y 0.078620 1.888850 0.007040 
#    z 0.038610 0.007040 1.826110 
# 
# From -- ./inp_files/186493.got.cif
#   From: 2010.05.17/outbox.cif.g08.bks.cpg/sg2_94_cif.got.tgz:186493.got - 2010.06.03 11:33:40.
