data_PCOD9031067
_publ_section_title
;
Structure prediction by ZEFSAII (Michael W. Deem and Ramdas Pophale) SiO2 
 PCOD9031067
Probable space group: P -1
;
_chemical_formula_sum "Si O2"
_cell_formula_units_Z 16
_cell_length_a 8.726214
_cell_length_b 20.888699
_cell_length_c 8.613035
_cell_angle_alpha 114.773164
_cell_angle_beta 63.007973
_cell_angle_gamma 146.607321
_cell_volume 767.374722
_symmetry_space_group_name_H-M "P -1"
_symmetry_group_IT_number 2
_symmetry_cell_setting 'triclinic'
loop_
_space_group_symop_operation_xyz
x,y,z
-x,-y,-z
loop_
_atom_site_type_symbol
_atom_site_label
_atom_site_fract_x
_atom_site_fract_y
_atom_site_fract_z
Si Si1 0.299883 0.383359 0.072909
Si Si2 0.327649 0.612579 0.920393
Si Si3 0.897964 0.796838 0.250333
Si Si4 0.414355 0.259940 0.375085
Si Si5 0.111759 0.975751 0.812724
Si Si6 0.520248 0.026396 0.332707
Si Si7 0.485544 0.214229 0.755073
Si Si8 0.785377 0.266113 0.388019
O O1 0.494654 0.392123 0.087463
O O2 0.088652 0.355087 0.257608
O O3 0.500000 0.500000 0.000000
O O4 0.119724 0.276934 0.925986
O O5 0.393366 0.637695 0.734432
O O6 0.433763 0.720570 0.057779
O O7 0.000000 0.500000 0.000000
O O8 0.698482 0.726172 0.422859
O O9 0.753542 0.815124 0.245291
O O10 0.212980 0.916968 0.285649
O O11 0.587891 0.250971 0.356272
O O12 0.136888 0.138363 0.292539
O O13 0.262671 0.961709 0.819559
O O14 0.346328 0.093197 0.722978
O O15 0.000000 0.000000 0.000000
O O16 0.500000 0.000000 0.500000
O O17 0.651392 0.144908 0.352429
O O18 0.755881 0.293864 0.598097
#
# Coordination Sequence:
#
# PCOD9031067 Si02
#       8
#     2   2   2   2   2   2   2   2
#     4  11  26  46  65  94 129 169 223 273 318 375
#     4  11  24  43  67  92 123 168 219 270 320 380
#     4  10  24  42  66  92 134 170 212 261 323 382
#     4  11  22  42  66  94 128 173 212 258 323 387
#     4  12  23  36  63  94 133 164 211 254 318 385
#     4  12  23  39  64 101 133 165 212 264 319 389
#     4  10  22  43  64  93 129 173 208 258 323 388
#     4  11  24  42  66  95 133 168 212 267 321 381
#
# _framework density 20.850308999999999
#
# number of rings (size 3 to 8) (size 9 to 14) (size 15 to 20)
#    0.000    1.000    3.750    2.250    3.500    4.500 
#    0.000    5.000    0.000    0.000    0.000    0.000 
#    0.000    0.000    0.000    0.000    0.000    0.000 
#
# Total GULP energy -89447.133721 kJ/mol
# GULP energy per Si atom -5590.445858 kJ/mol
# Density = 2.080285 g / cm^3
# Si number density = 20.850309 Si / 1000 Ang^3
#
#
#
# Elastic Constant Matrix: (Units=GPa)
#
#
# Indices 1 2 3 4 5 6 
#
# 1 48.6619 10.1053 18.8140 -11.0372 -12.3596 -2.6136
# 2 10.1053 51.4580 -10.6598 -22.1940 3.5989 -3.8325
# 3 18.8140 -10.6598 69.2318 -25.1030 -12.1356 3.8909
# 4 -11.0372 -22.1940 -25.1030 32.1489 1.6661 -0.3866
# 5 -12.3596 3.5989 -12.1356 1.6661 33.5605 -6.5070
# 6 -2.6136 -3.8325 3.8909 -0.3866 -6.5070 38.7461
#
#
#
# Elastic Compliance Matrix: (Units=1/GPa)
#
#
# Indices 1 2 3 4 5 6 
#
# 1 0.027533 -0.010239 -0.009785 -0.005663 0.008604 0.003216
# 2 -0.010239 0.053442 0.032005 0.058416 -0.000463 0.001887
# 3 -0.009785 0.032005 0.041398 0.050779 0.005366 -0.000244
# 4 -0.005663 0.058416 0.050779 0.108905 0.005038 0.002230
# 5 0.008604 -0.000463 0.005366 0.005038 0.035883 0.006072
# 6 0.003216 0.001887 -0.000244 0.002230 0.006072 0.027279
#
#
# Mechanical properties :
#
#
# Convention : Reuss Voigt Hill
#
# Bulk Modulus (GPa) = 6.83358 22.87453 14.85406
# Shear Modulus (GPa) = 15.66153 30.96391 23.31272
#
# Velocity S-wave (km/s) = 2.74367 3.85783 3.34743
# Velocity P-wave (km/s) = 3.64987 5.55323 4.69893
#
# Compressibility (1/GPa) = 0.14633618
#
# Stress axis : x y z
#
# Youngs Moduli (GPa) = 36.32048 18.71192 24.15594
#
# Poissons Ratio (x) = 0.19158 0.23635
# Poissons Ratio (y) = 0.37187 -0.77311
# Poissons Ratio (z) = 0.35538 -0.59888
#
# Static dielectric constant tensor:
#      x y z
#    x 1.714040 -0.004020 -0.003800 
#    y -0.004020 1.734120 -0.045020 
#    z -0.003800 -0.045020 1.803890 
# 
# From -- ./inp_files/180714.got.cif
#   From: 2010.05.17/outbox.cif.g08.bks.cpg/sg2_91_cif.got.tgz:180714.got - 2010.06.03 11:33:40.
