data_PCOD9031076
_publ_section_title
;
Structure prediction by ZEFSAII (Michael W. Deem and Ramdas Pophale) SiO2 
 PCOD9031076
Probable space group: P -1
;
_chemical_formula_sum "Si O2"
_cell_formula_units_Z 14
_cell_length_a 11.904038
_cell_length_b 10.153057
_cell_length_c 12.360104
_cell_angle_alpha 35.263227
_cell_angle_beta 133.087708
_cell_angle_gamma 111.578073
_cell_volume 562.284741
_symmetry_space_group_name_H-M "P -1"
_symmetry_group_IT_number 2
_symmetry_cell_setting 'triclinic'
loop_
_space_group_symop_operation_xyz
x,y,z
-x,-y,-z
loop_
_atom_site_type_symbol
_atom_site_label
_atom_site_fract_x
_atom_site_fract_y
_atom_site_fract_z
Si Si1 0.153644 0.069632 0.446868
Si Si2 0.535344 0.405873 0.938598
Si Si3 0.338482 0.265891 0.735587
Si Si4 0.797392 0.524404 0.919629
Si Si5 0.704889 0.406988 0.698912
Si Si6 0.170174 0.609886 0.649817
Si Si7 0.880208 0.829429 0.157604
O O1 0.203681 0.207861 0.289319
O O2 0.095163 0.860461 0.505707
O O3 0.985650 0.308113 0.223749
O O4 0.326427 0.888965 0.747905
O O5 0.428915 0.418005 0.752230
O O6 0.652642 0.545061 0.895274
O O7 0.374067 0.519484 0.838086
O O8 0.256599 0.402644 0.479036
O O9 0.217967 0.208602 0.776286
O O10 0.500000 0.000000 0.000000
O O11 0.762054 0.421099 0.849857
O O12 0.500000 0.500000 0.500000
O O13 0.798979 0.130018 0.890715
O O14 0.142713 0.357101 0.819986
O O15 0.075835 0.717074 0.400630
#
# Coordination Sequence:
#
# PCOD9031076 Si02
#       7
#     2   2   2   2   2   2   2
#     4  11  24  44  63  92 132 169 215 261 315 377
#     4  11  23  41  65  93 126 173 211 254 320 384
#     4  11  21  36  66 102 122 161 210 265 324 371
#     4  11  24  42  67  96 127 164 216 272 312 371
#     4  12  21  39  70  97 127 160 214 274 318 368
#     4  10  23  44  65  91 132 173 211 258 318 386
#     4  10  22  43  64  94 133 164 211 267 320 374
#
# _framework density 24.898416000000001
#
# number of rings (size 3 to 8) (size 9 to 14) (size 15 to 20)
#    0.000    1.143    4.286    1.714    2.000    0.571 
#    5.143   10.714    0.000    0.000    0.000    0.000 
#    0.000    0.000    0.000    0.000    0.000    0.000 
#
# Total GULP energy -78236.976160 kJ/mol
# GULP energy per Si atom -5588.355440 kJ/mol
# Density = 2.484175 g / cm^3
# Si number density = 24.898416 Si / 1000 Ang^3
#
#
#
# Elastic Constant Matrix: (Units=GPa)
#
#
# Indices 1 2 3 4 5 6 
#
# 1 99.7636 -3.7067 41.7872 4.6752 -12.9204 24.1560
# 2 -3.7067 91.4970 41.9998 -4.1807 -1.0710 14.6161
# 3 41.7872 41.9998 153.6018 -4.4690 9.7969 10.5695
# 4 4.6752 -4.1807 -4.4690 48.4900 13.6674 4.9050
# 5 -12.9204 -1.0710 9.7969 13.6674 41.2147 4.9284
# 6 24.1560 14.6161 10.5695 4.9050 4.9284 26.6834
#
#
#
# Elastic Compliance Matrix: (Units=1/GPa)
#
#
# Indices 1 2 3 4 5 6 
#
# 1 0.019758 0.007198 -0.006738 -0.003042 0.011469 -0.020720
# 2 0.007198 0.016204 -0.005782 -0.000019 0.005752 -0.014161
# 3 -0.006738 -0.005782 0.009959 0.002169 -0.006072 0.006045
# 4 -0.003042 -0.000019 0.002169 0.023805 -0.009273 -0.000758
# 5 0.011469 0.005752 -0.006072 -0.009273 0.034413 -0.015780
# 6 -0.020720 -0.014161 0.006045 -0.000758 -0.015780 0.064650
#
#
# Mechanical properties :
#
#
# Convention : Reuss Voigt Hill
#
# Bulk Modulus (GPa) = 28.34618 56.11366 42.22992
# Shear Modulus (GPa) = 26.15189 40.92975 33.54082
#
# Velocity S-wave (km/s) = 3.24442 4.05886 3.67428
# Velocity P-wave (km/s) = 5.04425 6.67471 5.91592
#
# Compressibility (1/GPa) = 0.03527813
#
# Stress axis : x y z
#
# Youngs Moduli (GPa) = 50.61177 61.71476 100.41452
#
# Poissons Ratio (x) = -0.44425 0.67657
# Poissons Ratio (y) = -0.36432 0.58058
# Poissons Ratio (z) = 0.34101 0.35683
#
# Static dielectric constant tensor:
#      x y z
#    x 2.057060 -0.070550 -0.007720 
#    y -0.070550 2.050370 0.026800 
#    z -0.007720 0.026800 1.934940 
# 
# From -- ./inp_files/532285.got.cif
#   From: 2010.05.17/outbox.cif.g08.bks.cpg/sg2_267_cif.got.tgz:532285.got - 2010.06.03 11:33:40.
