data_PCOD9031813
_publ_section_title
;
Structure prediction by ZEFSAII (Michael W. Deem and Ramdas Pophale) SiO2 
 PCOD9031813
Probable space group: P -1
;
_chemical_formula_sum "Si O2"
_cell_formula_units_Z 14
_cell_length_a 16.329272
_cell_length_b 11.175324
_cell_length_c 10.972357
_cell_angle_alpha 118.124048
_cell_angle_beta 38.628009
_cell_angle_gamma 144.145567
_cell_volume 656.552937
_symmetry_space_group_name_H-M "P -1"
_symmetry_group_IT_number 2
_symmetry_cell_setting 'triclinic'
loop_
_space_group_symop_operation_xyz
x,y,z
-x,-y,-z
loop_
_atom_site_type_symbol
_atom_site_label
_atom_site_fract_x
_atom_site_fract_y
_atom_site_fract_z
Si Si1 0.960693 0.600570 0.959532
Si Si2 0.896429 0.045058 0.206598
Si Si3 0.073404 0.338455 0.356544
Si Si4 0.654743 0.186530 0.801253
Si Si5 0.910910 0.778754 0.460823
Si Si6 0.584285 0.450882 0.467135
Si Si7 0.228922 0.832029 0.994849
O O1 0.760433 0.505146 0.218296
O O2 0.157119 0.752999 0.901394
O O3 0.882150 0.387166 0.910681
O O4 0.027180 0.754225 0.849493
O O5 0.989322 0.139809 0.280439
O O6 0.635991 0.816853 0.383779
O O7 0.000000 0.000000 0.000000
O O8 0.859075 0.255534 0.582624
O O9 0.252321 0.582173 0.196601
O O10 0.148982 0.350627 0.407235
O O11 0.500000 0.000000 0.000000
O O12 0.487930 0.044178 0.813055
O O13 0.707353 0.607952 0.520170
O O14 0.112036 0.866952 0.202790
O O15 0.000000 0.000000 0.500000
O O16 0.500000 0.500000 0.500000
#
# Coordination Sequence:
#
# PCOD9031813 Si02
#       7
#     2   2   2   2   2   2   2
#     4  10  23  43  66  97 133 170 229 271 325 395
#     4  12  25  42  68  95 135 178 224 269 329 400
#     4  11  26  42  68 105 133 174 228 276 335 400
#     4  11  22  44  71  97 137 174 220 276 342 398
#     4  11  25  44  69  99 139 171 223 284 334 398
#     4  11  23  45  70  97 134 179 221 273 334 390
#     4  10  22  43  68  94 131 178 217 277 330 390
#
# _framework density 21.32349
#
# number of rings (size 3 to 8) (size 9 to 14) (size 15 to 20)
#    0.000    1.143    2.857    2.571    6.000    1.143 
#    0.000    4.286    0.000    0.000    0.000    0.000 
#    0.000    0.000    0.000    0.000    0.000    0.000 
#
# Total GULP energy -78264.439700 kJ/mol
# GULP energy per Si atom -5590.317121 kJ/mol
# Density = 2.127496 g / cm^3
# Si number density = 21.323490 Si / 1000 Ang^3
#
#
#
# Elastic Constant Matrix: (Units=GPa)
#
#
# Indices 1 2 3 4 5 6 
#
# 1 125.4015 56.2298 27.4447 -11.8633 -11.5518 20.3830
# 2 56.2298 147.2823 34.5264 -3.9933 -7.8844 16.5134
# 3 27.4447 34.5264 51.8858 -19.2525 0.1306 12.3649
# 4 -11.8633 -3.9933 -19.2525 35.7450 -0.2843 -4.9906
# 5 -11.5518 -7.8844 0.1306 -0.2843 26.6047 -4.3246
# 6 20.3830 16.5134 12.3649 -4.9906 -4.3246 41.4494
#
#
#
# Elastic Compliance Matrix: (Units=1/GPa)
#
#
# Indices 1 2 3 4 5 6 
#
# 1 0.010773 -0.002996 -0.002465 0.001544 0.003358 -0.002832
# 2 -0.002996 0.009315 -0.005555 -0.003048 0.001323 -0.000810
# 3 -0.002465 -0.005555 0.030680 0.014452 -0.003419 -0.004343
# 4 0.001544 -0.003048 0.014452 0.036002 0.000161 0.000495
# 5 0.003358 0.001323 -0.003419 0.000161 0.039948 0.003029
# 6 -0.002832 -0.000810 -0.004343 0.000495 0.003029 0.027513
#
#
# Mechanical properties :
#
#
# Convention : Reuss Voigt Hill
#
# Bulk Modulus (GPa) = 34.80066 62.33015 48.56540
# Shear Modulus (GPa) = 26.90465 34.51773 30.71119
#
# Velocity S-wave (km/s) = 3.55595 4.02775 3.79918
# Velocity P-wave (km/s) = 5.76329 7.13615 6.48614
#
# Compressibility (1/GPa) = 0.02873509
#
# Stress axis : x y z
#
# Youngs Moduli (GPa) = 92.82398 107.35824 32.59475
#
# Poissons Ratio (x) = 0.32163 0.08036
# Poissons Ratio (y) = 0.27809 0.18107
# Poissons Ratio (z) = 0.22884 0.59638
#
# Static dielectric constant tensor:
#      x y z
#    x 1.801950 0.010810 0.028260 
#    y 0.010810 1.798210 -0.013130 
#    z 0.028260 -0.013130 1.743010 
# 
# From -- ./inp_files/256062.got.cif
#   From: 2010.05.17/outbox.cif.g08.bks.cpg/sg2_129_cif.got.tgz:256062.got - 2010.06.03 11:33:40.
