data_PCOD9031300
_publ_section_title
;
Structure prediction by ZEFSAII (Michael W. Deem and Ramdas Pophale) SiO2 
 PCOD9031300
Probable space group: P -1
;
_chemical_formula_sum "Si O2"
_cell_formula_units_Z 14
_cell_length_a 5.873191
_cell_length_b 18.664682
_cell_length_c 8.994285
_cell_angle_alpha 130.506942
_cell_angle_beta 91.814627
_cell_angle_gamma 61.099172
_cell_volume 594.367326
_symmetry_space_group_name_H-M "P -1"
_symmetry_group_IT_number 2
_symmetry_cell_setting 'triclinic'
loop_
_space_group_symop_operation_xyz
x,y,z
-x,-y,-z
loop_
_atom_site_type_symbol
_atom_site_label
_atom_site_fract_x
_atom_site_fract_y
_atom_site_fract_z
Si Si1 0.547246 0.210398 0.528405
Si Si2 0.130538 0.737000 0.220345
Si Si3 0.915979 0.428074 0.808409
Si Si4 0.093408 0.214357 0.040746
Si Si5 0.974205 0.117960 0.161562
Si Si6 0.594397 0.953083 0.680980
Si Si7 0.181273 0.543430 0.493058
O O1 0.219278 0.303277 0.608731
O O2 0.614437 0.084103 0.384400
O O3 0.617934 0.251923 0.732177
O O4 0.722601 0.207301 0.390175
O O5 0.213046 0.622184 0.158593
O O6 0.149642 0.135824 0.548489
O O7 0.056548 0.729473 0.042502
O O8 0.777705 0.481942 0.717859
O O9 0.000000 0.500000 0.000000
O O10 0.941774 0.169085 0.068831
O O11 0.038972 0.316477 0.282792
O O12 0.414379 0.094235 0.854019
O O13 0.256666 0.084989 0.206037
O O14 0.000000 0.000000 0.000000
O O15 0.500000 0.500000 0.500000
O O16 0.000000 0.500000 0.500000
#
# Coordination Sequence:
#
# PCOD9031300 Si02
#       7
#     2   2   2   2   2   2   2
#     4  10  22  43  67 101 141 181 241 288 376 453
#     4  10  24  44  68 105 141 189 243 302 378 455
#     4  11  26  49  78  98 144 197 246 315 378 453
#     4  12  24  44  73 103 147 190 246 312 373 449
#     4  11  23  40  68 103 141 186 236 300 380 450
#     4  10  22  43  66 101 139 187 236 295 373 448
#     4  12  31  52  78 116 149 196 264 323 377 450
#
# _framework density 23.554455999999998
#
# number of rings (size 3 to 8) (size 9 to 14) (size 15 to 20)
#    0.000    1.143    1.429    4.286    8.000    1.143 
#    5.143    0.000    0.000    0.000    0.000    0.000 
#    0.000    0.000    0.000    0.000    0.000    0.000 
#
# Total GULP energy -78181.135123 kJ/mol
# GULP energy per Si atom -5584.366794 kJ/mol
# Density = 2.350084 g / cm^3
# Si number density = 23.554456 Si / 1000 Ang^3
#
#
#
# Elastic Constant Matrix: (Units=GPa)
#
#
# Indices 1 2 3 4 5 6 
#
# 1 55.3073 37.2067 20.3076 1.5970 25.8266 1.6914
# 2 37.2067 106.2349 50.5902 -4.3431 7.9865 8.7313
# 3 20.3076 50.5902 132.2142 1.5065 18.4355 4.3441
# 4 1.5970 -4.3431 1.5065 55.8459 1.3533 1.8617
# 5 25.8266 7.9865 18.4355 1.3533 40.2711 8.9143
# 6 1.6914 8.7313 4.3441 1.8617 8.9143 33.5893
#
#
#
# Elastic Compliance Matrix: (Units=1/GPa)
#
#
# Indices 1 2 3 4 5 6 
#
# 1 0.036835 -0.012947 0.002381 -0.001802 -0.023770 0.007611
# 2 -0.012947 0.016334 -0.005308 0.001752 0.008605 -0.005289
# 3 0.002381 -0.005308 0.009930 -0.000667 -0.005313 0.001422
# 4 -0.001802 0.001752 -0.000667 0.018142 0.000838 -0.001506
# 5 -0.023770 0.008605 -0.005313 0.000838 0.043412 -0.011920
# 6 0.007611 -0.005289 0.001422 -0.001506 -0.011920 0.033826
#
#
# Mechanical properties :
#
#
# Convention : Reuss Voigt Hill
#
# Bulk Modulus (GPa) = 31.89492 56.66283 44.27888
# Shear Modulus (GPa) = 24.91553 38.31804 31.61678
#
# Velocity S-wave (km/s) = 3.25589 4.03772 3.66769
# Velocity P-wave (km/s) = 5.26353 6.77096 6.06426
#
# Compressibility (1/GPa) = 0.03135296
#
# Stress axis : x y z
#
# Youngs Moduli (GPa) = 27.14787 61.22032 100.70144
#
# Poissons Ratio (x) = 0.79262 -0.23978
# Poissons Ratio (y) = 0.35148 0.53449
# Poissons Ratio (z) = -0.06464 0.32494
#
# Static dielectric constant tensor:
#      x y z
#    x 1.984800 0.010600 -0.018600 
#    y 0.010600 1.920310 0.021440 
#    z -0.018600 0.021440 1.911270 
# 
# From -- ./inp_files/139621.got.cif
#   From: 2010.05.17/outbox.cif.g08.bks.cpg/sg2_70_cif.got.tgz:139621.got - 2010.06.03 11:33:40.
