data_PCOD9031937
_publ_section_title
;
Structure prediction by ZEFSAII (Michael W. Deem and Ramdas Pophale) SiO2 
 PCOD9031937
Probable space group: P -1
;
_chemical_formula_sum "Si O2"
_cell_formula_units_Z 14
_cell_length_a 7.343897
_cell_length_b 17.577131
_cell_length_c 9.373763
_cell_angle_alpha 55.459107
_cell_angle_beta 94.612803
_cell_angle_gamma 50.342285
_cell_volume 549.920412
_symmetry_space_group_name_H-M "P -1"
_symmetry_group_IT_number 2
_symmetry_cell_setting 'triclinic'
loop_
_space_group_symop_operation_xyz
x,y,z
-x,-y,-z
loop_
_atom_site_type_symbol
_atom_site_label
_atom_site_fract_x
_atom_site_fract_y
_atom_site_fract_z
Si Si1 0.269020 0.936950 0.783755
Si Si2 0.796799 0.315369 0.870823
Si Si3 0.762300 0.991419 0.596564
Si Si4 0.712199 0.658287 0.714743
Si Si5 0.819126 0.566315 0.270372
Si Si6 0.595677 0.402810 0.253075
Si Si7 0.125991 0.142745 0.773077
O O1 0.254796 0.013566 0.568542
O O2 0.148369 0.029922 0.827227
O O3 0.632125 0.740086 0.032895
O O4 0.041838 0.948593 0.704080
O O5 0.477669 0.383081 0.798610
O O6 0.670753 0.460760 0.785109
O O7 0.904615 0.260344 0.772056
O O8 0.110685 0.148839 0.158929
O O9 0.433827 0.182572 0.419008
O O10 0.442587 0.690262 0.678567
O O11 0.887392 0.587068 0.651014
O O12 0.000000 0.500000 0.000000
O O13 0.000000 0.500000 0.500000
O O14 0.946946 0.270584 0.493913
O O15 0.500000 0.500000 0.000000
O O16 0.500000 0.000000 0.000000
#
# Coordination Sequence:
#
# PCOD9031937 Si02
#       7
#     2   2   2   2   2   2   2
#     4  10  22  43  68  99 142 185 236 293 355 419
#     4  11  27  46  73 105 145 191 235 301 369 431
#     4  10  22  45  74 102 140 184 247 297 357 425
#     4  12  24  44  75 108 140 188 243 303 357 431
#     4  11  25  40  70 102 143 182 239 289 361 427
#     4  12  27  50  74 105 151 195 245 301 363 435
#     4  12  28  46  73 106 153 191 240 301 372 435
#
# _framework density 25.458231000000001
#
# number of rings (size 3 to 8) (size 9 to 14) (size 15 to 20)
#    0.000    0.857    2.857    3.000    8.000    2.286 
#    0.000    2.143    0.000    0.000    0.000    0.000 
#    0.000    0.000    0.000    0.000    0.000    0.000 
#
# Total GULP energy -78335.745816 kJ/mol
# GULP energy per Si atom -5595.410415 kJ/mol
# Density = 2.540029 g / cm^3
# Si number density = 25.458231 Si / 1000 Ang^3
#
#
#
# Elastic Constant Matrix: (Units=GPa)
#
#
# Indices 1 2 3 4 5 6 
#
# 1 79.9795 7.0173 25.8381 7.7848 15.5898 -1.8346
# 2 7.0173 177.1352 33.2520 -5.1154 -6.9912 -13.9820
# 3 25.8381 33.2520 169.6942 -6.1376 23.6842 -6.5640
# 4 7.7848 -5.1154 -6.1376 47.4405 2.8505 -3.3759
# 5 15.5898 -6.9912 23.6842 2.8505 31.8924 -2.6619
# 6 -1.8346 -13.9820 -6.5640 -3.3759 -2.6619 37.2706
#
#
#
# Elastic Compliance Matrix: (Units=1/GPa)
#
#
# Indices 1 2 3 4 5 6 
#
# 1 0.014371 -0.000657 -0.001316 -0.002267 -0.006023 -0.000407
# 2 -0.000657 0.006252 -0.001416 0.000591 0.002885 0.002323
# 3 -0.001316 -0.001416 0.007140 0.001321 -0.005052 0.000420
# 4 -0.002267 0.000591 0.001321 0.021935 -0.001518 0.002221
# 5 -0.006023 0.002885 -0.005052 -0.001518 0.039032 0.002546
# 6 -0.000407 0.002323 0.000420 0.002221 0.002546 0.028139
#
#
# Mechanical properties :
#
#
# Convention : Reuss Voigt Hill
#
# Bulk Modulus (GPa) = 47.65835 62.11375 54.88605
# Shear Modulus (GPa) = 38.27190 47.36746 42.81968
#
# Velocity S-wave (km/s) = 3.88147 4.31814 4.10562
# Velocity P-wave (km/s) = 6.23287 7.02233 6.63934
#
# Compressibility (1/GPa) = 0.02098268
#
# Stress axis : x y z
#
# Youngs Moduli (GPa) = 69.58217 159.95914 140.05402
#
# Poissons Ratio (x) = 0.10517 0.18438
# Poissons Ratio (y) = 0.04575 0.19836
# Poissons Ratio (z) = 0.09160 0.22655
#
# Static dielectric constant tensor:
#      x y z
#    x 2.133000 0.055890 -0.007100 
#    y 0.055890 1.946560 -0.046540 
#    z -0.007100 -0.046540 2.017000 
# 
# From -- ./inp_files/217094.got.cif
#   From: 2010.05.17/outbox.cif.g08.bks.cpg/sg2_109_cif.got.tgz:217094.got - 2010.06.03 11:33:40.
