data_PCOD9031739
_publ_section_title
;
Structure prediction by ZEFSAII (Michael W. Deem and Ramdas Pophale) SiO2 
 PCOD9031739
Probable space group: P -1
;
_chemical_formula_sum "Si O2"
_cell_formula_units_Z 14
_cell_length_a 28.794291
_cell_length_b 5.181300
_cell_length_c 8.003419
_cell_angle_alpha 114.665814
_cell_angle_beta 33.064466
_cell_angle_gamma 120.027959
_cell_volume 564.007726
_symmetry_space_group_name_H-M "P -1"
_symmetry_group_IT_number 2
_symmetry_cell_setting 'triclinic'
loop_
_space_group_symop_operation_xyz
x,y,z
-x,-y,-z
loop_
_atom_site_type_symbol
_atom_site_label
_atom_site_fract_x
_atom_site_fract_y
_atom_site_fract_z
Si Si1 0.396140 0.477770 0.846303
Si Si2 0.229467 0.657905 0.303072
Si Si3 0.930200 0.339350 0.027519
Si Si4 0.698530 0.116479 0.207465
Si Si5 0.131516 0.544043 0.083273
Si Si6 0.907584 0.870845 0.600836
Si Si7 0.439331 0.663611 0.136711
O O1 0.500000 0.500000 0.500000
O O2 0.351506 0.222682 0.775003
O O3 0.328399 0.678655 0.076630
O O4 0.397207 0.480485 0.047068
O O5 0.166871 0.808969 0.637527
O O6 0.161019 0.323041 0.385443
O O7 0.247874 0.791426 0.100206
O O8 0.908093 0.544094 0.004064
O O9 0.000000 0.500000 0.000000
O O10 0.993620 0.160982 0.712520
O O11 0.629815 0.293432 0.505539
O O12 0.769125 0.220240 0.171255
O O13 0.133441 0.298476 0.147623
O O14 0.083988 0.784020 0.356292
O O15 0.500000 0.500000 0.000000
O O16 0.500000 0.000000 0.000000
#
# Coordination Sequence:
#
# PCOD9031739 Si02
#       7
#     2   2   2   2   2   2   2
#     4  12  24  45  75 100 141 187 240 296 353 422
#     4  10  23  45  64 103 139 179 236 290 348 415
#     4  10  22  43  68 102 139 184 231 285 346 421
#     4  11  25  46  71 102 146 186 236 296 355 418
#     4  11  22  44  69 102 142 183 227 288 348 416
#     4  10  22  43  70  99 138 183 227 283 351 415
#     4  12  28  46  71 105 137 185 239 292 357 419
#
# _framework density 24.822354000000001
#
# number of rings (size 3 to 8) (size 9 to 14) (size 15 to 20)
#    0.000    1.143    2.857    2.571    2.000    1.143 
#   10.286    5.000    0.000    0.000    0.000    0.000 
#    0.000    0.000    0.000    0.000    0.000    0.000 
#
# Total GULP energy -77967.043899 kJ/mol
# GULP energy per Si atom -5569.074564 kJ/mol
# Density = 2.476586 g / cm^3
# Si number density = 24.822354 Si / 1000 Ang^3
#
#
#
# Elastic Constant Matrix: (Units=GPa)
#
#
# Indices 1 2 3 4 5 6 
#
# 1 139.4598 22.9371 20.4810 2.6214 -21.1240 3.9623
# 2 22.9371 54.9549 5.9272 -1.7501 -7.5294 2.7714
# 3 20.4810 5.9272 172.7926 2.9048 -14.4247 -12.2839
# 4 2.6214 -1.7501 2.9048 33.7909 5.8317 -5.2347
# 5 -21.1240 -7.5294 -14.4247 5.8317 49.2530 0.1972
# 6 3.9623 2.7714 -12.2839 -5.2347 0.1972 31.2519
#
#
#
# Elastic Compliance Matrix: (Units=1/GPa)
#
#
# Indices 1 2 3 4 5 6 
#
# 1 0.008289 -0.002942 -0.000694 -0.001473 0.003082 -0.001329
# 2 -0.002942 0.019770 -0.000309 0.000792 0.001582 -0.001379
# 3 -0.000694 -0.000309 0.006188 -0.000370 0.001501 0.002476
# 4 -0.001473 0.000792 -0.000370 0.031345 -0.004351 0.005249
# 5 0.003082 0.001582 0.001501 -0.004351 0.022825 -0.000814
# 6 -0.001329 -0.001379 0.002476 0.005249 -0.000814 0.034146
#
#
# Mechanical properties :
#
#
# Convention : Reuss Voigt Hill
#
# Bulk Modulus (GPa) = 37.94222 51.76641 44.85431
# Shear Modulus (GPa) = 35.90986 44.04995 39.97991
#
# Velocity S-wave (km/s) = 3.80764 4.21718 4.01763
# Velocity P-wave (km/s) = 5.88639 6.67928 6.29533
#
# Compressibility (1/GPa) = 0.02635587
#
# Stress axis : x y z
#
# Youngs Moduli (GPa) = 120.64763 50.58279 161.61119
#
# Poissons Ratio (x) = 0.14883 0.11215
# Poissons Ratio (y) = 0.35499 0.04989
# Poissons Ratio (z) = 0.08373 0.01561
#
# Static dielectric constant tensor:
#      x y z
#    x 2.042690 0.140490 -0.004900 
#    y 0.140490 2.206180 0.015580 
#    z -0.004900 0.015580 2.144750 
# 
# From -- ./inp_files/358169.got.cif
#   From: 2010.05.17/outbox.cif.g08.bks.cpg/sg2_180_cif.got.tgz:358169.got - 2010.06.03 11:33:40.
