data_PCOD9031661
_publ_section_title
;
Structure prediction by ZEFSAII (Michael W. Deem and Ramdas Pophale) SiO2 
 PCOD9031661
Probable space group: P -1
;
_chemical_formula_sum "Si O2"
_cell_formula_units_Z 16
_cell_length_a 11.800344
_cell_length_b 8.745352
_cell_length_c 8.170572
_cell_angle_alpha 114.924460
_cell_angle_beta 92.968638
_cell_angle_gamma 88.271113
_cell_volume 763.598449
_symmetry_space_group_name_H-M "P -1"
_symmetry_group_IT_number 2
_symmetry_cell_setting 'triclinic'
loop_
_space_group_symop_operation_xyz
x,y,z
-x,-y,-z
loop_
_atom_site_type_symbol
_atom_site_label
_atom_site_fract_x
_atom_site_fract_y
_atom_site_fract_z
Si Si1 0.122751 0.459814 0.417579
Si Si2 0.491370 0.411990 0.245291
Si Si3 0.933845 0.907359 0.809893
Si Si4 0.654749 0.657388 0.503883
Si Si5 0.273115 0.967161 0.340352
Si Si6 0.636722 0.101842 0.186264
Si Si7 0.147818 0.837095 0.579831
Si Si8 0.468702 0.837357 0.132683
O O1 0.108460 0.283709 0.238782
O O2 0.218307 0.415562 0.540839
O O3 0.154528 0.642606 0.432070
O O4 0.000000 0.500000 0.500000
O O5 0.561058 0.582071 0.342520
O O6 0.378783 0.400941 0.339897
O O7 0.572061 0.278348 0.290771
O O8 0.487957 0.331955 0.029450
O O9 0.825293 0.016007 0.795261
O O10 0.022588 0.884085 0.654849
O O11 0.000000 0.000000 0.000000
O O12 0.661304 0.856369 0.579289
O O13 0.202878 0.944972 0.489924
O O14 0.372005 0.827579 0.257347
O O15 0.766734 0.131084 0.247904
O O16 0.576029 0.956698 0.220993
O O17 0.604171 0.069836 0.979498
#
# Coordination Sequence:
#
# PCOD9031661 Si02
#       8
#     2   2   2   2   2   2   2   2
#     4   9  19  35  55  76 103 137 180 212 254 322
#     4   9  17  30  56  74 104 137 193 212 243 306
#     4  10  22  38  59  78 101 138 182 218 258 316
#     4  10  17  32  53  82 101 143 179 221 253 305
#     4  11  21  34  55  80 112 133 172 223 276 309
#     4   9  16  31  55  74 102 137 187 208 243 312
#     4  11  21  36  54  82 107 139 170 223 270 315
#     4   9  17  33  50  81 103 144 176 214 255 310
#
# _framework density 20.953420999999999
#
# number of rings (size 3 to 8) (size 9 to 14) (size 15 to 20)
#    0.750    1.500    2.500    1.125    0.000    1.500 
#    0.000    1.875    0.000    1.500    0.000    0.000 
#    0.000    0.000    0.000    0.000    0.000    0.000 
#
# Total GULP energy -89083.750682 kJ/mol
# GULP energy per Si atom -5567.734418 kJ/mol
# Density = 2.090573 g / cm^3
# Si number density = 20.953421 Si / 1000 Ang^3
#
#
#
# Elastic Constant Matrix: (Units=GPa)
#
#
# Indices 1 2 3 4 5 6 
#
# 1 97.8358 16.9693 18.1156 6.6439 -1.4053 12.1628
# 2 16.9693 36.7547 28.0795 9.3741 12.1237 17.9449
# 3 18.1156 28.0795 61.8482 15.1464 3.3318 12.5442
# 4 6.6439 9.3741 15.1464 17.6218 8.7152 3.9232
# 5 -1.4053 12.1237 3.3318 8.7152 36.8644 7.6344
# 6 12.1628 17.9449 12.5442 3.9232 7.6344 31.3084
#
#
#
# Elastic Compliance Matrix: (Units=1/GPa)
#
#
# Indices 1 2 3 4 5 6 
#
# 1 0.011539 -0.004041 -0.000591 -0.002623 0.002922 -0.002313
# 2 -0.004041 0.059889 -0.020710 -0.001259 -0.013321 -0.021052
# 3 -0.000591 -0.020710 0.029750 -0.018588 0.008399 0.000461
# 4 -0.002623 -0.001259 -0.018588 0.082669 -0.018228 0.003274
# 5 0.002922 -0.013321 0.008399 -0.018228 0.035857 -0.003325
# 6 -0.002313 -0.021052 0.000461 0.003274 -0.003325 0.045121
#
#
# Mechanical properties :
#
#
# Convention : Reuss Voigt Hill
#
# Bulk Modulus (GPa) = 19.80480 35.86306 27.83393
# Shear Modulus (GPa) = 15.04472 26.04388 20.54430
#
# Velocity S-wave (km/s) = 2.68247 3.52936 3.13465
# Velocity P-wave (km/s) = 4.36653 5.81045 5.13945
#
# Compressibility (1/GPa) = 0.05049281
#
# Stress axis : x y z
#
# Youngs Moduli (GPa) = 86.66065 16.69763 33.61293
#
# Poissons Ratio (x) = 0.06748 0.01986
# Poissons Ratio (y) = 0.35023 0.69614
# Poissons Ratio (z) = 0.05121 0.34582
#
# Static dielectric constant tensor:
#      x y z
#    x 1.780860 0.009340 -0.018700 
#    y 0.009340 1.802370 -0.013510 
#    z -0.018700 -0.013510 1.793370 
# 
# From -- ./inp_files/245518.got.cif
#   From: 2010.05.17/outbox.cif.g08.bks.cpg/sg2_123_cif.got.tgz:245518.got - 2010.06.03 11:33:40.
