data_PCOD9031609
_publ_section_title
;
Structure prediction by ZEFSAII (Michael W. Deem and Ramdas Pophale) SiO2 
 PCOD9031609
Probable space group: P -1
;
_chemical_formula_sum "Si O2"
_cell_formula_units_Z 13
_cell_length_a 9.378467
_cell_length_b 12.755354
_cell_length_c 8.234739
_cell_angle_alpha 57.248752
_cell_angle_beta 92.509851
_cell_angle_gamma 133.297101
_cell_volume 509.591562
_symmetry_space_group_name_H-M "P -1"
_symmetry_group_IT_number 2
_symmetry_cell_setting 'triclinic'
loop_
_space_group_symop_operation_xyz
x,y,z
-x,-y,-z
loop_
_atom_site_type_symbol
_atom_site_label
_atom_site_fract_x
_atom_site_fract_y
_atom_site_fract_z
Si Si1 0.776634 0.362947 0.869323
Si Si2 0.353922 0.957617 0.379193
Si Si3 0.615185 0.659115 0.516308
Si Si4 0.093012 0.293848 0.268661
Si Si5 0.000000 0.000000 0.000000
Si Si6 0.911392 0.179241 0.009068
Si Si7 0.380882 0.733530 0.407433
O O1 0.874232 0.535574 0.847417
O O2 0.721249 0.376987 0.676954
O O3 0.924076 0.338561 0.869315
O O4 0.528495 0.153103 0.110818
O O5 0.251988 0.764636 0.447193
O O6 0.149245 0.900185 0.488540
O O7 0.500000 0.000000 0.500000
O O8 0.500000 0.500000 0.500000
O O9 0.702874 0.636914 0.687929
O O10 0.830938 0.873451 0.256855
O O11 0.441731 0.649034 0.575634
O O12 0.054016 0.238004 0.126634
O O13 0.990664 0.148477 0.890649
O O14 0.635093 0.969856 0.192714
#
# Coordination Sequence:
#
# PCOD9031609 Si02
#       7
#     2   2   2   2   1   2   2
#     4  11  23  43  69 100 142 167 226 285 332 395
#     4  11  23  42  68 104 130 175 224 278 340 389
#     4  11  25  46  64  99 138 175 225 274 333 402
#     4  12  25  42  73 103 134 177 226 280 338 400
#     4  10  26  44  70  90 138 182 220 268 344 396
#     4  10  22  44  67 103 131 178 225 279 332 402
#     4  10  22  43  67  95 141 176 219 281 327 401
#
# _framework density 25.510626999999999
#
# number of rings (size 3 to 8) (size 9 to 14) (size 15 to 20)
#    0.000    1.231    4.615    2.308    6.462    4.308 
#    0.000    0.769    0.000    0.000    0.000    0.000 
#    0.000    0.000    0.000    0.000    0.000    0.000 
#
# Total GULP energy -72552.339196 kJ/mol
# GULP energy per Si atom -5580.949169 kJ/mol
# Density = 2.545256 g / cm^3
# Si number density = 25.510627 Si / 1000 Ang^3
#
#
#
# Elastic Constant Matrix: (Units=GPa)
#
#
# Indices 1 2 3 4 5 6 
#
# 1 103.1897 4.9003 31.2278 3.6978 3.7442 6.0265
# 2 4.9003 102.3152 5.5007 -1.3822 7.2035 9.8284
# 3 31.2278 5.5007 53.0151 -6.0528 1.3763 -1.6284
# 4 3.6978 -1.3822 -6.0528 32.1913 1.6988 14.3260
# 5 3.7442 7.2035 1.3763 1.6988 23.8761 6.5576
# 6 6.0265 9.8284 -1.6284 14.3260 6.5576 43.6296
#
#
#
# Elastic Compliance Matrix: (Units=1/GPa)
#
#
# Indices 1 2 3 4 5 6 
#
# 1 0.012109 -0.000042 -0.007393 -0.002265 -0.001013 -0.001043
# 2 -0.000042 0.010253 -0.000879 0.001505 -0.002468 -0.002460
# 3 -0.007393 -0.000879 0.023919 0.005109 -0.000456 0.000503
# 4 -0.002265 0.001505 0.005109 0.037805 0.000293 -0.012293
# 5 -0.001013 -0.002468 -0.000456 0.000293 0.044467 -0.006101
# 6 -0.001043 -0.002460 0.000503 -0.012293 -0.006101 0.028591
#
#
# Mechanical properties :
#
#
# Convention : Reuss Voigt Hill
#
# Bulk Modulus (GPa) = 33.72164 37.97529 35.84846
# Shear Modulus (GPa) = 27.22489 34.39879 30.81184
#
# Velocity S-wave (km/s) = 3.27034 3.67605 3.47912
# Velocity P-wave (km/s) = 5.24476 5.73901 5.49744
#
# Compressibility (1/GPa) = 0.02965455
#
# Stress axis : x y z
#
# Youngs Moduli (GPa) = 82.58392 97.52916 41.80802
#
# Poissons Ratio (x) = 0.00406 0.30907
# Poissons Ratio (y) = 0.00344 0.03675
# Poissons Ratio (z) = 0.61051 0.08573
#
# Static dielectric constant tensor:
#      x y z
#    x 1.986830 -0.038230 -0.069270 
#    y -0.038230 1.995480 -0.080480 
#    z -0.069270 -0.080480 2.053200 
# 
# From -- ./inp_files/175247.got.cif
#   From: 2010.05.17/outbox.cif.g08.bks.cpg/sg2_88_cif.got.tgz:175247.got - 2010.06.03 11:33:40.
