data_PCOD9031791
_publ_section_title
;
Structure prediction by ZEFSAII (Michael W. Deem and Ramdas Pophale) SiO2 
 PCOD9031791
Probable space group: P -1
;
_chemical_formula_sum "Si O2"
_cell_formula_units_Z 13
_cell_length_a 7.587244
_cell_length_b 15.525117
_cell_length_c 5.708157
_cell_angle_alpha 130.113832
_cell_angle_beta 107.156148
_cell_angle_gamma 92.373061
_cell_volume 466.033712
_symmetry_space_group_name_H-M "P -1"
_symmetry_group_IT_number 2
_symmetry_cell_setting 'triclinic'
loop_
_space_group_symop_operation_xyz
x,y,z
-x,-y,-z
loop_
_atom_site_type_symbol
_atom_site_label
_atom_site_fract_x
_atom_site_fract_y
_atom_site_fract_z
Si Si1 0.193889 0.479783 0.935519
Si Si2 0.153010 0.914623 0.377911
Si Si3 0.000000 0.000000 0.000000
Si Si4 0.846041 0.730346 0.177473
Si Si5 0.176350 0.677585 0.935771
Si Si6 0.608736 0.904060 0.895597
Si Si7 0.554119 0.332859 0.358327
O O1 0.160056 0.339892 0.705458
O O2 0.385700 0.539929 0.273738
O O3 0.224283 0.566714 0.877751
O O4 0.000000 0.500000 0.000000
O O5 0.048273 0.913906 0.091050
O O6 0.276882 0.045356 0.728529
O O7 0.270449 0.820110 0.263889
O O8 0.001359 0.865293 0.458704
O O9 0.231182 0.072901 0.198227
O O10 0.630406 0.703307 0.947727
O O11 0.959690 0.670473 0.926097
O O12 0.247895 0.669771 0.690481
O O13 0.491540 0.768489 0.642084
O O14 0.500000 0.000000 0.000000
#
# Coordination Sequence:
#
# PCOD9031791 Si02
#       7
#     2   2   1   2   2   2   2
#     4  10  22  43  68  92 133 169 216 277 328 385
#     4  10  23  47  61 100 137 169 220 272 326 384
#     4  12  24  44  68  94 134 190 206 274 330 382
#     4   9  22  44  62  94 132 164 218 274 313 399
#     4   9  22  43  64  96 127 173 209 272 326 385
#     4  12  26  42  69  99 136 174 223 273 324 401
#     4  12  23  41  66  97 127 173 220 266 327 394
#
# _framework density 27.894976
#
# number of rings (size 3 to 8) (size 9 to 14) (size 15 to 20)
#    0.923    0.615    1.538    2.769    0.000    6.769 
#    0.000    3.077    0.000    0.000    0.000    0.000 
#    0.000    0.000    0.000    0.000    0.000    0.000 
#
# Total GULP energy -72377.533300 kJ/mol
# GULP energy per Si atom -5567.502562 kJ/mol
# Density = 2.783149 g / cm^3
# Si number density = 27.894976 Si / 1000 Ang^3
#
#
#
# Elastic Constant Matrix: (Units=GPa)
#
#
# Indices 1 2 3 4 5 6 
#
# 1 78.0085 27.3253 -5.8457 -12.3632 -1.8208 12.6407
# 2 27.3253 197.3471 18.5312 16.7411 3.7026 8.4005
# 3 -5.8457 18.5312 64.4821 18.6182 12.4402 4.5319
# 4 -12.3632 16.7411 18.6182 44.8048 -7.0938 4.9604
# 5 -1.8208 3.7026 12.4402 -7.0938 25.7752 -5.6326
# 6 12.6407 8.4005 4.5319 4.9604 -5.6326 47.7882
#
#
#
# Elastic Compliance Matrix: (Units=1/GPa)
#
#
# Indices 1 2 3 4 5 6 
#
# 1 0.015340 -0.002514 0.000337 0.005793 0.002000 -0.004013
# 2 -0.002514 0.005754 -0.000823 -0.002704 -0.001384 -0.000151
# 3 0.000337 -0.000823 0.021629 -0.010482 -0.013734 -0.002526
# 4 0.005793 -0.002704 -0.010482 0.031721 0.014220 -0.001680
# 5 0.002000 -0.001384 -0.013734 0.014220 0.050889 0.005539
# 6 -0.004013 -0.000151 -0.002526 -0.001680 0.005539 0.023081
#
#
# Mechanical properties :
#
#
# Convention : Reuss Voigt Hill
#
# Bulk Modulus (GPa) = 27.23106 46.65105 36.94105
# Shear Modulus (GPa) = 30.00201 43.66211 36.83206
#
# Velocity S-wave (km/s) = 3.28309 3.96059 3.63765
# Velocity P-wave (km/s) = 4.91475 6.13801 5.56012
#
# Compressibility (1/GPa) = 0.03672277
#
# Stress axis : x y z
#
# Youngs Moduli (GPa) = 65.18904 173.78129 46.23444
#
# Poissons Ratio (x) = 0.43684 -0.01557
# Poissons Ratio (y) = 0.16387 0.03806
# Poissons Ratio (z) = -0.02195 0.14306
#
# Static dielectric constant tensor:
#      x y z
#    x 2.205320 -0.054600 -0.021670 
#    y -0.054600 2.137840 0.019600 
#    z -0.021670 0.019600 2.252600 
# 
# From -- ./inp_files/30708.got.cif
#   From: 2010.05.17/outbox.cif.g08.bks.cpg/sg2_16_cif.got.tgz:30708.got - 2010.06.03 11:33:40.
