data_PCOD9031795
_publ_section_title
;
Structure prediction by ZEFSAII (Michael W. Deem and Ramdas Pophale) SiO2 
 PCOD9031795
Probable space group: P -1
;
_chemical_formula_sum "Si O2"
_cell_formula_units_Z 14
_cell_length_a 13.108637
_cell_length_b 13.232922
_cell_length_c 5.093062
_cell_angle_alpha 96.142048
_cell_angle_beta 115.624211
_cell_angle_gamma 44.430221
_cell_volume 528.361305
_symmetry_space_group_name_H-M "P -1"
_symmetry_group_IT_number 2
_symmetry_cell_setting 'triclinic'
loop_
_space_group_symop_operation_xyz
x,y,z
-x,-y,-z
loop_
_atom_site_type_symbol
_atom_site_label
_atom_site_fract_x
_atom_site_fract_y
_atom_site_fract_z
Si Si1 0.433821 0.877949 0.697753
Si Si2 0.079143 0.719197 0.209630
Si Si3 0.702185 0.932487 0.895011
Si Si4 0.509867 0.393154 0.809634
Si Si5 0.191141 0.855998 0.261276
Si Si6 0.964297 0.594622 0.236638
Si Si7 0.671636 0.553923 0.889710
O O1 0.291712 0.881587 0.515765
O O2 0.612388 0.705138 0.775214
O O3 0.412504 0.940826 0.975355
O O4 0.386711 0.994898 0.463726
O O5 0.177077 0.758585 0.379554
O O6 0.146578 0.621936 0.986285
O O7 0.879544 0.875887 0.034518
O O8 0.086707 0.612410 0.367255
O O9 0.783267 0.773203 0.047948
O O10 0.412630 0.386658 0.902469
O O11 0.500000 0.500000 0.000000
O O12 0.699909 0.237849 0.905570
O O13 0.575981 0.551526 0.557130
O O14 0.000000 0.000000 0.000000
O O15 0.000000 0.500000 0.500000
O O16 0.000000 0.500000 0.000000
#
# Coordination Sequence:
#
# PCOD9031795 Si02
#       7
#     2   2   2   2   2   2   2
#     4  11  22  40  59  92 133 168 194 251 306 367
#     4  10  24  39  65  96 119 169 213 261 298 382
#     4  10  23  41  64  93 118 165 207 251 309 365
#     4  11  23  38  55  82 128 175 204 251 293 353
#     4  11  21  38  59  92 131 168 211 245 298 367
#     4  10  22  43  68  93 120 154 209 271 323 358
#     4  11  24  40  59  87 130 168 213 246 310 364
#
# _framework density 26.497018000000001
#
# number of rings (size 3 to 8) (size 9 to 14) (size 15 to 20)
#    0.857    0.571    2.857    3.000    2.000    4.000 
#    0.000    0.000    0.000    5.143    0.000    0.000 
#    0.000    0.000    0.000    0.000    0.000    0.000 
#
# Total GULP energy -78126.905266 kJ/mol
# GULP energy per Si atom -5580.493233 kJ/mol
# Density = 2.643671 g / cm^3
# Si number density = 26.497018 Si / 1000 Ang^3
#
#
#
# Elastic Constant Matrix: (Units=GPa)
#
#
# Indices 1 2 3 4 5 6 
#
# 1 142.9196 -7.4797 19.6378 6.8334 -1.5229 35.2910
# 2 -7.4797 120.6459 14.1734 13.6758 -0.0309 -5.6738
# 3 19.6378 14.1734 90.2072 25.5557 -26.3081 -0.4777
# 4 6.8334 13.6758 25.5557 38.0971 -1.5644 -12.7550
# 5 -1.5229 -0.0309 -26.3081 -1.5644 39.0783 2.8140
# 6 35.2910 -5.6738 -0.4777 -12.7550 2.8140 54.9036
#
#
#
# Elastic Compliance Matrix: (Units=1/GPa)
#
#
# Indices 1 2 3 4 5 6 
#
# 1 0.008943 0.000761 -0.001237 -0.003202 -0.000150 -0.006416
# 2 0.000761 0.008750 -0.000984 -0.002709 -0.000721 -0.000186
# 3 -0.001237 -0.000984 0.018475 -0.012191 0.012087 -0.002598
# 4 -0.003202 -0.002709 -0.012191 0.039418 -0.007564 0.011217
# 5 -0.000150 -0.000721 0.012087 -0.007564 0.033659 -0.003356
# 6 -0.006416 -0.000186 -0.002598 0.011217 -0.003356 0.025074
#
#
# Mechanical properties :
#
#
# Convention : Reuss Voigt Hill
#
# Bulk Modulus (GPa) = 30.07835 45.15952 37.61893
# Shear Modulus (GPa) = 33.71054 48.24523 40.97788
#
# Velocity S-wave (km/s) = 3.57072 4.27169 3.93683
# Velocity P-wave (km/s) = 5.32694 6.43506 5.90704
#
# Compressibility (1/GPa) = 0.03324651
#
# Stress axis : x y z
#
# Youngs Moduli (GPa) = 111.82414 114.29001 54.12814
#
# Poissons Ratio (x) = -0.08696 0.06695
# Poissons Ratio (y) = -0.08508 0.05327
# Poissons Ratio (z) = 0.13831 0.11249
#
# Static dielectric constant tensor:
#      x y z
#    x 3.054140 0.031640 -0.209680 
#    y 0.031640 2.073270 -0.125320 
#    z -0.209680 -0.125320 2.169400 
# 
# From -- ./inp_files/96560.got.cif
#   From: 2010.05.17/outbox.cif.g08.bks.cpg/sg2_49_cif.got.tgz:96560.got - 2010.06.03 11:33:40.
