data_PCOD9031111
_publ_section_title
;
Structure prediction by ZEFSAII (Michael W. Deem and Ramdas Pophale) SiO2 
 PCOD9031111
Probable space group: P -1
;
_chemical_formula_sum "Si O2"
_cell_formula_units_Z 14
_cell_length_a 10.718042
_cell_length_b 17.029579
_cell_length_c 8.291425
_cell_angle_alpha 40.414823
_cell_angle_beta 127.249415
_cell_angle_gamma 145.526822
_cell_volume 554.317599
_symmetry_space_group_name_H-M "P -1"
_symmetry_group_IT_number 2
_symmetry_cell_setting 'triclinic'
loop_
_space_group_symop_operation_xyz
x,y,z
-x,-y,-z
loop_
_atom_site_type_symbol
_atom_site_label
_atom_site_fract_x
_atom_site_fract_y
_atom_site_fract_z
Si Si1 0.695775 0.106192 0.118427
Si Si2 0.251257 0.126345 0.443890
Si Si3 0.457267 0.593051 0.544340
Si Si4 0.763584 0.558782 0.734593
Si Si5 0.096375 0.272318 0.938721
Si Si6 0.372052 0.769636 0.818273
Si Si7 0.834426 0.110693 0.660402
O O1 0.680798 0.203487 0.086931
O O2 0.691621 0.975076 0.413665
O O3 0.928178 0.224991 0.018653
O O4 0.500000 0.000000 0.000000
O O5 0.399490 0.219802 0.572785
O O6 0.258700 0.249085 0.147550
O O7 0.000000 0.000000 0.500000
O O8 0.620576 0.567209 0.721570
O O9 0.373606 0.547396 0.368913
O O10 0.249933 0.464106 0.699142
O O11 0.969751 0.751362 0.530719
O O12 0.771023 0.428478 0.017841
O O13 0.953698 0.154628 0.855388
O O14 0.296015 0.832331 0.535925
O O15 0.639566 0.905170 0.811911
#
# Coordination Sequence:
#
# PCOD9031111 Si02
#       7
#     2   2   2   2   2   2   2
#     4  11  22  42  67  98 134 170 221 273 335 398
#     4  10  23  40  68  94 132 175 218 272 333 394
#     4  10  22  44  64  97 130 172 228 272 331 392
#     4  10  23  43  68  94 136 176 221 282 325 395
#     4  10  22  43  64  98 131 174 223 274 330 395
#     4  11  23  43  67  97 136 178 219 275 341 396
#     4  10  23  42  64  97 133 174 228 265 332 400
#
# _framework density 25.25628
#
# number of rings (size 3 to 8) (size 9 to 14) (size 15 to 20)
#    0.000    1.714    1.429    1.714    6.000    2.286 
#    5.143    5.000    0.000    0.000    0.000    0.000 
#    0.000    0.000    0.000    0.000    0.000    0.000 
#
# Total GULP energy -78263.618407 kJ/mol
# GULP energy per Si atom -5590.258458 kJ/mol
# Density = 2.519880 g / cm^3
# Si number density = 25.256280 Si / 1000 Ang^3
#
#
#
# Elastic Constant Matrix: (Units=GPa)
#
#
# Indices 1 2 3 4 5 6 
#
# 1 122.6109 28.6232 25.1427 -20.6527 -13.2867 3.4434
# 2 28.6232 114.3172 11.5113 2.3462 -9.0796 4.1020
# 3 25.1427 11.5113 67.5415 -0.6380 -1.7008 -4.0311
# 4 -20.6527 2.3462 -0.6380 41.8008 8.1007 -4.4177
# 5 -13.2867 -9.0796 -1.7008 8.1007 41.4567 -9.6179
# 6 3.4434 4.1020 -4.0311 -4.4177 -9.6179 37.1410
#
#
#
# Elastic Compliance Matrix: (Units=1/GPa)
#
#
# Indices 1 2 3 4 5 6 
#
# 1 0.010378 -0.002216 -0.003400 0.004857 0.001739 -0.000058
# 2 -0.002216 0.009581 -0.000834 -0.002032 0.001570 -0.000778
# 3 -0.003400 -0.000834 0.016328 -0.001186 0.000109 0.002067
# 4 0.004857 -0.002032 -0.001186 0.027365 -0.003842 0.001905
# 5 0.001739 0.001570 0.000109 -0.003842 0.027233 0.006272
# 6 -0.000058 -0.000778 0.002067 0.001905 0.006272 0.029091
#
#
# Mechanical properties :
#
#
# Convention : Reuss Voigt Hill
#
# Bulk Modulus (GPa) = 42.75617 48.33601 45.54609
# Shear Modulus (GPa) = 35.54380 40.02584 37.78482
#
# Velocity S-wave (km/s) = 3.75550 3.98526 3.87208
# Velocity P-wave (km/s) = 5.98087 6.35265 6.16956
#
# Compressibility (1/GPa) = 0.02338844
#
# Stress axis : x y z
#
# Youngs Moduli (GPa) = 96.35320 104.37617 61.24338
#
# Poissons Ratio (x) = 0.23127 0.20821
# Poissons Ratio (y) = 0.21349 0.05109
# Poissons Ratio (z) = 0.32757 0.08706
#
# Static dielectric constant tensor:
#      x y z
#    x 1.959860 0.010570 0.034160 
#    y 0.010570 2.039350 -0.064140 
#    z 0.034160 -0.064140 2.206870 
# 
# From -- ./inp_files/159510.got.cif
#   From: 2010.05.17/outbox.cif.g08.bks.cpg/sg2_80_cif.got.tgz:159510.got - 2010.06.03 11:33:40.
