data_PCOD9031008
_publ_section_title
;
Structure prediction by ZEFSAII (Michael W. Deem and Ramdas Pophale) SiO2 
 PCOD9031008
Probable space group: P -1
;
_chemical_formula_sum "Si O2"
_cell_formula_units_Z 16
_cell_length_a 15.169347
_cell_length_b 5.841811
_cell_length_c 8.871958
_cell_angle_alpha 88.595438
_cell_angle_beta 102.984618
_cell_angle_gamma 74.280804
_cell_volume 734.385564
_symmetry_space_group_name_H-M "P -1"
_symmetry_group_IT_number 2
_symmetry_cell_setting 'triclinic'
loop_
_space_group_symop_operation_xyz
x,y,z
-x,-y,-z
loop_
_atom_site_type_symbol
_atom_site_label
_atom_site_fract_x
_atom_site_fract_y
_atom_site_fract_z
Si Si1 0.262507 0.933883 0.730905
Si Si2 0.921267 0.855550 0.140640
Si Si3 0.542485 0.264280 0.627350
Si Si4 0.232990 0.649225 0.432407
Si Si5 0.108813 0.032726 0.205075
Si Si6 0.552927 0.219886 0.983612
Si Si7 0.351508 0.152579 0.520619
Si Si8 0.945330 0.529618 0.630716
O O1 0.261027 0.741873 0.601707
O O2 0.350835 0.848685 0.879695
O O3 0.163605 0.022594 0.780149
O O4 0.285252 0.141779 0.636075
O O5 0.976254 0.587623 0.213153
O O6 0.884202 0.861877 0.957420
O O7 0.007287 0.977489 0.173607
O O8 0.500000 0.500000 0.500000
O O9 0.454012 0.156689 0.612337
O O10 0.625462 0.083462 0.568072
O O11 0.572908 0.255356 0.813289
O O12 0.305592 0.400936 0.416703
O O13 0.131605 0.607685 0.420985
O O14 0.202039 0.819914 0.274286
O O15 0.107055 0.208292 0.339781
O O16 0.500000 0.500000 0.000000
O O17 0.500000 0.000000 0.000000
O O18 0.000000 0.500000 0.500000
#
# Coordination Sequence:
#
# PCOD9031008 Si02
#       8
#     2   2   2   2   2   2   2   2
#     4  12  25  43  68 100 141 181 245 296 364 438
#     4  10  23  41  65  98 134 183 228 293 357 427
#     4  11  25  46  75  99 136 190 235 305 372 440
#     4  11  23  39  65  97 135 180 228 293 345 440
#     4  10  22  43  63  96 141 178 233 286 362 429
#     4  12  27  51  76 110 152 193 244 313 382 443
#     4  11  23  42  68 100 133 175 240 288 364 437
#     4  11  21  38  66  94 134 177 228 286 356 422
#
# _framework density 21.786921
#
# number of rings (size 3 to 8) (size 9 to 14) (size 15 to 20)
#    0.000    1.000    1.250    5.625    1.750    5.000 
#    0.000    0.000    0.000    0.000    0.000    0.000 
#    0.000    0.000    0.000    0.000    0.000    0.000 
#
# Total GULP energy -89176.533352 kJ/mol
# GULP energy per Si atom -5573.533335 kJ/mol
# Density = 2.173733 g / cm^3
# Si number density = 21.786921 Si / 1000 Ang^3
#
#
#
# Elastic Constant Matrix: (Units=GPa)
#
#
# Indices 1 2 3 4 5 6 
#
# 1 89.1175 5.0811 17.1007 -1.6585 5.1432 -21.2384
# 2 5.0811 82.8091 27.3667 -13.7333 1.6392 -26.9373
# 3 17.1007 27.3667 114.9773 -13.4376 8.7503 -29.4709
# 4 -1.6585 -13.7333 -13.4376 31.8312 -7.3487 6.8495
# 5 5.1432 1.6392 8.7503 -7.3487 44.2522 2.7189
# 6 -21.2384 -26.9373 -29.4709 6.8495 2.7189 25.8643
#
#
#
# Elastic Compliance Matrix: (Units=1/GPa)
#
#
# Indices 1 2 3 4 5 6 
#
# 1 0.015904 0.005207 0.002076 -0.001659 -0.004062 0.021715
# 2 0.005207 0.020652 0.001954 0.003449 -0.002867 0.027400
# 3 0.002076 0.001954 0.013213 0.001610 -0.003812 0.018770
# 4 -0.001659 0.003449 0.001610 0.036246 0.006145 -0.006180
# 5 -0.004062 -0.002867 -0.003812 0.006145 0.025873 -0.015013
# 6 0.021715 0.027400 0.018770 -0.006180 -0.015013 0.109633
#
#
# Mechanical properties :
#
#
# Convention : Reuss Voigt Hill
#
# Bulk Modulus (GPa) = 14.65316 42.88899 28.77108
# Shear Modulus (GPa) = 22.14413 36.21323 29.17868
#
# Velocity S-wave (km/s) = 3.19155 4.08138 3.66358
# Velocity P-wave (km/s) = 4.50795 6.47600 5.57944
#
# Compressibility (1/GPa) = 0.06824467
#
# Stress axis : x y z
#
# Youngs Moduli (GPa) = 62.87542 48.42097 75.68438
#
# Poissons Ratio (x) = -0.25213 -0.15715
# Poissons Ratio (y) = -0.32739 -0.14791
# Poissons Ratio (z) = -0.13055 -0.09463
#
# Static dielectric constant tensor:
#      x y z
#    x 1.828700 0.088000 0.023770 
#    y 0.088000 1.911460 0.000940 
#    z 0.023770 0.000940 1.778930 
# 
# From -- ./inp_files/288870.got.cif
#   From: 2010.05.17/outbox.cif.g08.bks.cpg/sg2_145_cif.got.tgz:288870.got - 2010.06.03 11:33:40.
