data_PCOD9031251
_publ_section_title
;
Structure prediction by ZEFSAII (Michael W. Deem and Ramdas Pophale) SiO2 
 PCOD9031251
Probable space group: P -1
;
_chemical_formula_sum "Si O2"
_cell_formula_units_Z 16
_cell_length_a 19.333898
_cell_length_b 8.722444
_cell_length_c 9.378702
_cell_angle_alpha 89.786916
_cell_angle_beta 146.388742
_cell_angle_gamma 90.640100
_cell_volume 875.411149
_symmetry_space_group_name_H-M "P -1"
_symmetry_group_IT_number 2
_symmetry_cell_setting 'triclinic'
loop_
_space_group_symop_operation_xyz
x,y,z
-x,-y,-z
loop_
_atom_site_type_symbol
_atom_site_label
_atom_site_fract_x
_atom_site_fract_y
_atom_site_fract_z
Si Si1 0.265892 0.162975 0.033826
Si Si2 0.929880 0.627900 0.472539
Si Si3 0.230745 0.633205 0.755118
Si Si4 0.103965 0.876928 0.715986
Si Si5 0.523767 0.324217 0.006783
Si Si6 0.466824 0.825004 0.669554
Si Si7 0.596751 0.363213 0.689077
Si Si8 0.594335 0.824334 0.457421
O O1 0.395310 0.172996 0.166989
O O2 0.293736 0.215742 0.243299
O O3 0.164582 0.268333 0.782299
O O4 0.218643 0.985657 0.960141
O O5 0.845692 0.517182 0.428351
O O6 0.000000 0.500000 0.500000
O O7 0.037021 0.750373 0.704025
O O8 0.146744 0.777855 0.652849
O O9 0.341816 0.680871 0.840481
O O10 0.291757 0.587896 0.014676
O O11 0.000000 0.000000 0.500000
O O12 0.421121 0.259502 0.719179
O O13 0.500000 0.500000 0.000000
O O14 0.522116 0.231752 0.150516
O O15 0.381950 0.709456 0.428546
O O16 0.413421 0.994530 0.574330
O O17 0.500000 0.500000 0.500000
O O18 0.526777 0.231286 0.660558
#
# Coordination Sequence:
#
# PCOD9031251 Si02
#       8
#     2   2   2   2   2   2   2   2
#     4  10  17  32  53  76 105 132 163 218 261 298
#     4   9  18  30  49  77  99 126 171 219 260 291
#     4  10  18  33  51  75 108 134 163 216 258 297
#     4   9  18  31  51  78  97 124 173 221 260 292
#     4  11  22  34  49  77 112 146 174 200 253 331
#     4  11  20  32  51  79 110 141 171 202 253 328
#     4  10  18  30  50  77 107 138 171 208 255 314
#     4  10  20  32  48  75 107 139 172 208 256 315
#
# _framework density 18.277125999999999
#
# number of rings (size 3 to 8) (size 9 to 14) (size 15 to 20)
#    0.000    2.000    0.000    7.875    0.000    0.000 
#    0.000    0.000    0.000    0.000    0.000  110.250 
#    0.000    0.000    0.000    0.000    0.000    0.000 
#
# Total GULP energy -89101.973839 kJ/mol
# GULP energy per Si atom -5568.873365 kJ/mol
# Density = 1.823553 g / cm^3
# Si number density = 18.277126 Si / 1000 Ang^3
#
#
#
# Elastic Constant Matrix: (Units=GPa)
#
#
# Indices 1 2 3 4 5 6 
#
# 1 65.7868 29.9685 41.3481 6.4225 -13.1255 4.1070
# 2 29.9685 103.2314 18.7396 5.7249 0.6874 -2.8719
# 3 41.3481 18.7396 40.0405 0.7058 -3.8887 3.8131
# 4 6.4225 5.7249 0.7058 38.6339 -1.2881 9.9351
# 5 -13.1255 0.6874 -3.8887 -1.2881 30.3655 0.5662
# 6 4.1070 -2.8719 3.8131 9.9351 0.5662 32.4178
#
#
#
# Elastic Compliance Matrix: (Units=1/GPa)
#
#
# Indices 1 2 3 4 5 6 
#
# 1 0.054413 -0.006156 -0.051601 -0.006735 0.016758 0.000402
# 2 -0.006156 0.011544 0.000480 -0.001365 -0.002960 0.002216
# 3 -0.051601 0.000480 0.077179 0.007908 -0.012008 -0.004712
# 4 -0.006735 -0.001365 0.007908 0.029413 -0.000448 -0.009204
# 5 0.016758 -0.002960 -0.012008 -0.000448 0.038714 -0.001512
# 6 0.000402 0.002216 -0.004712 -0.009204 -0.001512 0.034394
#
#
# Mechanical properties :
#
#
# Convention : Reuss Voigt Hill
#
# Bulk Modulus (GPa) = 34.98688 43.24124 39.11406
# Shear Modulus (GPa) = 13.52305 28.21693 20.86999
#
# Velocity S-wave (km/s) = 2.72304 3.93343 3.38281
# Velocity P-wave (km/s) = 5.39172 6.65877 6.05846
#
# Compressibility (1/GPa) = 0.02858214
#
# Stress axis : x y z
#
# Youngs Moduli (GPa) = 18.37801 86.62475 12.95687
#
# Poissons Ratio (x) = 0.53327 0.66858
# Poissons Ratio (y) = 0.11314 -0.00622
# Poissons Ratio (z) = 0.94832 -0.04157
#
# Static dielectric constant tensor:
#      x y z
#    x 1.604470 0.032050 0.070790 
#    y 0.032050 1.671490 0.029370 
#    z 0.070790 0.029370 1.649490 
# 
# From -- ./inp_files/170431.got.cif
#   From: 2010.05.17/outbox.cif.g08.bks.cpg/sg2_86_cif.got.tgz:170431.got - 2010.06.03 11:33:40.
