data_PCOD9031942
_publ_section_title
;
Structure prediction by ZEFSAII (Michael W. Deem and Ramdas Pophale) SiO2 
 PCOD9031942
Probable space group: P -1
;
_chemical_formula_sum "Si O2"
_cell_formula_units_Z 16
_cell_length_a 8.806193
_cell_length_b 6.997859
_cell_length_c 19.978312
_cell_angle_alpha 111.399982
_cell_angle_beta 38.369395
_cell_angle_gamma 94.304065
_cell_volume 662.397689
_symmetry_space_group_name_H-M "P -1"
_symmetry_group_IT_number 2
_symmetry_cell_setting 'triclinic'
loop_
_space_group_symop_operation_xyz
x,y,z
-x,-y,-z
loop_
_atom_site_type_symbol
_atom_site_label
_atom_site_fract_x
_atom_site_fract_y
_atom_site_fract_z
Si Si1 0.712185 0.602635 0.463980
Si Si2 0.826011 0.852501 0.050204
Si Si3 0.506361 0.844257 0.697081
Si Si4 0.602078 0.894468 0.880160
Si Si5 0.056123 0.094338 0.351462
Si Si6 0.308526 0.482546 0.789816
Si Si7 0.553644 0.774607 0.413613
Si Si8 0.760410 0.409851 0.729005
O O1 0.500000 0.500000 0.500000
O O2 0.555950 0.795149 0.595091
O O3 0.783536 0.625999 0.364315
O O4 0.002145 0.547049 0.386640
O O5 0.698948 0.921512 0.175792
O O6 0.600605 0.955295 0.086079
O O7 0.019886 0.607859 0.935566
O O8 0.000000 0.000000 0.000000
O O9 0.390840 0.661045 0.739984
O O10 0.768961 0.828348 0.646060
O O11 0.624050 0.640711 0.844516
O O12 0.871146 0.888300 0.749856
O O13 0.500000 0.000000 0.000000
O O14 0.128007 0.835109 0.309637
O O15 0.743757 0.231451 0.486347
O O16 0.334670 0.286085 0.705598
O O17 0.532916 0.408410 0.757767
O O18 0.500000 0.000000 0.500000
#
# Coordination Sequence:
#
# PCOD9031942 Si02
#       8
#     2   2   2   2   2   2   2   2
#     4  12  25  40  68 101 136 183 235 288 356 410
#     4   9  19  42  68  98 129 180 236 278 336 422
#     4  10  22  43  69 100 133 182 240 280 344 429
#     4  11  25  44  74 101 139 185 230 294 356 411
#     4  11  25  46  69 102 142 177 241 284 352 431
#     4  11  23  43  73  94 144 188 232 286 349 427
#     4  12  26  43  63 105 144 180 227 301 356 406
#     4  12  25  44  70 102 137 191 230 286 358 414
#
# _framework density 24.154675999999998
#
# number of rings (size 3 to 8) (size 9 to 14) (size 15 to 20)
#    0.000    1.000    6.250    1.500    3.500    4.500 
#    0.000    3.750    0.000    0.000    0.000    0.000 
#    0.000    0.000    0.000    0.000    0.000    0.000 
#
# Total GULP energy -89067.420255 kJ/mol
# GULP energy per Si atom -5566.713766 kJ/mol
# Density = 2.409970 g / cm^3
# Si number density = 24.154676 Si / 1000 Ang^3
#
#
#
# Elastic Constant Matrix: (Units=GPa)
#
#
# Indices 1 2 3 4 5 6 
#
# 1 97.0138 29.5828 77.4923 16.2527 23.9927 7.1785
# 2 29.5828 71.9077 30.3143 12.3746 13.8409 4.2927
# 3 77.4923 30.3143 179.9271 23.8354 36.2347 4.9541
# 4 16.2527 12.3746 23.8354 24.2027 5.6132 0.1873
# 5 23.9927 13.8409 36.2347 5.6132 56.4577 6.9049
# 6 7.1785 4.2927 4.9541 0.1873 6.9049 39.0244
#
#
#
# Elastic Compliance Matrix: (Units=1/GPa)
#
#
# Indices 1 2 3 4 5 6 
#
# 1 0.017373 -0.003526 -0.005946 -0.003496 -0.002152 -0.001655
# 2 -0.003526 0.016802 -0.000173 -0.005617 -0.001851 -0.000823
# 3 -0.005946 -0.000173 0.009330 -0.004406 -0.003041 0.000487
# 4 -0.003496 -0.005617 -0.004406 0.050758 0.000461 0.001495
# 5 -0.002152 -0.001851 -0.003041 0.000461 0.021328 -0.002790
# 6 -0.001655 -0.000823 0.000487 0.001495 -0.002790 0.026445
#
#
# Mechanical properties :
#
#
# Convention : Reuss Voigt Hill
#
# Bulk Modulus (GPa) = 41.29497 69.29191 55.29344
# Shear Modulus (GPa) = 29.51634 38.03425 33.77530
#
# Velocity S-wave (km/s) = 3.49946 3.97244 3.74343
# Velocity P-wave (km/s) = 5.78459 7.05616 6.45178
#
# Compressibility (1/GPa) = 0.02421603
#
# Stress axis : x y z
#
# Youngs Moduli (GPa) = 57.56036 59.51621 107.17579
#
# Poissons Ratio (x) = 0.20984 0.63729
# Poissons Ratio (y) = 0.20295 0.01852
# Poissons Ratio (z) = 0.34227 0.01028
#
# Static dielectric constant tensor:
#      x y z
#    x 1.873510 -0.124470 0.015170 
#    y -0.124470 2.495120 0.030090 
#    z 0.015170 0.030090 1.821170 
# 
# From -- ./inp_files/588014.got.cif
#   From: 2010.05.17/outbox.cif.g08.bks.cpg/sg2_295_cif.got.tgz:588014.got - 2010.06.03 11:33:40.
