data_PCOD9031010
_publ_section_title
;
Structure prediction by ZEFSAII (Michael W. Deem and Ramdas Pophale) SiO2 
 PCOD9031010
Probable space group: P -1
;
_chemical_formula_sum "Si O2"
_cell_formula_units_Z 16
_cell_length_a 12.150645
_cell_length_b 16.957294
_cell_length_c 8.587324
_cell_angle_alpha 69.121538
_cell_angle_beta 34.678180
_cell_angle_gamma 47.279064
_cell_volume 647.958735
_symmetry_space_group_name_H-M "P -1"
_symmetry_group_IT_number 2
_symmetry_cell_setting 'triclinic'
loop_
_space_group_symop_operation_xyz
x,y,z
-x,-y,-z
loop_
_atom_site_type_symbol
_atom_site_label
_atom_site_fract_x
_atom_site_fract_y
_atom_site_fract_z
Si Si1 0.303287 0.505796 0.076462
Si Si2 0.040012 0.790320 0.822463
Si Si3 0.989924 0.467006 0.303968
Si Si4 0.263791 0.568936 0.593445
Si Si5 0.995651 0.228161 0.758779
Si Si6 0.585618 0.194745 0.772866
Si Si7 0.401896 0.959360 0.765086
Si Si8 0.980336 0.058959 0.713973
O O1 0.224739 0.478662 0.340384
O O2 0.211435 0.630034 0.129525
O O3 0.117810 0.518846 0.148134
O O4 0.611012 0.419050 0.708330
O O5 0.011675 0.704882 0.855426
O O6 0.309565 0.753342 0.471644
O O7 0.059172 0.781694 0.992220
O O8 0.776579 0.930701 0.980773
O O9 0.823813 0.494339 0.322318
O O10 0.256471 0.317235 0.101705
O O11 0.500000 0.500000 0.500000
O O12 0.995535 0.145629 0.711242
O O13 0.306932 0.168935 0.426336
O O14 0.766860 0.131666 0.764869
O O15 0.721970 0.075778 0.593003
O O16 0.500000 0.000000 0.500000
O O17 0.184743 0.955632 0.971830
#
# Coordination Sequence:
#
# PCOD9031010 Si02
#       8
#     2   2   2   2   2   2   2   2
#     4  11  25  46  67 105 131 179 232 276 345 400
#     4  10  22  43  63  97 138 172 225 278 331 406
#     4  11  26  45  72  95 137 182 225 286 336 408
#     4  12  25  46  68 100 136 176 230 282 340 397
#     4  11  23  42  69  99 136 181 224 278 337 409
#     4  10  22  45  66 103 137 175 228 275 342 398
#     4   9  21  40  63  98 134 172 223 268 331 402
#     4  10  23  42  69 100 142 176 220 286 333 399
#
# _framework density 24.692931000000002
#
# number of rings (size 3 to 8) (size 9 to 14) (size 15 to 20)
#    0.000    1.500    2.500    1.125    3.500    8.000 
#    2.250    2.500    0.000    0.000    0.000    0.000 
#    0.000    0.000    0.000    0.000    0.000    0.000 
#
# Total GULP energy -89353.287295 kJ/mol
# GULP energy per Si atom -5584.580456 kJ/mol
# Density = 2.463673 g / cm^3
# Si number density = 24.692931 Si / 1000 Ang^3
#
#
#
# Elastic Constant Matrix: (Units=GPa)
#
#
# Indices 1 2 3 4 5 6 
#
# 1 138.9605 23.3427 23.9996 -0.9835 8.9028 31.6246
# 2 23.3427 61.5154 8.1454 -2.5790 12.1056 17.2397
# 3 23.9996 8.1454 86.9604 1.0611 1.2141 1.7481
# 4 -0.9835 -2.5790 1.0611 46.1857 5.1981 6.5121
# 5 8.9028 12.1056 1.2141 5.1981 26.5578 7.7000
# 6 31.6246 17.2397 1.7481 6.5121 7.7000 45.1795
#
#
#
# Elastic Compliance Matrix: (Units=1/GPa)
#
#
# Indices 1 2 3 4 5 6 
#
# 1 0.009216 -0.001327 -0.002302 0.001102 -0.000896 -0.005862
# 2 -0.001327 0.020174 -0.001335 0.002801 -0.007546 -0.005835
# 3 -0.002302 -0.001335 0.012228 -0.000693 0.000474 0.001667
# 4 0.001102 0.002801 -0.000693 0.023002 -0.004870 -0.004299
# 5 -0.000896 -0.007546 0.000474 -0.004870 0.043247 -0.003181
# 6 -0.005862 -0.005835 0.001667 -0.004299 -0.003181 0.029561
#
#
# Mechanical properties :
#
#
# Convention : Reuss Voigt Hill
#
# Bulk Modulus (GPa) = 31.55579 44.26797 37.91188
# Shear Modulus (GPa) = 31.66149 39.04785 35.35467
#
# Velocity S-wave (km/s) = 3.58468 3.98092 3.78798
# Velocity P-wave (km/s) = 5.47177 6.25272 5.87524
#
# Compressibility (1/GPa) = 0.03168991
#
# Stress axis : x y z
#
# Youngs Moduli (GPa) = 108.50641 49.56825 81.77786
#
# Poissons Ratio (x) = 0.06578 0.18828
# Poissons Ratio (y) = 0.14399 0.10917
# Poissons Ratio (z) = 0.24981 0.06617
#
# Static dielectric constant tensor:
#      x y z
#    x 1.994980 -0.066160 -0.017400 
#    y -0.066160 2.003940 -0.012530 
#    z -0.017400 -0.012530 2.088600 
# 
# From -- ./inp_files/279355.got.cif
#   From: 2010.05.17/outbox.cif.g08.bks.cpg/sg2_140_cif.got.tgz:279355.got - 2010.06.03 11:33:40.
