data_PCOD9031077
_publ_section_title
;
Structure prediction by ZEFSAII (Michael W. Deem and Ramdas Pophale) SiO2 
 PCOD9031077
Probable space group: P -1
;
_chemical_formula_sum "Si O2"
_cell_formula_units_Z 16
_cell_length_a 13.115632
_cell_length_b 10.173298
_cell_length_c 22.741942
_cell_angle_alpha 35.691165
_cell_angle_beta 28.259849
_cell_angle_gamma 44.337667
_cell_volume 838.205034
_symmetry_space_group_name_H-M "P -1"
_symmetry_group_IT_number 2
_symmetry_cell_setting 'triclinic'
loop_
_space_group_symop_operation_xyz
x,y,z
-x,-y,-z
loop_
_atom_site_type_symbol
_atom_site_label
_atom_site_fract_x
_atom_site_fract_y
_atom_site_fract_z
Si Si1 0.876432 0.853211 0.566831
Si Si2 0.340479 0.886307 0.076375
Si Si3 0.477103 0.986214 0.405835
Si Si4 0.846121 0.121462 0.081767
Si Si5 0.516786 0.311766 0.377503
Si Si6 0.498698 0.535806 0.919330
Si Si7 0.147400 0.323086 0.953288
Si Si8 0.035535 0.442885 0.569976
O O1 0.705098 0.688131 0.744303
O O2 0.037690 0.678724 0.517613
O O3 0.731574 0.968245 0.546486
O O4 0.000000 0.000000 0.500000
O O5 0.479892 0.710435 0.031034
O O6 0.156842 0.722836 0.254627
O O7 0.500000 0.000000 0.000000
O O8 0.219732 0.094402 0.031564
O O9 0.416175 0.797433 0.554212
O O10 0.678718 0.972194 0.261993
O O11 0.547635 0.180100 0.347133
O O12 0.699951 0.313768 0.056147
O O13 0.006698 0.245666 0.998546
O O14 0.000000 0.000000 0.000000
O O15 0.638532 0.544930 0.222615
O O16 0.261311 0.325383 0.507590
O O17 0.500000 0.500000 0.000000
O O18 0.000000 0.500000 0.000000
O O19 0.000000 0.500000 0.500000
#
# Coordination Sequence:
#
# PCOD9031077 Si02
#       8
#     2   2   2   2   2   2   2   2
#     4  10  23  41  66  93 130 168 213 270 327 402
#     4  11  24  40  63  95 131 171 218 273 320 393
#     4  10  22  43  64  94 133 168 217 274 342 383
#     4  11  23  42  68  95 133 174 214 275 336 403
#     4  11  23  40  67  96 131 170 220 283 323 398
#     4  10  23  43  62  90 133 171 211 263 326 389
#     4  12  24  40  65  97 128 173 230 268 329 396
#     4  11  22  39  65  95 129 173 218 268 332 389
#
# _framework density 19.088408000000001
#
# number of rings (size 3 to 8) (size 9 to 14) (size 15 to 20)
#    0.000    1.250    2.500    3.000    3.500    6.000 
#    0.000    1.250    0.000    0.000    0.000    0.000 
#    0.000    0.000    0.000    0.000    0.000    0.000 
#
# Total GULP energy -89167.835149 kJ/mol
# GULP energy per Si atom -5572.989697 kJ/mol
# Density = 1.904496 g / cm^3
# Si number density = 19.088408 Si / 1000 Ang^3
#
#
#
# Elastic Constant Matrix: (Units=GPa)
#
#
# Indices 1 2 3 4 5 6 
#
# 1 150.7977 69.7223 45.7918 -9.7422 11.7929 12.9543
# 2 69.7223 146.9583 46.1629 2.8054 7.2739 20.7971
# 3 45.7918 46.1629 65.6172 -6.8035 4.7152 10.1449
# 4 -9.7422 2.8054 -6.8035 36.0291 0.5187 -0.1319
# 5 11.7929 7.2739 4.7152 0.5187 35.3693 -6.5589
# 6 12.9543 20.7971 10.1449 -0.1319 -6.5589 34.6519
#
#
#
# Elastic Compliance Matrix: (Units=1/GPa)
#
#
# Indices 1 2 3 4 5 6 
#
# 1 0.009701 -0.003123 -0.004035 0.002133 -0.002270 -0.000993
# 2 -0.003123 0.010438 -0.004735 -0.002549 -0.001168 -0.003942
# 3 -0.004035 -0.004735 0.022191 0.003476 -0.001125 -0.002346
# 4 0.002133 -0.002549 0.003476 0.029202 -0.001151 -0.000392
# 5 -0.002270 -0.001168 -0.001125 -0.001151 0.030868 0.007717
# 6 -0.000993 -0.003942 -0.002346 -0.000392 0.007717 0.033741
#
#
# Mechanical properties :
#
#
# Convention : Reuss Voigt Hill
#
# Bulk Modulus (GPa) = 53.92607 76.30301 65.11454
# Shear Modulus (GPa) = 30.10073 34.65648 32.37860
#
# Velocity S-wave (km/s) = 3.97534 4.26558 4.12302
# Velocity P-wave (km/s) = 7.02731 8.02001 7.54002
#
# Compressibility (1/GPa) = 0.01854391
#
# Stress axis : x y z
#
# Youngs Moduli (GPa) = 103.07885 95.80517 45.06332
#
# Poissons Ratio (x) = 0.29920 0.18185
# Poissons Ratio (y) = 0.32191 0.21337
# Poissons Ratio (z) = 0.41596 0.45362
#
# Static dielectric constant tensor:
#      x y z
#    x 1.416420 0.074320 0.010100 
#    y 0.074320 1.562210 0.029980 
#    z 0.010100 0.029980 1.666310 
# 
# From -- ./inp_files/187699.got.cif
#   From: 2010.05.17/outbox.cif.g08.bks.cpg/sg2_94_cif.got.tgz:187699.got - 2010.06.03 11:33:40.
