data_PCOD9031636
_publ_section_title
;
Structure prediction by ZEFSAII (Michael W. Deem and Ramdas Pophale) SiO2 
 PCOD9031636
Probable space group: P -1
;
_chemical_formula_sum "Si O2"
_cell_formula_units_Z 16
_cell_length_a 11.860024
_cell_length_b 8.987052
_cell_length_c 28.084814
_cell_angle_alpha 150.853228
_cell_angle_beta 30.097984
_cell_angle_gamma 138.189444
_cell_volume 730.494016
_symmetry_space_group_name_H-M "P -1"
_symmetry_group_IT_number 2
_symmetry_cell_setting 'triclinic'
loop_
_space_group_symop_operation_xyz
x,y,z
-x,-y,-z
loop_
_atom_site_type_symbol
_atom_site_label
_atom_site_fract_x
_atom_site_fract_y
_atom_site_fract_z
Si Si1 0.397490 0.667740 0.940496
Si Si2 0.188842 0.666481 0.257159
Si Si3 0.006947 0.230882 0.124247
Si Si4 0.477705 0.469590 0.750842
Si Si5 0.722131 0.864557 0.515678
Si Si6 0.232703 0.321096 0.377522
Si Si7 0.979998 0.478720 0.101705
Si Si8 0.521184 0.429319 0.389918
O O1 0.579467 0.423581 0.827425
O O2 0.379326 0.598495 0.872092
O O3 0.167211 0.626631 0.041962
O O4 0.500000 0.000000 0.000000
O O5 0.128901 0.382858 0.166305
O O6 0.978766 0.739323 0.389219
O O7 0.199537 0.976280 0.309834
O O8 0.052493 0.433016 0.117225
O O9 0.740577 0.258684 0.239774
O O10 0.062663 0.873958 0.996041
O O11 0.599557 0.689554 0.731637
O O12 0.260893 0.344964 0.767736
O O13 0.671047 0.218324 0.623802
O O14 0.614118 0.705809 0.464269
O O15 0.597277 0.770636 0.582798
O O16 0.351911 0.491146 0.425506
O O17 0.000000 0.500000 0.500000
#
# Coordination Sequence:
#
# PCOD9031636 Si02
#       8
#     2   2   2   2   2   2   2   2
#     4  12  29  46  69 103 137 180 225 285 341 395
#     4  11  25  44  68 100 140 176 223 283 343 401
#     4  10  22  43  70  98 128 183 232 273 340 397
#     4  12  25  44  66 100 137 179 231 271 343 402
#     4  10  23  42  70  98 131 180 217 285 333 417
#     4  12  25  41  67 104 142 177 219 284 342 405
#     4  11  24  44  70  94 133 181 231 284 323 408
#     4  10  22  43  67  97 132 174 230 270 346 403
#
# _framework density 21.902988000000001
#
# number of rings (size 3 to 8) (size 9 to 14) (size 15 to 20)
#    0.000    1.000    2.500    3.375    5.250    6.000 
#    0.000    0.000    0.000    0.000    0.000    0.000 
#    0.000    0.000    0.000    0.000    0.000    0.000 
#
# Total GULP energy -89491.018726 kJ/mol
# GULP energy per Si atom -5593.188670 kJ/mol
# Density = 2.185314 g / cm^3
# Si number density = 21.902988 Si / 1000 Ang^3
#
#
#
# Elastic Constant Matrix: (Units=GPa)
#
#
# Indices 1 2 3 4 5 6 
#
# 1 88.7102 -7.2885 13.0487 -15.4299 -18.0389 -3.6447
# 2 -7.2885 84.3035 13.7039 -27.5035 -0.0746 -13.3272
# 3 13.0487 13.7039 57.4902 -17.0638 -6.9596 -8.3640
# 4 -15.4299 -27.5035 -17.0638 34.4776 -4.9255 0.1959
# 5 -18.0389 -0.0746 -6.9596 -4.9255 36.7249 -8.4232
# 6 -3.6447 -13.3272 -8.3640 0.1959 -8.4232 27.7278
#
#
#
# Elastic Compliance Matrix: (Units=1/GPa)
#
#
# Indices 1 2 3 4 5 6 
#
# 1 0.018544 0.009381 0.002892 0.019298 0.015076 0.012262
# 2 0.009381 0.023561 0.004429 0.026967 0.013172 0.017705
# 3 0.002892 0.004429 0.024531 0.018553 0.011619 0.013307
# 4 0.019298 0.026967 0.018553 0.072387 0.029537 0.029556
# 5 0.015076 0.013172 0.011619 0.029537 0.046744 0.025809
# 6 0.012262 0.017705 0.013307 0.029556 0.025809 0.057832
#
#
# Mechanical properties :
#
#
# Convention : Reuss Voigt Hill
#
# Bulk Modulus (GPa) = 9.99599 29.93689 19.96644
# Shear Modulus (GPa) = 20.53024 33.85540 27.19282
#
# Velocity S-wave (km/s) = 3.06490 3.93580 3.52733
# Velocity P-wave (km/s) = 4.13503 5.86103 5.07199
#
# Compressibility (1/GPa) = 0.10004007
#
# Stress axis : x y z
#
# Youngs Moduli (GPa) = 53.92538 42.44259 40.76412
#
# Poissons Ratio (x) = -0.39814 -0.11788
# Poissons Ratio (y) = -0.50586 -0.18055
# Poissons Ratio (z) = -0.15594 -0.18798
#
# Static dielectric constant tensor:
#      x y z
#    x 1.814400 0.016980 0.000660 
#    y 0.016980 1.776520 0.018360 
#    z 0.000660 0.018360 1.807140 
# 
# From -- ./inp_files/462551.got.cif
#   From: 2010.05.17/outbox.cif.g08.bks.cpg/sg2_232_cif.got.tgz:462551.got - 2010.06.03 11:33:40.
