data_PCOD9031294
_publ_section_title
;
Structure prediction by ZEFSAII (Michael W. Deem and Ramdas Pophale) SiO2 
 PCOD9031294
Probable space group: P -1
;
_chemical_formula_sum "Si O2"
_cell_formula_units_Z 16
_cell_length_a 22.227194
_cell_length_b 15.596507
_cell_length_c 8.095043
_cell_angle_alpha 52.524083
_cell_angle_beta 145.419416
_cell_angle_gamma 150.330062
_cell_volume 729.046260
_symmetry_space_group_name_H-M "P -1"
_symmetry_group_IT_number 2
_symmetry_cell_setting 'triclinic'
loop_
_space_group_symop_operation_xyz
x,y,z
-x,-y,-z
loop_
_atom_site_type_symbol
_atom_site_label
_atom_site_fract_x
_atom_site_fract_y
_atom_site_fract_z
Si Si1 0.099301 0.984327 0.835925
Si Si2 0.541229 0.909871 0.165886
Si Si3 0.243359 0.547476 0.126540
Si Si4 0.022009 0.766319 0.613937
Si Si5 0.834015 0.341663 0.936207
Si Si6 0.052982 0.841023 0.241797
Si Si7 0.493461 0.367677 0.169192
Si Si8 0.377554 0.680655 0.730590
O O1 0.065192 0.855317 0.784587
O O2 0.037070 0.911057 0.969902
O O3 0.000000 0.000000 0.500000
O O4 0.314943 0.191682 0.078490
O O5 0.426926 0.749974 0.230515
O O6 0.754494 0.058049 0.476897
O O7 0.454840 0.797490 0.931692
O O8 0.500000 0.000000 0.000000
O O9 0.136230 0.557419 0.957260
O O10 0.318999 0.520362 0.456065
O O11 0.112477 0.381003 0.896778
O O12 0.816135 0.543817 0.415539
O O13 0.042653 0.861758 0.388873
O O14 0.160647 0.780963 0.877674
O O15 0.659351 0.251977 0.560087
O O16 0.000000 0.500000 0.000000
O O17 0.484727 0.291585 0.069902
O O18 0.500000 0.500000 0.000000
#
# Coordination Sequence:
#
# PCOD9031294 Si02
#       8
#     2   2   2   2   2   2   2   2
#     4  12  26  46  72 104 137 181 244 293 352 429
#     4  12  26  40  66 106 140 190 232 282 351 421
#     4  11  23  44  66 100 143 181 227 293 346 414
#     4  11  23  42  70 101 139 188 229 291 356 414
#     4   9  20  37  68  97 132 187 227 276 354 411
#     4  12  25  44  71 101 145 182 238 288 354 422
#     4  11  23  46  73  98 135 183 235 297 357 416
#     4  10  22  43  66 100 144 179 237 289 349 420
#
# _framework density 21.946480999999999
#
# number of rings (size 3 to 8) (size 9 to 14) (size 15 to 20)
#    0.000    1.000    2.500    5.250    5.250    1.500 
#    0.000    5.000    0.000    0.000    0.000    0.000 
#    0.000    0.000    0.000    0.000    0.000    0.000 
#
# Total GULP energy -89412.649024 kJ/mol
# GULP energy per Si atom -5588.290564 kJ/mol
# Density = 2.189653 g / cm^3
# Si number density = 21.946481 Si / 1000 Ang^3
#
#
#
# Elastic Constant Matrix: (Units=GPa)
#
#
# Indices 1 2 3 4 5 6 
#
# 1 60.6646 18.1943 2.4048 -17.1281 -11.3650 8.5808
# 2 18.1943 90.9684 30.6983 -10.1074 -0.5440 8.4663
# 3 2.4048 30.6983 58.3105 -7.1333 -1.1693 -0.3113
# 4 -17.1281 -10.1074 -7.1333 39.2289 6.4899 2.7788
# 5 -11.3650 -0.5440 -1.1693 6.4899 37.6553 -0.9848
# 6 8.5808 8.4663 -0.3113 2.7788 -0.9848 45.0923
#
#
#
# Elastic Compliance Matrix: (Units=1/GPa)
#
#
# Indices 1 2 3 4 5 6 
#
# 1 0.021265 -0.003692 0.002145 0.008173 0.004925 -0.003735
# 2 -0.003692 0.014557 -0.007407 0.001177 -0.001394 -0.002185
# 3 0.002145 -0.007407 0.021312 0.002708 0.000761 0.000979
# 4 0.008173 0.001177 0.002708 0.030581 -0.002800 -0.003703
# 5 0.004925 -0.001394 0.000761 -0.002800 0.028532 0.000125
# 6 -0.003735 -0.002185 0.000979 -0.003703 0.000125 0.023535
#
#
# Mechanical properties :
#
#
# Convention : Reuss Voigt Hill
#
# Bulk Modulus (GPa) = 25.49268 34.72648 30.10958
# Shear Modulus (GPa) = 29.27995 34.97170 32.12582
#
# Velocity S-wave (km/s) = 3.65657 3.99620 3.83015
# Velocity P-wave (km/s) = 5.42848 6.09511 5.77143
#
# Compressibility (1/GPa) = 0.03922695
#
# Stress axis : x y z
#
# Youngs Moduli (GPa) = 47.02587 68.69764 46.92118
#
# Poissons Ratio (x) = 0.25363 -0.10066
# Poissons Ratio (y) = 0.17362 0.34754
# Poissons Ratio (z) = -0.10089 0.50883
#
# Static dielectric constant tensor:
#      x y z
#    x 1.834030 0.037200 -0.037600 
#    y 0.037200 1.829200 -0.033750 
#    z -0.037600 -0.033750 1.847820 
# 
# From -- ./inp_files/354533.got.cif
#   From: 2010.05.17/outbox.cif.g08.bks.cpg/sg2_178_cif.got.tgz:354533.got - 2010.06.03 11:33:40.
