data_PCOD9031471
_publ_section_title
;
Structure prediction by ZEFSAII (Michael W. Deem and Ramdas Pophale) SiO2 
 PCOD9031471
Probable space group: P -1
;
_chemical_formula_sum "Si O2"
_cell_formula_units_Z 15
_cell_length_a 5.244627
_cell_length_b 7.837887
_cell_length_c 13.765285
_cell_angle_alpha 99.666605
_cell_angle_beta 96.300795
_cell_angle_gamma 72.077214
_cell_volume 529.724786
_symmetry_space_group_name_H-M "P -1"
_symmetry_group_IT_number 2
_symmetry_cell_setting 'triclinic'
loop_
_space_group_symop_operation_xyz
x,y,z
-x,-y,-z
loop_
_atom_site_type_symbol
_atom_site_label
_atom_site_fract_x
_atom_site_fract_y
_atom_site_fract_z
Si Si1 0.000000 0.000000 0.000000
Si Si2 0.106533 0.241330 0.494359
Si Si3 0.506676 0.472036 0.164248
Si Si4 0.873235 0.449807 0.689765
Si Si5 0.046423 0.184895 0.205741
Si Si6 0.393381 0.274010 0.975361
Si Si7 0.642043 0.114131 0.395018
Si Si8 0.179923 0.110525 0.787374
O O1 0.123452 0.118761 0.093988
O O2 0.703418 0.163979 0.995441
O O3 0.960469 0.397673 0.578799
O O4 0.376270 0.235850 0.447794
O O5 0.868149 0.218019 0.413422
O O6 0.220307 0.060410 0.548403
O O7 0.732173 0.298388 0.194457
O O8 0.602875 0.595409 0.103478
O O9 0.390132 0.572726 0.269479
O O10 0.305275 0.404024 0.077987
O O11 0.848038 0.656027 0.733595
O O12 0.089313 0.298146 0.745695
O O13 0.046561 0.993583 0.235900
O O14 0.230049 0.142804 0.906778
O O15 0.592679 0.025728 0.282090
#
# Coordination Sequence:
#
# PCOD9031471 Si02
#       8
#     1   2   2   2   2   2   2   2
#     4  10  24  40  64  94 138 174 224 276 336 398
#     4   9  20  39  69  97 138 176 233 285 357 404
#     4  10  23  42  66  95 140 171 232 275 342 409
#     4  11  24  42  70  97 133 184 222 288 340 418
#     4  11  25  42  61 104 130 180 229 280 335 421
#     4  10  22  43  66  99 133 183 222 283 338 419
#     4   9  20  40  66 103 131 181 230 292 342 425
#     4  11  24  42  70  96 137 178 232 280 350 404
#
# _framework density 28.316586999999998
#
# number of rings (size 3 to 8) (size 9 to 14) (size 15 to 20)
#    0.000    1.867    1.333    0.800    5.600    5.867 
#    0.000    1.333    0.000    0.000    0.000    0.000 
#    0.000    0.000    0.000    0.000    0.000    0.000 
#
# Total GULP energy -83626.682549 kJ/mol
# GULP energy per Si atom -5575.112170 kJ/mol
# Density = 2.825214 g / cm^3
# Si number density = 28.316587 Si / 1000 Ang^3
#
#
#
# Elastic Constant Matrix: (Units=GPa)
#
#
# Indices 1 2 3 4 5 6 
#
# 1 61.3616 2.2274 6.2558 13.7826 -6.1150 -2.7448
# 2 2.2274 148.8464 17.9343 4.2849 5.0353 -2.3143
# 3 6.2558 17.9343 175.9964 17.3521 -9.7780 -26.3345
# 4 13.7826 4.2849 17.3521 47.7333 -3.6105 -12.7301
# 5 -6.1150 5.0353 -9.7780 -3.6105 40.8444 14.6440
# 6 -2.7448 -2.3143 -26.3345 -12.7301 14.6440 35.7882
#
#
#
# Elastic Compliance Matrix: (Units=1/GPa)
#
#
# Indices 1 2 3 4 5 6 
#
# 1 0.017715 -0.000212 -0.000205 -0.005300 0.002823 -0.001846
# 2 -0.000212 0.006857 -0.000681 -0.000317 -0.001173 0.000293
# 3 -0.000205 -0.000681 0.006517 -0.001087 -0.000049 0.004369
# 4 -0.005300 -0.000317 -0.001087 0.025010 -0.001821 0.008414
# 5 0.002823 -0.001173 -0.000049 -0.001821 0.029383 -0.012566
# 6 -0.001846 0.000293 0.004369 0.008414 -0.012566 0.039169
#
#
# Mechanical properties :
#
#
# Convention : Reuss Voigt Hill
#
# Bulk Modulus (GPa) = 34.61151 48.78215 41.69683
# Shear Modulus (GPa) = 36.63591 48.85896 42.74744
#
# Velocity S-wave (km/s) = 3.60084 4.15836 3.88960
# Velocity P-wave (km/s) = 5.43486 6.34987 5.91010
#
# Compressibility (1/GPa) = 0.02889213
#
# Stress axis : x y z
#
# Youngs Moduli (GPa) = 56.45043 145.83694 153.44871
#
# Poissons Ratio (x) = 0.03092 0.03144
# Poissons Ratio (y) = 0.01197 0.10454
# Poissons Ratio (z) = 0.01157 0.09935
#
# Static dielectric constant tensor:
#      x y z
#    x 1.165860 -0.675150 0.618630 
#    y -0.675150 1.769430 0.373800 
#    z 0.618630 0.373800 1.885040 
# 
# From -- ./inp_files/479994.got.cif
#   From: 2010.05.17/outbox.cif.g08.bks.cpg/sg2_240_cif.got.tgz:479994.got - 2010.06.03 11:33:40.
