data_PCOD9031731
_publ_section_title
;
Structure prediction by ZEFSAII (Michael W. Deem and Ramdas Pophale) SiO2 
 PCOD9031731
Probable space group: P -1
;
_chemical_formula_sum "Si O2"
_cell_formula_units_Z 14
_cell_length_a 8.888354
_cell_length_b 22.687450
_cell_length_c 5.001053
_cell_angle_alpha 114.733638
_cell_angle_beta 119.350172
_cell_angle_gamma 33.659948
_cell_volume 487.102377
_symmetry_space_group_name_H-M "P -1"
_symmetry_group_IT_number 2
_symmetry_cell_setting 'triclinic'
loop_
_space_group_symop_operation_xyz
x,y,z
-x,-y,-z
loop_
_atom_site_type_symbol
_atom_site_label
_atom_site_fract_x
_atom_site_fract_y
_atom_site_fract_z
Si Si1 0.665313 0.092591 0.040505
Si Si2 0.113896 0.867554 0.285935
Si Si3 0.496651 0.426465 0.951105
Si Si4 0.619604 0.016531 0.429785
Si Si5 0.875027 0.770653 0.942096
Si Si6 0.555828 0.665895 0.896125
Si Si7 0.118585 0.383499 0.429863
O O1 0.716158 0.136985 0.369162
O O2 0.327842 0.182721 0.895077
O O3 0.844472 0.983896 0.139186
O O4 0.258452 0.951048 0.278041
O O5 0.810803 0.612740 0.207428
O O6 0.904487 0.892160 0.351030
O O7 0.495676 0.395035 0.191949
O O8 0.186526 0.501820 0.715126
O O9 0.500000 0.500000 0.000000
O O10 0.796938 0.309058 0.884941
O O11 0.500000 0.000000 0.500000
O O12 0.342011 0.121858 0.221481
O O13 0.894265 0.690879 0.693778
O O14 0.299480 0.781683 0.046360
O O15 0.649635 0.660420 0.673097
#
# Coordination Sequence:
#
# PCOD9031731 Si02
#       7
#     2   2   2   2   2   2   2
#     4  10  22  43  68 101 151 189 256 294 373 437
#     4  10  24  41  71 106 143 199 249 307 369 447
#     4  10  25  51  75 108 154 196 247 315 391 448
#     4  11  26  42  71 110 155 201 249 308 378 464
#     4  10  24  46  68 107 149 196 244 311 379 438
#     4  12  26  47  81 111 148 195 259 313 377 452
#     4  11  26  49  77 111 146 195 261 317 370 452
#
# _framework density 28.741389999999999
#
# number of rings (size 3 to 8) (size 9 to 14) (size 15 to 20)
#    0.000    1.429    1.429    1.286    8.000    1.143 
#    2.571    6.429    0.000    0.000    0.000    0.000 
#    0.000    0.000    0.000    0.000    0.000    0.000 
#
# Total GULP energy -78007.810900 kJ/mol
# GULP energy per Si atom -5571.986493 kJ/mol
# Density = 2.867597 g / cm^3
# Si number density = 28.741390 Si / 1000 Ang^3
#
#
#
# Elastic Constant Matrix: (Units=GPa)
#
#
# Indices 1 2 3 4 5 6 
#
# 1 127.5912 57.8567 6.3299 3.6540 9.2001 -33.6886
# 2 57.8567 210.8903 25.9468 -16.1893 7.1339 -21.7158
# 3 6.3299 25.9468 98.6751 17.0162 1.6500 -8.1149
# 4 3.6540 -16.1893 17.0162 39.6456 -10.6922 13.2239
# 5 9.2001 7.1339 1.6500 -10.6922 34.1812 -2.7871
# 6 -33.6886 -21.7158 -8.1149 13.2239 -2.7871 61.7863
#
#
#
# Elastic Compliance Matrix: (Units=1/GPa)
#
#
# Indices 1 2 3 4 5 6 
#
# 1 0.011276 -0.002984 0.001732 -0.006219 -0.003913 0.006481
# 2 -0.002984 0.006051 -0.002179 0.004130 0.000886 -0.000631
# 3 0.001732 -0.002179 0.012358 -0.008290 -0.002920 0.003444
# 4 -0.006219 0.004130 -0.008290 0.037858 0.012192 -0.010580
# 5 -0.003913 0.000886 -0.002920 0.012192 0.033810 -0.003290
# 6 0.006481 -0.000631 0.003444 -0.010580 -0.003290 0.022066
#
#
# Mechanical properties :
#
#
# Convention : Reuss Voigt Hill
#
# Bulk Modulus (GPa) = 43.81488 68.60260 56.20874
# Shear Modulus (GPa) = 36.26122 50.25748 43.25935
#
# Velocity S-wave (km/s) = 3.55581 4.18617 3.88380
# Velocity P-wave (km/s) = 5.66886 6.87649 6.30167
#
# Compressibility (1/GPa) = 0.02282330
#
# Stress axis : x y z
#
# Youngs Moduli (GPa) = 88.68076 165.26928 80.92175
#
# Poissons Ratio (x) = 0.49322 -0.14017
# Poissons Ratio (y) = 0.26466 0.17629
# Poissons Ratio (z) = -0.15361 0.36005
#
# Static dielectric constant tensor:
#      x y z
#    x 3.551960 -0.004600 -0.697300 
#    y -0.004600 2.344440 0.213970 
#    z -0.697300 0.213970 2.876330 
# 
# From -- ./inp_files/283805.got.cif
#   From: 2010.05.17/outbox.cif.g08.bks.cpg/sg2_142_cif.got.tgz:283805.got - 2010.06.03 11:33:40.
