data_PCOD9031289
_publ_section_title
;
Structure prediction by ZEFSAII (Michael W. Deem and Ramdas Pophale) SiO2 
 PCOD9031289
Probable space group: P -1
;
_chemical_formula_sum "Si O2"
_cell_formula_units_Z 16
_cell_length_a 10.010117
_cell_length_b 14.204375
_cell_length_c 9.095746
_cell_angle_alpha 115.801176
_cell_angle_beta 142.279373
_cell_angle_gamma 67.243735
_cell_volume 710.249880
_symmetry_space_group_name_H-M "P -1"
_symmetry_group_IT_number 2
_symmetry_cell_setting 'triclinic'
loop_
_space_group_symop_operation_xyz
x,y,z
-x,-y,-z
loop_
_atom_site_type_symbol
_atom_site_label
_atom_site_fract_x
_atom_site_fract_y
_atom_site_fract_z
Si Si1 0.693432 0.722405 0.987660
Si Si2 0.003812 0.805285 0.098440
Si Si3 0.407856 0.537020 0.600442
Si Si4 0.314452 0.894901 0.675546
Si Si5 0.627642 0.592953 0.245524
Si Si6 0.300839 0.988960 0.031005
Si Si7 0.989968 0.326773 0.533274
Si Si8 0.726268 0.222352 0.976745
O O1 0.590710 0.614300 0.863620
O O2 0.494135 0.807403 0.838550
O O3 0.846124 0.746804 0.274089
O O4 0.849228 0.723056 0.981062
O O5 0.161214 0.842490 0.390407
O O6 0.140513 0.766698 0.050074
O O7 0.846968 0.907052 0.984074
O O8 0.500000 0.500000 0.500000
O O9 0.374699 0.438551 0.607916
O O10 0.178860 0.607706 0.461475
O O11 0.210247 0.949460 0.767830
O O12 0.456741 0.977430 0.771633
O O13 0.863052 0.598639 0.381623
O O14 0.500000 0.500000 0.000000
O O15 0.496402 0.704634 0.182777
O O16 0.304849 0.897669 0.091941
O O17 0.855189 0.266491 0.256741
#
# Coordination Sequence:
#
# PCOD9031289 Si02
#       8
#     2   2   2   2   2   2   2   2
#     4  11  24  44  68 103 137 183 232 284 339 412
#     4  11  25  41  70 103 141 180 231 287 346 406
#     4  12  28  44  72 102 139 180 232 287 344 407
#     4  10  22  43  71  98 138 179 234 284 342 411
#     4  12  26  47  69 103 138 184 231 281 343 412
#     4  10  22  43  66 100 136 183 231 280 346 413
#     4  12  25  47  72  97 143 183 231 278 349 408
#     4  12  27  43  70 102 142 182 230 286 347 408
#
# _framework density 22.527283000000001
#
# number of rings (size 3 to 8) (size 9 to 14) (size 15 to 20)
#    0.000    0.750    2.500    4.125    5.250    5.000 
#    0.000    0.000    0.000    0.000    0.000    0.000 
#    0.000    0.000    0.000    0.000    0.000    0.000 
#
# Total GULP energy -89536.459465 kJ/mol
# GULP energy per Si atom -5596.028717 kJ/mol
# Density = 2.247601 g / cm^3
# Si number density = 22.527283 Si / 1000 Ang^3
#
#
#
# Elastic Constant Matrix: (Units=GPa)
#
#
# Indices 1 2 3 4 5 6 
#
# 1 162.2803 37.3987 6.1717 1.6137 14.1043 2.6444
# 2 37.3987 75.5871 28.0849 -18.8423 9.2908 20.4659
# 3 6.1717 28.0849 26.8044 -5.4709 12.7932 3.3554
# 4 1.6137 -18.8423 -5.4709 28.5360 4.5471 0.4579
# 5 14.1043 9.2908 12.7932 4.5471 27.0862 6.4600
# 6 2.6444 20.4659 3.3554 0.4579 6.4600 46.9227
#
#
#
# Elastic Compliance Matrix: (Units=1/GPa)
#
#
# Indices 1 2 3 4 5 6 
#
# 1 0.008201 -0.008195 0.008226 -0.003466 -0.005556 0.003323
# 2 -0.008195 0.038500 -0.037519 0.017426 0.009463 -0.015120
# 3 0.008226 -0.037519 0.090129 -0.002285 -0.037078 0.014582
# 4 -0.003466 0.017426 -0.002285 0.047943 -0.009619 -0.006386
# 5 -0.005556 0.009463 -0.037078 -0.009619 0.057848 -0.009033
# 6 0.003323 -0.015120 0.014582 -0.006386 -0.009033 0.027982
#
#
# Mechanical properties :
#
#
# Convention : Reuss Voigt Hill
#
# Bulk Modulus (GPa) = 16.16685 45.33137 30.74911
# Shear Modulus (GPa) = 13.65388 33.37675 23.51532
#
# Velocity S-wave (km/s) = 2.46459 3.85335 3.23439
# Velocity P-wave (km/s) = 3.91038 6.32173 5.25621
#
# Compressibility (1/GPa) = 0.06185497
#
# Stress axis : x y z
#
# Youngs Moduli (GPa) = 121.93488 25.97423 11.09520
#
# Poissons Ratio (x) = 0.21286 -0.09127
# Poissons Ratio (y) = 0.99926 0.41628
# Poissons Ratio (z) = -1.00309 0.97452
#
# Static dielectric constant tensor:
#      x y z
#    x 1.828510 0.016560 -0.010230 
#    y 0.016560 1.833060 0.008330 
#    z -0.010230 0.008330 1.851860 
# 
# From -- ./inp_files/135556.got.cif
#   From: 2010.05.17/outbox.cif.g08.bks.cpg/sg2_68_cif.got.tgz:135556.got - 2010.06.03 11:33:40.
