data_PCOD9031225
_publ_section_title
;
Structure prediction by ZEFSAII (Michael W. Deem and Ramdas Pophale) SiO2 
 PCOD9031225
Probable space group: P -1
;
_chemical_formula_sum "Si O2"
_cell_formula_units_Z 16
_cell_length_a 22.666994
_cell_length_b 6.261584
_cell_length_c 7.708406
_cell_angle_alpha 95.278514
_cell_angle_beta 117.323245
_cell_angle_gamma 47.212987
_cell_volume 671.580786
_symmetry_space_group_name_H-M "P -1"
_symmetry_group_IT_number 2
_symmetry_cell_setting 'triclinic'
loop_
_space_group_symop_operation_xyz
x,y,z
-x,-y,-z
loop_
_atom_site_type_symbol
_atom_site_label
_atom_site_fract_x
_atom_site_fract_y
_atom_site_fract_z
Si Si1 0.586366 0.218496 0.903469
Si Si2 0.847487 0.264041 0.472760
Si Si3 0.785540 0.556726 0.042509
Si Si4 0.462225 0.882663 0.835828
Si Si5 0.969416 0.386384 0.213601
Si Si6 0.218507 0.797259 0.277373
Si Si7 0.076562 0.506790 0.214604
Si Si8 0.426356 0.281177 0.548711
O O1 0.554798 0.537745 0.866251
O O2 0.491020 0.313837 0.723808
O O3 0.594809 0.138905 0.112957
O O4 0.680534 0.907927 0.917001
O O5 0.798254 0.403427 0.231179
O O6 0.792185 0.253891 0.541225
O O7 0.866553 0.450219 0.598994
O O8 0.952349 0.910980 0.583450
O O9 0.865246 0.558731 0.147681
O O10 0.803605 0.345943 0.895594
O O11 0.400544 0.137108 0.624268
O O12 0.500000 0.000000 0.000000
O O13 0.003362 0.552177 0.246006
O O14 0.976532 0.287239 0.014797
O O15 0.327997 0.603054 0.371570
O O16 0.149959 0.161845 0.206953
O O17 0.500000 0.000000 0.500000
#
# Coordination Sequence:
#
# PCOD9031225 Si02
#       8
#     2   2   2   2   2   2   2   2
#     4  10  22  43  65  95 130 174 221 269 329 388
#     4  11  24  46  68  96 134 178 216 274 337 395
#     4  12  24  43  69 100 134 171 224 276 327 394
#     4   9  21  41  65  89 126 172 214 273 325 388
#     4  10  23  44  67  99 133 171 220 274 331 398
#     4  11  25  44  65 100 136 172 224 276 323 397
#     4  10  23  43  71  93 133 181 212 271 341 392
#     4  11  22  40  63  93 131 171 217 267 328 381
#
# _framework density 23.824390000000001
#
# number of rings (size 3 to 8) (size 9 to 14) (size 15 to 20)
#    0.000    1.500    2.500    1.500    3.500    6.000 
#    4.500    0.000    0.000    0.000    0.000    0.000 
#    0.000    0.000    0.000    0.000    0.000    0.000 
#
# Total GULP energy -89415.531728 kJ/mol
# GULP energy per Si atom -5588.470733 kJ/mol
# Density = 2.377016 g / cm^3
# Si number density = 23.824390 Si / 1000 Ang^3
#
#
#
# Elastic Constant Matrix: (Units=GPa)
#
#
# Indices 1 2 3 4 5 6 
#
# 1 41.9513 17.3160 9.6442 -9.1107 9.4351 -9.4518
# 2 17.3160 70.4344 12.1582 -5.1315 -0.5927 1.2992
# 3 9.6442 12.1582 59.0147 -10.3234 -1.3950 -4.2330
# 4 -9.1107 -5.1315 -10.3234 30.9225 -9.6112 -1.2095
# 5 9.4351 -0.5927 -1.3950 -9.6112 35.1826 -7.5319
# 6 -9.4518 1.2992 -4.2330 -1.2095 -7.5319 27.7261
#
#
#
# Elastic Compliance Matrix: (Units=1/GPa)
#
#
# Indices 1 2 3 4 5 6 
#
# 1 0.032038 -0.007285 -0.002020 0.006413 -0.004924 0.009897
# 2 -0.007285 0.016480 -0.002377 0.000131 0.001486 -0.003209
# 3 -0.002020 -0.002377 0.019321 0.006830 0.003934 0.003739
# 4 0.006413 0.000131 0.006830 0.040358 0.011302 0.008054
# 5 -0.004924 0.001486 0.003934 0.011302 0.034902 0.008827
# 6 0.009897 -0.003209 0.003739 0.008054 0.008827 0.042911
#
#
# Mechanical properties :
#
#
# Convention : Reuss Voigt Hill
#
# Bulk Modulus (GPa) = 22.48367 27.73746 25.11056
# Shear Modulus (GPa) = 22.30173 27.58505 24.94339
#
# Velocity S-wave (km/s) = 3.06288 3.40641 3.23920
# Velocity P-wave (km/s) = 4.68679 5.20953 4.95506
#
# Compressibility (1/GPa) = 0.04447672
#
# Stress axis : x y z
#
# Youngs Moduli (GPa) = 31.21266 60.67939 51.75842
#
# Poissons Ratio (x) = 0.44203 0.10453
# Poissons Ratio (y) = 0.22737 0.12302
# Poissons Ratio (z) = 0.06304 0.14423
#
# Static dielectric constant tensor:
#      x y z
#    x 1.966220 -0.015290 -0.021420 
#    y -0.015290 1.943610 -0.000840 
#    z -0.021420 -0.000840 1.960270 
# 
# From -- ./inp_files/351031.got.cif
#   From: 2010.05.17/outbox.cif.g08.bks.cpg/sg2_176_cif.got.tgz:351031.got - 2010.06.03 11:33:40.
