data_PCOD9031635
_publ_section_title
;
Structure prediction by ZEFSAII (Michael W. Deem and Ramdas Pophale) SiO2 
 PCOD9031635
Probable space group: P -1
;
_chemical_formula_sum "Si O2"
_cell_formula_units_Z 15
_cell_length_a 9.415021
_cell_length_b 8.621311
_cell_length_c 13.063542
_cell_angle_alpha 61.138603
_cell_angle_beta 79.006296
_cell_angle_gamma 49.220956
_cell_volume 690.694516
_symmetry_space_group_name_H-M "P -1"
_symmetry_group_IT_number 2
_symmetry_cell_setting 'triclinic'
loop_
_space_group_symop_operation_xyz
x,y,z
-x,-y,-z
loop_
_atom_site_type_symbol
_atom_site_label
_atom_site_fract_x
_atom_site_fract_y
_atom_site_fract_z
Si Si1 0.615813 0.548232 0.743430
Si Si2 0.479601 0.693279 0.320807
Si Si3 0.176483 0.784594 0.479700
Si Si4 0.000000 0.500000 0.000000
Si Si5 0.948302 0.381719 0.618974
Si Si6 0.114919 0.751704 0.007700
Si Si7 0.714150 0.094326 0.190761
Si Si8 0.445824 0.093536 0.091513
O O1 0.584559 0.393197 0.731952
O O2 0.753713 0.561710 0.652002
O O3 0.413971 0.792364 0.725515
O O4 0.728532 0.425163 0.872533
O O5 0.333168 0.791362 0.405698
O O6 0.690255 0.460508 0.399343
O O7 0.476079 0.895220 0.219097
O O8 0.085102 0.759038 0.404422
O O9 0.000000 0.000000 0.500000
O O10 0.976849 0.706012 0.003669
O O11 0.773034 0.674343 0.949650
O O12 0.000000 0.500000 0.500000
O O13 0.119062 0.183412 0.731836
O O14 0.206055 0.775508 0.888413
O O15 0.000000 0.000000 0.000000
O O16 0.580512 0.138642 0.102604
O O17 0.500000 0.000000 0.000000
#
# Coordination Sequence:
#
# PCOD9031635 Si02
#       8
#     2   2   2   1   2   2   2   2
#     4  11  23  43  67  98 135 185 224 290 355 416
#     4  10  23  42  67  97 137 175 231 290 350 418
#     4  10  22  43  67  97 128 179 231 291 349 409
#     4  12  28  44  70 108 142 192 240 280 364 430
#     4  11  25  43  66  98 135 183 233 286 352 416
#     4  12  24  48  72 104 148 182 238 294 354 430
#     4  12  25  43  72  99 137 188 223 288 361 412
#     4  12  27  43  66 105 140 181 231 291 349 431
#
# _framework density 21.717272000000001
#
# number of rings (size 3 to 8) (size 9 to 14) (size 15 to 20)
#    0.000    0.800    2.667    4.400    3.733    2.667 
#    0.000    0.000    0.000    0.000    0.000    0.000 
#    0.000    0.000    0.000    0.000    0.000    0.000 
#
# Total GULP energy -83634.300945 kJ/mol
# GULP energy per Si atom -5575.620063 kJ/mol
# Density = 2.166784 g / cm^3
# Si number density = 21.717272 Si / 1000 Ang^3
#
#
#
# Elastic Constant Matrix: (Units=GPa)
#
#
# Indices 1 2 3 4 5 6 
#
# 1 62.7945 11.9334 -0.1709 0.9659 22.4140 -5.7994
# 2 11.9334 106.1522 6.9157 25.9448 -6.1632 -24.5374
# 3 -0.1709 6.9157 58.2233 3.4187 -7.4001 -19.8965
# 4 0.9659 25.9448 3.4187 28.3150 -4.2234 3.3618
# 5 22.4140 -6.1632 -7.4001 -4.2234 44.5411 5.7280
# 6 -5.7994 -24.5374 -19.8965 3.3618 5.7280 39.2998
#
#
#
# Elastic Compliance Matrix: (Units=1/GPa)
#
#
# Indices 1 2 3 4 5 6 
#
# 1 0.020632 -0.001838 0.000198 -0.001155 -0.011193 0.003727
# 2 -0.001838 0.016737 0.003675 -0.017240 0.000488 0.013443
# 3 0.000198 0.003675 0.022144 -0.007466 0.001587 0.013942
# 4 -0.001155 -0.017240 -0.007466 0.055157 0.004774 -0.020129
# 5 -0.011193 0.000488 0.001587 0.004774 0.029544 -0.005258
# 6 0.003727 0.013443 0.013942 -0.020129 -0.005258 0.043935
#
#
# Mechanical properties :
#
#
# Convention : Reuss Voigt Hill
#
# Bulk Modulus (GPa) = 15.72778 29.39181 22.55979
# Shear Modulus (GPa) = 24.35771 36.33066 30.34418
#
# Velocity S-wave (km/s) = 3.35264 4.09454 3.74202
# Velocity P-wave (km/s) = 4.71643 5.99307 5.39266
#
# Compressibility (1/GPa) = 0.06358176
#
# Stress axis : x y z
#
# Youngs Moduli (GPa) = 48.46829 59.74753 45.15950
#
# Poissons Ratio (x) = 0.10983 -0.00894
# Poissons Ratio (y) = 0.08909 -0.16595
# Poissons Ratio (z) = -0.00959 -0.21956
#
# Static dielectric constant tensor:
#      x y z
#    x 1.808480 -0.021680 -0.008970 
#    y -0.021680 1.814680 0.005390 
#    z -0.008970 0.005390 1.791070 
# 
# From -- ./inp_files/178484.got.cif
#   From: 2010.05.17/outbox.cif.g08.bks.cpg/sg2_90_cif.got.tgz:178484.got - 2010.06.03 11:33:40.
