data_PCOD9031461
_publ_section_title
;
Structure prediction by ZEFSAII (Michael W. Deem and Ramdas Pophale) SiO2 
 PCOD9031461
Probable space group: P -1
;
_chemical_formula_sum "Si O2"
_cell_formula_units_Z 14
_cell_length_a 11.643244
_cell_length_b 8.856040
_cell_length_c 10.838795
_cell_angle_alpha 146.956516
_cell_angle_beta 77.315877
_cell_angle_gamma 94.716358
_cell_volume 583.542857
_symmetry_space_group_name_H-M "P -1"
_symmetry_group_IT_number 2
_symmetry_cell_setting 'triclinic'
loop_
_space_group_symop_operation_xyz
x,y,z
-x,-y,-z
loop_
_atom_site_type_symbol
_atom_site_label
_atom_site_fract_x
_atom_site_fract_y
_atom_site_fract_z
Si Si1 0.639620 0.511896 0.247131
Si Si2 0.809527 0.786640 0.520326
Si Si3 0.027268 0.291692 0.055835
Si Si4 0.204247 0.608752 0.120157
Si Si5 0.429776 0.406956 0.070376
Si Si6 0.904581 0.782315 0.740444
Si Si7 0.443595 0.823604 0.785274
O O1 0.681685 0.773613 0.480974
O O2 0.502927 0.519271 0.241899
O O3 0.667413 0.263219 0.172707
O O4 0.718240 0.453597 0.065604
O O5 0.798797 0.779643 0.666258
O O6 0.911583 0.526509 0.278898
O O7 0.849982 0.064064 0.651642
O O8 0.107867 0.412613 0.021659
O O9 0.107162 0.204480 0.100684
O O10 0.972359 0.027355 0.848858
O O11 0.293414 0.553984 0.178727
O O12 0.500000 0.500000 0.000000
O O13 0.428878 0.070919 0.855275
O O14 0.000000 0.500000 0.500000
O O15 0.500000 0.500000 0.500000
O O16 0.500000 0.000000 0.000000
#
# Coordination Sequence:
#
# PCOD9031461 Si02
#       7
#     2   2   2   2   2   2   2
#     4  10  24  42  67 100 138 182 232 290 357 426
#     4  11  23  39  67 100 136 180 228 293 353 433
#     4  10  22  43  66  98 133 178 236 289 354 418
#     4  11  24  42  66  97 141 183 232 287 362 426
#     4   9  22  45  67 100 140 184 235 292 358 427
#     4   9  21  41  66  91 130 176 231 292 347 424
#     4  10  23  46  74 104 140 191 244 300 360 436
#
# _framework density 23.991382999999999
#
# number of rings (size 3 to 8) (size 9 to 14) (size 15 to 20)
#    0.000    2.000    0.000    1.286    6.000    9.714 
#   10.286    0.000    0.000    0.000    0.000    0.000 
#    0.000    0.000    0.000    0.000    0.000    0.000 
#
# Total GULP energy -78068.056137 kJ/mol
# GULP energy per Si atom -5576.289724 kJ/mol
# Density = 2.393678 g / cm^3
# Si number density = 23.991383 Si / 1000 Ang^3
#
#
#
# Elastic Constant Matrix: (Units=GPa)
#
#
# Indices 1 2 3 4 5 6 
#
# 1 78.6318 46.3921 34.6851 -7.7288 13.4304 -13.7912
# 2 46.3921 129.0143 47.9337 30.8400 16.6175 5.7941
# 3 34.6851 47.9337 121.4691 18.5688 8.3516 -15.7117
# 4 -7.7288 30.8400 18.5688 38.5685 -2.5771 5.5044
# 5 13.4304 16.6175 8.3516 -2.5771 33.3412 1.8148
# 6 -13.7912 5.7941 -15.7117 5.5044 1.8148 48.1025
#
#
#
# Elastic Compliance Matrix: (Units=1/GPa)
#
#
# Indices 1 2 3 4 5 6 
#
# 1 0.022939 -0.009943 -0.003862 0.013514 -0.002548 0.005063
# 2 -0.009943 0.015898 -0.001475 -0.013791 -0.004424 -0.003503
# 3 -0.003862 -0.001475 0.011300 -0.005604 -0.001160 0.003446
# 4 0.013514 -0.013791 -0.005604 0.042985 0.006235 -0.001449
# 5 -0.002548 -0.004424 -0.001160 0.006235 0.034137 -0.002578
# 6 0.005063 -0.003503 0.003446 -0.001449 -0.002578 0.024051
#
#
# Mechanical properties :
#
#
# Convention : Reuss Voigt Hill
#
# Bulk Modulus (GPa) = 51.08400 65.23746 58.16073
# Shear Modulus (GPa) = 26.53968 37.34272 31.94120
#
# Velocity S-wave (km/s) = 3.32959 3.94954 3.65274
# Velocity P-wave (km/s) = 6.01003 6.93178 6.48729
#
# Compressibility (1/GPa) = 0.01957560
#
# Stress axis : x y z
#
# Youngs Moduli (GPa) = 43.59358 62.89917 88.49765
#
# Poissons Ratio (x) = 0.62543 0.34180
# Poissons Ratio (y) = 0.43347 0.13055
# Poissons Ratio (z) = 0.16837 0.09279
#
# Static dielectric constant tensor:
#      x y z
#    x 1.972920 -0.067840 0.002170 
#    y -0.067840 1.984310 -0.029970 
#    z 0.002170 -0.029970 1.942410 
# 
# From -- ./inp_files/61016.got.cif
#   From: 2010.05.17/outbox.cif.g08.bks.cpg/sg2_31_cif.got.tgz:61016.got - 2010.06.03 11:33:40.
