data_PCOD9031711
_publ_section_title
;
Structure prediction by ZEFSAII (Michael W. Deem and Ramdas Pophale) SiO2 
 PCOD9031711
Probable space group: P -1
;
_chemical_formula_sum "Si O2"
_cell_formula_units_Z 14
_cell_length_a 9.182605
_cell_length_b 7.282254
_cell_length_c 10.256346
_cell_angle_alpha 76.329070
_cell_angle_beta 99.436584
_cell_angle_gamma 71.805406
_cell_volume 611.732746
_symmetry_space_group_name_H-M "P -1"
_symmetry_group_IT_number 2
_symmetry_cell_setting 'triclinic'
loop_
_space_group_symop_operation_xyz
x,y,z
-x,-y,-z
loop_
_atom_site_type_symbol
_atom_site_label
_atom_site_fract_x
_atom_site_fract_y
_atom_site_fract_z
Si Si1 0.337712 0.090223 0.540529
Si Si2 0.857694 0.038417 0.671600
Si Si3 0.814744 0.496529 0.856632
Si Si4 0.524657 0.236484 0.171064
Si Si5 0.859112 0.476226 0.567525
Si Si6 0.743121 0.886768 0.927926
Si Si7 0.822654 0.152819 0.096568
O O1 0.293369 0.326052 0.524438
O O2 0.500000 0.000000 0.500000
O O3 0.198221 0.072247 0.432894
O O4 0.365753 0.943768 0.691228
O O5 0.837761 0.262481 0.584053
O O6 0.751778 0.031947 0.784398
O O7 0.037335 0.924144 0.765843
O O8 0.619567 0.594434 0.801794
O O9 0.884870 0.486079 0.725566
O O10 0.863949 0.280624 0.967766
O O11 0.154855 0.337710 0.074064
O O12 0.426870 0.135272 0.084541
O O13 0.653383 0.299879 0.104170
O O14 0.000000 0.500000 0.500000
O O15 0.795447 0.965546 0.052664
#
# Coordination Sequence:
#
# PCOD9031711 Si02
#       7
#     2   2   2   2   2   2   2
#     4  12  23  52  73  98 147 190 239 296 355 422
#     4  12  26  45  74 102 141 197 232 298 361 415
#     4  10  23  44  72 100 143 187 233 288 361 416
#     4  10  23  46  71 103 141 189 235 292 349 425
#     4  12  26  45  71 107 143 185 244 293 355 425
#     4  10  22  43  68 100 140 184 227 289 352 418
#     4  12  24  43  72 107 144 181 240 289 354 430
#
# _framework density 22.885812000000001
#
# number of rings (size 3 to 8) (size 9 to 14) (size 15 to 20)
#    0.857    0.000    5.714    2.143    0.000    4.571 
#    2.571    0.000    0.000    0.000    0.000    0.000 
#    0.000    0.000    0.000    0.000    0.000    0.000 
#
# Total GULP energy -78225.626884 kJ/mol
# GULP energy per Si atom -5587.544777 kJ/mol
# Density = 2.283372 g / cm^3
# Si number density = 22.885812 Si / 1000 Ang^3
#
#
#
# Elastic Constant Matrix: (Units=GPa)
#
#
# Indices 1 2 3 4 5 6 
#
# 1 84.1100 20.8153 18.0668 4.1436 11.8223 -14.1446
# 2 20.8153 67.8607 23.7067 -5.8726 0.1217 3.0457
# 3 18.0668 23.7067 77.3667 -8.7653 18.2566 0.5313
# 4 4.1436 -5.8726 -8.7653 41.1646 5.7579 0.7533
# 5 11.8223 0.1217 18.2566 5.7579 36.1148 8.5346
# 6 -14.1446 3.0457 0.5313 0.7533 8.5346 40.9843
#
#
#
# Elastic Compliance Matrix: (Units=1/GPa)
#
#
# Indices 1 2 3 4 5 6 
#
# 1 0.015372 -0.004829 -0.000966 -0.001745 -0.005888 0.006935
# 2 -0.004829 0.018439 -0.005543 0.001301 0.005069 -0.004045
# 3 -0.000966 -0.005543 0.017621 0.004382 -0.009694 0.001788
# 4 -0.001745 0.001301 0.004382 0.026406 -0.005853 -0.000022
# 5 -0.005888 0.005069 -0.009694 -0.005853 0.037808 -0.010049
# 6 0.006935 -0.004045 0.001788 -0.000022 -0.010049 0.029163
#
#
# Mechanical properties :
#
#
# Convention : Reuss Voigt Hill
#
# Bulk Modulus (GPa) = 34.77650 39.39056 37.08353
# Shear Modulus (GPa) = 28.23717 34.76931 31.50324
#
# Velocity S-wave (km/s) = 3.51640 3.90199 3.71420
# Velocity P-wave (km/s) = 5.63164 6.12779 5.88495
#
# Compressibility (1/GPa) = 0.02875505
#
# Stress axis : x y z
#
# Youngs Moduli (GPa) = 65.05529 54.23290 56.74933
#
# Poissons Ratio (x) = 0.26191 0.05480
# Poissons Ratio (y) = 0.31417 0.31458
# Poissons Ratio (z) = 0.06282 0.30063
#
# Static dielectric constant tensor:
#      x y z
#    x 1.928350 -0.037750 -0.043890 
#    y -0.037750 1.868160 -0.007030 
#    z -0.043890 -0.007030 1.882740 
# 
# From -- ./inp_files/378003.got.cif
#   From: 2010.05.17/outbox.cif.g08.bks.cpg/sg2_190_cif.got.tgz:378003.got - 2010.06.03 11:33:40.
