data_PCOD9031826
_publ_section_title
;
Structure prediction by ZEFSAII (Michael W. Deem and Ramdas Pophale) SiO2 
 PCOD9031826
Probable space group: P -1
;
_chemical_formula_sum "Si O2"
_cell_formula_units_Z 16
_cell_length_a 7.726894
_cell_length_b 12.316703
_cell_length_c 17.933387
_cell_angle_alpha 156.634976
_cell_angle_beta 65.786287
_cell_angle_gamma 113.790721
_cell_volume 615.605888
_symmetry_space_group_name_H-M "P -1"
_symmetry_group_IT_number 2
_symmetry_cell_setting 'triclinic'
loop_
_space_group_symop_operation_xyz
x,y,z
-x,-y,-z
loop_
_atom_site_type_symbol
_atom_site_label
_atom_site_fract_x
_atom_site_fract_y
_atom_site_fract_z
Si Si1 0.246419 0.411273 0.911360
Si Si2 0.576960 0.751736 0.880834
Si Si3 0.383086 0.798816 0.336603
Si Si4 0.034672 0.550990 0.318035
Si Si5 0.910170 0.037742 0.752715
Si Si6 0.673887 0.596952 0.617348
Si Si7 0.275329 0.779264 0.753977
Si Si8 0.216915 0.323303 0.690863
O O1 0.465177 0.338794 0.828311
O O2 0.172534 0.314246 0.780202
O O3 0.097508 0.219121 0.865288
O O4 0.215658 0.733687 0.118829
O O5 0.709945 0.613088 0.709131
O O6 0.401173 0.535487 0.789510
O O7 0.500000 0.000000 0.000000
O O8 0.655681 0.915889 0.042713
O O9 0.253506 0.598666 0.286171
O O10 0.500000 0.000000 0.500000
O O11 0.255346 0.021781 0.462897
O O12 0.923040 0.297147 0.218509
O O13 0.937063 0.559287 0.259821
O O14 0.977375 0.807219 0.539571
O O15 0.782849 0.860920 0.724471
O O16 0.445520 0.601891 0.645589
O O17 0.737565 0.324264 0.393877
#
# Coordination Sequence:
#
# PCOD9031826 Si02
#       8
#     2   2   2   2   2   2   2   2
#     4  10  21  38  56  87 113 159 192 236 302 350
#     4  10  17  32  53  87 118 145 198 245 293 339
#     4  10  21  37  57  83 121 156 189 240 303 349
#     4  11  19  35  59  89 114 146 201 240 288 354
#     4  10  20  33  60  83 114 148 199 236 285 360
#     4   9  17  31  51  88 118 145 189 253 290 343
#     4   9  18  30  53  89 114 149 190 244 294 342
#     4  11  20  34  60  86 114 152 196 243 283 358
#
# _framework density 25.990651
#
# number of rings (size 3 to 8) (size 9 to 14) (size 15 to 20)
#    0.000    2.000    5.000    1.875    0.000    0.000 
#    0.000    0.625    0.000    7.500    0.000    0.000 
#    0.000    0.125    0.000    0.000    0.000    0.000 
#
# Total GULP energy -89456.323858 kJ/mol
# GULP energy per Si atom -5591.020241 kJ/mol
# Density = 2.593150 g / cm^3
# Si number density = 25.990651 Si / 1000 Ang^3
#
#
#
# Elastic Constant Matrix: (Units=GPa)
#
#
# Indices 1 2 3 4 5 6 
#
# 1 54.0975 33.9507 13.2599 -9.6966 -2.3654 28.7967
# 2 33.9507 126.6476 51.5251 16.7095 18.9348 43.1178
# 3 13.2599 51.5251 163.4692 4.9272 2.7216 6.2189
# 4 -9.6966 16.7095 4.9272 37.8490 -0.2351 5.4317
# 5 -2.3654 18.9348 2.7216 -0.2351 31.2539 -3.5308
# 6 28.7967 43.1178 6.2189 5.4317 -3.5308 41.7576
#
#
#
# Elastic Compliance Matrix: (Units=1/GPa)
#
#
# Indices 1 2 3 4 5 6 
#
# 1 0.035554 -0.003737 -0.001337 0.014116 0.002684 -0.022069
# 2 -0.003737 0.019709 -0.004819 -0.006625 -0.013815 -0.017362
# 3 -0.001337 -0.004819 0.007506 0.000108 0.002730 0.004996
# 4 0.014116 -0.006625 0.000108 0.033973 0.004544 -0.006945
# 5 0.002684 -0.013815 0.002730 0.004544 0.042057 0.014972
# 6 -0.022069 -0.017362 0.004996 -0.006945 0.014972 0.058520
#
#
# Mechanical properties :
#
#
# Convention : Reuss Voigt Hill
#
# Bulk Modulus (GPa) = 23.26500 60.18728 41.72614
# Shear Modulus (GPa) = 21.60469 38.53734 30.07102
#
# Velocity S-wave (km/s) = 2.88627 3.85481 3.40515
# Velocity P-wave (km/s) = 4.48086 6.55899 5.61687
#
# Compressibility (1/GPa) = 0.04298302
#
# Stress axis : x y z
#
# Youngs Moduli (GPa) = 28.12652 50.73850 133.22895
#
# Poissons Ratio (x) = 0.18963 0.17807
# Poissons Ratio (y) = 0.10512 0.64201
# Poissons Ratio (z) = 0.03759 0.24450
#
# Static dielectric constant tensor:
#      x y z
#    x 2.257550 -0.016170 -0.110020 
#    y -0.016170 2.059720 -0.023360 
#    z -0.110020 -0.023360 2.095090 
# 
# From -- ./inp_files/557359.got.cif
#   From: 2010.05.17/outbox.cif.g08.bks.cpg/sg2_279_cif.got.tgz:557359.got - 2010.06.03 11:33:40.
