data_PCOD9031790
_publ_section_title
;
Structure prediction by ZEFSAII (Michael W. Deem and Ramdas Pophale) SiO2 
 PCOD9031790
Probable space group: P -1
;
_chemical_formula_sum "Si O2"
_cell_formula_units_Z 16
_cell_length_a 11.162679
_cell_length_b 12.706871
_cell_length_c 12.956222
_cell_angle_alpha 120.559188
_cell_angle_beta 80.775692
_cell_angle_gamma 146.342079
_cell_volume 732.004025
_symmetry_space_group_name_H-M "P -1"
_symmetry_group_IT_number 2
_symmetry_cell_setting 'triclinic'
loop_
_space_group_symop_operation_xyz
x,y,z
-x,-y,-z
loop_
_atom_site_type_symbol
_atom_site_label
_atom_site_fract_x
_atom_site_fract_y
_atom_site_fract_z
Si Si1 0.391578 0.876848 0.212306
Si Si2 0.093123 0.229418 0.785388
Si Si3 0.573204 0.591421 0.796724
Si Si4 0.467774 0.346534 0.494889
Si Si5 0.107273 0.093931 0.897342
Si Si6 0.232231 0.618242 0.487969
Si Si7 0.855231 0.155169 0.171905
Si Si8 0.069481 0.715741 0.004529
O O1 0.297147 0.873374 0.126574
O O2 0.515972 0.072072 0.381337
O O3 0.616557 0.992751 0.191270
O O4 0.139260 0.577400 0.131223
O O5 0.326378 0.455772 0.787050
O O6 0.168791 0.174743 0.811438
O O7 0.078674 0.316553 0.920689
O O8 0.814742 0.960992 0.640249
O O9 0.487672 0.406809 0.641384
O O10 0.710342 0.680010 0.930713
O O11 0.808379 0.865857 0.840970
O O12 0.500000 0.500000 0.500000
O O13 0.682350 0.431304 0.488634
O O14 0.116515 0.960284 0.857761
O O15 0.000000 0.500000 0.500000
O O16 0.113556 0.459237 0.320197
O O17 0.823855 0.144466 0.049352
#
# Coordination Sequence:
#
# PCOD9031790 Si02
#       8
#     2   2   2   2   2   2   2   2
#     4  10  23  43  64  92 126 166 220 266 319 386
#     4  12  24  41  66  96 133 171 217 272 331 392
#     4  11  23  39  63  95 132 174 211 266 333 391
#     4  12  23  44  67  99 135 175 223 275 330 397
#     4  11  23  41  65 100 133 165 216 273 327 397
#     4  10  22  43  68  92 132 176 219 269 329 391
#     4  11  22  41  68  92 127 170 215 263 330 387
#     4  11  23  40  66  95 125 166 215 272 319 387
#
# _framework density 21.857803000000001
#
# number of rings (size 3 to 8) (size 9 to 14) (size 15 to 20)
#    0.000    1.000    3.750    3.375    0.000    1.500 
#    0.000    2.500    0.000    0.000    0.000    0.000 
#    0.000    0.000    0.000    0.000    0.000    0.000 
#
# Total GULP energy -89279.368086 kJ/mol
# GULP energy per Si atom -5579.960505 kJ/mol
# Density = 2.180805 g / cm^3
# Si number density = 21.857803 Si / 1000 Ang^3
#
#
#
# Elastic Constant Matrix: (Units=GPa)
#
#
# Indices 1 2 3 4 5 6 
#
# 1 96.1180 19.6992 18.0563 -8.2255 -1.7334 8.9622
# 2 19.6992 46.4959 2.4413 3.4280 8.5052 12.6021
# 3 18.0563 2.4413 130.9592 4.0325 11.5211 -5.1543
# 4 -8.2255 3.4280 4.0325 27.8673 8.1094 2.1010
# 5 -1.7334 8.5052 11.5211 8.1094 25.9438 1.4017
# 6 8.9622 12.6021 -5.1543 2.1010 1.4017 22.9827
#
#
#
# Elastic Compliance Matrix: (Units=1/GPa)
#
#
# Indices 1 2 3 4 5 6 
#
# 1 0.012526 -0.005089 -0.002084 0.004192 0.002287 -0.003084
# 2 -0.005089 0.028916 0.000473 -0.001571 -0.008832 -0.013083
# 3 -0.002084 0.000473 0.008393 -0.000970 -0.003867 0.002760
# 4 0.004192 -0.001571 -0.000970 0.041076 -0.011395 -0.004051
# 5 0.002287 -0.008832 -0.003867 -0.011395 0.046803 0.001271
# 6 -0.003084 -0.013083 0.002760 -0.004051 0.001271 0.052799
#
#
# Mechanical properties :
#
#
# Convention : Reuss Voigt Hill
#
# Bulk Modulus (GPa) = 27.44591 39.32964 33.38778
# Shear Modulus (GPa) = 23.14194 30.91720 27.02957
#
# Velocity S-wave (km/s) = 3.25737 3.76502 3.52036
# Velocity P-wave (km/s) = 5.17022 6.07725 5.64199
#
# Compressibility (1/GPa) = 0.03643530
#
# Stress axis : x y z
#
# Youngs Moduli (GPa) = 79.83503 34.58329 119.14398
#
# Poissons Ratio (x) = 0.17599 0.24827
# Poissons Ratio (y) = 0.40628 -0.05636
# Poissons Ratio (z) = 0.16636 -0.01636
#
# Static dielectric constant tensor:
#      x y z
#    x 1.880170 0.021130 -0.029090 
#    y 0.021130 1.776150 0.016610 
#    z -0.029090 0.016610 1.814050 
# 
# From -- ./inp_files/521666.got.cif
#   From: 2010.05.17/outbox.cif.g08.bks.cpg/sg2_261_cif.got.tgz:521666.got - 2010.06.03 11:33:40.
