data_PCOD9031939
_publ_section_title
;
Structure prediction by ZEFSAII (Michael W. Deem and Ramdas Pophale) SiO2 
 PCOD9031939
Probable space group: P -1
;
_chemical_formula_sum "Si O2"
_cell_formula_units_Z 14
_cell_length_a 23.165729
_cell_length_b 7.215625
_cell_length_c 13.164925
_cell_angle_alpha 40.176557
_cell_angle_beta 24.341100
_cell_angle_gamma 40.596033
_cell_volume 568.399250
_symmetry_space_group_name_H-M "P -1"
_symmetry_group_IT_number 2
_symmetry_cell_setting 'triclinic'
loop_
_space_group_symop_operation_xyz
x,y,z
-x,-y,-z
loop_
_atom_site_type_symbol
_atom_site_label
_atom_site_fract_x
_atom_site_fract_y
_atom_site_fract_z
Si Si1 0.214350 0.565083 0.882675
Si Si2 0.465474 0.057595 0.652121
Si Si3 0.134288 0.335256 0.918201
Si Si4 0.056523 0.744710 0.246479
Si Si5 0.300373 0.102798 0.473754
Si Si6 0.257913 0.858082 0.443741
Si Si7 0.660201 0.296489 0.845653
O O1 0.377589 0.395984 0.666446
O O2 0.116200 0.426063 0.025524
O O3 0.185549 0.914027 0.762542
O O4 0.171936 0.540724 0.074171
O O5 0.593321 0.981049 0.563399
O O6 0.500000 0.000000 0.500000
O O7 0.353317 0.879524 0.956118
O O8 0.254609 0.512335 0.613905
O O9 0.000000 0.500000 0.000000
O O10 0.141218 0.988597 0.047167
O O11 0.000000 0.500000 0.500000
O O12 0.905509 0.948453 0.361492
O O13 0.350421 0.972962 0.334981
O O14 0.248829 0.454171 0.398314
O O15 0.300743 0.879076 0.248825
O O16 0.500000 0.500000 0.000000
#
# Coordination Sequence:
#
# PCOD9031939 Si02
#       7
#     2   2   2   2   2   2   2
#     4  11  24  43  67  97 128 176 218 268 334 386
#     4  11  26  45  65  98 138 178 216 274 336 388
#     4   9  22  41  67  91 132 169 216 270 320 391
#     4  11  24  41  66 100 135 169 215 271 333 393
#     4  10  24  44  72  95 132 175 228 270 324 397
#     4  10  22  43  69 100 128 172 225 272 327 389
#     4  10  23  42  67  95 133 172 223 269 326 388
#
# _framework density 24.630575
#
# number of rings (size 3 to 8) (size 9 to 14) (size 15 to 20)
#    0.000    1.714    0.000    2.143   10.000   11.429 
#    2.571    0.000    0.000    0.000    0.000    0.000 
#    0.000    0.000    0.000    0.000    0.000    0.000 
#
# Total GULP energy -77995.807210 kJ/mol
# GULP energy per Si atom -5571.129086 kJ/mol
# Density = 2.457451 g / cm^3
# Si number density = 24.630575 Si / 1000 Ang^3
#
#
#
# Elastic Constant Matrix: (Units=GPa)
#
#
# Indices 1 2 3 4 5 6 
#
# 1 136.6752 73.2064 46.0954 -9.9317 9.6457 30.2785
# 2 73.2064 110.6704 56.2572 -8.1803 18.1729 28.4913
# 3 46.0954 56.2572 97.2436 -5.8685 40.5991 18.9008
# 4 -9.9317 -8.1803 -5.8685 44.1421 -10.9123 6.8412
# 5 9.6457 18.1729 40.5991 -10.9123 33.8038 8.2484
# 6 30.2785 28.4913 18.9008 6.8412 8.2484 47.9990
#
#
#
# Elastic Compliance Matrix: (Units=1/GPa)
#
#
# Indices 1 2 3 4 5 6 
#
# 1 0.012776 -0.005859 -0.004642 0.003703 0.007385 -0.004551
# 2 -0.005859 0.017750 -0.007942 0.002542 0.003636 -0.004699
# 3 -0.004642 -0.007942 0.030171 -0.007207 -0.033593 0.002562
# 4 0.003703 0.002542 -0.007207 0.028557 0.017420 -0.008071
# 5 0.007385 0.003636 -0.033593 0.017420 0.073618 -0.008722
# 6 -0.004551 -0.004699 0.002562 -0.008071 -0.008722 0.028134
#
#
# Mechanical properties :
#
#
# Convention : Reuss Voigt Hill
#
# Bulk Modulus (GPa) = 41.99905 77.30080 59.64992
# Shear Modulus (GPa) = 21.20174 36.45767 28.82970
#
# Velocity S-wave (km/s) = 2.93710 3.85148 3.42495
# Velocity P-wave (km/s) = 5.34703 7.15757 6.31750
#
# Compressibility (1/GPa) = 0.02381006
#
# Stress axis : x y z
#
# Youngs Moduli (GPa) = 78.26886 56.33927 33.14478
#
# Poissons Ratio (x) = 0.33011 0.15385
# Poissons Ratio (y) = 0.45860 0.26324
# Poissons Ratio (z) = 0.36331 0.44746
#
# Static dielectric constant tensor:
#      x y z
#    x 2.051060 0.049160 -0.052600 
#    y 0.049160 2.008350 -0.067070 
#    z -0.052600 -0.067070 2.121210 
# 
# From -- ./inp_files/473336.got.cif
#   From: 2010.05.17/outbox.cif.g08.bks.cpg/sg2_237_cif.got.tgz:473336.got - 2010.06.03 11:33:40.
