data_PCOD9031172
_publ_section_title
;
Structure prediction by ZEFSAII (Michael W. Deem and Ramdas Pophale) SiO2 
 PCOD9031172
Probable space group: P -1
;
_chemical_formula_sum "Si O2"
_cell_formula_units_Z 14
_cell_length_a 18.182642
_cell_length_b 17.711255
_cell_length_c 8.408631
_cell_angle_alpha 58.220461
_cell_angle_beta 140.937577
_cell_angle_gamma 151.016864
_cell_volume 716.244446
_symmetry_space_group_name_H-M "P -1"
_symmetry_group_IT_number 2
_symmetry_cell_setting 'triclinic'
loop_
_space_group_symop_operation_xyz
x,y,z
-x,-y,-z
loop_
_atom_site_type_symbol
_atom_site_label
_atom_site_fract_x
_atom_site_fract_y
_atom_site_fract_z
Si Si1 0.376366 0.542710 0.572605
Si Si2 0.108795 0.344412 0.669331
Si Si3 0.397456 0.952754 0.550301
Si Si4 0.859906 0.664192 0.929493
Si Si5 0.268521 0.668753 0.196567
Si Si6 0.817832 0.323695 0.284421
Si Si7 0.885151 0.828469 0.004142
O O1 0.250002 0.430752 0.647481
O O2 0.243367 0.429459 0.309902
O O3 0.379923 0.651864 0.464966
O O4 0.635178 0.673922 0.842486
O O5 0.944752 0.322762 0.414107
O O6 0.249048 0.445825 0.963212
O O7 0.983197 0.165646 0.689546
O O8 0.377899 0.852718 0.739064
O O9 0.500000 0.000000 0.500000
O O10 0.567639 0.139910 0.698562
O O11 0.129580 0.809041 0.233938
O O12 0.850336 0.762997 0.842635
O O13 0.262320 0.663678 0.001481
O O14 0.000000 0.500000 0.000000
O O15 0.000000 0.500000 0.500000
O O16 0.000000 0.000000 0.000000
#
# Coordination Sequence:
#
# PCOD9031172 Si02
#       7
#     2   2   2   2   2   2   2
#     4  12  21  40  70  90 123 174 219 255 331 388
#     4   9  22  39  68  87 130 163 214 259 322 376
#     4  11  23  40  61  91 132 167 212 267 321 387
#     4   9  22  41  62  92 125 160 217 266 319 372
#     4  12  23  38  64  95 127 172 211 260 329 388
#     4  11  22  42  63  95 134 166 213 268 325 392
#     4  10  22  43  65  91 131 165 212 274 323 375
#
# _framework density 19.546399000000001
#
# number of rings (size 3 to 8) (size 9 to 14) (size 15 to 20)
#    0.857    0.571    1.429    5.571    0.000    0.000 
#    0.000    0.714    0.000    0.000    0.000    0.000 
#    0.000    0.000    0.000    0.000    0.000    0.000 
#
# Total GULP energy -77988.407523 kJ/mol
# GULP energy per Si atom -5570.600537 kJ/mol
# Density = 1.950191 g / cm^3
# Si number density = 19.546399 Si / 1000 Ang^3
#
#
#
# Elastic Constant Matrix: (Units=GPa)
#
#
# Indices 1 2 3 4 5 6 
#
# 1 96.7384 32.2992 9.0145 -6.4493 -14.7667 27.0144
# 2 32.2992 117.2593 13.1587 -16.8420 -17.9059 4.5877
# 3 9.0145 13.1587 35.3595 -9.2319 -7.7373 7.5737
# 4 -6.4493 -16.8420 -9.2319 23.5782 -5.0086 0.4481
# 5 -14.7667 -17.9059 -7.7373 -5.0086 43.0750 -5.3162
# 6 27.0144 4.5877 7.5737 0.4481 -5.3162 39.2027
#
#
#
# Elastic Compliance Matrix: (Units=1/GPa)
#
#
# Indices 1 2 3 4 5 6 
#
# 1 0.014525 -0.002787 0.000889 0.003186 0.003184 -0.009459
# 2 -0.002787 0.011166 -0.000629 0.007932 0.004653 0.001275
# 3 0.000889 -0.000629 0.035292 0.015298 0.007355 -0.006534
# 4 0.003186 0.007932 0.015298 0.057849 0.013254 -0.004943
# 5 0.003184 0.004653 0.007355 0.013254 0.029057 -0.000370
# 6 -0.009459 0.001275 -0.006534 -0.004943 -0.000370 0.033146
#
#
# Mechanical properties :
#
#
# Convention : Reuss Voigt Hill
#
# Bulk Modulus (GPa) = 17.88002 39.81134 28.84568
# Shear Modulus (GPa) = 24.42222 34.16350 29.29286
#
# Velocity S-wave (km/s) = 3.53859 4.18522 3.87542
# Velocity P-wave (km/s) = 5.08555 6.61563 5.90040
#
# Compressibility (1/GPa) = 0.05592833
#
# Stress axis : x y z
#
# Youngs Moduli (GPa) = 68.84857 89.55632 28.33529
#
# Poissons Ratio (x) = 0.24956 -0.02518
# Poissons Ratio (y) = 0.19186 0.01783
# Poissons Ratio (z) = -0.06119 0.05634
#
# Static dielectric constant tensor:
#      x y z
#    x 1.684550 0.028780 0.044480 
#    y 0.028780 1.669360 -0.037690 
#    z 0.044480 -0.037690 1.664790 
# 
# From -- ./inp_files/326628.got.cif
#   From: 2010.05.17/outbox.cif.g08.bks.cpg/sg2_164_cif.got.tgz:326628.got - 2010.06.03 11:33:40.
