data_PCOD9031442
_publ_section_title
;
Structure prediction by ZEFSAII (Michael W. Deem and Ramdas Pophale) SiO2 
 PCOD9031442
Probable space group: P -1
;
_chemical_formula_sum "Si O2"
_cell_formula_units_Z 14
_cell_length_a 7.243149
_cell_length_b 9.214369
_cell_length_c 26.254061
_cell_angle_alpha 29.157933
_cell_angle_beta 129.863654
_cell_angle_gamma 123.556386
_cell_volume 655.174132
_symmetry_space_group_name_H-M "P -1"
_symmetry_group_IT_number 2
_symmetry_cell_setting 'triclinic'
loop_
_space_group_symop_operation_xyz
x,y,z
-x,-y,-z
loop_
_atom_site_type_symbol
_atom_site_label
_atom_site_fract_x
_atom_site_fract_y
_atom_site_fract_z
Si Si1 0.348054 0.403721 0.954042
Si Si2 0.292017 0.262936 0.524017
Si Si3 0.542538 0.846258 0.109405
Si Si4 0.501793 0.751140 0.773941
Si Si5 0.173904 0.326488 0.700961
Si Si6 0.485624 0.144966 0.398210
Si Si7 0.936253 0.824020 0.763356
O O1 0.453530 0.590337 0.867617
O O2 0.074797 0.509591 0.882410
O O3 0.500000 0.500000 0.000000
O O4 0.379251 0.055399 0.053083
O O5 0.500000 0.500000 0.500000
O O6 0.046558 0.442433 0.416462
O O7 0.311357 0.017062 0.647734
O O8 0.353008 0.063796 0.546475
O O9 0.509940 0.503636 0.193607
O O10 0.794199 0.832302 0.189400
O O11 0.500000 0.000000 0.000000
O O12 0.765434 0.868060 0.769617
O O13 0.411255 0.524264 0.678396
O O14 0.136056 0.074308 0.729430
O O15 0.226096 0.138713 0.326849
O O16 0.500000 0.000000 0.500000
#
# Coordination Sequence:
#
# PCOD9031442 Si02
#       7
#     2   2   2   2   2   2   2
#     4  11  24  42  71 101 135 184 232 286 343 396
#     4  11  22  43  70  99 135 180 227 276 352 420
#     4  10  22  43  66  97 135 178 232 281 339 406
#     4  10  23  45  66 100 139 174 232 280 342 415
#     4  12  22  44  71  96 141 179 224 286 340 410
#     4  11  26  42  65 104 137 177 230 280 346 412
#     4  11  24  45  69 101 141 176 234 285 338 413
#
# _framework density 21.368366999999999
#
# number of rings (size 3 to 8) (size 9 to 14) (size 15 to 20)
#    0.000    1.143    7.143    0.429    2.000    4.000 
#    0.000    0.000    0.000    0.000    0.000    0.000 
#    0.000    0.000    0.000    0.000    0.000    0.000 
#
# Total GULP energy -78030.575763 kJ/mol
# GULP energy per Si atom -5573.612554 kJ/mol
# Density = 2.131973 g / cm^3
# Si number density = 21.368367 Si / 1000 Ang^3
#
#
#
# Elastic Constant Matrix: (Units=GPa)
#
#
# Indices 1 2 3 4 5 6 
#
# 1 39.8351 9.8274 28.3918 14.6959 0.3484 -9.7911
# 2 9.8274 139.9615 46.8032 7.0185 -0.7059 5.1953
# 3 28.3918 46.8032 161.3465 9.6597 12.8483 -6.5561
# 4 14.6959 7.0185 9.6597 46.7508 -10.9223 2.1787
# 5 0.3484 -0.7059 12.8483 -10.9223 41.0744 -5.4687
# 6 -9.7911 5.1953 -6.5561 2.1787 -5.4687 23.2937
#
#
#
# Elastic Compliance Matrix: (Units=1/GPa)
#
#
# Indices 1 2 3 4 5 6 
#
# 1 0.036676 -0.000945 -0.004923 -0.011008 0.000329 0.015348
# 2 -0.000945 0.008100 -0.002318 -0.000207 0.000454 -0.002730
# 3 -0.004923 -0.002318 0.007967 -0.000356 -0.002569 0.000120
# 4 -0.011008 -0.000207 -0.000356 0.026751 0.006564 -0.005642
# 5 0.000329 0.000454 -0.002569 0.006564 0.027589 0.005177
# 6 0.015348 -0.002730 0.000120 -0.005642 0.005177 0.051767
#
#
# Mechanical properties :
#
#
# Convention : Reuss Voigt Hill
#
# Bulk Modulus (GPa) = 27.49413 56.79865 42.14639
# Shear Modulus (GPa) = 26.68818 39.29848 32.99333
#
# Velocity S-wave (km/s) = 3.53789 4.29312 3.93367
# Velocity P-wave (km/s) = 5.43908 7.15632 6.35596
#
# Compressibility (1/GPa) = 0.03637140
#
# Stress axis : x y z
#
# Youngs Moduli (GPa) = 27.26560 123.45104 125.51090
#
# Poissons Ratio (x) = 0.11665 0.61792
# Poissons Ratio (y) = 0.02576 0.29096
# Poissons Ratio (z) = 0.13423 0.28618
#
# Static dielectric constant tensor:
#      x y z
#    x 1.839460 0.043690 -0.022220 
#    y 0.043690 1.793500 -0.017530 
#    z -0.022220 -0.017530 1.839050 
# 
# From -- ./inp_files/178396.got.cif
#   From: 2010.05.17/outbox.cif.g08.bks.cpg/sg2_90_cif.got.tgz:178396.got - 2010.06.03 11:33:40.
