data_PCOD9031452
_publ_section_title
;
Structure prediction by ZEFSAII (Michael W. Deem and Ramdas Pophale) SiO2 
 PCOD9031452
Probable space group: P -1
;
_chemical_formula_sum "Si O2"
_cell_formula_units_Z 16
_cell_length_a 14.131718
_cell_length_b 5.414918
_cell_length_c 8.836023
_cell_angle_alpha 78.698509
_cell_angle_beta 111.067691
_cell_angle_gamma 94.604798
_cell_volume 618.684375
_symmetry_space_group_name_H-M "P -1"
_symmetry_group_IT_number 2
_symmetry_cell_setting 'triclinic'
loop_
_space_group_symop_operation_xyz
x,y,z
-x,-y,-z
loop_
_atom_site_type_symbol
_atom_site_label
_atom_site_fract_x
_atom_site_fract_y
_atom_site_fract_z
Si Si1 0.093682 0.145313 0.259109
Si Si2 0.629946 0.623100 0.874419
Si Si3 0.714482 0.058445 0.445189
Si Si4 0.652059 0.303246 0.677406
Si Si5 0.011271 0.396405 0.689207
Si Si6 0.790279 0.347332 0.173877
Si Si7 0.484075 0.994581 0.812915
Si Si8 0.812011 0.002413 0.963239
O O1 0.044205 0.400953 0.259155
O O2 0.202455 0.115920 0.408328
O O3 0.111539 0.135002 0.089602
O O4 0.033883 0.884296 0.293419
O O5 0.638415 0.579707 0.704517
O O6 0.517259 0.707187 0.831248
O O7 0.709958 0.838021 0.941690
O O8 0.681092 0.401152 0.027165
O O9 0.654726 0.219546 0.517404
O O10 0.773490 0.242062 0.342838
O O11 0.628077 0.930368 0.308454
O O12 0.765170 0.230272 0.807047
O O13 0.561447 0.159603 0.734062
O O14 0.130832 0.420681 0.796278
O O15 0.000000 0.500000 0.500000
O O16 0.840049 0.139783 0.117727
O O17 0.500000 0.000000 0.000000
#
# Coordination Sequence:
#
# PCOD9031452 Si02
#       8
#     2   2   2   2   2   2   2   2
#     4  11  27  48  74 104 144 186 239 302 352 421
#     4  10  22  43  66  97 141 178 226 291 342 429
#     4  11  23  44  68 100 135 187 230 290 357 419
#     4   9  21  41  63  99 136 175 235 282 350 421
#     4  12  27  47  72 106 145 184 242 298 357 421
#     4  11  25  42  70  99 138 183 235 287 359 420
#     4  11  23  42  67  99 137 179 231 287 351 424
#     4   9  22  42  69  99 139 181 231 287 352 419
#
# _framework density 25.861329999999999
#
# number of rings (size 3 to 8) (size 9 to 14) (size 15 to 20)
#    0.000    1.500    1.250    3.000    7.000    4.500 
#    2.250    0.000    0.000    0.000    0.000    0.000 
#    0.000    0.000    0.000    0.000    0.000    0.000 
#
# Total GULP energy -89478.179548 kJ/mol
# GULP energy per Si atom -5592.386222 kJ/mol
# Density = 2.580247 g / cm^3
# Si number density = 25.861330 Si / 1000 Ang^3
#
#
#
# Elastic Constant Matrix: (Units=GPa)
#
#
# Indices 1 2 3 4 5 6 
#
# 1 109.5333 22.4083 47.0734 -5.3457 12.5347 8.3570
# 2 22.4083 72.5929 6.5380 5.8027 5.7760 -3.8154
# 3 47.0734 6.5380 103.8187 9.6682 -8.2461 12.1659
# 4 -5.3457 5.8027 9.6682 32.5485 -0.5384 -3.9077
# 5 12.5347 5.7760 -8.2461 -0.5384 56.9797 2.4697
# 6 8.3570 -3.8154 12.1659 -3.9077 2.4697 44.6949
#
#
#
# Elastic Compliance Matrix: (Units=1/GPa)
#
#
# Indices 1 2 3 4 5 6 
#
# 1 0.013302 -0.003647 -0.006454 0.004642 -0.003427 -0.000447
# 2 -0.003647 0.015239 0.000772 -0.003375 -0.000728 0.001518
# 3 -0.006454 0.000772 0.013665 -0.005575 0.003402 -0.003122
# 4 0.004642 -0.003375 -0.005575 0.034132 -0.001311 0.003418
# 5 -0.003427 -0.000728 0.003402 -0.001311 0.018923 -0.001508
# 6 -0.000447 0.001518 -0.003122 0.003418 -0.001508 0.023819
#
#
# Mechanical properties :
#
#
# Convention : Reuss Voigt Hill
#
# Bulk Modulus (GPa) = 42.46303 48.66489 45.56396
# Shear Modulus (GPa) = 34.34364 40.83964 37.59164
#
# Velocity S-wave (km/s) = 3.64812 3.97820 3.81673
# Velocity P-wave (km/s) = 5.84809 6.32138 6.08934
#
# Compressibility (1/GPa) = 0.02354990
#
# Stress axis : x y z
#
# Youngs Moduli (GPa) = 75.17560 65.62079 73.17873
#
# Poissons Ratio (x) = 0.23930 0.47229
# Poissons Ratio (y) = 0.27414 -0.05652
# Poissons Ratio (z) = 0.48518 -0.05069
#
# Static dielectric constant tensor:
#      x y z
#    x 2.028640 -0.011860 0.020130 
#    y -0.011860 2.213980 -0.099510 
#    z 0.020130 -0.099510 2.091820 
# 
# From -- ./inp_files/288687.got.cif
#   From: 2010.05.17/outbox.cif.g08.bks.cpg/sg2_145_cif.got.tgz:288687.got - 2010.06.03 11:33:40.
