data_PCOD9031639
_publ_section_title
;
Structure prediction by ZEFSAII (Michael W. Deem and Ramdas Pophale) SiO2 
 PCOD9031639
Probable space group: P -1
;
_chemical_formula_sum "Si O2"
_cell_formula_units_Z 14
_cell_length_a 9.008951
_cell_length_b 5.315547
_cell_length_c 26.158107
_cell_angle_alpha 57.670555
_cell_angle_beta 146.575387
_cell_angle_gamma 124.304939
_cell_volume 564.242038
_symmetry_space_group_name_H-M "P -1"
_symmetry_group_IT_number 2
_symmetry_cell_setting 'triclinic'
loop_
_space_group_symop_operation_xyz
x,y,z
-x,-y,-z
loop_
_atom_site_type_symbol
_atom_site_label
_atom_site_fract_x
_atom_site_fract_y
_atom_site_fract_z
Si Si1 0.942841 0.538028 0.174868
Si Si2 0.422333 0.684364 0.044846
Si Si3 0.444268 0.399938 0.789310
Si Si4 0.920534 0.227260 0.914158
Si Si5 0.712738 0.897846 0.732324
Si Si6 0.689459 0.990545 0.478502
Si Si7 0.136910 0.611534 0.420170
O O1 0.961718 0.771496 0.107883
O O2 0.081136 0.276335 0.219957
O O3 0.619624 0.467254 0.104457
O O4 0.127858 0.747573 0.248938
O O5 0.480137 0.672786 0.123286
O O6 0.099375 0.546649 0.955011
O O7 0.500000 0.000000 0.000000
O O8 0.592669 0.184026 0.822212
O O9 0.592275 0.724280 0.769183
O O10 0.121242 0.343122 0.691897
O O11 0.000000 0.000000 0.000000
O O12 0.446934 0.877414 0.622359
O O13 0.419438 0.798204 0.453507
O O14 0.855798 0.742758 0.537339
O O15 0.861361 0.244589 0.538816
#
# Coordination Sequence:
#
# PCOD9031639 Si02
#       7
#     2   2   2   2   2   2   2
#     4  11  24  42  68  99 134 181 231 275 336 407
#     4  12  24  44  70  99 137 187 237 284 341 412
#     4  11  25  42  67 101 138 177 226 284 348 404
#     4  11  24  42  65  98 139 179 229 292 348 404
#     4  11  24  44  69 102 141 178 222 284 344 408
#     4  10  22  43  67  97 134 173 222 274 337 408
#     4  10  23  41  67  98 131 174 222 277 334 409
#
# _framework density 24.812045000000001
#
# number of rings (size 3 to 8) (size 9 to 14) (size 15 to 20)
#    0.000    1.143    0.000    6.000    0.000    9.143 
#    0.000    0.000    0.000    0.000    0.000    0.000 
#    0.000    0.000    0.000    0.000    0.000    0.000 
#
# Total GULP energy -78280.760756 kJ/mol
# GULP energy per Si atom -5591.482911 kJ/mol
# Density = 2.475557 g / cm^3
# Si number density = 24.812045 Si / 1000 Ang^3
#
#
#
# Elastic Constant Matrix: (Units=GPa)
#
#
# Indices 1 2 3 4 5 6 
#
# 1 111.1820 37.6610 48.4255 -7.7331 -6.0476 -14.9230
# 2 37.6610 99.7745 46.3124 -3.1032 -6.2805 -16.8531
# 3 48.4255 46.3124 156.9008 1.8695 -11.8832 -16.2833
# 4 -7.7331 -3.1032 1.8695 28.4345 -0.8402 -12.0641
# 5 -6.0476 -6.2805 -11.8832 -0.8402 52.0702 -5.6143
# 6 -14.9230 -16.8531 -16.2833 -12.0641 -5.6143 36.7948
#
#
#
# Elastic Compliance Matrix: (Units=1/GPa)
#
#
# Indices 1 2 3 4 5 6 
#
# 1 0.011886 -0.002350 -0.002489 0.005070 0.001093 0.004472
# 2 -0.002350 0.013159 -0.002556 0.003212 0.001344 0.005201
# 3 -0.002489 -0.002556 0.008152 -0.000876 0.001395 0.001354
# 4 0.005070 0.003212 -0.000876 0.044856 0.003482 0.018378
# 5 0.001093 0.001344 0.001395 0.003482 0.020510 0.005947
# 6 0.004472 0.005201 0.001354 0.018378 0.005947 0.038906
#
#
# Mechanical properties :
#
#
# Convention : Reuss Voigt Hill
#
# Bulk Modulus (GPa) = 54.31810 70.29500 62.30655
# Shear Modulus (GPa) = 31.56708 39.15713 35.36210
#
# Velocity S-wave (km/s) = 3.57073 3.97690 3.77928
# Velocity P-wave (km/s) = 6.24015 7.03422 6.64905
#
# Compressibility (1/GPa) = 0.01841007
#
# Stress axis : x y z
#
# Youngs Moduli (GPa) = 84.12990 75.99509 122.66316
#
# Poissons Ratio (x) = 0.17856 0.30525
# Poissons Ratio (y) = 0.19767 0.31348
# Poissons Ratio (z) = 0.20936 0.19421
#
# Static dielectric constant tensor:
#      x y z
#    x 1.944120 -0.054900 0.000870 
#    y -0.054900 1.801450 0.001750 
#    z 0.000870 0.001750 1.894640 
# 
# From -- ./inp_files/89688.got.cif
#   From: 2010.05.17/outbox.cif.g08.bks.cpg/sg2_45_cif.got.tgz:89688.got - 2010.06.03 11:33:40.
