data_PCOD9031057
_publ_section_title
;
Structure prediction by ZEFSAII (Michael W. Deem and Ramdas Pophale) SiO2 
 PCOD9031057
Probable space group: P -1
;
_chemical_formula_sum "Si O2"
_cell_formula_units_Z 12
_cell_length_a 11.768859
_cell_length_b 9.806650
_cell_length_c 8.809055
_cell_angle_alpha 42.852957
_cell_angle_beta 96.709677
_cell_angle_gamma 118.984975
_cell_volume 554.166043
_symmetry_space_group_name_H-M "P -1"
_symmetry_group_IT_number 2
_symmetry_cell_setting 'triclinic'
loop_
_space_group_symop_operation_xyz
x,y,z
-x,-y,-z
loop_
_atom_site_type_symbol
_atom_site_label
_atom_site_fract_x
_atom_site_fract_y
_atom_site_fract_z
Si Si1 0.676499 0.429910 0.872358
Si Si2 0.986167 0.222588 0.818752
Si Si3 0.412210 0.015867 0.340922
Si Si4 0.179598 0.035262 0.457133
Si Si5 0.930363 0.682714 0.910246
Si Si6 0.235099 0.692231 0.314922
O O1 0.733354 0.716201 0.626957
O O2 0.788108 0.458925 0.990313
O O3 0.691255 0.315403 0.817164
O O4 0.522462 0.261871 0.059262
O O5 0.092716 0.419365 0.549117
O O6 0.828343 0.148434 0.838126
O O7 0.041356 0.352479 0.886562
O O8 0.000000 0.000000 0.000000
O O9 0.289299 0.018914 0.394899
O O10 0.500000 0.000000 0.500000
O O11 0.339314 0.790282 0.394216
O O12 0.094733 0.100102 0.279905
O O13 0.065916 0.794215 0.732635
#
# Coordination Sequence:
#
# PCOD9031057 Si02
#       6
#     2   2   2   2   2   2
#     4  10  22  43  64  91 134 170 211 272 326 379
#     4  11  23  41  69 101 132 170 216 274 334 378
#     4  12  25  42  63  93 135 176 217 262 335 389
#     4   9  21  41  70  96 127 170 224 268 316 397
#     4   9  20  39  73  94 123 168 220 264 331 373
#     4  11  26  41  65 100 135 165 225 275 313 397
#
# _framework density 21.654157999999999
#
# number of rings (size 3 to 8) (size 9 to 14) (size 15 to 20)
#    1.000    0.667    0.000    4.000    7.000    0.667 
#    3.000    0.833    0.000    0.000    0.000    0.000 
#    0.000    0.000    0.000    0.000    0.000    0.000 
#
# Total GULP energy -67045.666499 kJ/mol
# GULP energy per Si atom -5587.138875 kJ/mol
# Density = 2.160487 g / cm^3
# Si number density = 21.654158 Si / 1000 Ang^3
#
#
#
# Elastic Constant Matrix: (Units=GPa)
#
#
# Indices 1 2 3 4 5 6 
#
# 1 96.5822 40.4502 30.4899 18.1814 -30.9270 -18.8044
# 2 40.4502 113.0061 -2.1941 16.1383 -4.6620 -0.3309
# 3 30.4899 -2.1941 54.7456 3.6005 -26.3284 -8.0168
# 4 18.1814 16.1383 3.6005 35.5542 2.1673 0.7590
# 5 -30.9270 -4.6620 -26.3284 2.1673 45.3581 3.5595
# 6 -18.8044 -0.3309 -8.0168 0.7590 3.5595 30.0381
#
#
#
# Elastic Compliance Matrix: (Units=1/GPa)
#
#
# Indices 1 2 3 4 5 6 
#
# 1 0.021826 -0.006173 -0.004932 -0.008765 0.010924 0.011206
# 2 -0.006173 0.011399 0.003242 -0.002237 -0.000835 -0.002718
# 3 -0.004932 0.003242 0.028082 -0.002659 0.013166 0.002950
# 4 -0.008765 -0.002237 -0.002659 0.034566 -0.008927 -0.006037
# 5 0.010924 -0.000835 0.013166 -0.008927 0.036993 0.006185
# 6 0.011206 -0.002718 0.002950 -0.006037 0.006185 0.040483
#
#
# Mechanical properties :
#
#
# Convention : Reuss Voigt Hill
#
# Bulk Modulus (GPa) = 21.93928 44.64730 33.29329
# Shear Modulus (GPa) = 24.47761 35.22928 29.85345
#
# Velocity S-wave (km/s) = 3.36577 4.03787 3.71704
# Velocity P-wave (km/s) = 5.02576 6.51170 5.81638
#
# Compressibility (1/GPa) = 0.04558034
#
# Stress axis : x y z
#
# Youngs Moduli (GPa) = 45.81659 87.72941 35.61017
#
# Poissons Ratio (x) = 0.54157 0.17564
# Poissons Ratio (y) = 0.28283 -0.11546
# Poissons Ratio (z) = 0.22598 -0.28444
#
# Static dielectric constant tensor:
#      x y z
#    x 1.782420 -0.004380 0.038960 
#    y -0.004380 1.807740 -0.023100 
#    z 0.038960 -0.023100 1.793740 
# 
# From -- ./inp_files/199139.got.cif
#   From: 2010.05.17/outbox.cif.g08.bks.cpg/sg2_100_cif.got.tgz:199139.got - 2010.06.03 11:33:40.
