data_PCOD9031861
_publ_section_title
;
Structure prediction by ZEFSAII (Michael W. Deem and Ramdas Pophale) SiO2 
 PCOD9031861
Probable space group: P -1
;
_chemical_formula_sum "Si O2"
_cell_formula_units_Z 14
_cell_length_a 6.266743
_cell_length_b 5.390685
_cell_length_c 23.236685
_cell_angle_alpha 72.451855
_cell_angle_beta 82.626330
_cell_angle_gamma 47.202265
_cell_volume 545.888364
_symmetry_space_group_name_H-M "P -1"
_symmetry_group_IT_number 2
_symmetry_cell_setting 'triclinic'
loop_
_space_group_symop_operation_xyz
x,y,z
-x,-y,-z
loop_
_atom_site_type_symbol
_atom_site_label
_atom_site_fract_x
_atom_site_fract_y
_atom_site_fract_z
Si Si1 0.802386 0.673130 0.714958
Si Si2 0.075885 0.139939 0.537929
Si Si3 0.722886 0.286653 0.828215
Si Si4 0.340111 0.453249 0.379022
Si Si5 0.609685 0.632247 0.267059
Si Si6 0.916146 0.369374 0.961685
Si Si7 0.290329 0.883338 0.892911
O O1 0.865878 0.364987 0.771371
O O2 0.821302 0.626214 0.649306
O O3 0.045347 0.673805 0.728636
O O4 0.482865 0.035475 0.717927
O O5 0.000000 0.500000 0.500000
O O6 0.886254 0.220532 0.594776
O O7 0.409976 0.855461 0.566237
O O8 0.000000 0.000000 0.500000
O O9 0.543835 0.232430 0.799082
O O10 0.486390 0.646211 0.847216
O O11 0.989685 0.968135 0.880283
O O12 0.488406 0.505679 0.320898
O O13 0.568468 0.652224 0.943229
O O14 0.103265 0.268480 0.903596
O O15 0.000000 0.500000 0.000000
O O16 0.000000 0.000000 0.000000
#
# Coordination Sequence:
#
# PCOD9031861 Si02
#       7
#     2   2   2   2   2   2   2
#     4  11  23  41  70  97 137 179 225 281 339 432
#     4  12  28  47  72 102 140 179 232 296 346 408
#     4  10  22  44  60 106 138 174 230 276 354 410
#     4  11  26  45  70  98 138 179 230 281 352 412
#     4  11  23  41  70  97 137 179 225 281 339 432
#     4  11  24  47  70 102 138 185 242 287 342 408
#     4  10  22  43  68  96 142 177 226 294 346 406
#
# _framework density 25.646269
#
# number of rings (size 3 to 8) (size 9 to 14) (size 15 to 20)
#    0.000    1.143    0.000    5.143    6.000    4.571 
#   25.714    0.000    0.000    0.000    0.000    0.000 
#    0.000    0.000    0.000    0.000    0.000    0.000 
#
# Total GULP energy -78110.819641 kJ/mol
# GULP energy per Si atom -5579.344260 kJ/mol
# Density = 2.558790 g / cm^3
# Si number density = 25.646269 Si / 1000 Ang^3
#
#
#
# Elastic Constant Matrix: (Units=GPa)
#
#
# Indices 1 2 3 4 5 6 
#
# 1 90.1929 59.4888 64.4237 3.3470 32.8132 -9.7988
# 2 59.4888 133.0696 50.6826 15.7835 29.0166 -16.6451
# 3 64.4237 50.6826 123.5658 24.4997 45.9545 0.6645
# 4 3.3470 15.7835 24.4997 59.3169 1.5241 6.8216
# 5 32.8132 29.0166 45.9545 1.5241 55.7604 0.0590
# 6 -9.7988 -16.6451 0.6645 6.8216 0.0590 60.0969
#
#
#
# Elastic Compliance Matrix: (Units=1/GPa)
#
#
# Indices 1 2 3 4 5 6 
#
# 1 0.022813 -0.006440 -0.009050 0.004053 -0.002727 0.001579
# 2 -0.006440 0.011516 -0.000012 -0.002926 -0.002116 0.002474
# 3 -0.009050 -0.000012 0.017341 -0.006314 -0.008785 -0.000945
# 4 0.004053 -0.002926 -0.006314 0.020192 0.003792 -0.002376
# 5 -0.002727 -0.002116 -0.008785 0.003792 0.027778 -0.001391
# 6 0.001579 0.002474 -0.000945 -0.002376 -0.001391 0.017864
#
#
# Mechanical properties :
#
#
# Convention : Reuss Voigt Hill
#
# Bulk Modulus (GPa) = 48.39206 77.33537 62.86372
# Shear Modulus (GPa) = 32.17554 46.51705 39.34630
#
# Velocity S-wave (km/s) = 3.54586 4.26349 3.92113
# Velocity P-wave (km/s) = 5.97279 7.37947 6.71307
#
# Compressibility (1/GPa) = 0.02066455
#
# Stress axis : x y z
#
# Youngs Moduli (GPa) = 43.83504 86.83240 57.66749
#
# Poissons Ratio (x) = 0.55921 0.52191
# Poissons Ratio (y) = 0.28230 0.00071
# Poissons Ratio (z) = 0.39672 0.00107
#
# Static dielectric constant tensor:
#      x y z
#    x 2.118240 0.072970 -0.092410 
#    y 0.072970 1.982510 -0.002000 
#    z -0.092410 -0.002000 2.142950 
# 
# From -- ./inp_files/603214.got.cif
#   From: 2010.05.17/outbox.cif.g08.bks.cpg/sg2_302_cif.got.tgz:603214.got - 2010.06.03 11:33:40.
