data_PCOD9031232
_publ_section_title
;
Structure prediction by ZEFSAII (Michael W. Deem and Ramdas Pophale) SiO2 
 PCOD9031232
Probable space group: P -1
;
_chemical_formula_sum "Si O2"
_cell_formula_units_Z 16
_cell_length_a 8.944375
_cell_length_b 16.215251
_cell_length_c 13.477831
_cell_angle_alpha 21.502537
_cell_angle_beta 80.977201
_cell_angle_gamma 87.196839
_cell_volume 681.756294
_symmetry_space_group_name_H-M "P -1"
_symmetry_group_IT_number 2
_symmetry_cell_setting 'triclinic'
loop_
_space_group_symop_operation_xyz
x,y,z
-x,-y,-z
loop_
_atom_site_type_symbol
_atom_site_label
_atom_site_fract_x
_atom_site_fract_y
_atom_site_fract_z
Si Si1 0.437743 0.641240 0.765871
Si Si2 0.162529 0.795345 0.722238
Si Si3 0.187439 0.358789 0.716905
Si Si4 0.721286 0.461998 0.295318
Si Si5 0.022613 0.729512 0.606425
Si Si6 0.232778 0.018788 0.676675
Si Si7 0.421151 0.192074 0.750711
Si Si8 0.153105 0.819522 0.097922
O O1 0.323619 0.768440 0.689301
O O2 0.333438 0.478938 0.873361
O O3 0.590033 0.826264 0.500166
O O4 0.500000 0.500000 0.000000
O O5 0.075283 0.855675 0.565976
O O6 0.206000 0.952064 0.639111
O O7 0.059612 0.541287 0.054832
O O8 0.183012 0.349503 0.847443
O O9 0.343425 0.308231 0.715152
O O10 0.181564 0.615578 0.392898
O O11 0.030113 0.194645 0.869767
O O12 0.826374 0.281247 0.463318
O O13 0.558963 0.356409 0.488504
O O14 0.894053 0.836158 0.449940
O O15 0.197961 0.798104 0.001468
O O16 0.500000 0.000000 0.000000
O O17 0.271591 0.059024 0.850561
#
# Coordination Sequence:
#
# PCOD9031232 Si02
#       8
#     2   2   2   2   2   2   2   2
#     4  11  23  44  67 100 139 176 222 289 338 399
#     4  10  22  43  65  95 135 182 226 275 341 405
#     4  11  26  49  70 101 136 184 232 282 344 414
#     4  11  24  45  68  99 137 183 223 280 346 401
#     4  10  23  42  66  94 141 172 232 281 332 407
#     4  12  23  41  69 101 130 185 226 278 343 408
#     4  12  25  46  71 101 139 180 229 286 346 404
#     4  11  26  44  71 102 139 177 233 283 344 401
#
# _framework density 23.468796000000001
#
# number of rings (size 3 to 8) (size 9 to 14) (size 15 to 20)
#    0.000    1.000    3.750    2.250    1.750    4.000 
#    2.250    0.000    0.000    0.000    0.000    0.000 
#    0.000    0.000    0.000    0.000    0.000    0.000 
#
# Total GULP energy -89459.016796 kJ/mol
# GULP energy per Si atom -5591.188550 kJ/mol
# Density = 2.341538 g / cm^3
# Si number density = 23.468796 Si / 1000 Ang^3
#
#
#
# Elastic Constant Matrix: (Units=GPa)
#
#
# Indices 1 2 3 4 5 6 
#
# 1 134.9149 54.4868 15.5840 7.2911 -9.0934 6.2980
# 2 54.4868 133.8891 0.3275 12.0209 0.3582 6.2507
# 3 15.5840 0.3275 41.5518 16.9599 -10.3128 1.7529
# 4 7.2911 12.0209 16.9599 24.1239 9.8572 -11.3491
# 5 -9.0934 0.3582 -10.3128 9.8572 36.9988 3.7442
# 6 6.2980 6.2507 1.7529 -11.3491 3.7442 37.5252
#
#
#
# Elastic Compliance Matrix: (Units=1/GPa)
#
#
# Indices 1 2 3 4 5 6 
#
# 1 0.009456 -0.003846 -0.003316 0.000443 0.001400 -0.000797
# 2 -0.003846 0.011389 0.013040 -0.021954 0.009383 -0.009437
# 3 -0.003316 0.013040 0.086596 -0.110920 0.057293 -0.044924
# 4 0.000443 -0.021954 -0.110920 0.206442 -0.093748 0.080554
# 5 0.001400 0.009383 0.057293 -0.093748 0.072279 -0.040039
# 6 -0.000797 -0.009437 -0.044924 0.080554 -0.040039 0.058811
#
#
# Mechanical properties :
#
#
# Convention : Reuss Voigt Hill
#
# Bulk Modulus (GPa) = 8.38952 50.12804 29.25878
# Shear Modulus (GPa) = 10.57198 35.72673 23.14936
#
# Velocity S-wave (km/s) = 2.12473 3.90591 3.14409
# Velocity P-wave (km/s) = 3.09868 6.46122 5.06701
#
# Compressibility (1/GPa) = 0.11919631
#
# Stress axis : x y z
#
# Youngs Moduli (GPa) = 105.75145 87.80561 11.54794
#
# Poissons Ratio (x) = 0.33774 0.03829
# Poissons Ratio (y) = 0.40676 -0.15059
# Poissons Ratio (z) = 0.35067 -1.14502
#
# Static dielectric constant tensor:
#      x y z
#    x 1.944480 0.044430 -0.008830 
#    y 0.044430 1.925240 0.023850 
#    z -0.008830 0.023850 1.911230 
# 
# From -- ./inp_files/398133.got.cif
#   From: 2010.05.17/outbox.cif.g08.bks.cpg/sg2_200_cif.got.tgz:398133.got - 2010.06.03 11:33:40.
