data_PCOD9031083
_publ_section_title
;
Structure prediction by ZEFSAII (Michael W. Deem and Ramdas Pophale) SiO2 
 PCOD9031083
Probable space group: P -1
;
_chemical_formula_sum "Si O2"
_cell_formula_units_Z 16
_cell_length_a 18.612954
_cell_length_b 6.253049
_cell_length_c 11.992935
_cell_angle_alpha 79.380800
_cell_angle_beta 147.944764
_cell_angle_gamma 108.494069
_cell_volume 692.573200
_symmetry_space_group_name_H-M "P -1"
_symmetry_group_IT_number 2
_symmetry_cell_setting 'triclinic'
loop_
_space_group_symop_operation_xyz
x,y,z
-x,-y,-z
loop_
_atom_site_type_symbol
_atom_site_label
_atom_site_fract_x
_atom_site_fract_y
_atom_site_fract_z
Si Si1 0.913815 0.505171 0.161617
Si Si2 0.966054 0.124972 0.552956
Si Si3 0.553616 0.681307 0.150131
Si Si4 0.118382 0.242214 0.131161
Si Si5 0.855042 0.674733 0.597444
Si Si6 0.593574 0.760747 0.578392
Si Si7 0.667920 0.103885 0.100941
Si Si8 0.651047 0.040736 0.845160
O O1 0.914322 0.667839 0.251722
O O2 0.069252 0.468846 0.364674
O O3 0.896334 0.626882 0.012122
O O4 0.790231 0.263217 0.015918
O O5 0.835090 0.209257 0.331970
O O6 0.916721 0.931379 0.603579
O O7 0.000000 0.000000 0.500000
O O8 0.685214 0.616115 0.381541
O O9 0.619735 0.930034 0.156752
O O10 0.500000 0.500000 0.000000
O O11 0.421523 0.716958 0.041175
O O12 0.101535 0.352629 0.216141
O O13 0.275646 0.217211 0.333474
O O14 0.000000 0.000000 0.000000
O O15 0.500000 0.500000 0.500000
O O16 0.658793 0.872785 0.771612
O O17 0.486998 0.886285 0.376145
O O18 0.637211 0.953481 0.961833
#
# Coordination Sequence:
#
# PCOD9031083 Si02
#       8
#     2   2   2   2   2   2   2   2
#     4  12  25  44  70 104 141 187 235 296 353 425
#     4  11  25  43  67 101 140 180 234 292 357 422
#     4  10  22  43  64  95 135 181 233 285 353 411
#     4  12  24  45  73 100 141 188 238 296 358 417
#     4  11  24  42  66 101 135 179 238 292 355 419
#     4  11  25  47  67 102 142 183 232 288 355 428
#     4  10  23  41  66  96 134 178 231 289 344 424
#     4  11  25  43  71 100 140 182 235 283 358 427
#
# _framework density 23.102253000000001
#
# number of rings (size 3 to 8) (size 9 to 14) (size 15 to 20)
#    0.000    1.000    2.500    3.375    1.750    6.000 
#    2.250    0.000    0.000    0.000    0.000    0.000 
#    0.000    0.000    0.000    0.000    0.000    0.000 
#
# Total GULP energy -89437.118863 kJ/mol
# GULP energy per Si atom -5589.819929 kJ/mol
# Density = 2.304967 g / cm^3
# Si number density = 23.102253 Si / 1000 Ang^3
#
#
#
# Elastic Constant Matrix: (Units=GPa)
#
#
# Indices 1 2 3 4 5 6 
#
# 1 100.4046 26.0385 38.0148 16.3572 2.1032 -20.8122
# 2 26.0385 58.4028 28.6532 22.7253 2.2583 -14.5318
# 3 38.0148 28.6532 122.3021 10.3144 0.4380 -14.9374
# 4 16.3572 22.7253 10.3144 43.8432 -8.0424 -10.1679
# 5 2.1032 2.2583 0.4380 -8.0424 50.0698 1.6535
# 6 -20.8122 -14.5318 -14.9374 -10.1679 1.6535 40.6165
#
#
#
# Elastic Compliance Matrix: (Units=1/GPa)
#
#
# Indices 1 2 3 4 5 6 
#
# 1 0.012868 -0.002531 -0.002717 -0.002031 -0.000868 0.004215
# 2 -0.002531 0.025438 -0.003773 -0.011009 -0.002901 0.003779
# 3 -0.002717 -0.003773 0.009964 0.000948 0.000312 0.001147
# 4 -0.002031 -0.011009 0.000948 0.030700 0.005411 0.002834
# 5 -0.000868 -0.002901 0.000312 0.005411 0.021035 -0.000870
# 6 0.004215 0.003779 0.001147 0.002834 -0.000870 0.029299
#
#
# Mechanical properties :
#
#
# Convention : Reuss Voigt Hill
#
# Bulk Modulus (GPa) = 33.08199 51.83582 42.45891
# Shear Modulus (GPa) = 31.76188 39.46612 35.61400
#
# Velocity S-wave (km/s) = 3.71191 4.13767 3.93056
# Velocity P-wave (km/s) = 5.72030 6.73152 6.24641
#
# Compressibility (1/GPa) = 0.03022793
#
# Stress axis : x y z
#
# Youngs Moduli (GPa) = 77.71317 39.31104 100.36176
#
# Poissons Ratio (x) = 0.09950 0.27273
# Poissons Ratio (y) = 0.19669 0.37862
# Poissons Ratio (z) = 0.21118 0.14830
#
# Static dielectric constant tensor:
#      x y z
#    x 1.956100 -0.040030 0.027860 
#    y -0.040030 1.873510 -0.027260 
#    z 0.027860 -0.027260 1.882940 
# 
# From -- ./inp_files/459153.got.cif
#   From: 2010.05.17/outbox.cif.g08.bks.cpg/sg2_230_cif.got.tgz:459153.got - 2010.06.03 11:33:40.
