data_PCOD9031462
_publ_section_title
;
Structure prediction by ZEFSAII (Michael W. Deem and Ramdas Pophale) SiO2 
 PCOD9031462
Probable space group: P -1
;
_chemical_formula_sum "Si O2"
_cell_formula_units_Z 16
_cell_length_a 7.125816
_cell_length_b 17.356171
_cell_length_c 10.997656
_cell_angle_alpha 40.492904
_cell_angle_beta 98.530883
_cell_angle_gamma 71.012479
_cell_volume 638.526983
_symmetry_space_group_name_H-M "P -1"
_symmetry_group_IT_number 2
_symmetry_cell_setting 'triclinic'
loop_
_space_group_symop_operation_xyz
x,y,z
-x,-y,-z
loop_
_atom_site_type_symbol
_atom_site_label
_atom_site_fract_x
_atom_site_fract_y
_atom_site_fract_z
Si Si1 0.531505 0.586186 0.795863
Si Si2 0.572784 0.113779 0.010320
Si Si3 0.946570 0.214564 0.681752
Si Si4 0.367899 0.454436 0.627082
Si Si5 0.808269 0.292446 0.035888
Si Si6 0.148003 0.104479 0.066122
Si Si7 0.551936 0.823488 0.604041
Si Si8 0.208477 0.029221 0.552791
O O1 0.274203 0.706165 0.538746
O O2 0.758158 0.442966 0.902665
O O3 0.635847 0.655546 0.793179
O O4 0.500000 0.500000 0.000000
O O5 0.754860 0.053775 0.219249
O O6 0.416625 0.305907 0.743859
O O7 0.348313 0.116772 0.021915
O O8 0.773731 0.951111 0.141575
O O9 0.888585 0.371171 0.549481
O O10 0.951190 0.141929 0.899287
O O11 0.500000 0.500000 0.500000
O O12 0.534135 0.369104 0.867757
O O13 0.995701 0.222325 0.023721
O O14 0.930473 0.151603 0.314729
O O15 0.325517 0.930243 0.352925
O O16 0.742179 0.851080 0.562207
O O17 0.427654 0.900646 0.630906
#
# Coordination Sequence:
#
# PCOD9031462 Si02
#       8
#     2   2   2   2   2   2   2   2
#     4  11  25  40  62 105 138 173 223 279 342 401
#     4  11  25  43  71  97 132 180 224 283 335 401
#     4  11  25  44  67  98 134 176 225 278 337 396
#     4  11  25  44  63  99 136 173 224 275 337 403
#     4  10  22  43  66  98 134 176 220 277 335 402
#     4  10  22  47  66  96 130 176 233 268 340 396
#     4   9  21  40  66  94 131 172 222 273 328 410
#     4   9  20  42  66  94 126 175 222 272 337 387
#
# _framework density 25.057670000000002
#
# number of rings (size 3 to 8) (size 9 to 14) (size 15 to 20)
#    0.000    1.750    1.250    1.875    7.000    4.500 
#    4.500    0.000    0.000    0.000    0.000    0.000 
#    0.000    0.000    0.000    0.000    0.000    0.000 
#
# Total GULP energy -89189.909633 kJ/mol
# GULP energy per Si atom -5574.369352 kJ/mol
# Density = 2.500064 g / cm^3
# Si number density = 25.057670 Si / 1000 Ang^3
#
#
#
# Elastic Constant Matrix: (Units=GPa)
#
#
# Indices 1 2 3 4 5 6 
#
# 1 64.4567 39.4224 26.6046 -27.3040 -9.6627 0.8974
# 2 39.4224 106.3866 59.9740 -28.0776 -16.1570 7.2088
# 3 26.6046 59.9740 105.2387 -8.6123 3.4228 2.0765
# 4 -27.3040 -28.0776 -8.6123 78.1622 13.7461 4.6846
# 5 -9.6627 -16.1570 3.4228 13.7461 40.6465 0.8086
# 6 0.8974 7.2088 2.0765 4.6846 0.8086 21.4394
#
#
#
# Elastic Compliance Matrix: (Units=1/GPa)
#
#
# Indices 1 2 3 4 5 6 
#
# 1 0.022164 -0.005343 -0.002170 0.005323 0.001530 -0.000142
# 2 -0.005343 0.018659 -0.009099 0.003148 0.005969 -0.006082
# 3 -0.002170 -0.009099 0.015220 -0.001619 -0.004911 0.002215
# 4 0.005323 0.003148 -0.001619 0.016373 -0.002792 -0.004597
# 5 0.001530 0.005969 -0.004911 -0.002792 0.028738 -0.002069
# 6 -0.000142 -0.006082 0.002215 -0.004597 -0.002069 0.049562
#
#
# Mechanical properties :
#
#
# Convention : Reuss Voigt Hill
#
# Bulk Modulus (GPa) = 43.82296 58.67601 51.24949
# Shear Modulus (GPa) = 26.10361 38.05501 32.07931
#
# Velocity S-wave (km/s) = 3.23110 3.90127 3.58190
# Velocity P-wave (km/s) = 5.60775 6.61517 6.13218
#
# Compressibility (1/GPa) = 0.02281909
#
# Stress axis : x y z
#
# Youngs Moduli (GPa) = 45.11816 53.59466 65.70455
#
# Poissons Ratio (x) = 0.28636 0.14255
# Poissons Ratio (y) = 0.24107 0.59785
# Poissons Ratio (z) = 0.09789 0.48766
#
# Static dielectric constant tensor:
#      x y z
#    x 1.992570 0.035110 0.011010 
#    y 0.035110 2.078180 -0.021910 
#    z 0.011010 -0.021910 2.079190 
# 
# From -- ./inp_files/401846.got.cif
#   From: 2010.05.17/outbox.cif.g08.bks.cpg/sg2_201_cif.got.tgz:401846.got - 2010.06.03 11:33:40.
