data_PCOD9031534
_publ_section_title
;
Structure prediction by ZEFSAII (Michael W. Deem and Ramdas Pophale) SiO2 
 PCOD9031534
Probable space group: P -1
;
_chemical_formula_sum "Si O2"
_cell_formula_units_Z 16
_cell_length_a 11.683748
_cell_length_b 5.293402
_cell_length_c 14.300625
_cell_angle_alpha 128.298976
_cell_angle_beta 103.122621
_cell_angle_gamma 95.472143
_cell_volume 642.924440
_symmetry_space_group_name_H-M "P -1"
_symmetry_group_IT_number 2
_symmetry_cell_setting 'triclinic'
loop_
_space_group_symop_operation_xyz
x,y,z
-x,-y,-z
loop_
_atom_site_type_symbol
_atom_site_label
_atom_site_fract_x
_atom_site_fract_y
_atom_site_fract_z
Si Si1 0.097201 0.473855 0.109090
Si Si2 0.146489 0.314074 0.900208
Si Si3 0.541973 0.514367 0.751345
Si Si4 0.110031 0.639880 0.628721
Si Si5 0.579259 0.293390 0.917948
Si Si6 0.271951 0.226750 0.320410
Si Si7 0.904061 0.414380 0.657200
Si Si8 0.697092 0.706289 0.457166
O O1 0.106435 0.421747 0.207745
O O2 0.961322 0.513646 0.085950
O O3 0.201053 0.837965 0.192952
O O4 0.125635 0.208203 0.982784
O O5 0.127607 0.019835 0.754101
O O6 0.284255 0.558381 0.979504
O O7 0.572058 0.367525 0.821643
O O8 0.646359 0.566113 0.701436
O O9 0.410370 0.296983 0.635454
O O10 0.533970 0.897081 0.843513
O O11 0.240904 0.588730 0.619109
O O12 0.000000 0.500000 0.500000
O O13 0.041123 0.432671 0.659411
O O14 0.500000 0.500000 0.000000
O O15 0.159767 0.361620 0.363744
O O16 0.350291 0.276656 0.441827
O O17 0.813907 0.040188 0.546597
#
# Coordination Sequence:
#
# PCOD9031534 Si02
#       8
#     2   2   2   2   2   2   2   2
#     4  10  22  43  67 109 134 183 245 297 365 432
#     4  11  23  44  73 100 143 187 236 302 369 430
#     4  12  28  48  75 107 147 196 253 302 357 441
#     4  12  23  44  68 104 142 183 232 300 368 445
#     4  12  28  50  73 105 151 194 250 304 361 439
#     4  11  22  46  70 104 148 181 246 304 358 434
#     4  11  23  41  73  99 144 185 237 308 358 438
#     4  11  26  43  70 105 144 195 241 294 374 432
#
# _framework density 24.886285000000001
#
# number of rings (size 3 to 8) (size 9 to 14) (size 15 to 20)
#    0.000    0.750    3.750    3.375    3.500    4.000 
#    0.000    0.000    0.000    0.000    0.000    0.000 
#    0.000    0.000    0.000    0.000    0.000    0.000 
#
# Total GULP energy -89429.343002 kJ/mol
# GULP energy per Si atom -5589.333938 kJ/mol
# Density = 2.482964 g / cm^3
# Si number density = 24.886285 Si / 1000 Ang^3
#
#
#
# Elastic Constant Matrix: (Units=GPa)
#
#
# Indices 1 2 3 4 5 6 
#
# 1 84.2193 -19.0435 -8.2582 -12.7237 -5.8451 -6.9092
# 2 -19.0435 55.1542 -0.6532 -2.4711 6.3023 -1.0050
# 3 -8.2582 -0.6532 69.9484 -12.0739 -8.4888 -10.8419
# 4 -12.7237 -2.4711 -12.0739 27.8647 -9.0260 1.1197
# 5 -5.8451 6.3023 -8.4888 -9.0260 44.0690 1.5920
# 6 -6.9092 -1.0050 -10.8419 1.1197 1.5920 31.3146
#
#
#
# Elastic Compliance Matrix: (Units=1/GPa)
#
#
# Indices 1 2 3 4 5 6 
#
# 1 0.016111 0.005712 0.005225 0.011381 0.004480 0.004912
# 2 0.005712 0.020492 0.001990 0.004905 -0.000874 0.002476
# 3 0.005225 0.001990 0.018961 0.012563 0.006381 0.007008
# 4 0.011381 0.004905 0.012563 0.051170 0.013546 0.004500
# 5 0.004480 -0.000874 0.006381 0.013546 0.027368 0.001294
# 6 0.004912 0.002476 0.007008 0.004500 0.001294 0.035297
#
#
# Mechanical properties :
#
#
# Convention : Reuss Voigt Hill
#
# Bulk Modulus (GPa) = 12.28223 17.04579 14.66401
# Shear Modulus (GPa) = 29.29397 36.46809 32.88103
#
# Velocity S-wave (km/s) = 3.43463 3.83219 3.63885
# Velocity P-wave (km/s) = 4.54697 5.14250 4.85388
#
# Compressibility (1/GPa) = 0.08141841
#
# Stress axis : x y z
#
# Youngs Moduli (GPa) = 62.06890 48.80038 52.74013
#
# Poissons Ratio (x) = -0.27876 -0.27557
# Poissons Ratio (y) = -0.35455 -0.10496
# Poissons Ratio (z) = -0.32431 -0.09712
#
# Static dielectric constant tensor:
#      x y z
#    x 1.973730 -0.015480 -0.028290 
#    y -0.015480 2.122520 -0.103250 
#    z -0.028290 -0.103250 2.107520 
# 
# From -- ./inp_files/511322.got.cif
#   From: 2010.05.17/outbox.cif.g08.bks.cpg/sg2_256_cif.got.tgz:511322.got - 2010.06.03 11:33:40.
