data_PCOD9031484
_publ_section_title
;
Structure prediction by ZEFSAII (Michael W. Deem and Ramdas Pophale) SiO2 
 PCOD9031484
Probable space group: P -1
;
_chemical_formula_sum "Si O2"
_cell_formula_units_Z 10
_cell_length_a 7.551150
_cell_length_b 8.545225
_cell_length_c 9.640041
_cell_angle_alpha 133.027980
_cell_angle_beta 119.316716
_cell_angle_gamma 54.234084
_cell_volume 364.615687
_symmetry_space_group_name_H-M "P -1"
_symmetry_group_IT_number 2
_symmetry_cell_setting 'triclinic'
loop_
_space_group_symop_operation_xyz
x,y,z
-x,-y,-z
loop_
_atom_site_type_symbol
_atom_site_label
_atom_site_fract_x
_atom_site_fract_y
_atom_site_fract_z
Si Si1 0.886101 0.351143 0.057856
Si Si2 0.477675 0.522428 0.668573
Si Si3 0.489407 0.199572 0.916504
Si Si4 0.778767 0.755519 0.626001
Si Si5 0.891851 0.079213 0.655119
O O1 0.694097 0.263644 0.977715
O O2 0.062438 0.309778 0.220174
O O3 0.743792 0.615924 0.118194
O O4 0.011421 0.184297 0.876357
O O5 0.500000 0.500000 0.500000
O O6 0.491593 0.747302 0.881636
O O7 0.262909 0.466174 0.578064
O O8 0.670910 0.306742 0.683141
O O9 0.551379 0.949371 0.720591
O O10 0.846817 0.879658 0.600249
O O11 0.000000 0.000000 0.500000
#
# Coordination Sequence:
#
# PCOD9031484 Si02
#       5
#     2   2   2   2   2
#     4   9  20  40  71  98 130 178 223 271 333 402
#     4  11  26  43  65 104 135 173 229 278 328 398
#     4   9  20  43  66  97 139 169 221 279 329 399
#     4  11  23  45  75  94 131 188 220 267 346 389
#     4  10  22  43  67 100 138 170 220 282 334 395
#
# _framework density 27.426137000000001
#
# number of rings (size 3 to 8) (size 9 to 14) (size 15 to 20)
#    0.000    2.000    0.000    4.200    5.600    1.600 
#    3.600    2.000    0.000    0.000    0.000    0.000 
#    0.000    0.000    0.000    0.000    0.000    0.000 
#
# Total GULP energy -56058.331160 kJ/mol
# GULP energy per Si atom -5605.833116 kJ/mol
# Density = 2.736371 g / cm^3
# Si number density = 27.426137 Si / 1000 Ang^3
#
#
#
# Elastic Constant Matrix: (Units=GPa)
#
#
# Indices 1 2 3 4 5 6 
#
# 1 72.0981 27.6722 47.5525 -4.4355 -18.5727 20.0055
# 2 27.6722 116.1192 53.2253 -11.1174 -6.2356 -6.2166
# 3 47.5525 53.2253 200.6527 -9.8386 -31.4890 4.7767
# 4 -4.4355 -11.1174 -9.8386 50.5675 2.9548 -1.8062
# 5 -18.5727 -6.2356 -31.4890 2.9548 54.3631 -0.1726
# 6 20.0055 -6.2166 4.7767 -1.8062 -0.1726 30.8490
#
#
#
# Elastic Compliance Matrix: (Units=1/GPa)
#
#
# Indices 1 2 3 4 5 6 
#
# 1 0.023535 -0.004788 -0.003062 -0.000479 0.005693 -0.015749
# 2 -0.004788 0.011130 -0.002124 0.001918 -0.001675 0.005780
# 3 -0.003062 -0.002124 0.006682 0.000435 0.002559 0.000563
# 4 -0.000479 0.001918 0.000435 0.020351 -0.000792 0.001817
# 5 0.005693 -0.001675 0.002559 -0.000792 0.021659 -0.004351
# 6 -0.015749 0.005780 0.000563 0.001817 -0.004351 0.043789
#
#
# Mechanical properties :
#
#
# Convention : Reuss Voigt Hill
#
# Bulk Modulus (GPa) = 46.73429 71.75224 59.24327
# Shear Modulus (GPa) = 32.41967 44.51726 38.46846
#
# Velocity S-wave (km/s) = 3.44186 4.03323 3.74922
# Velocity P-wave (km/s) = 5.73343 6.92156 6.35532
#
# Compressibility (1/GPa) = 0.02139756
#
# Stress axis : x y z
#
# Youngs Moduli (GPa) = 42.49038 89.85099 149.64610
#
# Poissons Ratio (x) = 0.43022 0.45829
# Poissons Ratio (y) = 0.20345 0.31784
# Poissons Ratio (z) = 0.13013 0.19084
#
# Static dielectric constant tensor:
#      x y z
#    x 2.231530 -0.009660 -0.034270 
#    y -0.009660 2.097620 0.034550 
#    z -0.034270 0.034550 2.170110 
# 
# From -- ./inp_files/146067.got.cif
#   From: 2010.05.17/outbox.cif.g08.bks.cpg/sg2_74_cif.got.tgz:146067.got - 2010.06.03 11:33:40.
