data_PCOD9031721
_publ_section_title
;
Structure prediction by ZEFSAII (Michael W. Deem and Ramdas Pophale) SiO2 
 PCOD9031721
Probable space group: P -1
;
_chemical_formula_sum "Si O2"
_cell_formula_units_Z 16
_cell_length_a 23.151677
_cell_length_b 9.866629
_cell_length_c 13.500800
_cell_angle_alpha 41.866790
_cell_angle_beta 148.299427
_cell_angle_gamma 152.288717
_cell_volume 753.131983
_symmetry_space_group_name_H-M "P -1"
_symmetry_group_IT_number 2
_symmetry_cell_setting 'triclinic'
loop_
_space_group_symop_operation_xyz
x,y,z
-x,-y,-z
loop_
_atom_site_type_symbol
_atom_site_label
_atom_site_fract_x
_atom_site_fract_y
_atom_site_fract_z
Si Si1 0.930127 0.511721 0.489503
Si Si2 0.442251 0.901107 0.859308
Si Si3 0.404099 0.405483 0.012153
Si Si4 0.969748 0.026995 0.300529
Si Si5 0.448912 0.648832 0.388414
Si Si6 0.656245 0.008923 0.687293
Si Si7 0.805287 0.495737 0.788539
Si Si8 0.975332 0.495540 0.782389
O O1 0.742791 0.292229 0.319281
O O2 0.959291 0.429166 0.679172
O O3 0.000000 0.500000 0.500000
O O4 0.002385 0.831286 0.443349
O O5 0.469668 0.703955 0.983397
O O6 0.535878 0.169350 0.775747
O O7 0.500000 0.000000 0.000000
O O8 0.217189 0.192512 0.839910
O O9 0.500000 0.500000 0.000000
O O10 0.411488 0.243665 0.195863
O O11 0.046033 0.219888 0.207667
O O12 0.038723 0.277628 0.345760
O O13 0.500000 0.500000 0.500000
O O14 0.560730 0.869143 0.521899
O O15 0.276097 0.441998 0.296723
O O16 0.682544 0.247299 0.661713
O O17 0.834006 0.211983 0.794833
O O18 0.865604 0.385632 0.002419
#
# Coordination Sequence:
#
# PCOD9031721 Si02
#       8
#     2   2   2   2   2   2   2   2
#     4  11  26  43  68  96 139 178 220 280 329 402
#     4  11  26  46  63  96 135 177 222 271 337 399
#     4  11  22  41  71 100 132 168 221 279 334 398
#     4  10  22  43  68 101 131 174 220 271 341 392
#     4  12  27  45  68  98 137 181 226 278 333 397
#     4  11  21  46  68 101 133 173 227 275 337 396
#     4  11  23  42  73  97 133 174 222 282 329 406
#     4  11  21  45  71  97 135 171 228 279 328 406
#
# _framework density 21.244616000000001
#
# number of rings (size 3 to 8) (size 9 to 14) (size 15 to 20)
#    0.000    1.000    3.750    3.000    3.500    0.000 
#    4.500    1.250    0.000    0.000    0.000    0.000 
#    0.000    0.000    0.000    0.000    0.000    0.000 
#
# Total GULP energy -89289.041371 kJ/mol
# GULP energy per Si atom -5580.565086 kJ/mol
# Density = 2.119626 g / cm^3
# Si number density = 21.244616 Si / 1000 Ang^3
#
#
#
# Elastic Constant Matrix: (Units=GPa)
#
#
# Indices 1 2 3 4 5 6 
#
# 1 207.7594 60.6154 52.5615 -8.8368 -16.0309 2.0821
# 2 60.6154 82.1038 26.0410 -17.5301 -13.6200 4.9936
# 3 52.5615 26.0410 61.6322 -1.7892 -28.4444 -6.5563
# 4 -8.8368 -17.5301 -1.7892 30.0946 2.3207 -4.7335
# 5 -16.0309 -13.6200 -28.4444 2.3207 39.2783 -4.4634
# 6 2.0821 4.9936 -6.5563 -4.7335 -4.4634 26.1127
#
#
#
# Elastic Compliance Matrix: (Units=1/GPa)
#
#
# Indices 1 2 3 4 5 6 
#
# 1 0.007287 -0.003925 -0.006209 -0.000597 -0.003078 -0.002024
# 2 -0.003925 0.018591 -0.003964 0.008972 0.001170 -0.002411
# 3 -0.006209 -0.003964 0.035430 -0.001653 0.023421 0.013852
# 4 -0.000597 0.008972 -0.001653 0.038968 -0.000067 0.004969
# 5 -0.003078 0.001170 0.023421 -0.000067 0.043079 0.013253
# 6 -0.002024 -0.002411 0.013852 0.004969 0.013253 0.045562
#
#
# Mechanical properties :
#
#
# Convention : Reuss Voigt Hill
#
# Bulk Modulus (GPa) = 30.20065 69.99236 50.09650
# Shear Modulus (GPa) = 21.91541 33.24896 27.58218
#
# Velocity S-wave (km/s) = 3.21530 3.96037 3.60712
# Velocity P-wave (km/s) = 5.29440 7.34371 6.40160
#
# Compressibility (1/GPa) = 0.03311187
#
# Stress axis : x y z
#
# Youngs Moduli (GPa) = 137.23622 53.78925 28.22475
#
# Poissons Ratio (x) = 0.21114 0.17525
# Poissons Ratio (y) = 0.53869 0.11187
# Poissons Ratio (z) = 0.85211 0.21320
#
# Static dielectric constant tensor:
#      x y z
#    x 1.756240 -0.007630 0.062120 
#    y -0.007630 1.814040 -0.040500 
#    z 0.062120 -0.040500 1.869820 
# 
# From -- ./inp_files/187829.got.cif
#   From: 2010.05.17/outbox.cif.g08.bks.cpg/sg2_94_cif.got.tgz:187829.got - 2010.06.03 11:33:40.
