data_PCOD9031207
_publ_section_title
;
Structure prediction by ZEFSAII (Michael W. Deem and Ramdas Pophale) SiO2 
 PCOD9031207
Probable space group: P -1
;
_chemical_formula_sum "Si O2"
_cell_formula_units_Z 12
_cell_length_a 11.531931
_cell_length_b 13.867695
_cell_length_c 6.641314
_cell_angle_alpha 74.269404
_cell_angle_beta 85.027415
_cell_angle_gamma 32.643308
_cell_volume 530.533809
_symmetry_space_group_name_H-M "P -1"
_symmetry_group_IT_number 2
_symmetry_cell_setting 'triclinic'
loop_
_space_group_symop_operation_xyz
x,y,z
-x,-y,-z
loop_
_atom_site_type_symbol
_atom_site_label
_atom_site_fract_x
_atom_site_fract_y
_atom_site_fract_z
Si Si1 0.193152 0.971583 0.427284
Si Si2 0.302472 0.112838 0.255933
Si Si3 0.833319 0.149441 0.122557
Si Si4 0.769098 0.782607 0.234083
Si Si5 0.883543 0.474650 0.346027
Si Si6 0.500715 0.397553 0.687683
O O1 0.186613 0.927663 0.674127
O O2 0.351540 0.787637 0.365681
O O3 0.280331 0.019006 0.401287
O O4 0.953082 0.142900 0.252316
O O5 0.101738 0.325164 0.257013
O O6 0.556711 0.964755 0.302063
O O7 0.250684 0.142409 0.009098
O O8 0.610628 0.335858 0.924896
O O9 0.000000 0.000000 0.000000
O O10 0.753071 0.675339 0.250288
O O11 0.003912 0.624532 0.397043
O O12 0.730394 0.492521 0.311866
O O13 0.500000 0.500000 0.500000
#
# Coordination Sequence:
#
# PCOD9031207 Si02
#       6
#     2   2   2   2   2   2
#     4  10  22  43  65  94 130 173 218 265 326 385
#     4  11  23  42  70  96 125 174 218 272 325 382
#     4   9  22  41  63  89 130 171 215 261 320 389
#     4  10  24  46  65  95 134 166 224 269 321 388
#     4  11  24  43  66  98 130 174 215 268 328 385
#     4  11  25  41  64  99 133 169 216 269 324 390
#
# _framework density 22.618725999999999
#
# number of rings (size 3 to 8) (size 9 to 14) (size 15 to 20)
#    0.000    1.667    1.667    1.000    9.333    3.333 
#    3.000    0.000    0.000    0.000    0.000    0.000 
#    0.000    0.000    0.000    0.000    0.000    0.000 
#
# Total GULP energy -67059.797319 kJ/mol
# GULP energy per Si atom -5588.316443 kJ/mol
# Density = 2.256725 g / cm^3
# Si number density = 22.618726 Si / 1000 Ang^3
#
#
#
# Elastic Constant Matrix: (Units=GPa)
#
#
# Indices 1 2 3 4 5 6 
#
# 1 103.0347 27.6911 56.2578 -16.6588 8.8425 -6.7532
# 2 27.6911 95.4490 25.7917 5.3444 0.8988 0.9108
# 3 56.2578 25.7917 140.2153 -5.9312 0.2063 -4.8823
# 4 -16.6588 5.3444 -5.9312 34.0749 -9.5055 4.6005
# 5 8.8425 0.8988 0.2063 -9.5055 20.2226 2.3900
# 6 -6.7532 0.9108 -4.8823 4.6005 2.3900 28.1721
#
#
#
# Elastic Compliance Matrix: (Units=1/GPa)
#
#
# Indices 1 2 3 4 5 6 
#
# 1 0.014631 -0.003187 -0.004974 0.005394 -0.003930 0.002201
# 2 -0.003187 0.011921 -0.001095 -0.003757 -0.000813 -0.000657
# 3 -0.004974 -0.001095 0.009332 -0.000107 0.002042 0.000305
# 4 0.005394 -0.003757 -0.000107 0.037961 0.016385 -0.006193
# 5 -0.003930 -0.000813 0.002042 0.016385 0.059868 -0.008316
# 6 0.002201 -0.000657 0.000305 -0.006193 -0.008316 0.037815
#
#
# Mechanical properties :
#
#
# Convention : Reuss Voigt Hill
#
# Bulk Modulus (GPa) = 57.55710 62.02003 59.78856
# Shear Modulus (GPa) = 25.53231 31.75781 28.64506
#
# Velocity S-wave (km/s) = 3.36343 3.75113 3.56256
# Velocity P-wave (km/s) = 6.37067 6.80004 6.58885
#
# Compressibility (1/GPa) = 0.01737405
#
# Stress axis : x y z
#
# Youngs Moduli (GPa) = 68.34728 83.88257 107.15940
#
# Poissons Ratio (x) = 0.26731 0.53297
# Poissons Ratio (y) = 0.21781 0.11732
# Poissons Ratio (z) = 0.33993 0.09184
#
# Static dielectric constant tensor:
#      x y z
#    x 1.797470 -0.033020 0.047030 
#    y -0.033020 1.920890 -0.009070 
#    z 0.047030 -0.009070 1.856950 
# 
# From -- ./inp_files/24509.got.cif
#   From: 2010.05.17/outbox.cif.g08.bks.cpg/sg2_13_cif.got.tgz:24509.got - 2010.06.03 11:33:40.
