data_PCOD9031102
_publ_section_title
;
Structure prediction by ZEFSAII (Michael W. Deem and Ramdas Pophale) SiO2 
 PCOD9031102
Probable space group: P -1
;
_chemical_formula_sum "Si O2"
_cell_formula_units_Z 15
_cell_length_a 8.743053
_cell_length_b 9.359285
_cell_length_c 12.644721
_cell_angle_alpha 127.814689
_cell_angle_beta 62.487012
_cell_angle_gamma 120.323364
_cell_volume 687.734435
_symmetry_space_group_name_H-M "P -1"
_symmetry_group_IT_number 2
_symmetry_cell_setting 'triclinic'
loop_
_space_group_symop_operation_xyz
x,y,z
-x,-y,-z
loop_
_atom_site_type_symbol
_atom_site_label
_atom_site_fract_x
_atom_site_fract_y
_atom_site_fract_z
Si Si1 0.332656 0.959983 0.454518
Si Si2 0.342264 0.546749 0.642924
Si Si3 0.218994 0.278515 0.743046
Si Si4 0.126610 0.000069 0.200175
Si Si5 0.017392 0.341300 0.503077
Si Si6 0.341535 0.297195 0.951291
Si Si7 0.000000 0.000000 0.000000
Si Si8 0.516758 0.983793 0.801930
O O1 0.183393 0.761933 0.437098
O O2 0.500000 0.000000 0.500000
O O3 0.246560 0.124058 0.582816
O O4 0.384056 0.973564 0.323197
O O5 0.500000 0.500000 0.500000
O O6 0.317170 0.472113 0.737734
O O7 0.156570 0.440508 0.594685
O O8 0.379122 0.771825 0.738020
O O9 0.311770 0.264911 0.819519
O O10 0.004015 0.200410 0.800441
O O11 0.088448 0.177705 0.353226
O O12 0.333824 0.010799 0.155666
O O13 0.066915 0.013291 0.105957
O O14 0.000000 0.500000 0.500000
O O15 0.139486 0.230763 0.036030
O O16 0.415258 0.138814 0.910565
O O17 0.500000 0.500000 0.000000
#
# Coordination Sequence:
#
# PCOD9031102 Si02
#       8
#     2   2   2   2   2   2   1   2
#     4  11  20  37  66  99 138 175 216 268 343 422
#     4  12  23  38  65 107 145 171 218 274 349 422
#     4  10  22  43  64  96 141 173 216 281 340 413
#     4  10  23  45  66  96 138 180 231 286 332 408
#     4  11  24  37  64 104 141 181 217 271 349 414
#     4  11  27  49  71  95 133 185 235 288 344 400
#     4  10  26  50  70  96 132 180 242 292 338 402
#     4  12  24  42  70 103 135 176 224 283 344 411
#
# _framework density 21.810744
#
# number of rings (size 3 to 8) (size 9 to 14) (size 15 to 20)
#    0.000    1.067    4.000    1.600    5.600    3.733 
#    2.400    1.333    0.000    0.000    0.000    0.000 
#    0.000    0.000    0.000    0.000    0.000    0.000 
#
# Total GULP energy -83514.379398 kJ/mol
# GULP energy per Si atom -5567.625293 kJ/mol
# Density = 2.176110 g / cm^3
# Si number density = 21.810744 Si / 1000 Ang^3
#
#
#
# Elastic Constant Matrix: (Units=GPa)
#
#
# Indices 1 2 3 4 5 6 
#
# 1 82.3676 22.0305 10.3605 7.0574 20.2862 11.3414
# 2 22.0305 181.3244 17.2977 1.0204 -1.7351 14.6535
# 3 10.3605 17.2977 28.9824 -4.0258 11.1910 4.5870
# 4 7.0574 1.0204 -4.0258 40.9267 -1.8805 8.4907
# 5 20.2862 -1.7351 11.1910 -1.8805 20.7093 2.7776
# 6 11.3414 14.6535 4.5870 8.4907 2.7776 43.4330
#
#
#
# Elastic Compliance Matrix: (Units=1/GPa)
#
#
# Indices 1 2 3 4 5 6 
#
# 1 0.017670 -0.002337 0.002209 -0.003164 -0.018685 -0.002245
# 2 -0.002337 0.006442 -0.004943 0.000324 0.005727 -0.001471
# 3 0.002209 -0.004943 0.048496 0.003845 -0.028034 -0.002990
# 4 -0.003164 0.000324 0.003845 0.026611 0.004157 -0.005157
# 5 -0.018685 0.005727 -0.028034 0.004157 0.082622 -0.000189
# 6 -0.002245 -0.001471 -0.002990 -0.005157 -0.000189 0.025443
#
#
# Mechanical properties :
#
#
# Convention : Reuss Voigt Hill
#
# Bulk Modulus (GPa) = 16.00867 43.56133 29.78500
# Shear Modulus (GPa) = 20.98643 37.21284 29.09964
#
# Velocity S-wave (km/s) = 3.10531 4.13506 3.65662
# Velocity P-wave (km/s) = 4.49589 6.54325 5.61369
#
# Compressibility (1/GPa) = 0.06246614
#
# Stress axis : x y z
#
# Youngs Moduli (GPa) = 56.59281 155.22347 20.62010
#
# Poissons Ratio (x) = 0.36278 -0.04555
# Poissons Ratio (y) = 0.13226 0.10193
# Poissons Ratio (z) = -0.12500 0.76728
#
# Static dielectric constant tensor:
#      x y z
#    x 1.856280 0.052700 -0.059990 
#    y 0.052700 1.864910 -0.000120 
#    z -0.059990 -0.000120 1.746690 
# 
# From -- ./inp_files/160265.got.cif
#   From: 2010.05.17/outbox.cif.g08.bks.cpg/sg2_81_cif.got.tgz:160265.got - 2010.06.03 11:33:40.
