data_PCOD9031682
_publ_section_title
;
Structure prediction by ZEFSAII (Michael W. Deem and Ramdas Pophale) SiO2 
 PCOD9031682
Probable space group: P -1
;
_chemical_formula_sum "Si O2"
_cell_formula_units_Z 10
_cell_length_a 11.768597
_cell_length_b 11.423145
_cell_length_c 9.847256
_cell_angle_alpha 71.502647
_cell_angle_beta 131.771596
_cell_angle_gamma 147.343658
_cell_volume 424.065241
_symmetry_space_group_name_H-M "P -1"
_symmetry_group_IT_number 2
_symmetry_cell_setting 'triclinic'
loop_
_space_group_symop_operation_xyz
x,y,z
-x,-y,-z
loop_
_atom_site_type_symbol
_atom_site_label
_atom_site_fract_x
_atom_site_fract_y
_atom_site_fract_z
Si Si1 0.601138 0.715192 0.776849
Si Si2 0.509929 0.149031 0.911488
Si Si3 0.121700 0.471420 0.696789
Si Si4 0.644115 0.895466 0.479403
Si Si5 0.223057 0.263359 0.479168
O O1 0.431725 0.460567 0.704488
O O2 0.501116 0.731400 0.563403
O O3 0.785428 0.418311 0.120335
O O4 0.000000 0.000000 0.000000
O O5 0.578906 0.216816 0.781623
O O6 0.134901 0.927661 0.733192
O O7 0.500000 0.000000 0.000000
O O8 0.545603 0.336312 0.184262
O O9 0.000000 0.500000 0.500000
O O10 0.867424 0.173321 0.597724
O O11 0.831482 0.917879 0.540608
O O12 0.500000 0.500000 0.500000
#
# Coordination Sequence:
#
# PCOD9031682 Si02
#       5
#     2   2   2   2   2
#     4  11  25  44  71 104 136 175 235 284 330 410
#     4  12  24  46  70  99 141 181 223 285 339 406
#     4  12  25  46  69 101 141 177 230 283 337 406
#     4  11  25  45  72 100 139 184 225 276 353 396
#     4  10  22  43  67  99 136 175 227 274 334 406
#
# _framework density 23.581275000000002
#
# number of rings (size 3 to 8) (size 9 to 14) (size 15 to 20)
#    0.000    0.800    4.000    3.000    2.800    2.400 
#    0.000    5.000    0.000    0.000    0.000    0.000 
#    0.000    0.000    0.000    0.000    0.000    0.000 
#
# Total GULP energy -55883.206099 kJ/mol
# GULP energy per Si atom -5588.320610 kJ/mol
# Density = 2.352760 g / cm^3
# Si number density = 23.581275 Si / 1000 Ang^3
#
#
#
# Elastic Constant Matrix: (Units=GPa)
#
#
# Indices 1 2 3 4 5 6 
#
# 1 68.2460 29.1544 22.0025 6.9097 -26.6582 -24.8580
# 2 29.1544 136.4883 26.9925 6.4740 -24.5327 -30.3452
# 3 22.0025 26.9925 75.8256 11.8588 -39.6882 -10.0583
# 4 6.9097 6.4740 11.8588 46.9826 -2.5555 -13.3339
# 5 -26.6582 -24.5327 -39.6882 -2.5555 55.5476 3.2146
# 6 -24.8580 -30.3452 -10.0583 -13.3339 3.2146 53.5521
#
#
#
# Elastic Compliance Matrix: (Units=1/GPa)
#
#
# Indices 1 2 3 4 5 6 
#
# 1 0.022197 -0.000974 0.000330 -0.000062 0.009923 0.009202
# 2 -0.000974 0.009200 -0.001157 0.000594 0.002534 0.004539
# 3 0.000330 -0.001157 0.022454 -0.004226 0.015396 0.001739
# 4 -0.000062 0.000594 -0.004226 0.023743 -0.002016 0.005547
# 5 0.009923 0.002534 0.015396 -0.002016 0.034423 0.006365
# 6 0.009202 0.004539 0.001739 0.005547 0.006365 0.026843
#
#
# Mechanical properties :
#
#
# Convention : Reuss Voigt Hill
#
# Bulk Modulus (GPa) = 19.90103 48.53987 34.22045
# Shear Modulus (GPa) = 31.40493 44.71051 38.05772
#
# Velocity S-wave (km/s) = 3.65331 4.35905 4.02169
# Velocity P-wave (km/s) = 5.12379 6.77967 6.00904
#
# Compressibility (1/GPa) = 0.05024866
#
# Stress axis : x y z
#
# Youngs Moduli (GPa) = 45.05157 108.69565 44.53545
#
# Poissons Ratio (x) = 0.10589 -0.01470
# Poissons Ratio (y) = 0.04389 0.05152
# Poissons Ratio (z) = -0.01487 0.12575
#
# Static dielectric constant tensor:
#      x y z
#    x 1.978920 -0.027140 0.038510 
#    y -0.027140 1.977560 -0.083920 
#    z 0.038510 -0.083920 1.948830 
# 
# From -- ./inp_files/448689.got.cif
#   From: 2010.05.17/outbox.cif.g08.bks.cpg/sg2_225_cif.got.tgz:448689.got - 2010.06.03 11:33:40.
