data_PCOD9031365
_publ_section_title
;
Structure prediction by ZEFSAII (Michael W. Deem and Ramdas Pophale) SiO2 
 PCOD9031365
Probable space group: P -1
;
_chemical_formula_sum "Si O2"
_cell_formula_units_Z 10
_cell_length_a 13.986485
_cell_length_b 11.837698
_cell_length_c 8.171301
_cell_angle_alpha 66.963847
_cell_angle_beta 117.311002
_cell_angle_gamma 158.988922
_cell_volume 428.092231
_symmetry_space_group_name_H-M "P -1"
_symmetry_group_IT_number 2
_symmetry_cell_setting 'triclinic'
loop_
_space_group_symop_operation_xyz
x,y,z
-x,-y,-z
loop_
_atom_site_type_symbol
_atom_site_label
_atom_site_fract_x
_atom_site_fract_y
_atom_site_fract_z
Si Si1 0.180149 0.808474 0.498387
Si Si2 0.605770 0.229822 0.857141
Si Si3 0.119222 0.870279 0.746735
Si Si4 0.096535 0.090547 0.765177
Si Si5 0.310739 0.178115 0.207700
O O1 0.049869 0.748380 0.580906
O O2 0.000000 0.500000 0.500000
O O3 0.474087 0.081409 0.656341
O O4 0.225180 0.948574 0.305747
O O5 0.928629 0.595037 0.880861
O O6 0.444698 0.176178 0.843679
O O7 0.500000 0.000000 0.000000
O O8 0.060973 0.951737 0.676026
O O9 0.360064 0.455450 0.738279
O O10 0.188901 0.102367 0.986234
O O11 0.827488 0.882626 0.725716
#
# Coordination Sequence:
#
# PCOD9031365 Si02
#       5
#     2   2   2   2   2
#     4  10  26  43  64  99 130 168 212 268 314 376
#     4  10  23  41  62  96 127 172 212 253 321 375
#     4  10  23  41  65  95 122 173 209 263 318 372
#     4  10  22  43  66  93 127 170 210 260 319 381
#     4  10  23  41  65  95 128 166 212 262 317 374
#
# _framework density 23.359451
#
# number of rings (size 3 to 8) (size 9 to 14) (size 15 to 20)
#    1.200    0.800    0.000    1.800    5.600    2.400 
#    0.000    0.000    0.000    0.000    0.000    0.000 
#    0.000    0.000    0.000    0.000    0.000    0.000 
#
# Total GULP energy -55871.088543 kJ/mol
# GULP energy per Si atom -5587.108854 kJ/mol
# Density = 2.330628 g / cm^3
# Si number density = 23.359451 Si / 1000 Ang^3
#
#
#
# Elastic Constant Matrix: (Units=GPa)
#
#
# Indices 1 2 3 4 5 6 
#
# 1 65.6318 17.3665 26.0201 -5.6706 -7.6472 -18.3359
# 2 17.3665 86.4328 35.1969 -36.1337 -8.7346 -6.1145
# 3 26.0201 35.1969 66.0971 -25.4768 11.0186 -5.5394
# 4 -5.6706 -36.1337 -25.4768 39.4644 -10.2418 4.0788
# 5 -7.6472 -8.7346 11.0186 -10.2418 31.6901 -5.1138
# 6 -18.3359 -6.1145 -5.5394 4.0788 -5.1138 50.4403
#
#
#
# Elastic Compliance Matrix: (Units=1/GPa)
#
#
# Indices 1 2 3 4 5 6 
#
# 1 0.022822 0.001306 -0.011060 -0.000721 0.010834 0.008396
# 2 0.001306 0.026867 -0.008522 0.023891 0.018853 0.002775
# 3 -0.011060 -0.008522 0.028143 0.005641 -0.013593 -0.003797
# 4 -0.000721 0.023891 0.005641 0.056592 0.022901 0.000999
# 5 0.010834 0.018853 -0.013593 0.022901 0.052822 0.008235
# 6 0.008396 0.002775 -0.003797 0.000999 0.008235 0.023551
#
#
# Mechanical properties :
#
#
# Convention : Reuss Voigt Hill
#
# Bulk Modulus (GPa) = 24.22517 41.70318 32.96418
# Shear Modulus (GPa) = 19.14900 33.62416 26.38658
#
# Velocity S-wave (km/s) = 2.86624 3.79809 3.36458
# Velocity P-wave (km/s) = 4.62027 6.09307 5.40705
#
# Compressibility (1/GPa) = 0.04127938
#
# Stress axis : x y z
#
# Youngs Moduli (GPa) = 43.81819 37.22015 35.53249
#
# Poissons Ratio (x) = -0.04860 0.39298
# Poissons Ratio (y) = -0.05721 0.30282
# Poissons Ratio (z) = 0.48462 0.31720
#
# Static dielectric constant tensor:
#      x y z
#    x 1.889500 0.011090 -0.006000 
#    y 0.011090 1.835110 0.007310 
#    z -0.006000 0.007310 1.943130 
# 
# From -- ./inp_files/17929.got.cif
#   From: 2010.05.17/outbox.cif.g08.bks.cpg/sg2_9_cif.got.tgz:17929.got - 2010.06.03 11:33:40.
