data_PCOD9031272
_publ_section_title
;
Structure prediction by ZEFSAII (Michael W. Deem and Ramdas Pophale) SiO2 
 PCOD9031272
Probable space group: P -1
;
_chemical_formula_sum "Si O2"
_cell_formula_units_Z 16
_cell_length_a 8.663587
_cell_length_b 9.167870
_cell_length_c 12.686941
_cell_angle_alpha 69.447105
_cell_angle_beta 74.534557
_cell_angle_gamma 49.099969
_cell_volume 712.213628
_symmetry_space_group_name_H-M "P -1"
_symmetry_group_IT_number 2
_symmetry_cell_setting 'triclinic'
loop_
_space_group_symop_operation_xyz
x,y,z
-x,-y,-z
loop_
_atom_site_type_symbol
_atom_site_label
_atom_site_fract_x
_atom_site_fract_y
_atom_site_fract_z
Si Si1 0.083531 0.419917 0.388973
Si Si2 0.688561 0.030605 0.557116
Si Si3 0.355418 0.389906 0.656959
Si Si4 0.207248 0.386042 0.059666
Si Si5 0.561889 0.196403 0.882947
Si Si6 0.313264 0.520850 0.189231
Si Si7 0.680700 0.273582 0.319488
Si Si8 0.895210 0.860035 0.774972
O O1 0.149410 0.543146 0.292698
O O2 0.000000 0.500000 0.500000
O O3 0.885322 0.469026 0.353859
O O4 0.262795 0.180298 0.418624
O O5 0.467637 0.228851 0.583702
O O6 0.747410 0.092112 0.427633
O O7 0.817933 0.991085 0.649742
O O8 0.424750 0.266517 0.784193
O O9 0.411982 0.537078 0.632575
O O10 0.245189 0.519587 0.084362
O O11 0.173979 0.276732 0.183100
O O12 0.412246 0.234845 0.993265
O O13 0.000000 0.500000 0.000000
O O14 0.633690 0.330390 0.850826
O O15 0.772056 0.984303 0.870078
O O16 0.522484 0.318233 0.247434
O O17 0.867466 0.247112 0.234478
#
# Coordination Sequence:
#
# PCOD9031272 Si02
#       8
#     2   2   2   2   2   2   2   2
#     4  12  25  40  63  97 143 179 228 267 333 402
#     4  11  23  41  68  98 136 184 223 267 332 400
#     4  10  22  43  65  98 133 183 227 273 330 402
#     4  12  23  46  72  91 129 179 223 280 347 392
#     4  10  24  42  69  98 130 173 225 285 334 390
#     4  11  24  44  64 101 133 172 228 274 333 405
#     4  11  22  41  68  95 139 178 218 276 339 395
#     4  11  23  43  67 101 131 173 230 269 334 414
#
# _framework density 22.465170000000001
#
# number of rings (size 3 to 8) (size 9 to 14) (size 15 to 20)
#    0.000    1.000    2.500    4.500    1.750    3.000 
#    0.000    3.750    0.000    0.000    0.000    0.000 
#    0.000    0.000    0.000    0.000    0.000    0.000 
#
# Total GULP energy -89302.748931 kJ/mol
# GULP energy per Si atom -5581.421808 kJ/mol
# Density = 2.241404 g / cm^3
# Si number density = 22.465170 Si / 1000 Ang^3
#
#
#
# Elastic Constant Matrix: (Units=GPa)
#
#
# Indices 1 2 3 4 5 6 
#
# 1 103.9172 21.3569 27.7745 9.5331 6.7177 5.1730
# 2 21.3569 97.6391 21.4128 16.9483 -11.1601 -8.1615
# 3 27.7745 21.4128 68.5963 16.8837 -9.1782 6.8081
# 4 9.5331 16.9483 16.8837 35.9239 -0.1497 -2.5105
# 5 6.7177 -11.1601 -9.1782 -0.1497 30.6528 2.6863
# 6 5.1730 -8.1615 6.8081 -2.5105 2.6863 20.2308
#
#
#
# Elastic Compliance Matrix: (Units=1/GPa)
#
#
# Indices 1 2 3 4 5 6 
#
# 1 0.011657 -0.002230 -0.004425 -0.000106 -0.004534 -0.001802
# 2 -0.002230 0.012807 -0.002088 -0.004075 0.004033 0.005398
# 3 -0.004425 -0.002088 0.020873 -0.008229 0.007182 -0.008710
# 4 -0.000106 -0.004075 -0.008229 0.034053 -0.004279 0.005946
# 5 -0.004534 0.004033 0.007182 -0.004279 0.037668 -0.005163
# 6 -0.001802 0.005398 -0.008710 0.005946 -0.005163 0.056423
#
#
# Mechanical properties :
#
#
# Convention : Reuss Voigt Hill
#
# Bulk Modulus (GPa) = 35.90680 45.69345 40.80013
# Shear Modulus (GPa) = 24.96898 30.66873 27.81885
#
# Velocity S-wave (km/s) = 3.33746 3.69883 3.52278
# Velocity P-wave (km/s) = 5.55604 6.21495 5.89471
#
# Compressibility (1/GPa) = 0.02784988
#
# Stress axis : x y z
#
# Youngs Moduli (GPa) = 85.78817 78.08237 47.90979
#
# Poissons Ratio (x) = 0.17409 0.21202
# Poissons Ratio (y) = 0.19127 0.10004
# Poissons Ratio (z) = 0.37965 0.16305
#
# Static dielectric constant tensor:
#      x y z
#    x 1.802150 -0.008220 0.014800 
#    y -0.008220 1.912590 0.016200 
#    z 0.014800 0.016200 1.842420 
# 
# From -- ./inp_files/492494.got.cif
#   From: 2010.05.17/outbox.cif.g08.bks.cpg/sg2_247_cif.got.tgz:492494.got - 2010.06.03 11:33:40.
