data_PCOD9031403
_publ_section_title
;
Structure prediction by ZEFSAII (Michael W. Deem and Ramdas Pophale) SiO2 
 PCOD9031403
Probable space group: P -1
;
_chemical_formula_sum "Si O2"
_cell_formula_units_Z 16
_cell_length_a 11.230575
_cell_length_b 6.786570
_cell_length_c 12.836265
_cell_angle_alpha 52.038807
_cell_angle_beta 75.678818
_cell_angle_gamma 58.144175
_cell_volume 650.791347
_symmetry_space_group_name_H-M "P -1"
_symmetry_group_IT_number 2
_symmetry_cell_setting 'triclinic'
loop_
_space_group_symop_operation_xyz
x,y,z
-x,-y,-z
loop_
_atom_site_type_symbol
_atom_site_label
_atom_site_fract_x
_atom_site_fract_y
_atom_site_fract_z
Si Si1 0.279729 0.304654 0.418982
Si Si2 0.895269 0.737016 0.815572
Si Si3 0.270536 0.597354 0.988720
Si Si4 0.787267 0.422810 0.218093
Si Si5 0.493580 0.031087 0.861685
Si Si6 0.526098 0.762377 0.429989
Si Si7 0.853408 0.002163 0.522281
Si Si8 0.720554 0.175364 0.870850
O O1 0.325309 0.340862 0.511809
O O2 0.141655 0.274038 0.445282
O O3 0.284833 0.541132 0.268550
O O4 0.401460 0.993673 0.453939
O O5 0.833174 0.522200 0.910669
O O6 0.818012 0.959457 0.663636
O O7 0.060735 0.597684 0.804668
O O8 0.856868 0.911272 0.875205
O O9 0.274612 0.792452 0.016753
O O10 0.223977 0.717994 0.842841
O O11 0.422978 0.311914 0.035101
O O12 0.662595 0.749637 0.136019
O O13 0.769269 0.266177 0.374350
O O14 0.484046 0.081911 0.724984
O O15 0.592259 0.144516 0.857741
O O16 0.500000 0.500000 0.500000
O O17 0.000000 0.000000 0.500000
#
# Coordination Sequence:
#
# PCOD9031403 Si02
#       8
#     2   2   2   2   2   2   2   2
#     4  11  21  37  65  98 131 174 218 270 335 386
#     4  10  23  46  70  94 126 177 229 272 320 397
#     4  11  23  45  69  94 128 181 226 263 328 402
#     4  11  25  42  66  96 140 172 212 278 341 386
#     4  11  23  40  65 100 134 169 217 281 333 385
#     4  11  21  34  64 100 130 166 223 274 326 396
#     4  10  22  43  66  95 134 173 218 275 331 387
#     4  11  22  40  72  95 128 175 229 267 318 402
#
# _framework density 24.585452
#
# number of rings (size 3 to 8) (size 9 to 14) (size 15 to 20)
#    0.000    1.250    3.750    2.250    3.500    1.000 
#    0.000    8.750    0.000    0.000    0.000    0.000 
#    0.000    0.000    0.000    0.000    0.000    0.000 
#
# Total GULP energy -89524.432400 kJ/mol
# GULP energy per Si atom -5595.277025 kJ/mol
# Density = 2.452949 g / cm^3
# Si number density = 24.585452 Si / 1000 Ang^3
#
#
#
# Elastic Constant Matrix: (Units=GPa)
#
#
# Indices 1 2 3 4 5 6 
#
# 1 123.8721 48.4863 25.9870 8.0482 -7.2810 8.4900
# 2 48.4863 106.5819 25.3773 9.9279 -7.5071 31.4581
# 3 25.9870 25.3773 135.2404 24.6020 23.9693 17.2794
# 4 8.0482 9.9279 24.6020 47.9624 9.6937 2.2417
# 5 -7.2810 -7.5071 23.9693 9.6937 38.5275 11.8883
# 6 8.4900 31.4581 17.2794 2.2417 11.8883 44.5825
#
#
#
# Elastic Compliance Matrix: (Units=1/GPa)
#
#
# Indices 1 2 3 4 5 6 
#
# 1 0.010193 -0.004552 -0.001506 -0.000393 0.001631 0.001439
# 2 -0.004552 0.016060 -0.001461 -0.002778 0.007506 -0.011761
# 3 -0.001506 -0.001461 0.009620 -0.003231 -0.005500 -0.000782
# 4 -0.000393 -0.002778 -0.003231 0.024151 -0.005799 0.003620
# 5 0.001631 0.007506 -0.005500 -0.005799 0.036601 -0.012944
# 6 0.001439 -0.011761 -0.000782 0.003620 -0.012944 0.034027
#
#
# Mechanical properties :
#
#
# Convention : Reuss Voigt Hill
#
# Bulk Modulus (GPa) = 47.99571 62.82173 55.40872
# Shear Modulus (GPa) = 32.75763 43.93738 38.34751
#
# Velocity S-wave (km/s) = 3.65416 4.23203 3.95367
# Velocity P-wave (km/s) = 6.11296 7.03477 6.59000
#
# Compressibility (1/GPa) = 0.02083519
#
# Stress axis : x y z
#
# Youngs Moduli (GPa) = 98.10426 62.26719 103.94620
#
# Poissons Ratio (x) = 0.28343 0.15655
# Poissons Ratio (y) = 0.44656 0.15188
# Poissons Ratio (z) = 0.14775 0.09098
#
# Static dielectric constant tensor:
#      x y z
#    x 2.050280 0.003130 -0.001740 
#    y 0.003130 1.930270 0.013660 
#    z -0.001740 0.013660 1.982420 
# 
# From -- ./inp_files/409834.got.cif
#   From: 2010.05.17/outbox.cif.g08.bks.cpg/sg2_205_cif.got.tgz:409834.got - 2010.06.03 11:33:40.
