data_PCOD9031871
_publ_section_title
;
Structure prediction by ZEFSAII (Michael W. Deem and Ramdas Pophale) SiO2 
 PCOD9031871
Probable space group: P -1
;
_chemical_formula_sum "Si O2"
_cell_formula_units_Z 16
_cell_length_a 18.815175
_cell_length_b 5.807852
_cell_length_c 9.755714
_cell_angle_alpha 122.682406
_cell_angle_beta 46.543740
_cell_angle_gamma 117.871983
_cell_volume 643.228306
_symmetry_space_group_name_H-M "P -1"
_symmetry_group_IT_number 2
_symmetry_cell_setting 'triclinic'
loop_
_space_group_symop_operation_xyz
x,y,z
-x,-y,-z
loop_
_atom_site_type_symbol
_atom_site_label
_atom_site_fract_x
_atom_site_fract_y
_atom_site_fract_z
Si Si1 0.347579 0.889740 0.504571
Si Si2 0.349922 0.484924 0.809721
Si Si3 0.280985 0.996528 0.035345
Si Si4 0.842011 0.518854 0.269672
Si Si5 0.022771 0.325617 0.112746
Si Si6 0.472779 0.421651 0.854930
Si Si7 0.759783 0.083596 0.620433
Si Si8 0.150033 0.352016 0.207980
O O1 0.248271 0.724457 0.653529
O O2 0.439670 0.734796 0.361324
O O3 0.371231 0.208721 0.620367
O O4 0.321331 0.881786 0.374975
O O5 0.441066 0.604325 0.829439
O O6 0.242137 0.398714 0.994985
O O7 0.323032 0.733464 0.833753
O O8 0.283481 0.974412 0.189047
O O9 0.174001 0.078565 0.166083
O O10 0.365676 0.239193 0.956233
O O11 0.809361 0.818267 0.430474
O O12 0.929241 0.468096 0.241472
O O13 0.890121 0.531627 0.058754
O O14 0.056000 0.338972 0.231018
O O15 0.000000 0.000000 0.000000
O O16 0.500000 0.500000 0.000000
O O17 0.832074 0.377061 0.633265
#
# Coordination Sequence:
#
# PCOD9031871 Si02
#       8
#     2   2   2   2   2   2   2   2
#     4  12  25  43  66  99 138 175 225 278 327 398
#     4  10  23  41  65  98 132 177 227 272 331 396
#     4  10  23  43  67  96 135 181 221 273 332 382
#     4  11  25  45  69  98 133 174 217 276 341 393
#     4  11  25  45  71  99 131 173 222 275 338 405
#     4  11  23  41  66  98 137 179 228 274 325 395
#     4  11  23  41  67  98 133 179 223 267 331 397
#     4  10  22  43  68  97 133 170 220 278 332 399
#
# _framework density 24.874524999999998
#
# number of rings (size 3 to 8) (size 9 to 14) (size 15 to 20)
#    0.000    1.250    0.000    6.375    0.000   15.000 
#    0.000    4.375    0.000    2.250    0.000    0.000 
#    0.000    0.000    0.000    0.000    0.000    0.000 
#
# Total GULP energy -89469.473578 kJ/mol
# GULP energy per Si atom -5591.842099 kJ/mol
# Density = 2.481791 g / cm^3
# Si number density = 24.874525 Si / 1000 Ang^3
#
#
#
# Elastic Constant Matrix: (Units=GPa)
#
#
# Indices 1 2 3 4 5 6 
#
# 1 205.4099 32.9853 30.8912 11.4130 0.8463 -33.9906
# 2 32.9853 61.1099 5.8482 18.4988 -5.1122 -15.9699
# 3 30.8912 5.8482 57.2619 -0.9694 -9.7733 -4.8125
# 4 11.4130 18.4988 -0.9694 48.8281 -5.0033 -1.5591
# 5 0.8463 -5.1122 -9.7733 -5.0033 43.5791 6.9104
# 6 -33.9906 -15.9699 -4.8125 -1.5591 6.9104 35.8399
#
#
#
# Elastic Compliance Matrix: (Units=1/GPa)
#
#
# Indices 1 2 3 4 5 6 
#
# 1 0.006595 -0.001700 -0.003295 -0.000999 -0.002038 0.005404
# 2 -0.001700 0.021630 -0.000727 -0.007536 0.000348 0.007533
# 3 -0.003295 -0.000727 0.020056 0.001899 0.004953 -0.001628
# 4 -0.000999 -0.007536 0.001899 0.023785 0.002858 -0.003567
# 5 -0.002038 0.000348 0.004953 0.002858 0.025399 -0.005886
# 6 0.005404 0.007533 -0.001628 -0.003567 -0.005886 0.037145
#
#
# Mechanical properties :
#
#
# Convention : Reuss Voigt Hill
#
# Bulk Modulus (GPa) = 27.14649 51.47011 39.30830
# Shear Modulus (GPa) = 31.57891 42.58655 37.08273
#
# Velocity S-wave (km/s) = 3.56691 4.14219 3.86527
# Velocity P-wave (km/s) = 5.28213 6.60407 5.97974
#
# Compressibility (1/GPa) = 0.03683718
#
# Stress axis : x y z
#
# Youngs Moduli (GPa) = 151.62955 46.23180 49.86050
#
# Poissons Ratio (x) = 0.07861 0.16428
# Poissons Ratio (y) = 0.25781 0.03625
# Poissons Ratio (z) = 0.49958 0.03361
#
# Static dielectric constant tensor:
#      x y z
#    x 2.062210 -0.129300 0.089370 
#    y -0.129300 2.155280 -0.009310 
#    z 0.089370 -0.009310 2.016920 
# 
# From -- ./inp_files/324094.got.cif
#   From: 2010.05.17/outbox.cif.g08.bks.cpg/sg2_163_cif.got.tgz:324094.got - 2010.06.03 11:33:40.
