data_PCOD9031697
_publ_section_title
;
Structure prediction by ZEFSAII (Michael W. Deem and Ramdas Pophale) SiO2 
 PCOD9031697
Probable space group: P -1
;
_chemical_formula_sum "Si O2"
_cell_formula_units_Z 14
_cell_length_a 11.965522
_cell_length_b 17.839892
_cell_length_c 10.026948
_cell_angle_alpha 36.878494
_cell_angle_beta 48.352999
_cell_angle_gamma 28.906221
_cell_volume 616.170634
_symmetry_space_group_name_H-M "P -1"
_symmetry_group_IT_number 2
_symmetry_cell_setting 'triclinic'
loop_
_space_group_symop_operation_xyz
x,y,z
-x,-y,-z
loop_
_atom_site_type_symbol
_atom_site_label
_atom_site_fract_x
_atom_site_fract_y
_atom_site_fract_z
Si Si1 0.199415 0.268126 0.033838
Si Si2 0.719902 0.183621 0.457707
Si Si3 0.796495 0.036785 0.143833
Si Si4 0.880612 0.319167 0.021272
Si Si5 0.457373 0.247558 0.348574
Si Si6 0.132617 0.287426 0.373125
Si Si7 0.336654 0.921792 0.096763
O O1 0.460150 0.108462 0.999249
O O2 0.028557 0.277932 0.087423
O O3 0.082490 0.477895 0.791887
O O4 0.208320 0.241494 0.223415
O O5 0.609973 0.146363 0.505018
O O6 0.634249 0.211778 0.634117
O O7 0.694554 0.335348 0.195308
O O8 0.000000 0.000000 0.500000
O O9 0.900804 0.834106 0.386058
O O10 0.636314 0.180694 0.188990
O O11 0.644667 0.126522 0.002846
O O12 0.000000 0.000000 0.000000
O O13 0.742682 0.525116 0.781590
O O14 0.077296 0.140142 0.020851
O O15 0.326807 0.217227 0.421832
#
# Coordination Sequence:
#
# PCOD9031697 Si02
#       7
#     2   2   2   2   2   2   2
#     4  10  22  43  68 100 130 173 222 274 325 388
#     4  10  23  41  65  96 135 176 215 270 334 386
#     4  12  26  42  67  98 132 171 225 276 325 390
#     4  10  23  41  69  94 138 175 219 269 333 393
#     4  11  23  45  68  94 133 184 216 263 338 397
#     4  10  24  43  68  96 135 175 218 269 337 390
#     4  11  24  41  63 103 130 170 225 274 324 385
#
# _framework density 22.720979
#
# number of rings (size 3 to 8) (size 9 to 14) (size 15 to 20)
#    0.000    1.429    1.429    3.000    6.000    3.429 
#    0.000    4.286    0.000    0.000    0.000    0.000 
#    0.000    0.000    0.000    0.000    0.000    0.000 
#
# Total GULP energy -78220.407915 kJ/mol
# GULP energy per Si atom -5587.171994 kJ/mol
# Density = 2.266927 g / cm^3
# Si number density = 22.720979 Si / 1000 Ang^3
#
#
#
# Elastic Constant Matrix: (Units=GPa)
#
#
# Indices 1 2 3 4 5 6 
#
# 1 89.0263 -3.2021 35.6708 -4.4918 4.1672 -27.6103
# 2 -3.2021 40.4906 25.0696 0.8140 -5.6113 -7.0554
# 3 35.6708 25.0696 102.2223 8.6465 1.1854 -15.0244
# 4 -4.4918 0.8140 8.6465 27.7917 -6.9758 0.1654
# 5 4.1672 -5.6113 1.1854 -6.9758 43.3832 9.0687
# 6 -27.6103 -7.0554 -15.0244 0.1654 9.0687 27.3664
#
#
#
# Elastic Compliance Matrix: (Units=1/GPa)
#
#
# Indices 1 2 3 4 5 6 
#
# 1 0.021410 0.008941 -0.006762 0.004017 -0.004605 0.021696
# 2 0.008941 0.033864 -0.010099 0.004039 0.002041 0.011506
# 3 -0.006762 -0.010099 0.015077 -0.005969 -0.001930 -0.000473
# 4 0.004017 0.004039 -0.005969 0.040105 0.006897 -0.000711
# 5 -0.004605 0.002041 -0.001930 0.006897 0.027946 -0.014481
# 6 0.021696 0.011506 -0.000473 -0.000711 -0.014481 0.065940
#
#
# Mechanical properties :
#
#
# Convention : Reuss Voigt Hill
#
# Bulk Modulus (GPa) = 18.34483 38.53510 28.43996
# Shear Modulus (GPa) = 20.97741 31.32164 26.14952
#
# Velocity S-wave (km/s) = 3.04182 3.71689 3.39617
# Velocity P-wave (km/s) = 4.51978 5.95124 5.28421
#
# Compressibility (1/GPa) = 0.05451127
#
# Stress axis : x y z
#
# Youngs Moduli (GPa) = 46.70645 29.53018 66.32758
#
# Poissons Ratio (x) = -0.26403 0.44848
# Poissons Ratio (y) = -0.41761 0.66986
# Poissons Ratio (z) = 0.31581 0.29823
#
# Static dielectric constant tensor:
#      x y z
#    x 1.897210 -0.002260 -0.021930 
#    y -0.002260 1.839830 -0.062750 
#    z -0.021930 -0.062750 1.910320 
# 
# From -- ./inp_files/189077.got.cif
#   From: 2010.05.17/outbox.cif.g08.bks.cpg/sg2_95_cif.got.tgz:189077.got - 2010.06.03 11:33:40.
