data_PCOD9031149
_publ_section_title
;
Structure prediction by ZEFSAII (Michael W. Deem and Ramdas Pophale) SiO2 
 PCOD9031149
Probable space group: P -1
;
_chemical_formula_sum "Si O2"
_cell_formula_units_Z 16
_cell_length_a 7.064506
_cell_length_b 15.832346
_cell_length_c 9.293627
_cell_angle_alpha 71.833246
_cell_angle_beta 85.011513
_cell_angle_gamma 39.634804
_cell_volume 609.571481
_symmetry_space_group_name_H-M "P -1"
_symmetry_group_IT_number 2
_symmetry_cell_setting 'triclinic'
loop_
_space_group_symop_operation_xyz
x,y,z
-x,-y,-z
loop_
_atom_site_type_symbol
_atom_site_label
_atom_site_fract_x
_atom_site_fract_y
_atom_site_fract_z
Si Si1 0.344425 0.098861 0.096742
Si Si2 0.974660 0.931923 0.704571
Si Si3 0.990024 0.619847 0.182180
Si Si4 0.309485 0.484383 0.965419
Si Si5 0.516417 0.733512 0.387020
Si Si6 0.344586 0.957513 0.620828
Si Si7 0.570869 0.396216 0.705937
Si Si8 0.899091 0.671527 0.634773
O O1 0.592884 0.013692 0.253307
O O2 0.074554 0.136268 0.160107
O O3 0.216991 0.238871 0.976191
O O4 0.500000 0.000000 0.000000
O O5 0.714451 0.098412 0.684059
O O6 0.914146 0.930831 0.541214
O O7 0.279179 0.879083 0.716402
O O8 0.769649 0.651392 0.289399
O O9 0.203797 0.607340 0.266873
O O10 0.185730 0.491968 0.120190
O O11 0.512305 0.369824 0.881951
O O12 0.012016 0.618432 0.818788
O O13 0.500000 0.500000 0.000000
O O14 0.345774 0.706392 0.365307
O O15 0.708442 0.669552 0.555672
O O16 0.661390 0.840097 0.571627
O O17 0.765655 0.441463 0.398286
#
# Coordination Sequence:
#
# PCOD9031149 Si02
#       8
#     2   2   2   2   2   2   2   2
#     4  12  23  39  61  88 122 159 200 247 306 352
#     4  10  24  41  61  91 118 162 204 250 294 358
#     4  11  22  39  59  90 121 157 194 247 300 359
#     4   8  17  38  59  81 119 154 191 240 289 354
#     4  11  22  37  62  89 122 153 199 246 299 353
#     4  10  22  43  65  84 122 159 207 248 296 354
#     4   9  21  39  61  85 123 152 197 245 295 355
#     4   9  19  40  63  86 118 159 197 247 295 359
#
# _framework density 26.247945999999999
#
# number of rings (size 3 to 8) (size 9 to 14) (size 15 to 20)
#    0.750    1.250    2.500    0.750    1.750    2.500 
#    0.000    3.750    0.000    0.000    0.000    0.000 
#    0.000    0.000    0.000    0.000    0.000    0.000 
#
# Total GULP energy -89360.691910 kJ/mol
# GULP energy per Si atom -5585.043244 kJ/mol
# Density = 2.618820 g / cm^3
# Si number density = 26.247946 Si / 1000 Ang^3
#
#
#
# Elastic Constant Matrix: (Units=GPa)
#
#
# Indices 1 2 3 4 5 6 
#
# 1 76.9184 12.2551 49.7100 5.6833 18.5143 -3.6613
# 2 12.2551 53.2382 31.5052 4.6006 15.5168 -3.0993
# 3 49.7100 31.5052 193.0952 24.4538 26.1562 6.6893
# 4 5.6833 4.6006 24.4538 45.9175 0.5453 9.9704
# 5 18.5143 15.5168 26.1562 0.5453 66.1551 4.4847
# 6 -3.6613 -3.0993 6.6893 9.9704 4.4847 28.7606
#
#
#
# Elastic Compliance Matrix: (Units=1/GPa)
#
#
# Indices 1 2 3 4 5 6 
#
# 1 0.016528 -0.000318 -0.003788 -0.000768 -0.003300 0.003732
# 2 -0.000318 0.022194 -0.002923 -0.001491 -0.004234 0.004208
# 3 -0.003788 -0.002923 0.007157 -0.002743 -0.000969 -0.001360
# 4 -0.000768 -0.001491 -0.002743 0.025354 0.002032 -0.008727
# 5 -0.003300 -0.004234 -0.000969 0.002032 0.017678 -0.004112
# 6 0.003732 0.004208 -0.001360 -0.008727 -0.004112 0.039681
#
#
# Mechanical properties :
#
#
# Convention : Reuss Voigt Hill
#
# Bulk Modulus (GPa) = 31.42486 56.68804 44.05645
# Shear Modulus (GPa) = 32.62504 43.48542 38.05523
#
# Velocity S-wave (km/s) = 3.52938 4.07469 3.81180
# Velocity P-wave (km/s) = 5.34855 6.61676 6.01617
#
# Compressibility (1/GPa) = 0.03182194
#
# Stress axis : x y z
#
# Youngs Moduli (GPa) = 60.50245 45.05680 139.73037
#
# Poissons Ratio (x) = 0.01431 0.52933
# Poissons Ratio (y) = 0.01921 0.40841
# Poissons Ratio (z) = 0.22920 0.13169
#
# Static dielectric constant tensor:
#      x y z
#    x 2.103500 0.015310 -0.057520 
#    y 0.015310 2.139850 -0.011680 
#    z -0.057520 -0.011680 2.021360 
# 
# From -- ./inp_files/47510.got.cif
#   From: 2010.05.17/outbox.cif.g08.bks.cpg/sg2_24_cif.got.tgz:47510.got - 2010.06.03 11:33:40.
