data_PCOD9031748
_publ_section_title
;
Structure prediction by ZEFSAII (Michael W. Deem and Ramdas Pophale) SiO2 
 PCOD9031748
Probable space group: P -1
;
_chemical_formula_sum "Si O2"
_cell_formula_units_Z 12
_cell_length_a 17.524742
_cell_length_b 11.029021
_cell_length_c 5.927425
_cell_angle_alpha 99.804267
_cell_angle_beta 70.689249
_cell_angle_gamma 151.225428
_cell_volume 502.099229
_symmetry_space_group_name_H-M "P -1"
_symmetry_group_IT_number 2
_symmetry_cell_setting 'triclinic'
loop_
_space_group_symop_operation_xyz
x,y,z
-x,-y,-z
loop_
_atom_site_type_symbol
_atom_site_label
_atom_site_fract_x
_atom_site_fract_y
_atom_site_fract_z
Si Si1 0.743671 0.922762 0.956385
Si Si2 0.195535 0.236818 0.900436
Si Si3 0.695627 0.383547 0.861747
Si Si4 0.930891 0.508864 0.390848
Si Si5 0.635940 0.129650 0.231037
Si Si6 0.417938 0.475276 0.379075
O O1 0.678301 0.749495 0.759704
O O2 0.799164 0.898358 0.080160
O O3 0.572096 0.747824 0.181908
O O4 0.899281 0.213376 0.811288
O O5 0.292501 0.391770 0.619532
O O6 0.265537 0.420936 0.083333
O O7 0.000000 0.000000 0.000000
O O8 0.826913 0.481767 0.607028
O O9 0.789192 0.272823 0.270605
O O10 0.504137 0.893294 0.104124
O O11 0.718541 0.349882 0.072568
O O12 0.000000 0.500000 0.500000
O O13 0.500000 0.000000 0.500000
O O14 0.500000 0.500000 0.500000
#
# Coordination Sequence:
#
# PCOD9031748 Si02
#       6
#     2   2   2   2   2   2
#     4  10  22  44  67 101 137 177 228 281 350 410
#     4  11  22  39  73 105 132 175 226 297 344 407
#     4  10  22  43  68 103 135 175 242 287 353 411
#     4  11  24  44  69 100 140 188 235 286 341 418
#     4   9  21  45  66  94 137 181 234 286 340 414
#     4   9  21  43  63 101 135 175 219 280 354 409
#
# _framework density 23.899659
#
# number of rings (size 3 to 8) (size 9 to 14) (size 15 to 20)
#    0.000    2.000    0.000    2.000    0.000    7.333 
#   33.000    0.000    0.000    0.000    0.000    0.000 
#    0.000    0.000    0.000    0.000    0.000    0.000 
#
# Total GULP energy -67020.153526 kJ/mol
# GULP energy per Si atom -5585.012794 kJ/mol
# Density = 2.384526 g / cm^3
# Si number density = 23.899659 Si / 1000 Ang^3
#
#
#
# Elastic Constant Matrix: (Units=GPa)
#
#
# Indices 1 2 3 4 5 6 
#
# 1 119.7940 52.0033 45.9073 -24.7062 12.7130 17.8414
# 2 52.0033 167.6299 62.7578 -30.7564 0.3725 22.3168
# 3 45.9073 62.7578 151.6665 -32.0308 -16.0793 4.4247
# 4 -24.7062 -30.7564 -32.0308 34.8242 10.9917 2.9543
# 5 12.7130 0.3725 -16.0793 10.9917 32.6291 4.2113
# 6 17.8414 22.3168 4.4247 2.9543 4.2113 43.4011
#
#
#
# Elastic Compliance Matrix: (Units=1/GPa)
#
#
# Indices 1 2 3 4 5 6 
#
# 1 0.013282 -0.000783 -0.002474 0.009706 -0.009063 -0.004587
# 2 -0.000783 0.008735 -0.002194 0.006267 -0.002453 -0.004135
# 3 -0.002474 -0.002194 0.009455 0.003579 0.004376 0.000513
# 4 0.009706 0.006267 0.003579 0.050912 -0.018040 -0.009293
# 5 -0.009063 -0.002453 0.004376 -0.018040 0.042224 0.001672
# 6 -0.004587 -0.004135 0.000513 -0.009293 0.001672 0.027471
#
#
# Mechanical properties :
#
#
# Convention : Reuss Voigt Hill
#
# Bulk Modulus (GPa) = 48.60859 84.49191 66.55025
# Shear Modulus (GPa) = 29.44016 40.73235 35.08625
#
# Velocity S-wave (km/s) = 3.51354 4.13280 3.83569
# Velocity P-wave (km/s) = 6.06982 7.62908 6.89368
#
# Compressibility (1/GPa) = 0.02057250
#
# Stress axis : x y z
#
# Youngs Moduli (GPa) = 75.28972 114.47641 105.76754
#
# Poissons Ratio (x) = 0.08961 0.26162
# Poissons Ratio (y) = 0.05893 0.23201
# Poissons Ratio (z) = 0.18623 0.25111
#
# Static dielectric constant tensor:
#      x y z
#    x 2.026500 -0.015120 -0.051120 
#    y -0.015120 1.877580 -0.005010 
#    z -0.051120 -0.005010 1.910450 
# 
# From -- ./inp_files/108167.got.cif
#   From: 2010.05.17/outbox.cif.g08.bks.cpg/sg2_55_cif.got.tgz:108167.got - 2010.06.03 11:33:40.
