data_PCOD9031997
_publ_section_title
;
Structure prediction by ZEFSAII (Michael W. Deem and Ramdas Pophale) SiO2 
 PCOD9031997
Probable space group: P -1
;
_chemical_formula_sum "Si O2"
_cell_formula_units_Z 16
_cell_length_a 8.226168
_cell_length_b 9.836079
_cell_length_c 17.004832
_cell_angle_alpha 33.030522
_cell_angle_beta 111.349416
_cell_angle_gamma 108.614169
_cell_volume 698.261117
_symmetry_space_group_name_H-M "P -1"
_symmetry_group_IT_number 2
_symmetry_cell_setting 'triclinic'
loop_
_space_group_symop_operation_xyz
x,y,z
-x,-y,-z
loop_
_atom_site_type_symbol
_atom_site_label
_atom_site_fract_x
_atom_site_fract_y
_atom_site_fract_z
Si Si1 0.611696 0.025545 0.585934
Si Si2 0.792255 0.978313 0.204753
Si Si3 0.768423 0.015074 0.880909
Si Si4 0.080704 0.302506 0.171402
Si Si5 0.500556 0.205701 0.634803
Si Si6 0.233080 0.492343 0.686190
Si Si7 0.517830 0.237479 0.944680
Si Si8 0.972728 0.384788 0.836840
O O1 0.480726 0.109116 0.590452
O O2 0.750482 0.252559 0.482231
O O3 0.500000 0.000000 0.500000
O O4 0.719558 0.787180 0.749463
O O5 0.644164 0.900802 0.279521
O O6 0.811713 0.744146 0.263278
O O7 0.961255 0.063499 0.240822
O O8 0.708988 0.209178 0.028591
O O9 0.691557 0.117883 0.738085
O O10 0.804848 0.250048 0.831456
O O11 0.621212 0.825529 0.980799
O O12 0.937954 0.849175 0.989783
O O13 0.051179 0.403980 0.205395
O O14 0.000000 0.500000 0.000000
O O15 0.500000 0.500000 0.500000
O O16 0.096652 0.478335 0.741261
O O17 0.428281 0.452534 0.775592
O O18 0.500000 0.000000 0.000000
#
# Coordination Sequence:
#
# PCOD9031997 Si02
#       8
#     2   2   2   2   2   2   2   2
#     4  12  30  47  69 103 148 182 231 287 356 422
#     4  10  23  44  72 102 136 179 238 289 340 421
#     4   9  20  39  68  98 130 177 235 280 338 415
#     4  12  30  46  69 105 143 190 232 289 353 406
#     4  11  23  45  72 101 133 183 233 286 348 411
#     4  10  22  43  69 103 133 186 230 285 350 415
#     4   8  17  34  67  95 127 169 228 277 337 401
#     4  10  23  41  69  99 142 178 228 288 347 407
#
# _framework density 22.914065000000001
#
# number of rings (size 3 to 8) (size 9 to 14) (size 15 to 20)
#    0.000    1.750    1.250    0.750   14.000    2.000 
#    0.000    2.500    0.000    0.000    0.000    0.000 
#    0.000    0.000    0.000    0.000    0.000    0.000 
#
# Total GULP energy -89360.779052 kJ/mol
# GULP energy per Si atom -5585.048691 kJ/mol
# Density = 2.286191 g / cm^3
# Si number density = 22.914065 Si / 1000 Ang^3
#
#
#
# Elastic Constant Matrix: (Units=GPa)
#
#
# Indices 1 2 3 4 5 6 
#
# 1 64.6093 34.7871 8.5422 4.0405 0.5440 -10.5491
# 2 34.7871 147.7134 13.6839 15.8021 7.6058 -19.3109
# 3 8.5422 13.6839 96.0819 -5.7922 1.9922 -9.7977
# 4 4.0405 15.8021 -5.7922 30.9182 3.3067 -0.1776
# 5 0.5440 7.6058 1.9922 3.3067 29.0798 9.9027
# 6 -10.5491 -19.3109 -9.7977 -0.1776 9.9027 47.1026
#
#
#
# Elastic Compliance Matrix: (Units=1/GPa)
#
#
# Indices 1 2 3 4 5 6 
#
# 1 0.018054 -0.003811 -0.000861 -0.000559 -0.000001 0.002300
# 2 -0.003811 0.008692 -0.000750 -0.003769 -0.002787 0.003126
# 3 -0.000861 -0.000750 0.011006 0.002739 -0.001579 0.002131
# 4 -0.000559 -0.003769 0.002739 0.035184 -0.003083 -0.000320
# 5 -0.000001 -0.002787 -0.001579 -0.003083 0.038863 -0.009653
# 6 0.002300 0.003126 0.002131 -0.000320 -0.009653 0.025498
#
#
# Mechanical properties :
#
#
# Convention : Reuss Voigt Hill
#
# Bulk Modulus (GPa) = 37.16452 46.93678 42.05065
# Shear Modulus (GPa) = 31.82430 38.17954 35.00192
#
# Velocity S-wave (km/s) = 3.73078 4.08635 3.91260
# Velocity P-wave (km/s) = 5.90022 6.54161 6.22917
#
# Compressibility (1/GPa) = 0.02690738
#
# Stress axis : x y z
#
# Youngs Moduli (GPa) = 55.38866 115.04506 90.85664
#
# Poissons Ratio (x) = 0.43849 0.07827
# Poissons Ratio (y) = 0.21111 0.06812
# Poissons Ratio (z) = 0.04772 0.08626
#
# Static dielectric constant tensor:
#      x y z
#    x 1.930800 0.002160 0.007760 
#    y 0.002160 1.843830 0.002870 
#    z 0.007760 0.002870 1.892920 
# 
# From -- ./inp_files/494321.got.cif
#   From: 2010.05.17/outbox.cif.g08.bks.cpg/sg2_248_cif.got.tgz:494321.got - 2010.06.03 11:33:40.
