data_PCOD9031379
_publ_section_title
;
Structure prediction by ZEFSAII (Michael W. Deem and Ramdas Pophale) SiO2 
 PCOD9031379
Probable space group: P -1
;
_chemical_formula_sum "Si O2"
_cell_formula_units_Z 14
_cell_length_a 7.511068
_cell_length_b 5.696202
_cell_length_c 18.412560
_cell_angle_alpha 70.367671
_cell_angle_beta 68.661624
_cell_angle_gamma 107.074529
_cell_volume 608.530159
_symmetry_space_group_name_H-M "P -1"
_symmetry_group_IT_number 2
_symmetry_cell_setting 'triclinic'
loop_
_space_group_symop_operation_xyz
x,y,z
-x,-y,-z
loop_
_atom_site_type_symbol
_atom_site_label
_atom_site_fract_x
_atom_site_fract_y
_atom_site_fract_z
Si Si1 0.923581 0.002021 0.930242
Si Si2 0.085839 0.052445 0.753356
Si Si3 0.256215 0.607679 0.457304
Si Si4 0.585598 0.161722 0.281399
Si Si5 0.420057 0.298623 0.150742
Si Si6 0.577941 0.381713 0.418679
Si Si7 0.319016 0.647546 0.027643
O O1 0.826167 0.674989 0.948809
O O2 0.791419 0.176182 0.943602
O O3 0.090991 0.160929 0.823498
O O4 0.000000 0.000000 0.000000
O O5 0.235476 0.290867 0.650049
O O6 0.190136 0.844024 0.763563
O O7 0.835909 0.908947 0.781850
O O8 0.347594 0.380401 0.462277
O O9 0.346308 0.733570 0.511630
O O10 0.000000 0.500000 0.500000
O O11 0.387489 0.838069 0.351532
O O12 0.535393 0.313616 0.207014
O O13 0.586362 0.273093 0.349517
O O14 0.437251 0.585863 0.084424
O O15 0.527327 0.203047 0.079847
#
# Coordination Sequence:
#
# PCOD9031379 Si02
#       7
#     2   2   2   2   2   2   2
#     4  11  23  41  69  97 138 183 236 283 344 396
#     4  10  24  40  62  95 131 175 219 279 338 401
#     4  10  22  43  66  94 130 170 211 271 344 406
#     4  11  23  42  65 100 127 173 222 275 336 408
#     4  10  23  43  64  92 138 175 230 277 340 394
#     4  10  23  40  64  97 131 162 223 274 330 416
#     4  10  24  43  63  99 136 188 232 288 331 406
#
# _framework density 23.006257000000002
#
# number of rings (size 3 to 8) (size 9 to 14) (size 15 to 20)
#    0.000    1.714    0.000    2.571    6.000    6.857 
#   10.286    2.143    0.000    0.000    0.000    0.000 
#    0.000    0.000    0.000    0.000    0.000    0.000 
#
# Total GULP energy -78122.552336 kJ/mol
# GULP energy per Si atom -5580.182310 kJ/mol
# Density = 2.295389 g / cm^3
# Si number density = 23.006257 Si / 1000 Ang^3
#
#
#
# Elastic Constant Matrix: (Units=GPa)
#
#
# Indices 1 2 3 4 5 6 
#
# 1 109.9927 50.5756 83.1386 25.6816 17.8818 -9.0132
# 2 50.5756 107.1932 47.1105 28.7487 4.6256 -9.1780
# 3 83.1386 47.1105 136.4078 26.8448 8.4864 -16.0171
# 4 25.6816 28.7487 26.8448 44.2866 2.7932 -13.9757
# 5 17.8818 4.6256 8.4864 2.7932 57.8845 5.1295
# 6 -9.0132 -9.1780 -16.0171 -13.9757 5.1295 23.2886
#
#
#
# Elastic Compliance Matrix: (Units=1/GPa)
#
#
# Indices 1 2 3 4 5 6 
#
# 1 0.019722 -0.004085 -0.009969 -0.003053 -0.003999 -0.001785
# 2 -0.004085 0.013188 -0.001049 -0.005844 0.000712 -0.000769
# 3 -0.009969 -0.001049 0.014476 -0.000742 0.000625 0.005101
# 4 -0.003053 -0.005844 -0.000742 0.033981 -0.001605 0.016751
# 5 -0.003999 0.000712 0.000625 -0.001605 0.018970 -0.005979
# 6 -0.001785 -0.000769 0.005101 0.016751 -0.005979 0.056824
#
#
# Mechanical properties :
#
#
# Convention : Reuss Voigt Hill
#
# Bulk Modulus (GPa) = 58.21473 79.47144 68.84309
# Shear Modulus (GPa) = 25.89403 36.60986 31.25195
#
# Velocity S-wave (km/s) = 3.35852 3.99344 3.68966
# Velocity P-wave (km/s) = 6.35597 7.47541 6.93830
#
# Compressibility (1/GPa) = 0.01717778
#
# Stress axis : x y z
#
# Youngs Moduli (GPa) = 50.70483 75.82456 69.08146
#
# Poissons Ratio (x) = 0.30976 0.68870
# Poissons Ratio (y) = 0.20714 0.07250
# Poissons Ratio (z) = 0.50550 0.07958
#
# Static dielectric constant tensor:
#      x y z
#    x 1.883320 0.032770 -0.034880 
#    y 0.032770 1.964520 -0.084770 
#    z -0.034880 -0.084770 1.898090 
# 
# From -- ./inp_files/552434.got.cif
#   From: 2010.05.17/outbox.cif.g08.bks.cpg/sg2_277_cif.got.tgz:552434.got - 2010.06.03 11:33:40.
