data_PCOD9031423
_publ_section_title
;
Structure prediction by ZEFSAII (Michael W. Deem and Ramdas Pophale) SiO2 
 PCOD9031423
Probable space group: P -1
;
_chemical_formula_sum "Si O2"
_cell_formula_units_Z 14
_cell_length_a 9.496691
_cell_length_b 12.302349
_cell_length_c 6.391720
_cell_angle_alpha 92.716757
_cell_angle_beta 103.025794
_cell_angle_gamma 72.114891
_cell_volume 692.189261
_symmetry_space_group_name_H-M "P -1"
_symmetry_group_IT_number 2
_symmetry_cell_setting 'triclinic'
loop_
_space_group_symop_operation_xyz
x,y,z
-x,-y,-z
loop_
_atom_site_type_symbol
_atom_site_label
_atom_site_fract_x
_atom_site_fract_y
_atom_site_fract_z
Si Si1 0.137914 0.057370 0.407236
Si Si2 0.495692 0.666280 0.447726
Si Si3 0.039604 0.102872 0.812297
Si Si4 0.414382 0.116539 0.359528
Si Si5 0.774027 0.266111 0.973352
Si Si6 0.321777 0.925241 0.824010
Si Si7 0.381521 0.548351 0.778334
O O1 0.040181 0.134188 0.567467
O O2 0.240715 0.121472 0.333073
O O3 0.245656 0.949520 0.568536
O O4 0.038655 0.999480 0.229275
O O5 0.553235 0.774779 0.513204
O O6 0.346275 0.695862 0.253463
O O7 0.449158 0.622309 0.647974
O O8 0.621277 0.561315 0.367496
O O9 0.938455 0.204109 0.926653
O O10 0.218307 0.041884 0.907887
O O11 0.500000 0.000000 0.500000
O O12 0.715173 0.175119 0.074882
O O13 0.761779 0.369139 0.139797
O O14 0.499241 0.898475 0.836535
O O15 0.500000 0.500000 0.000000
#
# Coordination Sequence:
#
# PCOD9031423 Si02
#       7
#     2   2   2   2   2   2   2
#     4   8  18  31  48  74 111 148 177 207 260 316
#     4  10  20  34  54  80 108 140 177 226 271 308
#     4   9  18  31  49  76 115 145 180 208 261 320
#     4  10  17  32  53  78 113 141 172 219 270 319
#     4  11  18  30  55  80 106 139 179 223 261 316
#     4   9  17  29  48  76 113 138 174 215 251 325
#     4   9  20  35  54  78 104 139 185 228 263 308
#
# _framework density 20.225681000000002
#
# number of rings (size 3 to 8) (size 9 to 14) (size 15 to 20)
#    0.857    1.714    1.429    2.143    0.000    0.000 
#    0.000    6.429    0.000    0.857    0.000   14.000 
#    0.000    0.000    0.000    0.000    0.000    0.000 
#
# Total GULP energy -77947.122115 kJ/mol
# GULP energy per Si atom -5567.651580 kJ/mol
# Density = 2.017965 g / cm^3
# Si number density = 20.225681 Si / 1000 Ang^3
#
#
#
# Elastic Constant Matrix: (Units=GPa)
#
#
# Indices 1 2 3 4 5 6 
#
# 1 122.9256 43.0469 41.5227 27.8188 -20.9572 -12.5450
# 2 43.0469 103.0922 55.8854 33.0591 -16.0400 -4.7030
# 3 41.5227 55.8854 102.3291 25.2403 -19.2090 -1.3534
# 4 27.8188 33.0591 25.2403 59.2552 -11.1973 -15.8475
# 5 -20.9572 -16.0400 -19.2090 -11.1973 30.4145 11.6614
# 6 -12.5450 -4.7030 -1.3534 -15.8475 11.6614 31.7691
#
#
#
# Elastic Compliance Matrix: (Units=1/GPa)
#
#
# Indices 1 2 3 4 5 6 
#
# 1 0.010793 -0.002158 -0.002013 -0.001886 0.003742 0.001542
# 2 -0.002158 0.015856 -0.006124 -0.005457 0.001826 -0.002158
# 3 -0.002013 -0.006124 0.015585 -0.002312 0.006069 -0.004418
# 4 -0.001886 -0.005457 -0.002312 0.024555 -0.000769 0.010880
# 5 0.003742 0.001826 0.006069 -0.000769 0.045793 -0.015186
# 6 0.001542 -0.002158 -0.004418 0.010880 -0.015186 0.042580
#
#
# Mechanical properties :
#
#
# Convention : Reuss Voigt Hill
#
# Bulk Modulus (GPa) = 46.20152 67.69523 56.94838
# Shear Modulus (GPa) = 27.32737 36.81389 32.07063
#
# Velocity S-wave (km/s) = 3.67975 4.27096 3.98633
# Velocity P-wave (km/s) = 6.39896 7.60684 7.02889
#
# Compressibility (1/GPa) = 0.02164431
#
# Stress axis : x y z
#
# Youngs Moduli (GPa) = 92.65445 63.06594 64.16575
#
# Poissons Ratio (x) = 0.13611 0.12916
# Poissons Ratio (y) = 0.19996 0.39294
# Poissons Ratio (z) = 0.18650 0.38620
#
# Static dielectric constant tensor:
#      x y z
#    x 1.749670 -0.046570 -0.026070 
#    y -0.046570 1.762380 0.005550 
#    z -0.026070 0.005550 1.815960 
# 
# From -- ./inp_files/197583.got.cif
#   From: 2010.05.17/outbox.cif.g08.bks.cpg/sg2_99_cif.got.tgz:197583.got - 2010.06.03 11:33:40.
