data_PCOD9031774
_publ_section_title
;
Structure prediction by ZEFSAII (Michael W. Deem and Ramdas Pophale) SiO2 
 PCOD9031774
Probable space group: P -1
;
_chemical_formula_sum "Si O2"
_cell_formula_units_Z 14
_cell_length_a 10.057850
_cell_length_b 7.556970
_cell_length_c 17.193014
_cell_angle_alpha 46.210385
_cell_angle_beta 32.934344
_cell_angle_gamma 64.872835
_cell_volume 470.525181
_symmetry_space_group_name_H-M "P -1"
_symmetry_group_IT_number 2
_symmetry_cell_setting 'triclinic'
loop_
_space_group_symop_operation_xyz
x,y,z
-x,-y,-z
loop_
_atom_site_type_symbol
_atom_site_label
_atom_site_fract_x
_atom_site_fract_y
_atom_site_fract_z
Si Si1 0.072945 0.249234 0.657276
Si Si2 0.000000 0.500000 0.500000
Si Si3 0.500000 0.500000 0.500000
Si Si4 0.351313 0.012562 0.766027
Si Si5 0.404868 0.276328 0.893940
Si Si6 0.031401 0.739485 0.592981
Si Si7 0.241534 0.500113 0.046981
Si Si8 0.293686 0.722458 0.723544
O O1 0.338959 0.345920 0.547117
O O2 0.107062 0.246574 0.549659
O O3 0.012219 0.527126 0.597670
O O4 0.830984 0.013307 0.886971
O O5 0.681873 0.274497 0.732715
O O6 0.737046 0.744584 0.257756
O O7 0.246272 0.827508 0.799868
O O8 0.337252 0.819588 0.901104
O O9 0.669999 0.204891 0.535057
O O10 0.336032 0.460247 0.809894
O O11 0.432511 0.421410 0.920651
O O12 0.819606 0.605846 0.804303
O O13 0.000000 0.000000 0.500000
O O14 0.961976 0.364299 0.179589
O O15 0.500000 0.000000 0.500000
#
# Coordination Sequence:
#
# PCOD9031774 Si02
#       8
#     2   1   1   2   2   2   2   2
#     4  11  27  48  76 109 151 202 252 315 385 451
#     4  12  30  50  74 112 154 206 260 312 382 448
#     4  10  22  46  74 108 154 188 254 316 380 456
#     4  10  22  43  68 110 140 191 238 303 379 436
#     4  11  27  48  79 112 152 202 257 316 374 464
#     4  11  27  46  69 106 149 193 243 303 376 450
#     4  11  24  45  77 112 147 191 252 312 381 444
#     4  11  22  42  78 111 143 191 247 317 377 440
#
# _framework density 29.753985
#
# number of rings (size 3 to 8) (size 9 to 14) (size 15 to 20)
#    0.000    1.143    1.429    3.857   10.000    2.857 
#    0.000    2.857    0.000    0.000    0.000    0.000 
#    0.000    0.000    0.000    0.000    0.000    0.000 
#
# Total GULP energy -78124.912101 kJ/mol
# GULP energy per Si atom -5580.350864 kJ/mol
# Density = 2.968626 g / cm^3
# Si number density = 29.753985 Si / 1000 Ang^3
#
#
#
# Elastic Constant Matrix: (Units=GPa)
#
#
# Indices 1 2 3 4 5 6 
#
# 1 185.6445 31.3928 60.7379 -8.7436 11.6746 11.9031
# 2 31.3928 101.8858 41.0208 -19.7200 21.9366 7.6067
# 3 60.7379 41.0208 226.3247 -20.3634 35.5570 1.5129
# 4 -8.7436 -19.7200 -20.3634 62.6745 -9.3443 8.4753
# 5 11.6746 21.9366 35.5570 -9.3443 80.7386 2.4046
# 6 11.9031 7.6067 1.5129 8.4753 2.4046 36.1266
#
#
#
# Elastic Compliance Matrix: (Units=1/GPa)
#
#
# Indices 1 2 3 4 5 6 
#
# 1 0.006172 -0.001165 -0.001429 0.000296 0.000141 -0.001807
# 2 -0.001165 0.011943 -0.001214 0.003256 -0.002085 -0.002705
# 3 -0.001429 -0.001214 0.005369 0.000847 -0.001743 0.000419
# 4 0.000296 0.003256 0.000847 0.018133 0.000951 -0.005136
# 5 0.000141 -0.002085 -0.001743 0.000951 0.013829 -0.000678
# 6 -0.001807 -0.002705 0.000419 -0.005136 -0.000678 0.030078
#
#
# Mechanical properties :
#
#
# Convention : Reuss Voigt Hill
#
# Bulk Modulus (GPa) = 63.01052 86.68421 74.84737
# Shear Modulus (GPa) = 50.79826 61.28818 56.04322
#
# Velocity S-wave (km/s) = 4.13640 4.54346 4.34470
# Velocity P-wave (km/s) = 6.63598 7.53133 7.09779
#
# Compressibility (1/GPa) = 0.01587037
#
# Stress axis : x y z
#
# Youngs Moduli (GPa) = 162.02296 83.72800 186.25497
#
# Poissons Ratio (x) = 0.09752 0.26611
# Poissons Ratio (y) = 0.18871 0.22603
# Poissons Ratio (z) = 0.23149 0.10161
#
# Static dielectric constant tensor:
#      x y z
#    x 2.407950 0.169120 0.073890 
#    y 0.169120 2.113470 0.154970 
#    z 0.073890 0.154970 2.332480 
# 
# From -- ./inp_files/403409.got.cif
#   From: 2010.05.17/outbox.cif.g08.bks.cpg/sg2_202_cif.got.tgz:403409.got - 2010.06.03 11:33:40.
