data_PCOD9031063
_publ_section_title
;
Structure prediction by ZEFSAII (Michael W. Deem and Ramdas Pophale) SiO2 
 PCOD9031063
Probable space group: P -1
;
_chemical_formula_sum "Si O2"
_cell_formula_units_Z 16
_cell_length_a 24.941202
_cell_length_b 27.288820
_cell_length_c 5.805871
_cell_angle_alpha 68.122112
_cell_angle_beta 113.203018
_cell_angle_gamma 170.122009
_cell_volume 620.036925
_symmetry_space_group_name_H-M "P -1"
_symmetry_group_IT_number 2
_symmetry_cell_setting 'triclinic'
loop_
_space_group_symop_operation_xyz
x,y,z
-x,-y,-z
loop_
_atom_site_type_symbol
_atom_site_label
_atom_site_fract_x
_atom_site_fract_y
_atom_site_fract_z
Si Si1 0.402960 0.763622 0.936250
Si Si2 0.273171 0.848066 0.369420
Si Si3 0.774669 0.675334 0.546516
Si Si4 0.162109 0.178809 0.265221
Si Si5 0.725424 0.855780 0.793469
Si Si6 0.436797 0.193855 0.097232
Si Si7 0.951611 0.619273 0.606092
Si Si8 0.201636 0.418614 0.353335
O O1 0.639308 0.931588 0.915785
O O2 0.080620 0.482894 0.729295
O O3 0.579272 0.976539 0.859567
O O4 0.250993 0.600564 0.190027
O O5 0.233683 0.840972 0.564128
O O6 0.500000 0.000000 0.500000
O O7 0.480755 0.429883 0.312319
O O8 0.723700 0.663937 0.708295
O O9 0.843493 0.675198 0.701063
O O10 0.080599 0.968028 0.421722
O O11 0.000000 0.000000 0.500000
O O12 0.883247 0.947131 0.028177
O O13 0.772596 0.950478 0.863237
O O14 0.368074 0.542548 0.647518
O O15 0.715046 0.427985 0.339409
O O16 0.574163 0.347291 0.841296
O O17 0.038157 0.750483 0.659687
#
# Coordination Sequence:
#
# PCOD9031063 Si02
#       8
#     2   2   2   2   2   2   2   2
#     4  10  23  43  67 103 142 187 237 288 345 417
#     4  11  24  43  71 105 145 189 237 287 343 413
#     4  11  24  38  62  90 117 164 217 270 338 407
#     4  11  25  43  58  84 128 164 209 271 338 411
#     4  11  22  39  63  90 120 166 212 277 337 403
#     4   9  20  42  63  91 129 169 216 278 343 402
#     4   9  22  43  66  99 137 182 223 291 345 407
#     4  10  22  43  64  93 125 167 225 275 339 405
#
# _framework density 25.804914
#
# number of rings (size 3 to 8) (size 9 to 14) (size 15 to 20)
#    0.000    1.750    0.000    3.000    1.750    9.000 
#   22.500    0.000    0.000    0.000    0.000    0.000 
#    0.000    0.000    0.000    0.000    0.000    0.000 
#
# Total GULP energy -89461.121065 kJ/mol
# GULP energy per Si atom -5591.320067 kJ/mol
# Density = 2.574618 g / cm^3
# Si number density = 25.804914 Si / 1000 Ang^3
#
#
#
# Elastic Constant Matrix: (Units=GPa)
#
#
# Indices 1 2 3 4 5 6 
#
# 1 184.7762 38.4442 44.6342 4.1821 25.9926 33.9227
# 2 38.4442 67.1359 9.7949 -1.0026 13.0056 13.8827
# 3 44.6342 9.7949 88.0127 10.8813 20.6285 11.8153
# 4 4.1821 -1.0026 10.8813 32.0220 -0.3705 3.7566
# 5 25.9926 13.0056 20.6285 -0.3705 47.7073 5.2515
# 6 33.9227 13.8827 11.8153 3.7566 5.2515 50.6129
#
#
#
# Elastic Compliance Matrix: (Units=1/GPa)
#
#
# Indices 1 2 3 4 5 6 
#
# 1 0.007530 -0.002857 -0.002639 0.000211 -0.001799 -0.003477
# 2 -0.002857 0.017666 0.000463 0.001060 -0.003144 -0.002792
# 3 -0.002639 0.000463 0.014471 -0.004510 -0.004882 -0.000895
# 4 0.000211 0.001060 -0.004510 0.033029 0.002027 -0.002041
# 5 -0.001799 -0.003144 -0.004882 0.002027 0.024873 0.000476
# 6 -0.003477 -0.002792 -0.000895 -0.002041 0.000476 0.023165
#
#
# Mechanical properties :
#
#
# Convention : Reuss Voigt Hill
#
# Bulk Modulus (GPa) = 33.78089 58.40795 46.09442
# Shear Modulus (GPa) = 35.54560 42.53854 39.04207
#
# Velocity S-wave (km/s) = 3.71546 4.06454 3.89391
# Velocity P-wave (km/s) = 5.61476 6.68662 6.17399
#
# Compressibility (1/GPa) = 0.02960253
#
# Stress axis : x y z
#
# Youngs Moduli (GPa) = 132.79904 56.60745 69.10553
#
# Poissons Ratio (x) = 0.16170 0.18235
# Poissons Ratio (y) = 0.37935 -0.03202
# Poissons Ratio (z) = 0.35041 -0.02623
#
# Static dielectric constant tensor:
#      x y z
#    x 2.092160 -0.073570 -0.075890 
#    y -0.073570 2.090240 0.099590 
#    z -0.075890 0.099590 2.058280 
# 
# From -- ./inp_files/14286.got.cif
#   From: 2010.05.17/outbox.cif.g08.bks.cpg/sg2_8_cif.got.tgz:14286.got - 2010.06.03 11:33:40.
