data_PCOD9031017
_publ_section_title
;
Structure prediction by ZEFSAII (Michael W. Deem and Ramdas Pophale) SiO2 
 PCOD9031017
Probable space group: P -1
;
_chemical_formula_sum "Si O2"
_cell_formula_units_Z 16
_cell_length_a 15.894774
_cell_length_b 5.271666
_cell_length_c 12.181435
_cell_angle_alpha 130.073311
_cell_angle_beta 110.690164
_cell_angle_gamma 85.409210
_cell_volume 715.031024
_symmetry_space_group_name_H-M "P -1"
_symmetry_group_IT_number 2
_symmetry_cell_setting 'triclinic'
loop_
_space_group_symop_operation_xyz
x,y,z
-x,-y,-z
loop_
_atom_site_type_symbol
_atom_site_label
_atom_site_fract_x
_atom_site_fract_y
_atom_site_fract_z
Si Si1 0.488303 0.884422 0.591900
Si Si2 0.962836 0.019379 0.329687
Si Si3 0.753074 0.409391 0.759346
Si Si4 0.719006 0.167030 0.445080
Si Si5 0.327876 0.960316 0.165774
Si Si6 0.146430 0.440874 0.532965
Si Si7 0.788302 0.549223 0.200927
Si Si8 0.951440 0.805211 0.027135
O O1 0.500000 0.500000 0.500000
O O2 0.389222 0.894468 0.599375
O O3 0.500000 0.000000 0.500000
O O4 0.569129 0.070872 0.762377
O O5 0.921526 0.303360 0.454081
O O6 0.071973 0.093233 0.423068
O O7 0.889361 0.678866 0.230557
O O8 0.957308 0.041228 0.201916
O O9 0.759980 0.195114 0.593975
O O10 0.723800 0.164218 0.779601
O O11 0.847716 0.652933 0.903264
O O12 0.683680 0.661859 0.768058
O O13 0.773807 0.507693 0.505889
O O14 0.742480 0.867971 0.298430
O O15 0.277959 0.711075 0.979115
O O16 0.194945 0.582018 0.707531
O O17 0.000000 0.500000 0.000000
O O18 0.000000 0.000000 0.000000
#
# Coordination Sequence:
#
# PCOD9031017 Si02
#       8
#     2   2   2   2   2   2   2   2
#     4  12  25  49  76 107 141 186 238 301 370 434
#     4  10  22  43  63  98 137 195 235 285 356 423
#     4  12  25  46  73 101 146 186 241 292 359 427
#     4  11  26  43  72 107 137 184 250 297 361 427
#     4  12  25  47  76 103 139 194 230 298 365 428
#     4  10  23  42  69  95 144 186 239 290 355 425
#     4  11  25  42  72 102 145 186 238 296 358 432
#     4  12  26  40  66 103 141 182 242 292 344 414
#
# _framework density 22.376650999999999
#
# number of rings (size 3 to 8) (size 9 to 14) (size 15 to 20)
#    0.000    0.750    3.750    2.625    8.750    0.500 
#    0.000    0.625    0.000    0.000    0.000    0.000 
#    0.000    0.000    0.000    0.000    0.000    0.000 
#
# Total GULP energy -89396.841987 kJ/mol
# GULP energy per Si atom -5587.302624 kJ/mol
# Density = 2.232572 g / cm^3
# Si number density = 22.376651 Si / 1000 Ang^3
#
#
#
# Elastic Constant Matrix: (Units=GPa)
#
#
# Indices 1 2 3 4 5 6 
#
# 1 157.0925 45.7790 50.4053 -8.4341 15.1417 11.4655
# 2 45.7790 118.0383 52.4637 -19.3062 -24.4539 1.0775
# 3 50.4053 52.4637 237.0713 -38.0198 -33.0138 -6.8875
# 4 -8.4341 -19.3062 -38.0198 41.6617 7.8530 -3.9770
# 5 15.1417 -24.4539 -33.0138 7.8530 67.3420 1.0490
# 6 11.4655 1.0775 -6.8875 -3.9770 1.0490 41.1351
#
#
#
# Elastic Compliance Matrix: (Units=1/GPa)
#
#
# Indices 1 2 3 4 5 6 
#
# 1 0.008452 -0.003418 -0.001823 -0.001053 -0.003873 -0.002574
# 2 -0.003418 0.011506 -0.000682 0.003294 0.004217 0.000748
# 3 -0.001823 -0.000682 0.005859 0.004369 0.002496 0.001866
# 4 -0.001053 0.003294 0.004369 0.029656 0.000057 0.003805
# 5 -0.003873 0.004217 0.002496 0.000057 0.018454 0.000922
# 6 -0.002574 0.000748 0.001866 0.003805 0.000922 0.025665
#
#
# Mechanical properties :
#
#
# Convention : Reuss Voigt Hill
#
# Bulk Modulus (GPa) = 71.58692 89.94422 80.76557
# Shear Modulus (GPa) = 43.06751 54.26471 48.66611
#
# Velocity S-wave (km/s) = 4.39186 4.92983 4.66860
# Velocity P-wave (km/s) = 7.60126 8.52568 8.07670
#
# Compressibility (1/GPa) = 0.01396903
#
# Stress axis : x y z
#
# Youngs Moduli (GPa) = 118.32166 86.90867 170.66637
#
# Poissons Ratio (x) = 0.29708 0.31119
# Poissons Ratio (y) = 0.40446 0.11646
# Poissons Ratio (z) = 0.21575 0.05930
#
# Static dielectric constant tensor:
#      x y z
#    x 1.793350 -0.052520 -0.006060 
#    y -0.052520 1.876800 0.035900 
#    z -0.006060 0.035900 1.808490 
# 
# From -- ./inp_files/52458.got.cif
#   From: 2010.05.17/outbox.cif.g08.bks.cpg/sg2_27_cif.got.tgz:52458.got - 2010.06.03 11:33:40.
