data_PCOD9031554
_publ_section_title
;
Structure prediction by ZEFSAII (Michael W. Deem and Ramdas Pophale) SiO2 
 PCOD9031554
Probable space group: P -1
;
_chemical_formula_sum "Si O2"
_cell_formula_units_Z 12
_cell_length_a 19.055174
_cell_length_b 5.814673
_cell_length_c 9.244666
_cell_angle_alpha 122.432882
_cell_angle_beta 51.758009
_cell_angle_gamma 139.960382
_cell_volume 513.579924
_symmetry_space_group_name_H-M "P -1"
_symmetry_group_IT_number 2
_symmetry_cell_setting 'triclinic'
loop_
_space_group_symop_operation_xyz
x,y,z
-x,-y,-z
loop_
_atom_site_type_symbol
_atom_site_label
_atom_site_fract_x
_atom_site_fract_y
_atom_site_fract_z
Si Si1 0.934432 0.133743 0.059527
Si Si2 0.817245 0.766987 0.666402
Si Si3 0.292391 0.240597 0.934336
Si Si4 0.064576 0.509118 0.557938
Si Si5 0.310873 0.664698 0.584893
Si Si6 0.462867 0.730101 0.661353
O O1 0.891335 0.198613 0.279931
O O2 0.820893 0.827184 0.008267
O O3 0.000000 0.500000 0.000000
O O4 0.000000 0.000000 0.000000
O O5 0.791370 0.672219 0.496374
O O6 0.828546 0.479079 0.610318
O O7 0.949183 0.138059 0.652309
O O8 0.727441 0.773366 0.873542
O O9 0.410118 0.617403 0.850953
O O10 0.286915 0.923169 0.765286
O O11 0.000000 0.500000 0.500000
O O12 0.358143 0.602708 0.643202
O O13 0.420966 0.875582 0.401492
O O14 0.500000 0.500000 0.500000
#
# Coordination Sequence:
#
# PCOD9031554 Si02
#       6
#     2   2   2   2   2   2
#     4  12  26  44  69 103 142 186 233 285 342 413
#     4  11  24  41  63  97 133 175 231 274 346 406
#     4  11  23  40  66  96 133 179 225 280 344 410
#     4  11  25  40  60  98 141 179 229 283 333 418
#     4  10  22  43  67  92 131 173 226 289 344 409
#     4   9  22  43  66  94 125 171 228 285 350 408
#
# _framework density 23.365397000000002
#
# number of rings (size 3 to 8) (size 9 to 14) (size 15 to 20)
#    0.000    1.333    3.333    1.000    7.000    2.000 
#    0.000    7.500    0.000    0.000    0.000    0.000 
#    0.000    0.000    0.000    0.000    0.000    0.000 
#
# Total GULP energy -66882.438678 kJ/mol
# GULP energy per Si atom -5573.536556 kJ/mol
# Density = 2.331222 g / cm^3
# Si number density = 23.365397 Si / 1000 Ang^3
#
#
#
# Elastic Constant Matrix: (Units=GPa)
#
#
# Indices 1 2 3 4 5 6 
#
# 1 105.0945 -1.7444 17.3637 18.4256 -9.8425 -15.8593
# 2 -1.7444 50.5442 26.1884 -8.1977 -3.0742 1.7333
# 3 17.3637 26.1884 149.3644 5.0239 6.3647 -6.2366
# 4 18.4256 -8.1977 5.0239 38.0475 7.4118 8.7063
# 5 -9.8425 -3.0742 6.3647 7.4118 29.6507 3.4708
# 6 -15.8593 1.7333 -6.2366 8.7063 3.4708 29.5084
#
#
#
# Elastic Compliance Matrix: (Units=1/GPa)
#
#
# Indices 1 2 3 4 5 6 
#
# 1 0.013297 -0.000545 -0.000996 -0.009666 0.005919 0.009123
# 2 -0.000545 0.023508 -0.004575 0.006624 0.002150 -0.004848
# 3 -0.000996 -0.004575 0.007855 -0.001571 -0.002348 0.002133
# 4 -0.009666 0.006624 -0.001571 0.038185 -0.009854 -0.016023
# 5 0.005919 0.002150 -0.002348 -0.009854 0.038775 0.000905
# 6 0.009123 -0.004848 0.002133 -0.016023 0.000905 0.044149
#
#
# Mechanical properties :
#
#
# Convention : Reuss Voigt Hill
#
# Bulk Modulus (GPa) = 30.83979 43.17982 37.00981
# Shear Modulus (GPa) = 26.48159 36.98767 31.73463
#
# Velocity S-wave (km/s) = 3.37021 3.98302 3.68936
# Velocity P-wave (km/s) = 5.32653 6.29865 5.83288
#
# Compressibility (1/GPa) = 0.03242564
#
# Stress axis : x y z
#
# Youngs Moduli (GPa) = 75.20693 42.53928 127.30763
#
# Poissons Ratio (x) = 0.02320 0.12683
# Poissons Ratio (y) = 0.04102 0.58244
# Poissons Ratio (z) = 0.07493 0.19462
#
# Static dielectric constant tensor:
#      x y z
#    x 1.916220 -0.128570 -0.050880 
#    y -0.128570 2.123560 -0.010970 
#    z -0.050880 -0.010970 1.941700 
# 
# From -- ./inp_files/20035.got.cif
#   From: 2010.05.17/outbox.cif.g08.bks.cpg/sg2_11_cif.got.tgz:20035.got - 2010.06.03 11:33:40.
