data_PCOD9031520
_publ_section_title
;
Structure prediction by ZEFSAII (Michael W. Deem and Ramdas Pophale) SiO2 
 PCOD9031520
Probable space group: P -1
;
_chemical_formula_sum "Si O2"
_cell_formula_units_Z 16
_cell_length_a 5.294569
_cell_length_b 19.783520
_cell_length_c 12.369946
_cell_angle_alpha 35.482470
_cell_angle_beta 110.043448
_cell_angle_gamma 111.967817
_cell_volume 695.732863
_symmetry_space_group_name_H-M "P -1"
_symmetry_group_IT_number 2
_symmetry_cell_setting 'triclinic'
loop_
_space_group_symop_operation_xyz
x,y,z
-x,-y,-z
loop_
_atom_site_type_symbol
_atom_site_label
_atom_site_fract_x
_atom_site_fract_y
_atom_site_fract_z
Si Si1 0.054619 0.740752 0.558003
Si Si2 0.766839 0.516134 0.361462
Si Si3 0.493194 0.270829 0.985779
Si Si4 0.197908 0.902458 0.169157
Si Si5 0.333371 0.893881 0.957316
Si Si6 0.029173 0.053673 0.586300
Si Si7 0.836792 0.516580 0.715897
Si Si8 0.493676 0.143625 0.377176
O O1 0.890908 0.832601 0.471842
O O2 0.900441 0.607541 0.704198
O O3 0.091767 0.793879 0.373151
O O4 0.337879 0.758179 0.643465
O O5 0.748290 0.654953 0.167779
O O6 0.449843 0.458360 0.413100
O O7 0.000000 0.500000 0.500000
O O8 0.887363 0.469689 0.330891
O O9 0.749869 0.377268 0.905703
O O10 0.548619 0.195995 0.986485
O O11 0.459901 0.199576 0.184077
O O12 0.453463 0.983022 0.160479
O O13 0.267714 0.858742 0.117494
O O14 0.000000 0.000000 0.000000
O O15 0.080557 0.936007 0.805721
O O16 0.215755 0.085510 0.468538
O O17 0.712794 0.055689 0.519859
#
# Coordination Sequence:
#
# PCOD9031520 Si02
#       8
#     2   2   2   2   2   2   2   2
#     4  10  23  43  70 103 142 186 238 293 349 422
#     4  10  24  48  64 100 140 187 238 283 353 419
#     4  10  27  44  69 108 141 191 237 290 355 424
#     4  11  22  43  68 104 138 186 233 297 354 419
#     4  11  23  44  69 103 147 181 239 293 356 430
#     4  10  22  43  67 104 138 188 231 287 359 406
#     4  10  25  43  71 100 139 188 236 287 356 412
#     4  10  23  42  70 103 144 185 238 290 350 420
#
# _framework density 22.997333999999999
#
# number of rings (size 3 to 8) (size 9 to 14) (size 15 to 20)
#    1.500    0.250    2.500    0.375    3.500    4.500 
#    0.000    1.250    0.000    0.000    0.000    0.000 
#    0.000    0.000    0.000    0.000    0.000    0.000 
#
# Total GULP energy -89334.336890 kJ/mol
# GULP energy per Si atom -5583.396056 kJ/mol
# Density = 2.294499 g / cm^3
# Si number density = 22.997334 Si / 1000 Ang^3
#
#
#
# Elastic Constant Matrix: (Units=GPa)
#
#
# Indices 1 2 3 4 5 6 
#
# 1 121.1640 51.3242 36.7805 1.0763 15.9518 -10.2378
# 2 51.3242 144.8890 59.3756 -8.5797 -1.4991 -11.1071
# 3 36.7805 59.3756 94.9062 11.3338 11.2255 -15.9336
# 4 1.0763 -8.5797 11.3338 18.8503 -2.2738 3.3740
# 5 15.9518 -1.4991 11.2255 -2.2738 41.1117 5.4555
# 6 -10.2378 -11.1071 -15.9336 3.3740 5.4555 45.0147
#
#
#
# Elastic Compliance Matrix: (Units=1/GPa)
#
#
# Indices 1 2 3 4 5 6 
#
# 1 0.010784 -0.003565 -0.000743 -0.002708 -0.004535 0.002063
# 2 -0.003565 0.012389 -0.008864 0.012244 0.005257 -0.002446
# 3 -0.000743 -0.008864 0.020745 -0.018705 -0.007705 0.007323
# 4 -0.002708 0.012244 -0.018705 0.073494 0.012155 -0.011197
# 5 -0.004535 0.005257 -0.007705 0.012155 0.029981 -0.007006
# 6 0.002063 -0.002446 0.007323 -0.011197 -0.007006 0.026361
#
#
# Mechanical properties :
#
#
# Convention : Reuss Voigt Hill
#
# Bulk Modulus (GPa) = 56.90156 72.88000 64.89078
# Shear Modulus (GPa) = 24.27705 35.22727 29.75216
#
# Velocity S-wave (km/s) = 3.25260 3.91806 3.60074
# Velocity P-wave (km/s) = 6.23717 7.22688 6.75018
#
# Compressibility (1/GPa) = 0.01757421
#
# Stress axis : x y z
#
# Youngs Moduli (GPa) = 92.72792 80.71733 48.20485
#
# Poissons Ratio (x) = 0.28773 0.03583
# Poissons Ratio (y) = 0.33055 0.42729
# Poissons Ratio (z) = 0.06892 0.71548
#
# Static dielectric constant tensor:
#      x y z
#    x 1.957600 0.104100 -0.010020 
#    y 0.104100 2.015880 0.021560 
#    z -0.010020 0.021560 1.821950 
# 
# From -- ./inp_files/370039.got.cif
#   From: 2010.05.17/outbox.cif.g08.bks.cpg/sg2_186_cif.got.tgz:370039.got - 2010.06.03 11:33:40.
