data_PCOD9031046
_publ_section_title
;
Structure prediction by ZEFSAII (Michael W. Deem and Ramdas Pophale) SiO2 
 PCOD9031046
Probable space group: P -1
;
_chemical_formula_sum "Si O2"
_cell_formula_units_Z 16
_cell_length_a 5.108561
_cell_length_b 26.177121
_cell_length_c 28.051991
_cell_angle_alpha 170.386540
_cell_angle_beta 70.623715
_cell_angle_gamma 110.712931
_cell_volume 582.520045
_symmetry_space_group_name_H-M "P -1"
_symmetry_group_IT_number 2
_symmetry_cell_setting 'triclinic'
loop_
_space_group_symop_operation_xyz
x,y,z
-x,-y,-z
loop_
_atom_site_type_symbol
_atom_site_label
_atom_site_fract_x
_atom_site_fract_y
_atom_site_fract_z
Si Si1 0.277128 0.598595 0.223257
Si Si2 0.130889 0.950509 0.021916
Si Si3 0.903004 0.065048 0.707630
Si Si4 0.645280 0.603069 0.661521
Si Si5 0.226257 0.185674 0.418568
Si Si6 0.808761 0.626451 0.877594
Si Si7 0.324343 0.933605 0.780180
Si Si8 0.829740 0.652166 0.191007
O O1 0.346621 0.563874 0.243072
O O2 0.514904 0.725285 0.287253
O O3 0.031718 0.813966 0.437401
O O4 0.165914 0.254460 0.894912
O O5 0.252349 0.261638 0.271661
O O6 0.991690 0.033655 0.156017
O O7 0.367710 0.738169 0.815451
O O8 0.891141 0.749182 0.817848
O O9 0.709526 0.913384 0.622618
O O10 0.800651 0.349767 0.949684
O O11 0.601609 0.230873 0.326451
O O12 0.519185 0.279943 0.460231
O O13 0.018830 0.430967 0.660403
O O14 0.027497 0.910443 0.148754
O O15 0.607407 0.757287 0.972430
O O16 0.000000 0.000000 0.500000
O O17 0.000000 0.500000 0.000000
#
# Coordination Sequence:
#
# PCOD9031046 Si02
#       8
#     2   2   2   2   2   2   2   2
#     4  10  22  43  64  88 129 174 214 269 336 401
#     4  10  24  44  66  96 136 184 233 286 353 424
#     4  10  22  43  64  88 129 174 214 269 336 401
#     4  10  24  44  66  96 136 184 233 286 353 424
#     4  10  24  42  65  96 130 172 223 275 343 415
#     4  10  24  42  65  96 130 172 223 275 343 415
#     4  12  24  36  68  93 136 168 224 290 344 410
#     4  12  25  38  62  97 126 166 223 276 327 396
#
# _framework density 27.466864999999999
#
# number of rings (size 3 to 8) (size 9 to 14) (size 15 to 20)
#    0.000    1.500    0.000    3.375    7.000    3.000 
#    0.000   11.250    0.000    0.000    0.000    0.000 
#    0.000    0.000    0.000    0.000    0.000    0.000 
#
# Total GULP energy -89318.887130 kJ/mol
# GULP energy per Si atom -5582.430446 kJ/mol
# Density = 2.740435 g / cm^3
# Si number density = 27.466865 Si / 1000 Ang^3
#
#
#
# Elastic Constant Matrix: (Units=GPa)
#
#
# Indices 1 2 3 4 5 6 
#
# 1 93.0086 38.0881 29.7697 -3.0674 -11.6656 12.9557
# 2 38.0881 158.0116 46.2698 -5.2601 -19.4397 43.2279
# 3 29.7697 46.2698 152.2383 -8.9569 -23.9972 -5.7815
# 4 -3.0674 -5.2601 -8.9569 65.3952 -13.6526 -21.6501
# 5 -11.6656 -19.4397 -23.9972 -13.6526 45.5222 0.0802
# 6 12.9557 43.2279 -5.7815 -21.6501 0.0802 38.0534
#
#
#
# Elastic Compliance Matrix: (Units=1/GPa)
#
#
# Indices 1 2 3 4 5 6 
#
# 1 0.012576 -0.001374 -0.001983 -0.000615 0.001412 -0.003375
# 2 -0.001374 0.012760 -0.004392 -0.005231 0.001244 -0.017673
# 3 -0.001983 -0.004392 0.009629 0.005057 0.004191 0.009996
# 4 -0.000615 -0.005231 0.005057 0.023858 0.007393 0.020478
# 5 0.001412 0.001244 0.004191 0.007393 0.027282 0.002892
# 6 -0.003375 -0.017673 0.009996 0.020478 0.002892 0.060668
#
#
# Mechanical properties :
#
#
# Convention : Reuss Voigt Hill
#
# Bulk Modulus (GPa) = 51.37259 70.16820 60.77040
# Shear Modulus (GPa) = 29.62778 49.06954 39.34866
#
# Velocity S-wave (km/s) = 3.28788 4.23129 3.78906
# Velocity P-wave (km/s) = 5.75827 7.03375 6.42772
#
# Compressibility (1/GPa) = 0.01946563
#
# Stress axis : x y z
#
# Youngs Moduli (GPa) = 79.51556 78.37084 103.85076
#
# Poissons Ratio (x) = 0.10770 0.20597
# Poissons Ratio (y) = 0.10927 0.45614
# Poissons Ratio (z) = 0.15771 0.34423
#
# Static dielectric constant tensor:
#      x y z
#    x 2.113410 -0.056920 0.089920 
#    y -0.056920 2.184800 0.056050 
#    z 0.089920 0.056050 2.103110 
# 
# From -- ./inp_files/12900.got.cif
#   From: 2010.05.17/outbox.cif.g08.bks.cpg/sg2_7_cif.got.tgz:12900.got - 2010.06.03 11:33:40.
