data_PCOD9031933
_publ_section_title
;
Structure prediction by ZEFSAII (Michael W. Deem and Ramdas Pophale) SiO2 
 PCOD9031933
Probable space group: P -1
;
_chemical_formula_sum "Si O2"
_cell_formula_units_Z 14
_cell_length_a 9.483905
_cell_length_b 11.053109
_cell_length_c 15.194864
_cell_angle_alpha 116.324264
_cell_angle_beta 152.476188
_cell_angle_gamma 54.320714
_cell_volume 586.243396
_symmetry_space_group_name_H-M "P -1"
_symmetry_group_IT_number 2
_symmetry_cell_setting 'triclinic'
loop_
_space_group_symop_operation_xyz
x,y,z
-x,-y,-z
loop_
_atom_site_type_symbol
_atom_site_label
_atom_site_fract_x
_atom_site_fract_y
_atom_site_fract_z
Si Si1 0.169612 0.221046 0.232490
Si Si2 0.693009 0.460562 0.839896
Si Si3 0.581153 0.374744 0.429433
Si Si4 0.693904 0.308899 0.155760
Si Si5 0.138950 0.989194 0.347231
Si Si6 0.984190 0.888917 0.055271
Si Si7 0.723535 0.868334 0.192120
O O1 0.299069 0.314060 0.269412
O O2 0.515056 0.111158 0.441219
O O3 0.889648 0.321176 0.181782
O O4 0.000306 0.139821 0.050772
O O5 0.437600 0.541422 0.644478
O O6 0.502423 0.539395 0.849159
O O7 0.843584 0.281696 0.866920
O O8 0.000000 0.500000 0.000000
O O9 0.500000 0.500000 0.500000
O O10 0.951780 0.232671 0.600691
O O11 0.430941 0.241657 0.963247
O O12 0.978668 0.170494 0.327234
O O13 0.150387 0.962489 0.239348
O O14 0.870396 0.933732 0.217750
O O15 0.578208 0.990622 0.880413
#
# Coordination Sequence:
#
# PCOD9031933 Si02
#       7
#     2   2   2   2   2   2   2
#     4  11  25  42  70  98 141 173 226 278 341 396
#     4  12  22  41  69  96 130 176 226 268 334 397
#     4  11  24  44  69 102 134 174 227 281 329 402
#     4  11  24  43  68 101 134 177 219 284 338 391
#     4  10  22  43  68  99 140 172 227 277 332 399
#     4  11  23  42  67  98 134 180 220 274 338 394
#     4  10  23  42  71  97 136 173 231 274 330 399
#
# _framework density 23.880865
#
# number of rings (size 3 to 8) (size 9 to 14) (size 15 to 20)
#    0.000    1.143    1.429    6.429    2.000    4.000 
#    2.571    1.429    0.000    0.000    0.000    0.000 
#    0.000    0.000    0.000    0.000    0.000    0.000 
#
# Total GULP energy -78335.087794 kJ/mol
# GULP energy per Si atom -5595.363414 kJ/mol
# Density = 2.382651 g / cm^3
# Si number density = 23.880865 Si / 1000 Ang^3
#
#
#
# Elastic Constant Matrix: (Units=GPa)
#
#
# Indices 1 2 3 4 5 6 
#
# 1 104.5896 28.0249 37.9898 -21.2615 -7.6023 -19.5909
# 2 28.0249 129.7416 22.2755 -23.0867 4.9157 -24.9458
# 3 37.9898 22.2755 56.1795 -24.6052 -7.8550 10.9464
# 4 -21.2615 -23.0867 -24.6052 37.6637 7.6411 0.6242
# 5 -7.6023 4.9157 -7.8550 7.6411 45.0818 -2.1005
# 6 -19.5909 -24.9458 10.9464 0.6242 -2.1005 31.5782
#
#
#
# Elastic Compliance Matrix: (Units=1/GPa)
#
#
# Indices 1 2 3 4 5 6 
#
# 1 0.019242 0.002900 -0.017821 0.000519 0.000688 0.020441
# 2 0.002900 0.011858 -0.007900 0.003967 -0.002215 0.013679
# 3 -0.017821 -0.007900 0.046723 0.015825 0.001745 -0.033690
# 4 0.000519 0.003967 0.015825 0.040602 -0.004616 -0.003139
# 5 0.000688 -0.002215 0.001745 -0.004616 0.023613 -0.000267
# 6 0.020441 0.013679 -0.033690 -0.003139 -0.000267 0.066878
#
#
# Mechanical properties :
#
#
# Convention : Reuss Voigt Hill
#
# Bulk Modulus (GPa) = 31.07538 51.89902 41.48720
# Shear Modulus (GPa) = 18.84776 36.34613 27.59694
#
# Velocity S-wave (km/s) = 2.81239 3.90548 3.40311
# Velocity P-wave (km/s) = 4.85664 6.48974 5.73165
#
# Compressibility (1/GPa) = 0.03217982
#
# Stress axis : x y z
#
# Youngs Moduli (GPa) = 51.97096 84.33422 21.40290
#
# Poissons Ratio (x) = -0.24457 0.38141
# Poissons Ratio (y) = -0.15072 0.16909
# Poissons Ratio (z) = 0.92616 0.66626
#
# Static dielectric constant tensor:
#      x y z
#    x 1.957520 0.060880 -0.024160 
#    y 0.060880 1.901940 0.016810 
#    z -0.024160 0.016810 1.972190 
# 
# From -- ./inp_files/299373.got.cif
#   From: 2010.05.17/outbox.cif.g08.bks.cpg/sg2_150_cif.got.tgz:299373.got - 2010.06.03 11:33:40.
