data_PCOD9031664
_publ_section_title
;
Structure prediction by ZEFSAII (Michael W. Deem and Ramdas Pophale) SiO2 
 PCOD9031664
Probable space group: P -1
;
_chemical_formula_sum "Si O2"
_cell_formula_units_Z 12
_cell_length_a 12.839069
_cell_length_b 4.853528
_cell_length_c 7.542504
_cell_angle_alpha 76.007369
_cell_angle_beta 89.574681
_cell_angle_gamma 109.485326
_cell_volume 427.945051
_symmetry_space_group_name_H-M "P -1"
_symmetry_group_IT_number 2
_symmetry_cell_setting 'triclinic'
loop_
_space_group_symop_operation_xyz
x,y,z
-x,-y,-z
loop_
_atom_site_type_symbol
_atom_site_label
_atom_site_fract_x
_atom_site_fract_y
_atom_site_fract_z
Si Si1 0.829893 0.781391 0.381090
Si Si2 0.614391 0.898557 0.331570
Si Si3 0.043006 0.160648 0.161565
Si Si4 0.408731 0.768040 0.166650
Si Si5 0.313405 0.448066 0.875960
Si Si6 0.172350 0.716568 0.269650
O O1 0.716236 0.836480 0.440690
O O2 0.803718 0.631832 0.206254
O O3 0.855109 0.537034 0.539278
O O4 0.934944 0.078724 0.302073
O O5 0.483665 0.711222 0.335133
O O6 0.659010 0.838388 0.147244
O O7 0.620271 0.244595 0.282027
O O8 0.121738 0.977245 0.256118
O O9 0.114166 0.516228 0.127710
O O10 0.000000 0.000000 0.000000
O O11 0.305805 0.840006 0.237441
O O12 0.347568 0.505845 0.067875
O O13 0.500000 0.000000 0.000000
#
# Coordination Sequence:
#
# PCOD9031664 Si02
#       6
#     2   2   2   2   2   2
#     4  10  25  43  70  98 140 169 220 274 337 387
#     4   9  21  36  68  91 131 172 216 262 325 378
#     4  12  28  46  72  95 134 174 227 272 329 400
#     4  10  22  43  67  98 135 175 224 270 322 392
#     4   9  20  36  66  91 129 170 220 255 325 381
#     4  12  28  43  70 102 132 175 220 275 337 390
#
# _framework density 28.040980000000001
#
# number of rings (size 3 to 8) (size 9 to 14) (size 15 to 20)
#    1.000    0.667    0.000    3.000    9.333    3.333 
#    0.000    3.333    0.000    0.000    0.000    0.000 
#    0.000    0.000    0.000    0.000    0.000    0.000 
#
# Total GULP energy -66910.745278 kJ/mol
# GULP energy per Si atom -5575.895440 kJ/mol
# Density = 2.797716 g / cm^3
# Si number density = 28.040980 Si / 1000 Ang^3
#
#
#
# Elastic Constant Matrix: (Units=GPa)
#
#
# Indices 1 2 3 4 5 6 
#
# 1 129.9883 25.1203 55.8627 2.5398 11.8749 30.6811
# 2 25.1203 84.6392 33.9815 8.2230 -0.2095 11.6904
# 3 55.8627 33.9815 75.2684 7.5753 14.3870 -2.2756
# 4 2.5398 8.2230 7.5753 29.5284 2.1869 9.8712
# 5 11.8749 -0.2095 14.3870 2.1869 46.9150 -3.2725
# 6 30.6811 11.6904 -2.2756 9.8712 -3.2725 38.5742
#
#
#
# Elastic Compliance Matrix: (Units=1/GPa)
#
#
# Indices 1 2 3 4 5 6 
#
# 1 0.018399 0.002743 -0.015999 0.008080 -0.001412 -0.018597
# 2 0.002743 0.015977 -0.009854 0.000212 0.001866 -0.007501
# 3 -0.015999 -0.009854 0.032017 -0.010470 -0.003933 0.019946
# 4 0.008080 0.000212 -0.010470 0.041974 -0.002047 -0.018023
# 5 -0.001412 0.001866 -0.003933 -0.002047 0.023179 0.002816
# 6 -0.018597 -0.007501 0.019946 -0.018023 0.002816 0.049017
#
#
# Mechanical properties :
#
#
# Convention : Reuss Voigt Hill
#
# Bulk Modulus (GPa) = 49.56978 57.75831 53.66405
# Shear Modulus (GPa) = 21.41253 34.66561 28.03907
#
# Velocity S-wave (km/s) = 2.76636 3.51985 3.16560
# Velocity P-wave (km/s) = 5.28390 6.09603 5.70444
#
# Compressibility (1/GPa) = 0.02017358
#
# Stress axis : x y z
#
# Youngs Moduli (GPa) = 54.35014 62.59031 31.23300
#
# Poissons Ratio (x) = -0.17168 0.49971
# Poissons Ratio (y) = -0.14908 0.30776
# Poissons Ratio (z) = 0.86956 0.61674
#
# Static dielectric constant tensor:
#      x y z
#    x 2.218330 0.047870 0.070160 
#    y 0.047870 2.185880 0.032340 
#    z 0.070160 0.032340 2.325050 
# 
# From -- ./inp_files/286887.got.cif
#   From: 2010.05.17/outbox.cif.g08.bks.cpg/sg2_144_cif.got.tgz:286887.got - 2010.06.03 11:33:40.
