data_PCOD9031651
_publ_section_title
;
Structure prediction by ZEFSAII (Michael W. Deem and Ramdas Pophale) SiO2 
 PCOD9031651
Probable space group: P -1
;
_chemical_formula_sum "Si O2"
_cell_formula_units_Z 11
_cell_length_a 5.486325
_cell_length_b 5.015331
_cell_length_c 16.334579
_cell_angle_alpha 99.777663
_cell_angle_beta 95.745053
_cell_angle_gamma 85.630072
_cell_volume 439.900598
_symmetry_space_group_name_H-M "P -1"
_symmetry_group_IT_number 2
_symmetry_cell_setting 'triclinic'
loop_
_space_group_symop_operation_xyz
x,y,z
-x,-y,-z
loop_
_atom_site_type_symbol
_atom_site_label
_atom_site_fract_x
_atom_site_fract_y
_atom_site_fract_z
Si Si1 0.348865 0.342429 0.554102
Si Si2 0.987933 0.539161 0.129154
Si Si3 0.500000 0.500000 0.000000
Si Si4 0.972164 0.492411 0.311725
Si Si5 0.216123 0.040626 0.390161
Si Si6 0.794961 0.000121 0.923676
O O1 0.500000 0.500000 0.500000
O O2 0.239492 0.539410 0.630590
O O3 0.157279 0.200588 0.481417
O O4 0.518489 0.109204 0.592227
O O5 0.903296 0.480650 0.214568
O O6 0.086240 0.836926 0.138314
O O7 0.770147 0.490915 0.056583
O O8 0.223681 0.322182 0.107279
O O9 0.561494 0.188670 0.950300
O O10 0.184171 0.266131 0.330500
O O11 0.053579 0.793373 0.349326
O O12 0.000000 0.000000 0.000000
#
# Coordination Sequence:
#
# PCOD9031651 Si02
#       6
#     2   2   1   2   2   2
#     4  11  25  44  71 102 131 187 241 272 339 416
#     4  11  25  42  65 102 136 175 230 274 340 404
#     4  10  22  44  72  92 130 178 214 280 330 398
#     4  12  26  42  67  99 144 182 222 292 345 391
#     4  11  25  44  67  97 137 182 228 286 336 408
#     4  10  22  43  67  98 128 171 225 275 336 410
#
# _framework density 25.005649999999999
#
# number of rings (size 3 to 8) (size 9 to 14) (size 15 to 20)
#    0.000    1.091    1.818    4.364    5.091    9.455 
#    0.000    0.000    0.000    0.000    0.000    0.000 
#    0.000    0.000    0.000    0.000    0.000    0.000 
#
# Total GULP energy -61298.315914 kJ/mol
# GULP energy per Si atom -5572.574174 kJ/mol
# Density = 2.494874 g / cm^3
# Si number density = 25.005650 Si / 1000 Ang^3
#
#
#
# Elastic Constant Matrix: (Units=GPa)
#
#
# Indices 1 2 3 4 5 6 
#
# 1 50.2404 42.3072 29.3212 -8.1713 3.4600 -13.3259
# 2 42.3072 172.1566 48.3314 -14.1705 -4.4364 -12.8727
# 3 29.3212 48.3314 112.5505 -20.8085 -10.5860 -7.5539
# 4 -8.1713 -14.1705 -20.8085 39.6301 4.7537 -0.7875
# 5 3.4600 -4.4364 -10.5860 4.7537 17.7664 4.0639
# 6 -13.3259 -12.8727 -7.5539 -0.7875 4.0639 58.1023
#
#
#
# Elastic Compliance Matrix: (Units=1/GPa)
#
#
# Indices 1 2 3 4 5 6 
#
# 1 0.031130 -0.005611 -0.005985 0.002976 -0.013218 0.006083
# 2 -0.005611 0.007730 -0.001568 0.000556 0.001918 0.000095
# 3 -0.005985 -0.001568 0.012483 0.003873 0.007303 -0.000556
# 4 0.002976 0.000556 0.003873 0.028884 -0.006352 0.002145
# 5 -0.013218 0.001918 0.007303 -0.006352 0.066858 -0.006420
# 6 0.006083 0.000095 -0.000556 0.002145 -0.006420 0.019033
#
#
# Mechanical properties :
#
#
# Convention : Reuss Voigt Hill
#
# Bulk Modulus (GPa) = 39.97605 63.87412 51.92509
# Shear Modulus (GPa) = 24.90228 37.43228 31.16728
#
# Velocity S-wave (km/s) = 3.15916 3.87324 3.53428
# Velocity P-wave (km/s) = 5.41558 6.75293 6.12089
#
# Compressibility (1/GPa) = 0.02501498
#
# Stress axis : x y z
#
# Youngs Moduli (GPa) = 32.12341 129.36574 80.10800
#
# Poissons Ratio (x) = 0.72582 0.47946
# Poissons Ratio (y) = 0.18023 0.12563
# Poissons Ratio (z) = 0.19226 0.20288
#
# Static dielectric constant tensor:
#      x y z
#    x 4.775520 -0.446410 -3.049090 
#    y -0.446410 2.036820 0.493670 
#    z -3.049090 0.493670 5.122030 
# 
# From -- ./inp_files/5022.got.cif
#   From: 2010.05.17/outbox.cif.g08.bks.cpg/sg2_3_cif.got.tgz:5022.got - 2010.06.03 11:33:40.
