data_PCOD9031890
_publ_section_title
;
Structure prediction by ZEFSAII (Michael W. Deem and Ramdas Pophale) SiO2 
 PCOD9031890
Probable space group: P -1
;
_chemical_formula_sum "Si O2"
_cell_formula_units_Z 14
_cell_length_a 23.185541
_cell_length_b 14.324942
_cell_length_c 8.055291
_cell_angle_alpha 133.744832
_cell_angle_beta 34.195163
_cell_angle_gamma 156.125145
_cell_volume 583.276566
_symmetry_space_group_name_H-M "P -1"
_symmetry_group_IT_number 2
_symmetry_cell_setting 'triclinic'
loop_
_space_group_symop_operation_xyz
x,y,z
-x,-y,-z
loop_
_atom_site_type_symbol
_atom_site_label
_atom_site_fract_x
_atom_site_fract_y
_atom_site_fract_z
Si Si1 0.680438 0.539487 0.973352
Si Si2 0.334878 0.725622 0.498142
Si Si3 0.714375 0.221463 0.686660
Si Si4 0.960019 0.251721 0.025827
Si Si5 0.086801 0.995501 0.426984
Si Si6 0.451769 0.502349 0.297217
Si Si7 0.235994 0.473237 0.883281
O O1 0.587421 0.333181 0.818456
O O2 0.902136 0.759630 0.676749
O O3 0.596486 0.589286 0.186188
O O4 0.681029 0.507323 0.125770
O O5 0.270183 0.712096 0.456944
O O6 0.500000 0.000000 0.500000
O O7 0.152950 0.517485 0.802259
O O8 0.821185 0.199813 0.390955
O O9 0.806101 0.425621 0.838717
O O10 0.500000 0.000000 0.000000
O O11 0.850865 0.059917 0.903194
O O12 0.047566 0.245135 0.944326
O O13 0.240773 0.214040 0.457147
O O14 0.000000 0.000000 0.500000
O O15 0.411651 0.613070 0.521201
O O16 0.500000 0.500000 0.000000
#
# Coordination Sequence:
#
# PCOD9031890 Si02
#       7
#     2   2   2   2   2   2   2
#     4  10  24  43  64 101 134 168 223 273 334 396
#     4  10  22  43  68  98 129 176 228 270 329 401
#     4  11  25  41  65  99 135 176 221 280 338 389
#     4  11  23  44  70  94 137 177 224 278 326 408
#     4  11  22  43  67  99 127 175 225 270 332 393
#     4  12  23  41  71  94 131 176 220 273 327 401
#     4  11  24  44  62  96 135 170 220 273 335 394
#
# _framework density 24.002336
#
# number of rings (size 3 to 8) (size 9 to 14) (size 15 to 20)
#    0.000    1.143    2.857    3.000    4.000    0.571 
#    5.143    0.000    0.000    0.000    0.000    0.000 
#    0.000    0.000    0.000    0.000    0.000    0.000 
#
# Total GULP energy -77997.345513 kJ/mol
# GULP energy per Si atom -5571.238965 kJ/mol
# Density = 2.394771 g / cm^3
# Si number density = 24.002336 Si / 1000 Ang^3
#
#
#
# Elastic Constant Matrix: (Units=GPa)
#
#
# Indices 1 2 3 4 5 6 
#
# 1 70.4421 -10.6081 31.9810 -7.1216 -2.5900 12.5235
# 2 -10.6081 89.5846 16.3576 3.4266 6.5662 15.9723
# 3 31.9810 16.3576 174.8869 16.8822 -23.1103 5.2168
# 4 -7.1216 3.4266 16.8822 27.1034 -0.1925 3.4841
# 5 -2.5900 6.5662 -23.1103 -0.1925 39.0262 3.9346
# 6 12.5235 15.9723 5.2168 3.4841 3.9346 26.2240
#
#
#
# Elastic Compliance Matrix: (Units=1/GPa)
#
#
# Indices 1 2 3 4 5 6 
#
# 1 0.020502 0.005395 -0.004916 0.009455 -0.001081 -0.013193
# 2 0.005395 0.014267 -0.002577 0.002580 -0.002474 -0.010725
# 3 -0.004916 -0.002577 0.007988 -0.006227 0.004557 0.002472
# 4 0.009455 0.002580 -0.006227 0.044253 -0.002228 -0.010393
# 5 -0.001081 -0.002474 0.004557 -0.002228 0.028952 -0.002931
# 6 -0.013193 -0.010725 0.002472 -0.010393 -0.002931 0.052295
#
#
# Mechanical properties :
#
#
# Convention : Reuss Voigt Hill
#
# Bulk Modulus (GPa) = 25.93315 45.59717 35.76516
# Shear Modulus (GPa) = 26.98262 38.28294 32.63278
#
# Velocity S-wave (km/s) = 3.35650 3.99804 3.69123
# Velocity P-wave (km/s) = 5.08422 6.35221 5.75326
#
# Compressibility (1/GPa) = 0.03856069
#
# Stress axis : x y z
#
# Youngs Moduli (GPa) = 48.77583 70.09225 125.19492
#
# Poissons Ratio (x) = -0.37816 0.61544
# Poissons Ratio (y) = -0.26315 0.32265
# Poissons Ratio (z) = 0.23977 0.18064
#
# Static dielectric constant tensor:
#      x y z
#    x 1.883570 -0.265280 0.136210 
#    y -0.265280 1.738000 0.093840 
#    z 0.136210 0.093840 2.060390 
# 
# From -- ./inp_files/357614.got.cif
#   From: 2010.05.17/outbox.cif.g08.bks.cpg/sg2_179_cif.got.tgz:357614.got - 2010.06.03 11:33:40.
