data_PCOD9031780
_publ_section_title
;
Structure prediction by ZEFSAII (Michael W. Deem and Ramdas Pophale) SiO2 
 PCOD9031780
Probable space group: P -1
;
_chemical_formula_sum "Si O2"
_cell_formula_units_Z 16
_cell_length_a 8.751234
_cell_length_b 13.382461
_cell_length_c 12.751075
_cell_angle_alpha 84.264787
_cell_angle_beta 82.389059
_cell_angle_gamma 147.514012
_cell_volume 729.454993
_symmetry_space_group_name_H-M "P -1"
_symmetry_group_IT_number 2
_symmetry_cell_setting 'triclinic'
loop_
_space_group_symop_operation_xyz
x,y,z
-x,-y,-z
loop_
_atom_site_type_symbol
_atom_site_label
_atom_site_fract_x
_atom_site_fract_y
_atom_site_fract_z
Si Si1 0.904450 0.127500 0.999065
Si Si2 0.223578 0.240939 0.163944
Si Si3 0.345208 0.498385 0.448548
Si Si4 0.490868 0.401168 0.811793
Si Si5 0.309204 0.715769 0.183669
Si Si6 0.197665 0.063267 0.571639
Si Si7 0.123333 0.478245 0.922109
Si Si8 0.751047 0.270391 0.569674
O O1 0.019078 0.131244 0.090551
O O2 0.539628 0.901634 0.062020
O O3 0.118723 0.203956 0.878891
O O4 0.980812 0.288561 0.983012
O O5 0.362689 0.432213 0.143496
O O6 0.510838 0.328715 0.116566
O O7 0.034302 0.101314 0.297997
O O8 0.500000 0.500000 0.500000
O O9 0.389504 0.501381 0.322896
O O10 0.565792 0.718204 0.430366
O O11 0.981298 0.307089 0.527890
O O12 0.610934 0.356773 0.823576
O O13 0.343825 0.772474 0.294530
O O14 0.968744 0.548467 0.187069
O O15 0.451900 0.115232 0.537375
O O16 0.000000 0.000000 0.500000
O O17 0.000000 0.500000 0.000000
O O18 0.000000 0.500000 0.500000
#
# Coordination Sequence:
#
# PCOD9031780 Si02
#       8
#     2   2   2   2   2   2   2   2
#     4  11  23  43  65  95 130 170 218 263 329 389
#     4  11  23  43  64  94 133 169 213 270 329 393
#     4  11  24  43  67  96 128 174 225 267 328 390
#     4  11  22  39  68  93 129 171 212 265 332 388
#     4  12  22  42  68  95 129 169 216 273 323 391
#     4  11  23  43  67  95 128 173 218 275 325 386
#     4  11  25  41  63  96 132 170 213 268 327 394
#     4  10  22  43  68  91 131 169 219 265 331 381
#
# _framework density 21.934183999999998
#
# number of rings (size 3 to 8) (size 9 to 14) (size 15 to 20)
#    0.000    1.000    3.750    4.500    7.000    1.000 
#    2.250    2.500    0.000    0.000    0.000    0.000 
#    0.000    0.000    0.000    0.000    0.000    0.000 
#
# Total GULP energy -89352.106308 kJ/mol
# GULP energy per Si atom -5584.506644 kJ/mol
# Density = 2.188426 g / cm^3
# Si number density = 21.934184 Si / 1000 Ang^3
#
#
#
# Elastic Constant Matrix: (Units=GPa)
#
#
# Indices 1 2 3 4 5 6 
#
# 1 140.5423 34.6790 66.5435 -8.7167 3.0641 30.9182
# 2 34.6790 55.5747 17.9689 -1.5516 -5.4069 23.7553
# 3 66.5435 17.9689 93.3867 -12.6307 -13.9499 18.4091
# 4 -8.7167 -1.5516 -12.6307 38.5184 4.0268 5.7729
# 5 3.0641 -5.4069 -13.9499 4.0268 30.9533 -1.2936
# 6 30.9182 23.7553 18.4091 5.7729 -1.2936 48.5071
#
#
#
# Elastic Compliance Matrix: (Units=1/GPa)
#
#
# Indices 1 2 3 4 5 6 
#
# 1 0.013338 -0.004726 -0.008778 0.001089 -0.006376 -0.003156
# 2 -0.004726 0.025247 0.001382 0.001373 0.004908 -0.009909
# 3 -0.008778 0.001382 0.019061 0.003745 0.009108 -0.002518
# 4 0.001089 0.001373 0.003745 0.028656 -0.002170 -0.006256
# 5 -0.006376 0.004908 0.009108 -0.002170 0.038161 -0.000521
# 6 -0.003156 -0.009909 -0.002518 -0.006256 -0.000521 0.029166
#
#
# Mechanical properties :
#
#
# Convention : Reuss Voigt Hill
#
# Bulk Modulus (GPa) = 29.93854 58.65405 44.29629
# Shear Modulus (GPa) = 26.45402 34.94992 30.70197
#
# Velocity S-wave (km/s) = 3.47661 3.99607 3.74536
# Velocity P-wave (km/s) = 5.45845 6.93473 6.24040
#
# Compressibility (1/GPa) = 0.03340177
#
# Stress axis : x y z
#
# Youngs Moduli (GPa) = 74.97148 39.60789 52.46442
#
# Poissons Ratio (x) = 0.18719 0.46053
# Poissons Ratio (y) = 0.35432 -0.07249
# Poissons Ratio (z) = 0.65810 -0.05473
#
# Static dielectric constant tensor:
#      x y z
#    x 1.923770 0.006600 -0.015620 
#    y 0.006600 1.823170 0.007810 
#    z -0.015620 0.007810 1.789830 
# 
# From -- ./inp_files/343793.got.cif
#   From: 2010.05.17/outbox.cif.g08.bks.cpg/sg2_172_cif.got.tgz:343793.got - 2010.06.03 11:33:40.
