data_PCOD9031186
_publ_section_title
;
Structure prediction by ZEFSAII (Michael W. Deem and Ramdas Pophale) SiO2 
 PCOD9031186
Probable space group: P -1
;
_chemical_formula_sum "Si O2"
_cell_formula_units_Z 16
_cell_length_a 8.517260
_cell_length_b 18.343890
_cell_length_c 11.357765
_cell_angle_alpha 36.624803
_cell_angle_beta 138.961235
_cell_angle_gamma 141.936459
_cell_volume 615.493535
_symmetry_space_group_name_H-M "P -1"
_symmetry_group_IT_number 2
_symmetry_cell_setting 'triclinic'
loop_
_space_group_symop_operation_xyz
x,y,z
-x,-y,-z
loop_
_atom_site_type_symbol
_atom_site_label
_atom_site_fract_x
_atom_site_fract_y
_atom_site_fract_z
Si Si1 0.149182 0.905549 0.016314
Si Si2 0.548807 0.717783 0.113809
Si Si3 0.620849 0.853772 0.727957
Si Si4 0.057211 0.768065 0.464047
Si Si5 0.866551 0.348506 0.568025
Si Si6 0.203555 0.435501 0.210935
Si Si7 0.310984 0.883316 0.873228
Si Si8 0.728418 0.751480 0.675762
O O1 0.013479 0.746577 0.186051
O O2 0.387153 0.991667 0.131686
O O3 0.258906 0.897319 0.961260
O O4 0.928994 0.959472 0.799871
O O5 0.463252 0.557004 0.262113
O O6 0.840967 0.798213 0.233948
O O7 0.522995 0.768726 0.903511
O O8 0.345427 0.749466 0.036738
O O9 0.370428 0.878974 0.515282
O O10 0.672843 0.774073 0.750430
O O11 0.088665 0.656523 0.539855
O O12 0.923179 0.695058 0.604830
O O13 0.542634 0.264095 0.520620
O O14 0.000000 0.500000 0.500000
O O15 0.268761 0.387882 0.185171
O O16 0.000000 0.500000 0.000000
O O17 0.039611 0.868029 0.675660
#
# Coordination Sequence:
#
# PCOD9031186 Si02
#       8
#     2   2   2   2   2   2   2   2
#     4  10  23  45  66  94 135 179 227 271 333 396
#     4  12  23  42  66  98 136 177 218 279 334 397
#     4  10  22  43  65  92 136 169 225 271 333 397
#     4  11  24  40  63  99 135 171 222 271 336 400
#     4  11  24  40  67 101 135 174 221 279 335 399
#     4  12  23  40  64  99 138 176 219 275 334 401
#     4  10  23  43  68  94 131 186 222 273 331 395
#     4  10  23  41  68  97 131 177 221 274 333 396
#
# _framework density 25.995397000000001
#
# number of rings (size 3 to 8) (size 9 to 14) (size 15 to 20)
#    0.000    1.250    3.750    1.125    3.500    1.500 
#    0.000    0.625    0.000    0.000    0.000    0.000 
#    0.000    0.000    0.000    0.000    0.000    0.000 
#
# Total GULP energy -89312.732431 kJ/mol
# GULP energy per Si atom -5582.045777 kJ/mol
# Density = 2.593623 g / cm^3
# Si number density = 25.995397 Si / 1000 Ang^3
#
#
#
# Elastic Constant Matrix: (Units=GPa)
#
#
# Indices 1 2 3 4 5 6 
#
# 1 83.0280 35.9634 30.0331 24.7884 28.5010 7.8415
# 2 35.9634 171.2675 30.2930 32.0351 21.3906 -9.1860
# 3 30.0331 30.2930 106.7659 35.9456 23.2497 9.2396
# 4 24.7884 32.0351 35.9456 37.8410 10.1719 13.0678
# 5 28.5010 21.3906 23.2497 10.1719 42.0253 3.4465
# 6 7.8415 -9.1860 9.2396 13.0678 3.4465 31.5848
#
#
#
# Elastic Compliance Matrix: (Units=1/GPa)
#
#
# Indices 1 2 3 4 5 6 
#
# 1 0.018453 -0.001077 0.000203 -0.008577 -0.009976 -0.000316
# 2 -0.001077 0.008116 0.000812 -0.008433 -0.002312 0.006132
# 3 0.000203 0.000812 0.014889 -0.014289 -0.005522 0.002345
# 4 -0.008577 -0.008433 -0.014289 0.058495 0.005575 -0.020953
# 5 -0.009976 -0.002312 -0.005522 0.005575 0.033653 -0.002559
# 6 -0.000316 0.006132 0.002345 -0.020953 -0.002559 0.041785
#
#
# Mechanical properties :
#
#
# Convention : Reuss Voigt Hill
#
# Bulk Modulus (GPa) = 24.19391 61.51559 42.85475
# Shear Modulus (GPa) = 26.41406 39.94169 33.17787
#
# Velocity S-wave (km/s) = 3.19110 3.92406 3.57641
# Velocity P-wave (km/s) = 4.78588 6.65180 5.79444
#
# Compressibility (1/GPa) = 0.04133271
#
# Stress axis : x y z
#
# Youngs Moduli (GPa) = 54.19296 123.20863 67.16288
#
# Poissons Ratio (x) = 0.13272 -0.01360
# Poissons Ratio (y) = 0.05838 -0.05454
# Poissons Ratio (z) = -0.01097 -0.10005
#
# Static dielectric constant tensor:
#      x y z
#    x 2.107270 0.108150 0.048980 
#    y 0.108150 2.144820 0.032220 
#    z 0.048980 0.032220 1.997710 
# 
# From -- ./inp_files/402921.got.cif
#   From: 2010.05.17/outbox.cif.g08.bks.cpg/sg2_202_cif.got.tgz:402921.got - 2010.06.03 11:33:40.
