data_PCOD9031667
_publ_section_title
;
Structure prediction by ZEFSAII (Michael W. Deem and Ramdas Pophale) SiO2 
 PCOD9031667
Probable space group: P -1
;
_chemical_formula_sum "Si O2"
_cell_formula_units_Z 14
_cell_length_a 23.755061
_cell_length_b 18.158367
_cell_length_c 8.097537
_cell_angle_alpha 141.156599
_cell_angle_beta 151.265383
_cell_angle_gamma 21.029271
_cell_volume 586.497164
_symmetry_space_group_name_H-M "P -1"
_symmetry_group_IT_number 2
_symmetry_cell_setting 'triclinic'
loop_
_space_group_symop_operation_xyz
x,y,z
-x,-y,-z
loop_
_atom_site_type_symbol
_atom_site_label
_atom_site_fract_x
_atom_site_fract_y
_atom_site_fract_z
Si Si1 0.511234 0.904581 0.595211
Si Si2 0.904554 0.651441 0.361082
Si Si3 0.619351 0.517528 0.278161
Si Si4 0.425899 0.684283 0.708076
Si Si5 0.641569 0.727669 0.255286
Si Si6 0.316233 0.921052 0.369211
Si Si7 0.970082 0.060116 0.337615
O O1 0.579120 0.821900 0.440946
O O2 0.331402 0.964247 0.296339
O O3 0.418125 0.113064 0.735357
O O4 0.724347 0.725654 0.937919
O O5 0.000000 0.500000 0.500000
O O6 0.112365 0.500457 0.523252
O O7 0.789000 0.874730 0.469258
O O8 0.550243 0.666186 0.503478
O O9 0.857095 0.280086 0.445408
O O10 0.500000 0.500000 0.000000
O O11 0.535864 0.609788 0.039667
O O12 0.500000 0.500000 0.500000
O O13 0.179103 0.889201 0.469569
O O14 0.502266 0.728344 0.867505
O O15 0.177048 0.925934 0.073190
O O16 0.000000 0.000000 0.500000
#
# Coordination Sequence:
#
# PCOD9031667 Si02
#       7
#     2   2   2   2   2   2   2
#     4  11  24  47  70  99 146 184 231 294 349 419
#     4  12  26  44  71 106 135 185 239 290 354 410
#     4  10  22  43  67  98 136 181 235 275 337 413
#     4  12  25  45  70 106 144 178 229 296 345 408
#     4  11  25  47  68 104 145 186 233 281 361 423
#     4  11  22  44  69 103 138 174 240 284 343 417
#     4  11  22  43  72 100 132 187 230 272 350 412
#
# _framework density 23.870532999999998
#
# number of rings (size 3 to 8) (size 9 to 14) (size 15 to 20)
#    0.000    0.857    5.714    1.714    0.000    5.143 
#    5.143    0.000    0.000    0.000    0.000    0.000 
#    0.000    0.000    0.000    0.000    0.000    0.000 
#
# Total GULP energy -78010.054202 kJ/mol
# GULP energy per Si atom -5572.146729 kJ/mol
# Density = 2.381620 g / cm^3
# Si number density = 23.870533 Si / 1000 Ang^3
#
#
#
# Elastic Constant Matrix: (Units=GPa)
#
#
# Indices 1 2 3 4 5 6 
#
# 1 50.2727 26.8849 11.1920 -1.7893 23.2902 -12.9010
# 2 26.8849 193.9500 42.0240 -1.4877 26.7081 -27.9280
# 3 11.1920 42.0240 77.8907 -8.1269 17.6513 -8.5980
# 4 -1.7893 -1.4877 -8.1269 32.1529 5.8133 10.3445
# 5 23.2902 26.7081 17.6513 5.8133 40.4303 -6.0254
# 6 -12.9010 -27.9280 -8.5980 10.3445 -6.0254 50.4315
#
#
#
# Elastic Compliance Matrix: (Units=1/GPa)
#
#
# Indices 1 2 3 4 5 6 
#
# 1 0.029093 -0.001404 0.001056 0.003383 -0.016150 0.004221
# 2 -0.001404 0.006589 -0.002751 -0.001058 -0.001770 0.002826
# 3 0.001056 -0.002751 0.016205 0.005363 -0.006695 -0.000390
# 4 0.003383 -0.001058 0.005363 0.036839 -0.010015 -0.007559
# 5 -0.016150 -0.001770 -0.006695 -0.010015 0.039650 0.000539
# 6 0.004221 0.002826 -0.000390 -0.007559 0.000539 0.024022
#
#
# Mechanical properties :
#
#
# Convention : Reuss Voigt Hill
#
# Bulk Modulus (GPa) = 21.88685 53.59057 37.73871
# Shear Modulus (GPa) = 28.76466 40.73711 34.75089
#
# Velocity S-wave (km/s) = 3.47512 4.13557 3.81964
# Velocity P-wave (km/s) = 5.02900 6.73076 5.94113
#
# Compressibility (1/GPa) = 0.04568953
#
# Stress axis : x y z
#
# Youngs Moduli (GPa) = 34.37274 151.76487 61.71110
#
# Poissons Ratio (x) = 0.21304 -0.06516
# Poissons Ratio (y) = 0.04825 0.16974
# Poissons Ratio (z) = -0.03629 0.41744
#
# Static dielectric constant tensor:
#      x y z
#    x 1.888750 0.042280 0.069610 
#    y 0.042280 2.022000 0.099870 
#    z 0.069610 0.099870 1.866830 
# 
# From -- ./inp_files/355052.got.cif
#   From: 2010.05.17/outbox.cif.g08.bks.cpg/sg2_178_cif.got.tgz:355052.got - 2010.06.03 11:33:40.
