data_PCOD9031360
_publ_section_title
;
Structure prediction by ZEFSAII (Michael W. Deem and Ramdas Pophale) SiO2 
 PCOD9031360
Probable space group: P -1
;
_chemical_formula_sum "Si O2"
_cell_formula_units_Z 14
_cell_length_a 7.951029
_cell_length_b 12.442474
_cell_length_c 15.506324
_cell_angle_alpha 47.612757
_cell_angle_beta 125.452401
_cell_angle_gamma 147.900684
_cell_volume 601.936597
_symmetry_space_group_name_H-M "P -1"
_symmetry_group_IT_number 2
_symmetry_cell_setting 'triclinic'
loop_
_space_group_symop_operation_xyz
x,y,z
-x,-y,-z
loop_
_atom_site_type_symbol
_atom_site_label
_atom_site_fract_x
_atom_site_fract_y
_atom_site_fract_z
Si Si1 0.185600 0.526399 0.159687
Si Si2 0.230932 0.459632 0.902154
Si Si3 0.700988 0.046604 0.319295
Si Si4 0.822650 0.981044 0.034469
Si Si5 0.266989 0.072341 0.255242
Si Si6 0.394663 0.606062 0.377611
Si Si7 0.853700 0.152135 0.498659
O O1 0.465325 0.735113 0.070163
O O2 0.341086 0.593334 0.265931
O O3 0.909829 0.499221 0.095983
O O4 0.982081 0.270698 0.225399
O O5 0.431651 0.660142 0.784170
O O6 0.500000 0.500000 0.000000
O O7 0.915581 0.198779 0.928429
O O8 0.564164 0.832822 0.348085
O O9 0.426583 0.020472 0.277940
O O10 0.853886 0.092725 0.433663
O O11 0.015218 0.026646 0.149458
O O12 0.000000 0.000000 0.000000
O O13 0.072419 0.918711 0.364340
O O14 0.500000 0.500000 0.500000
O O15 0.040833 0.402703 0.420469
O O16 0.500000 0.000000 0.500000
#
# Coordination Sequence:
#
# PCOD9031360 Si02
#       7
#     2   2   2   2   2   2   2
#     4  10  22  43  66  92 132 174 211 273 331 374
#     4   9  20  42  65  88 130 168 216 268 319 380
#     4   9  21  41  64  92 126 171 214 260 324 401
#     4  11  23  40  61  98 123 167 224 271 324 387
#     4   9  19  40  60  91 127 168 212 267 325 376
#     4  11  23  40  61  96 132 167 214 260 324 400
#     4   9  19  38  62  92 126 161 209 258 321 381
#
# _framework density 23.258262999999999
#
# number of rings (size 3 to 8) (size 9 to 14) (size 15 to 20)
#    0.000    2.286    0.000    2.143    2.000    4.571 
#   15.429    3.571    0.000    0.000    0.000    0.000 
#    0.000    0.000    0.000    0.000    0.000    0.000 
#
# Total GULP energy -78030.048814 kJ/mol
# GULP energy per Si atom -5573.574915 kJ/mol
# Density = 2.320533 g / cm^3
# Si number density = 23.258263 Si / 1000 Ang^3
#
#
#
# Elastic Constant Matrix: (Units=GPa)
#
#
# Indices 1 2 3 4 5 6 
#
# 1 63.7810 36.6551 27.0566 -26.7692 1.7137 11.6464
# 2 36.6551 162.1297 58.8301 -60.7351 -6.0568 -12.5171
# 3 27.0566 58.8301 81.0720 -35.0798 -5.7390 -4.0033
# 4 -26.7692 -60.7351 -35.0798 60.1129 20.5408 4.1141
# 5 1.7137 -6.0568 -5.7390 20.5408 42.3046 -9.0546
# 6 11.6464 -12.5171 -4.0033 4.1141 -9.0546 36.9004
#
#
#
# Elastic Compliance Matrix: (Units=1/GPa)
#
#
# Indices 1 2 3 4 5 6 
#
# 1 0.025939 -0.001133 -0.003697 0.012804 -0.010720 -0.013030
# 2 -0.001133 0.011559 -0.003865 0.009875 -0.003196 0.001974
# 3 -0.003697 -0.003865 0.018745 0.005372 -0.000204 0.001240
# 4 0.012804 0.009875 0.005372 0.043585 -0.021744 -0.010303
# 5 -0.010720 -0.003196 -0.000204 -0.021744 0.037099 0.013805
# 6 -0.013030 0.001974 0.001240 -0.010303 0.013805 0.036553
#
#
# Mechanical properties :
#
#
# Convention : Reuss Voigt Hill
#
# Bulk Modulus (GPa) = 25.73823 61.34069 43.53946
# Shear Modulus (GPa) = 24.53129 40.15962 32.34545
#
# Velocity S-wave (km/s) = 3.25119 4.15984 3.73327
# Velocity P-wave (km/s) = 5.01836 7.03586 6.11095
#
# Compressibility (1/GPa) = 0.03885270
#
# Stress axis : x y z
#
# Youngs Moduli (GPa) = 38.55145 86.51202 53.34881
#
# Poissons Ratio (x) = 0.09803 0.19721
# Poissons Ratio (y) = 0.04368 0.20621
# Poissons Ratio (z) = 0.14251 0.33440
#
# Static dielectric constant tensor:
#      x y z
#    x 1.944360 0.065910 -0.035010 
#    y 0.065910 2.064750 -0.007050 
#    z -0.035010 -0.007050 1.724060 
# 
# From -- ./inp_files/500074.got.cif
#   From: 2010.05.17/outbox.cif.g08.bks.cpg/sg2_251_cif.got.tgz:500074.got - 2010.06.03 11:33:40.
