data_PCOD9031865
_publ_section_title
;
Structure prediction by ZEFSAII (Michael W. Deem and Ramdas Pophale) SiO2 
 PCOD9031865
Probable space group: P -1
;
_chemical_formula_sum "Si O2"
_cell_formula_units_Z 14
_cell_length_a 16.383117
_cell_length_b 5.878092
_cell_length_c 8.202482
_cell_angle_alpha 89.179168
_cell_angle_beta 72.529221
_cell_angle_gamma 131.269038
_cell_volume 540.914982
_symmetry_space_group_name_H-M "P -1"
_symmetry_group_IT_number 2
_symmetry_cell_setting 'triclinic'
loop_
_space_group_symop_operation_xyz
x,y,z
-x,-y,-z
loop_
_atom_site_type_symbol
_atom_site_label
_atom_site_fract_x
_atom_site_fract_y
_atom_site_fract_z
Si Si1 0.452166 0.156914 0.587058
Si Si2 0.056550 0.849804 0.828077
Si Si3 0.565670 0.296055 0.073626
Si Si4 0.215453 0.820791 0.568575
Si Si5 0.861593 0.755162 0.546072
Si Si6 0.826051 0.708163 0.943976
Si Si7 0.404865 0.371651 0.246984
O O1 0.500000 0.500000 0.500000
O O2 0.506135 0.278752 0.733875
O O3 0.500000 0.000000 0.500000
O O4 0.312241 0.918077 0.640073
O O5 0.126818 0.138293 0.651876
O O6 0.095789 0.680072 0.731518
O O7 0.113080 0.000739 0.970040
O O8 0.917784 0.664006 0.907166
O O9 0.686804 0.430240 0.079778
O O10 0.608426 0.591606 0.933574
O O11 0.462745 0.229182 0.239174
O O12 0.500000 0.000000 0.000000
O O13 0.194208 0.594724 0.446743
O O14 0.282261 0.146343 0.423679
O O15 0.818901 0.750521 0.754034
O O16 0.000000 0.000000 0.500000
#
# Coordination Sequence:
#
# PCOD9031865 Si02
#       7
#     2   2   2   2   2   2   2
#     4  10  24  39  66 102 138 185 238 299 364 436
#     4  10  23  44  68 101 136 188 236 297 369 437
#     4  11  23  40  67 100 143 189 238 301 377 440
#     4  11  23  42  72  98 142 185 243 302 369 445
#     4  10  23  42  68 102 134 188 237 300 364 437
#     4  10  22  43  68  96 145 178 236 298 363 446
#     4  10  24  41  63 103 141 190 244 301 371 445
#
# _framework density 25.882069000000001
#
# number of rings (size 3 to 8) (size 9 to 14) (size 15 to 20)
#    0.000    1.714    0.000    2.571   10.000    3.429 
#    0.000   15.000    0.000    0.000    0.000    0.000 
#    0.000    0.000    0.000    0.000    0.000    0.000 
#
# Total GULP energy -78003.133298 kJ/mol
# GULP energy per Si atom -5571.652378 kJ/mol
# Density = 2.582316 g / cm^3
# Si number density = 25.882069 Si / 1000 Ang^3
#
#
#
# Elastic Constant Matrix: (Units=GPa)
#
#
# Indices 1 2 3 4 5 6 
#
# 1 99.5204 35.4389 44.1960 -7.0815 -4.9656 2.5909
# 2 35.4389 73.7542 30.8081 10.0376 8.7936 23.0676
# 3 44.1960 30.8081 120.1502 25.2818 -5.5422 -7.0903
# 4 -7.0815 10.0376 25.2818 42.0063 8.6994 -1.1228
# 5 -4.9656 8.7936 -5.5422 8.6994 63.3910 -13.3739
# 6 2.5909 23.0676 -7.0903 -1.1228 -13.3739 36.4299
#
#
#
# Elastic Compliance Matrix: (Units=1/GPa)
#
#
# Indices 1 2 3 4 5 6 
#
# 1 0.015474 -0.007665 -0.004950 0.007181 0.001618 0.003605
# 2 -0.007665 0.027624 -0.005200 -0.003489 -0.008910 -0.021337
# 3 -0.004950 -0.005200 0.013963 -0.008695 0.004372 0.007699
# 4 0.007181 -0.003489 -0.008695 0.031941 -0.004215 -0.000557
# 5 0.001618 -0.008910 0.004372 -0.004215 0.021047 0.013974
# 6 0.003605 -0.021337 0.007699 -0.000557 0.013974 0.047316
#
#
# Mechanical properties :
#
#
# Convention : Reuss Voigt Hill
#
# Bulk Modulus (GPa) = 46.66158 57.14565 51.90361
# Shear Modulus (GPa) = 24.98279 40.56422 32.77350
#
# Velocity S-wave (km/s) = 3.11023 3.96317 3.56232
# Velocity P-wave (km/s) = 5.56468 6.56273 6.08421
#
# Compressibility (1/GPa) = 0.02143091
#
# Stress axis : x y z
#
# Youngs Moduli (GPa) = 64.62526 36.20011 71.61981
#
# Poissons Ratio (x) = 0.27748 0.35452
# Poissons Ratio (y) = 0.49536 0.37240
# Poissons Ratio (z) = 0.31990 0.18823
#
# Static dielectric constant tensor:
#      x y z
#    x 2.438730 -0.283620 -0.170100 
#    y -0.283620 2.102740 0.088920 
#    z -0.170100 0.088920 2.328370 
# 
# From -- ./inp_files/323974.got.cif
#   From: 2010.05.17/outbox.cif.g08.bks.cpg/sg2_162_cif.got.tgz:323974.got - 2010.06.03 11:33:40.
