data_PCOD9031574
_publ_section_title
;
Structure prediction by ZEFSAII (Michael W. Deem and Ramdas Pophale) SiO2 
 PCOD9031574
Probable space group: P -1
;
_chemical_formula_sum "Si O2"
_cell_formula_units_Z 8
_cell_length_a 7.020752
_cell_length_b 6.791668
_cell_length_c 7.168112
_cell_angle_alpha 118.446280
_cell_angle_beta 64.129661
_cell_angle_gamma 84.658265
_cell_volume 250.082985
_symmetry_space_group_name_H-M "P -1"
_symmetry_group_IT_number 2
_symmetry_cell_setting 'triclinic'
loop_
_space_group_symop_operation_xyz
x,y,z
-x,-y,-z
loop_
_atom_site_type_symbol
_atom_site_label
_atom_site_fract_x
_atom_site_fract_y
_atom_site_fract_z
Si Si1 0.316836 0.456866 0.136265
Si Si2 0.162970 0.254421 0.641897
Si Si3 0.324058 0.928088 0.078959
Si Si4 0.683753 0.209319 0.388350
O O1 0.275343 0.584711 0.417057
O O2 0.071137 0.514200 0.165259
O O3 0.387300 0.159465 0.035882
O O4 0.621051 0.331177 0.925131
O O5 0.410444 0.273590 0.560825
O O6 0.172258 0.114945 0.379986
O O7 0.182648 0.048941 0.691296
O O8 0.265304 0.820822 0.865062
#
# Coordination Sequence:
#
# PCOD9031574 Si02
#       4
#     2   2   2   2
#     4  12  24  42  67  96 128 168 214 257 314 381
#     4  10  23  45  64  93 134 162 208 270 310 372
#     4  10  23  44  64  96 128 164 215 260 315 376
#     4  10  22  43  67  94 126 169 210 259 322 367
#
# _framework density 31.989377999999999
#
# number of rings (size 3 to 8) (size 9 to 14) (size 15 to 20)
#    0.000    1.500    2.500    1.500    0.000    6.000 
#    4.500    0.000    0.000    0.000    0.000    0.000 
#    0.000    0.000    0.000    0.000    0.000    0.000 
#
# Total GULP energy -44896.755690 kJ/mol
# GULP energy per Si atom -5612.094461 kJ/mol
# Density = 3.191657 g / cm^3
# Si number density = 31.989378 Si / 1000 Ang^3
#
#
#
# Elastic Constant Matrix: (Units=GPa)
#
#
# Indices 1 2 3 4 5 6 
#
# 1 203.8613 74.3043 62.2347 42.0725 -7.4384 -28.3963
# 2 74.3043 288.7625 81.4978 25.8648 -21.9072 -29.6301
# 3 62.2347 81.4978 142.5781 38.4669 29.2216 -12.4490
# 4 42.0725 25.8648 38.4669 85.1505 -22.2769 -18.0471
# 5 -7.4384 -21.9072 29.2216 -22.2769 74.6291 8.6692
# 6 -28.3963 -29.6301 -12.4490 -18.0471 8.6692 73.7518
#
#
#
# Elastic Compliance Matrix: (Units=1/GPa)
#
#
# Indices 1 2 3 4 5 6 
#
# 1 0.006293 -0.000779 -0.001842 -0.001631 0.000477 0.001344
# 2 -0.000779 0.004795 -0.003280 0.001398 0.002907 0.001073
# 3 -0.001842 -0.003280 0.012947 -0.006119 -0.007996 -0.000399
# 4 -0.001631 0.001398 -0.006119 0.017345 0.007559 0.002257
# 5 0.000477 0.002907 -0.007996 0.007559 0.019742 -0.000469
# 6 0.001344 0.001073 -0.000399 0.002257 -0.000469 0.015048
#
#
# Mechanical properties :
#
#
# Convention : Reuss Voigt Hill
#
# Bulk Modulus (GPa) = 81.74382 119.03060 100.38721
# Shear Modulus (GPa) = 54.31911 74.51728 64.41820
#
# Velocity S-wave (km/s) = 4.12519 4.83166 4.49234
# Velocity P-wave (km/s) = 6.94971 8.27144 7.63922
#
# Compressibility (1/GPa) = 0.01223334
#
# Stress axis : x y z
#
# Youngs Moduli (GPa) = 158.91349 208.56751 77.23729
#
# Poissons Ratio (x) = 0.16255 0.14223
# Poissons Ratio (y) = 0.12385 0.25331
# Poissons Ratio (z) = 0.29264 0.68403
#
# Static dielectric constant tensor:
#      x y z
#    x 2.525100 0.111090 -0.103550 
#    y 0.111090 2.606900 0.065040 
#    z -0.103550 0.065040 2.217670 
# 
# From -- ./inp_files/145863.got.cif
#   From: 2010.05.17/outbox.cif.g08.bks.cpg/sg2_73_cif.got.tgz:145863.got - 2010.06.03 11:33:40.
