data_PCOD9031369
_publ_section_title
;
Structure prediction by ZEFSAII (Michael W. Deem and Ramdas Pophale) SiO2 
 PCOD9031369
Probable space group: P -1
;
_chemical_formula_sum "Si O2"
_cell_formula_units_Z 16
_cell_length_a 9.906519
_cell_length_b 28.860791
_cell_length_c 9.529135
_cell_angle_alpha 25.515154
_cell_angle_beta 43.707073
_cell_angle_gamma 44.746763
_cell_volume 795.439749
_symmetry_space_group_name_H-M "P -1"
_symmetry_group_IT_number 2
_symmetry_cell_setting 'triclinic'
loop_
_space_group_symop_operation_xyz
x,y,z
-x,-y,-z
loop_
_atom_site_type_symbol
_atom_site_label
_atom_site_fract_x
_atom_site_fract_y
_atom_site_fract_z
Si Si1 0.711433 0.522912 0.330333
Si Si2 0.578892 0.168824 0.243001
Si Si3 0.334596 0.051101 0.372745
Si Si4 0.029672 0.780544 0.734654
Si Si5 0.685660 0.663140 0.228743
Si Si6 0.520088 0.254585 0.572677
Si Si7 0.314725 0.264833 0.413857
Si Si8 0.913940 0.281723 0.812862
O O1 0.500000 0.500000 0.500000
O O2 0.701539 0.558231 0.404212
O O3 0.870963 0.413464 0.482917
O O4 0.746954 0.627833 0.929926
O O5 0.432282 0.172041 0.477007
O O6 0.678807 0.047771 0.451530
O O7 0.451872 0.236455 0.027818
O O8 0.739600 0.238212 0.983476
O O9 0.126818 0.103929 0.458978
O O10 0.500000 0.000000 0.500000
O O11 0.420216 0.149010 0.966752
O O12 0.241000 0.774677 0.517016
O O13 0.900265 0.695513 0.002924
O O14 0.075475 0.753387 0.937603
O O15 0.579971 0.659671 0.467939
O O16 0.453824 0.290535 0.366529
O O17 0.120459 0.235641 0.708163
#
# Coordination Sequence:
#
# PCOD9031369 Si02
#       8
#     2   2   2   2   2   2   2   2
#     4  11  22  44  69  94 135 171 212 265 328 386
#     4  11  23  43  68  94 132 172 218 267 323 383
#     4  11  23  44  66  94 133 172 217 270 321 385
#     4  11  23  43  67  96 134 169 216 271 322 378
#     4  10  22  43  66  93 133 166 216 266 317 388
#     4  11  22  44  67  94 138 167 215 273 321 378
#     4  11  23  43  66  98 132 170 212 270 321 386
#     4  12  23  44  68  95 135 171 214 273 321 382
#
# _framework density 20.114661000000002
#
# number of rings (size 3 to 8) (size 9 to 14) (size 15 to 20)
#    0.000    1.000    8.750    0.375    0.000    5.000 
#    2.250    1.250    0.000    0.000    0.000    0.000 
#    0.000    0.000    0.000    0.000    0.000    0.000 
#
# Total GULP energy -89374.085700 kJ/mol
# GULP energy per Si atom -5585.880356 kJ/mol
# Density = 2.006888 g / cm^3
# Si number density = 20.114661 Si / 1000 Ang^3
#
#
#
# Elastic Constant Matrix: (Units=GPa)
#
#
# Indices 1 2 3 4 5 6 
#
# 1 72.2705 11.4755 -7.4000 -3.8957 3.2388 5.0322
# 2 11.4755 108.7492 4.2858 -3.4316 -15.1233 7.1348
# 3 -7.4000 4.2858 19.8227 -3.8541 -2.6674 3.0148
# 4 -3.8957 -3.4316 -3.8541 27.3579 2.4339 -8.8630
# 5 3.2388 -15.1233 -2.6674 2.4339 31.4922 2.6541
# 6 5.0322 7.1348 3.0148 -8.8630 2.6541 42.6879
#
#
#
# Elastic Compliance Matrix: (Units=1/GPa)
#
#
# Indices 1 2 3 4 5 6 
#
# 1 0.015134 -0.001974 0.006496 0.002602 -0.002051 -0.001245
# 2 -0.001974 0.010305 -0.002068 -0.000296 0.005145 -0.001725
# 3 0.006496 -0.002068 0.055559 0.007276 0.002735 -0.003003
# 4 0.002602 -0.000296 0.007276 0.040800 -0.003615 0.007925
# 5 -0.002051 0.005145 0.002735 -0.003615 0.035263 -0.003754
# 6 -0.001245 -0.001725 -0.003003 0.007925 -0.003754 0.025952
#
#
# Mechanical properties :
#
#
# Convention : Reuss Voigt Hill
#
# Bulk Modulus (GPa) = 11.64078 24.17389 17.90734
# Shear Modulus (GPa) = 24.18496 33.13968 28.66232
#
# Velocity S-wave (km/s) = 3.47126 4.06339 3.77894
# Velocity P-wave (km/s) = 4.67611 5.83601 5.28796
#
# Compressibility (1/GPa) = 0.08590491
#
# Stress axis : x y z
#
# Youngs Moduli (GPa) = 66.07473 97.04422 17.99894
#
# Poissons Ratio (x) = 0.19160 -0.11692
# Poissons Ratio (y) = 0.13046 0.03722
# Poissons Ratio (z) = -0.42922 0.20068
#
# Static dielectric constant tensor:
#      x y z
#    x 1.716430 0.005460 0.015040 
#    y 0.005460 1.727480 -0.004670 
#    z 0.015040 -0.004670 1.702270 
# 
# From -- ./inp_files/202298.got.cif
#   From: 2010.05.17/outbox.cif.g08.bks.cpg/sg2_102_cif.got.tgz:202298.got - 2010.06.03 11:33:40.
