data_PCOD9031893
_publ_section_title
;
Structure prediction by ZEFSAII (Michael W. Deem and Ramdas Pophale) SiO2 
 PCOD9031893
Probable space group: P -1
;
_chemical_formula_sum "Si O2"
_cell_formula_units_Z 16
_cell_length_a 18.049568
_cell_length_b 5.152377
_cell_length_c 24.919017
_cell_angle_alpha 112.721550
_cell_angle_beta 155.970184
_cell_angle_gamma 54.893046
_cell_volume 701.583548
_symmetry_space_group_name_H-M "P -1"
_symmetry_group_IT_number 2
_symmetry_cell_setting 'triclinic'
loop_
_space_group_symop_operation_xyz
x,y,z
-x,-y,-z
loop_
_atom_site_type_symbol
_atom_site_label
_atom_site_fract_x
_atom_site_fract_y
_atom_site_fract_z
Si Si1 0.759670 0.315329 0.617199
Si Si2 0.415377 0.165088 0.377755
Si Si3 0.421538 0.099543 0.091822
Si Si4 0.247507 0.202952 0.159983
Si Si5 0.306318 0.320785 0.861116
Si Si6 0.178446 0.770990 0.908881
Si Si7 0.481462 0.619033 0.721300
Si Si8 0.845756 0.391018 0.569625
O O1 0.527905 0.365766 0.457966
O O2 0.705401 0.675884 0.632825
O O3 0.887488 0.179665 0.634529
O O4 0.913691 0.034283 0.742597
O O5 0.241452 0.250932 0.223644
O O6 0.626355 0.770076 0.473825
O O7 0.534011 0.180248 0.219419
O O8 0.603471 0.784122 0.148014
O O9 0.264720 0.447077 0.979169
O O10 0.271454 0.984787 0.007065
O O11 0.414155 0.274792 0.247332
O O12 0.349430 0.796744 0.187422
O O13 0.000000 0.500000 0.000000
O O14 0.274251 0.627786 0.900473
O O15 0.067970 0.372056 0.706961
O O16 0.500000 0.000000 0.000000
O O17 0.249095 0.700937 0.550396
#
# Coordination Sequence:
#
# PCOD9031893 Si02
#       8
#     2   2   2   2   2   2   2   2
#     4  11  21  39  64  94 130 171 219 267 337 392
#     4  10  23  38  62  97 130 172 220 267 330 399
#     4  11  25  43  66 102 129 174 230 271 330 399
#     4  11  24  46  65  97 134 182 222 269 324 396
#     4  10  22  43  68  98 130 174 221 278 342 388
#     4  11  23  43  68  98 135 170 218 286 331 388
#     4  11  25  44  68  95 137 177 222 272 329 392
#     4  11  22  44  64  94 141 172 221 276 335 395
#
# _framework density 22.80555
#
# number of rings (size 3 to 8) (size 9 to 14) (size 15 to 20)
#    0.000    1.250    2.500    3.375    3.500    1.500 
#    0.000    0.000    0.000    6.750    0.000    0.000 
#    0.000    0.000    0.000    0.000    0.000    0.000 
#
# Total GULP energy -89312.563315 kJ/mol
# GULP energy per Si atom -5582.035207 kJ/mol
# Density = 2.275364 g / cm^3
# Si number density = 22.805550 Si / 1000 Ang^3
#
#
#
# Elastic Constant Matrix: (Units=GPa)
#
#
# Indices 1 2 3 4 5 6 
#
# 1 47.4720 15.6517 18.0276 12.8621 -3.7058 -5.9064
# 2 15.6517 91.0075 34.0660 18.7044 -6.6091 -1.0437
# 3 18.0276 34.0660 127.1721 18.1229 -11.9696 -15.9856
# 4 12.8621 18.7044 18.1229 43.9005 -0.5621 -12.2990
# 5 -3.7058 -6.6091 -11.9696 -0.5621 30.8362 12.2111
# 6 -5.9064 -1.0437 -15.9856 -12.2990 12.2111 36.5721
#
#
#
# Elastic Compliance Matrix: (Units=1/GPa)
#
#
# Indices 1 2 3 4 5 6 
#
# 1 0.024106 -0.002319 -0.001847 -0.005040 0.001229 0.000914
# 2 -0.002319 0.013650 -0.002820 -0.005031 0.003011 -0.003914
# 3 -0.001847 -0.002820 0.009597 -0.001429 0.001788 0.002738
# 4 -0.005040 -0.005031 -0.001429 0.029824 -0.005808 0.010387
# 5 0.001229 0.003011 0.001788 -0.005808 0.039367 -0.014031
# 6 0.000914 -0.003914 0.002738 0.010387 -0.014031 0.036754
#
#
# Mechanical properties :
#
#
# Convention : Reuss Voigt Hill
#
# Bulk Modulus (GPa) = 29.95623 44.57132 37.26378
# Shear Modulus (GPa) = 28.02737 35.45549 31.74143
#
# Velocity S-wave (km/s) = 3.50947 3.94723 3.73477
# Velocity P-wave (km/s) = 5.43929 6.35300 5.91382
#
# Compressibility (1/GPa) = 0.03338203
#
# Stress axis : x y z
#
# Youngs Moduli (GPa) = 41.48281 73.26029 104.20268
#
# Poissons Ratio (x) = 0.16987 0.19249
# Poissons Ratio (y) = 0.09619 0.29380
# Poissons Ratio (z) = 0.07663 0.20656
#
# Static dielectric constant tensor:
#      x y z
#    x 1.908490 -0.021420 0.015890 
#    y -0.021420 1.953760 -0.066420 
#    z 0.015890 -0.066420 1.861370 
# 
# From -- ./inp_files/123605.got.cif
#   From: 2010.05.17/outbox.cif.g08.bks.cpg/sg2_62_cif.got.tgz:123605.got - 2010.06.03 11:33:40.
