data_PCOD9031009
_publ_section_title
;
Structure prediction by ZEFSAII (Michael W. Deem and Ramdas Pophale) SiO2 
 PCOD9031009
Probable space group: P -1
;
_chemical_formula_sum "Si O2"
_cell_formula_units_Z 15
_cell_length_a 8.154863
_cell_length_b 14.934217
_cell_length_c 17.722814
_cell_angle_alpha 160.347990
_cell_angle_beta 65.860801
_cell_angle_gamma 114.147144
_cell_volume 660.389054
_symmetry_space_group_name_H-M "P -1"
_symmetry_group_IT_number 2
_symmetry_cell_setting 'triclinic'
loop_
_space_group_symop_operation_xyz
x,y,z
-x,-y,-z
loop_
_atom_site_type_symbol
_atom_site_label
_atom_site_fract_x
_atom_site_fract_y
_atom_site_fract_z
Si Si1 0.281901 0.828309 0.044712
Si Si2 0.500000 0.500000 0.000000
Si Si3 0.760722 0.786710 0.424489
Si Si4 0.985627 0.818494 0.550897
Si Si5 0.555136 0.980528 0.249512
Si Si6 0.828723 0.220199 0.132108
Si Si7 0.884524 0.218836 0.286303
Si Si8 0.298834 0.077268 0.617594
O O1 0.442600 0.917200 0.142497
O O2 0.115831 0.011988 0.234773
O O3 0.218294 0.524678 0.836933
O O4 0.313807 0.824239 0.944859
O O5 0.558668 0.714983 0.089519
O O6 0.670517 0.628909 0.120475
O O7 0.889351 0.897799 0.554357
O O8 0.786910 0.934783 0.458311
O O9 0.561765 0.826319 0.525490
O O10 0.934821 0.508439 0.327250
O O11 0.192624 0.888647 0.547671
O O12 0.745668 0.125199 0.303751
O O13 0.772039 0.226278 0.234859
O O14 0.970510 0.998145 0.922599
O O15 0.000000 0.500000 0.500000
O O16 0.500000 0.000000 0.500000
#
# Coordination Sequence:
#
# PCOD9031009 Si02
#       8
#     2   1   2   2   2   2   2   2
#     4  10  22  44  67  95 136 175 226 273 335 394
#     4  12  26  40  66 104 134 180 216 280 342 382
#     4  10  22  43  63  97 132 180 225 268 338 392
#     4  10  24  42  68  95 136 177 220 280 325 401
#     4  11  25  44  68  98 139 173 226 278 330 403
#     4  10  24  44  70  99 129 175 225 270 344 395
#     4  11  26  45  70 103 135 174 222 277 339 398
#     4  12  25  39  64  98 137 176 228 269 334 398
#
# _framework density 22.713882000000002
#
# number of rings (size 3 to 8) (size 9 to 14) (size 15 to 20)
#    0.000    1.333    2.667    1.200    5.600    4.267 
#    0.000    9.333    0.000    0.000    0.000    0.000 
#    0.000    0.000    0.000    0.000    0.000    0.000 
#
# Total GULP energy -83505.547276 kJ/mol
# GULP energy per Si atom -5567.036485 kJ/mol
# Density = 2.266218 g / cm^3
# Si number density = 22.713882 Si / 1000 Ang^3
#
#
#
# Elastic Constant Matrix: (Units=GPa)
#
#
# Indices 1 2 3 4 5 6 
#
# 1 62.2872 52.1273 3.6620 -5.4044 7.9007 -16.8920
# 2 52.1273 176.1596 49.5725 11.0672 8.7871 -8.9934
# 3 3.6620 49.5725 75.5715 -1.9655 4.4763 4.3374
# 4 -5.4044 11.0672 -1.9655 21.2501 -9.5235 8.9469
# 5 7.9007 8.7871 4.4763 -9.5235 22.4310 -6.1385
# 6 -16.8920 -8.9934 4.3374 8.9469 -6.1385 55.0412
#
#
#
# Elastic Compliance Matrix: (Units=1/GPa)
#
#
# Indices 1 2 3 4 5 6 
#
# 1 0.025697 -0.009311 0.004932 0.009503 -0.001176 0.004300
# 2 -0.009311 0.011407 -0.007123 -0.011286 -0.004307 0.000922
# 3 0.004932 -0.007123 0.017992 0.007629 0.000072 -0.002300
# 4 0.009503 -0.011286 0.007629 0.071976 0.027889 -0.008118
# 5 -0.001176 -0.004307 0.000072 0.027889 0.058769 0.000951
# 6 0.004300 0.000922 -0.002300 -0.008118 0.000951 0.021245
#
#
# Mechanical properties :
#
#
# Convention : Reuss Voigt Hill
#
# Bulk Modulus (GPa) = 31.15914 58.30466 44.73190
# Shear Modulus (GPa) = 20.76530 33.65488 27.21009
#
# Velocity S-wave (km/s) = 3.02687 3.85345 3.46490
# Velocity P-wave (km/s) = 5.09547 6.74712 5.97861
#
# Compressibility (1/GPa) = 0.03209331
#
# Stress axis : x y z
#
# Youngs Moduli (GPa) = 38.91573 87.66419 55.58019
#
# Poissons Ratio (x) = 0.81621 -0.27414
# Poissons Ratio (y) = 0.36233 0.39589
# Poissons Ratio (z) = -0.19194 0.62442
#
# Static dielectric constant tensor:
#      x y z
#    x 1.928050 -0.006940 0.051330 
#    y -0.006940 1.887380 0.014690 
#    z 0.051330 0.014690 1.910830 
# 
# From -- ./inp_files/98207.got.cif
#   From: 2010.05.17/outbox.cif.g08.bks.cpg/sg2_50_cif.got.tgz:98207.got - 2010.06.03 11:33:40.
