data_PCOD9031361
_publ_section_title
;
Structure prediction by ZEFSAII (Michael W. Deem and Ramdas Pophale) SiO2 
 PCOD9031361
Probable space group: P -1
;
_chemical_formula_sum "Si O2"
_cell_formula_units_Z 16
_cell_length_a 9.500577
_cell_length_b 14.383190
_cell_length_c 8.605778
_cell_angle_alpha 58.604989
_cell_angle_beta 120.005397
_cell_angle_gamma 78.154278
_cell_volume 674.981385
_symmetry_space_group_name_H-M "P -1"
_symmetry_group_IT_number 2
_symmetry_cell_setting 'triclinic'
loop_
_space_group_symop_operation_xyz
x,y,z
-x,-y,-z
loop_
_atom_site_type_symbol
_atom_site_label
_atom_site_fract_x
_atom_site_fract_y
_atom_site_fract_z
Si Si1 0.637006 0.771852 0.708037
Si Si2 0.630894 0.693922 0.425195
Si Si3 0.515449 0.618369 0.958808
Si Si4 0.952452 0.160070 0.425985
Si Si5 0.166266 0.210040 0.739231
Si Si6 0.223431 0.074979 0.172609
Si Si7 0.846385 0.137999 0.061808
Si Si8 0.851383 0.472252 0.521361
O O1 0.671981 0.729937 0.583318
O O2 0.647795 0.650525 0.905837
O O3 0.768358 0.813474 0.825338
O O4 0.404657 0.920083 0.471374
O O5 0.680745 0.759379 0.257605
O O6 0.794643 0.527612 0.617524
O O7 0.389873 0.759109 0.218788
O O8 0.280312 0.761047 0.708746
O O9 0.500000 0.500000 0.000000
O O10 0.627689 0.566682 0.231548
O O11 0.914549 0.188177 0.197822
O O12 0.052067 0.220661 0.512205
O O13 0.100909 0.999324 0.705797
O O14 0.978914 0.315185 0.666857
O O15 0.285409 0.071647 0.029646
O O16 0.008773 0.099971 0.050698
O O17 0.000000 0.500000 0.500000
#
# Coordination Sequence:
#
# PCOD9031361 Si02
#       8
#     2   2   2   2   2   2   2   2
#     4  11  25  44  69 101 138 181 227 281 342 406
#     4  11  24  43  68 102 138 179 233 279 342 406
#     4  12  23  45  71  99 133 184 228 280 338 404
#     4  11  23  40  67  99 138 174 233 271 347 398
#     4  11  24  44  68  98 136 189 222 279 345 409
#     4  11  25  44  70  99 144 176 227 280 346 404
#     4  11  24  40  67 103 139 175 223 292 332 403
#     4  10  22  43  66  92 132 179 226 273 330 400
#
# _framework density 23.704356000000001
#
# number of rings (size 3 to 8) (size 9 to 14) (size 15 to 20)
#    0.000    1.000    3.750    3.000    1.750    4.000 
#    2.250    4.375    0.000    0.000    0.000    0.000 
#    0.000    0.000    0.000    0.000    0.000    0.000 
#
# Total GULP energy -89317.587056 kJ/mol
# GULP energy per Si atom -5582.349191 kJ/mol
# Density = 2.365040 g / cm^3
# Si number density = 23.704356 Si / 1000 Ang^3
#
#
#
# Elastic Constant Matrix: (Units=GPa)
#
#
# Indices 1 2 3 4 5 6 
#
# 1 91.1910 17.6368 7.8476 5.7553 4.6711 2.1043
# 2 17.6368 121.5587 24.9664 24.6299 4.8195 -7.3621
# 3 7.8476 24.9664 50.6651 14.7033 7.2509 5.1059
# 4 5.7553 24.6299 14.7033 34.4403 2.9021 2.4332
# 5 4.6711 4.8195 7.2509 2.9021 39.9629 2.4849
# 6 2.1043 -7.3621 5.1059 2.4332 2.4849 20.3788
#
#
#
# Elastic Compliance Matrix: (Units=1/GPa)
#
#
# Indices 1 2 3 4 5 6 
#
# 1 0.011414 -0.001493 -0.000647 -0.000387 -0.000922 -0.001397
# 2 -0.001493 0.010869 -0.003845 -0.006265 -0.000347 0.005834
# 3 -0.000647 -0.003845 0.024855 -0.007047 -0.003065 -0.006334
# 4 -0.000387 -0.006265 -0.007047 0.036957 -0.000304 -0.004833
# 5 -0.000922 -0.000347 -0.003065 -0.000304 0.025899 -0.002384
# 6 -0.001397 0.005834 -0.006334 -0.004833 -0.002384 0.053778
#
#
# Mechanical properties :
#
#
# Convention : Reuss Voigt Hill
#
# Bulk Modulus (GPa) = 28.43510 40.47961 34.45735
# Shear Modulus (GPa) = 26.67172 33.15400 29.91286
#
# Velocity S-wave (km/s) = 3.35801 3.74390 3.55620
# Velocity P-wave (km/s) = 5.20161 5.98356 5.60624
#
# Compressibility (1/GPa) = 0.03516781
#
# Stress axis : x y z
#
# Youngs Moduli (GPa) = 87.60947 92.00211 40.23402
#
# Poissons Ratio (x) = 0.13734 0.02604
# Poissons Ratio (y) = 0.13078 0.15470
# Poissons Ratio (z) = 0.05671 0.35376
#
# Static dielectric constant tensor:
#      x y z
#    x 1.879100 0.007370 -0.047150 
#    y 0.007370 2.079750 -0.085320 
#    z -0.047150 -0.085320 1.939130 
# 
# From -- ./inp_files/206061.got.cif
#   From: 2010.05.17/outbox.cif.g08.bks.cpg/sg2_104_cif.got.tgz:206061.got - 2010.06.03 11:33:40.
