data_PCOD9031169
_publ_section_title
;
Structure prediction by ZEFSAII (Michael W. Deem and Ramdas Pophale) SiO2 
 PCOD9031169
Probable space group: P -1
;
_chemical_formula_sum "Si O2"
_cell_formula_units_Z 16
_cell_length_a 14.683541
_cell_length_b 15.491055
_cell_length_c 14.908355
_cell_angle_alpha 46.417270
_cell_angle_beta 28.565457
_cell_angle_gamma 28.059492
_cell_volume 705.285336
_symmetry_space_group_name_H-M "P -1"
_symmetry_group_IT_number 2
_symmetry_cell_setting 'triclinic'
loop_
_space_group_symop_operation_xyz
x,y,z
-x,-y,-z
loop_
_atom_site_type_symbol
_atom_site_label
_atom_site_fract_x
_atom_site_fract_y
_atom_site_fract_z
Si Si1 0.241144 0.370332 0.002817
Si Si2 0.427048 0.782354 0.005163
Si Si3 0.813114 0.406848 0.255825
Si Si4 0.179984 0.778309 0.763174
Si Si5 0.341069 0.307607 0.388339
Si Si6 0.336124 0.267601 0.635107
Si Si7 0.695612 0.847281 0.614040
Si Si8 0.445948 0.506757 0.190736
O O1 0.084321 0.321730 0.148225
O O2 0.980709 0.560948 0.157217
O O3 0.550327 0.220129 0.905021
O O4 0.286887 0.426331 0.834625
O O5 0.509839 0.607221 0.027985
O O6 0.669256 0.756329 0.774519
O O7 0.082912 0.006373 0.117078
O O8 0.500000 0.500000 0.500000
O O9 0.955001 0.242143 0.179905
O O10 0.430658 0.743721 0.528067
O O11 0.373386 0.602536 0.793492
O O12 0.313316 0.296336 0.526149
O O13 0.454434 0.136162 0.358136
O O14 0.522730 0.342687 0.192827
O O15 0.000000 0.500000 0.500000
O O16 0.494513 0.061423 0.661799
O O17 0.063649 0.697027 0.394232
#
# Coordination Sequence:
#
# PCOD9031169 Si02
#       8
#     2   2   2   2   2   2   2   2
#     4  11  24  41  69  98 127 176 214 268 325 393
#     4  12  24  41  69  97 131 175 223 260 328 393
#     4  11  23  42  69  96 133 164 217 272 328 381
#     4  11  22  43  67  94 130 177 210 272 329 381
#     4   9  20  39  66  94 130 177 217 271 324 373
#     4  11  21  42  69  94 134 177 218 264 331 389
#     4  11  23  40  67  98 130 176 222 268 322 390
#     4  10  22  43  65  90 135 170 217 269 327 380
#
# _framework density 22.685852000000001
#
# number of rings (size 3 to 8) (size 9 to 14) (size 15 to 20)
#    0.000    1.250    3.750    3.375    0.000    1.000 
#    0.000    3.125    0.000    0.000    0.000    0.000 
#    0.000    0.000    0.000    0.000    0.000    0.000 
#
# Total GULP energy -89347.213701 kJ/mol
# GULP energy per Si atom -5584.200856 kJ/mol
# Density = 2.263422 g / cm^3
# Si number density = 22.685852 Si / 1000 Ang^3
#
#
#
# Elastic Constant Matrix: (Units=GPa)
#
#
# Indices 1 2 3 4 5 6 
#
# 1 97.2470 29.3410 12.1194 -11.6033 -8.6512 10.9184
# 2 29.3410 120.1342 19.6767 -18.4388 -7.2235 14.6198
# 3 12.1194 19.6767 61.9184 -25.9389 -5.8902 0.4126
# 4 -11.6033 -18.4388 -25.9389 40.1178 4.3912 -2.2970
# 5 -8.6512 -7.2235 -5.8902 4.3912 28.3666 -8.0569
# 6 10.9184 14.6198 0.4126 -2.2970 -8.0569 26.1046
#
#
#
# Elastic Compliance Matrix: (Units=1/GPa)
#
#
# Indices 1 2 3 4 5 6 
#
# 1 0.011676 -0.002000 -0.000804 0.001569 0.001771 -0.003066
# 2 -0.002000 0.010048 -0.001637 0.002732 -0.000109 -0.004558
# 3 -0.000804 -0.001637 0.022773 0.013602 0.002800 0.002954
# 4 0.001569 0.002732 0.013602 0.035604 -0.001431 0.000290
# 5 0.001771 -0.000109 0.002800 -0.001431 0.039817 0.011439
# 6 -0.003066 -0.004558 0.002954 0.000290 0.011439 0.045652
#
#
# Mechanical properties :
#
#
# Convention : Reuss Voigt Hill
#
# Bulk Modulus (GPa) = 28.07758 44.61931 36.34844
# Shear Modulus (GPa) = 26.83527 33.46196 30.14861
#
# Velocity S-wave (km/s) = 3.44307 3.84476 3.64945
# Velocity P-wave (km/s) = 5.31130 6.27858 5.81509
#
# Compressibility (1/GPa) = 0.03561560
#
# Stress axis : x y z
#
# Youngs Moduli (GPa) = 85.64910 99.52144 43.91237
#
# Poissons Ratio (x) = 0.19899 0.03529
# Poissons Ratio (y) = 0.17126 0.07189
# Poissons Ratio (z) = 0.06884 0.16292
#
# Static dielectric constant tensor:
#      x y z
#    x 1.906800 0.018800 0.005770 
#    y 0.018800 1.845300 -0.010760 
#    z 0.005770 -0.010760 1.852230 
# 
# From -- ./inp_files/534326.got.cif
#   From: 2010.05.17/outbox.cif.g08.bks.cpg/sg2_268_cif.got.tgz:534326.got - 2010.06.03 11:33:40.
