data_PCOD9031007
_publ_section_title
;
Structure prediction by ZEFSAII (Michael W. Deem and Ramdas Pophale) SiO2 
 PCOD9031007
Probable space group: P -1
;
_chemical_formula_sum "Si O2"
_cell_formula_units_Z 13
_cell_length_a 9.559374
_cell_length_b 15.019653
_cell_length_c 8.926191
_cell_angle_alpha 139.393428
_cell_angle_beta 139.368385
_cell_angle_gamma 59.417873
_cell_volume 536.282170
_symmetry_space_group_name_H-M "P -1"
_symmetry_group_IT_number 2
_symmetry_cell_setting 'triclinic'
loop_
_space_group_symop_operation_xyz
x,y,z
-x,-y,-z
loop_
_atom_site_type_symbol
_atom_site_label
_atom_site_fract_x
_atom_site_fract_y
_atom_site_fract_z
Si Si1 0.993396 0.409877 0.564739
Si Si2 0.926543 0.989957 0.255474
Si Si3 0.595242 0.245263 0.573253
Si Si4 0.680287 0.240825 0.309048
Si Si5 0.500000 0.500000 0.000000
Si Si6 0.049045 0.299329 0.167968
Si Si7 0.596402 0.961311 0.373082
O O1 0.253903 0.456937 0.831230
O O2 0.950716 0.296013 0.251354
O O3 0.877055 0.350011 0.543425
O O4 0.864084 0.536383 0.570977
O O5 0.146067 0.029845 0.389954
O O6 0.778312 0.103986 0.255927
O O7 0.832510 0.831444 0.933074
O O8 0.000000 0.000000 0.500000
O O9 0.576257 0.283332 0.431966
O O10 0.483340 0.343236 0.717453
O O11 0.556245 0.084265 0.384305
O O12 0.855022 0.278074 0.863107
O O13 0.507319 0.186498 0.969406
O O14 0.500000 0.000000 0.500000
#
# Coordination Sequence:
#
# PCOD9031007 Si02
#       7
#     2   2   2   2   1   2   2
#     4  10  23  42  67  94 129 179 223 276 335 402
#     4  11  23  42  67 101 134 176 220 284 338 393
#     4  10  22  43  63  96 134 172 218 279 329 397
#     4  12  24  42  72 101 131 180 229 277 338 399
#     4  10  24  40  64  94 128 170 220 266 338 400
#     4   9  20  42  63  87 135 171 213 272 337 390
#     4  11  25  42  66 101 142 173 223 278 336 402
#
# _framework density 24.240971999999999
#
# number of rings (size 3 to 8) (size 9 to 14) (size 15 to 20)
#    0.000    1.538    3.077    2.308    4.308    3.692 
#    0.000    0.000    0.000   11.077    0.000    0.000 
#    0.000    0.000    0.000    0.000    0.000    0.000 
#
# Total GULP energy -72389.905073 kJ/mol
# GULP energy per Si atom -5568.454236 kJ/mol
# Density = 2.418580 g / cm^3
# Si number density = 24.240972 Si / 1000 Ang^3
#
#
#
# Elastic Constant Matrix: (Units=GPa)
#
#
# Indices 1 2 3 4 5 6 
#
# 1 122.9070 8.5702 13.6438 7.4439 13.7290 8.3545
# 2 8.5702 49.9166 -17.3668 18.9502 0.0156 -12.3012
# 3 13.6438 -17.3668 53.5352 4.9876 13.1069 -0.7776
# 4 7.4439 18.9502 4.9876 30.3234 -0.4697 -13.5273
# 5 13.7290 0.0156 13.1069 -0.4697 32.6053 11.2180
# 6 8.3545 -12.3012 -0.7776 -13.5273 11.2180 43.0494
#
#
#
# Elastic Compliance Matrix: (Units=1/GPa)
#
#
# Indices 1 2 3 4 5 6 
#
# 1 0.009064 -0.002544 -0.002566 -0.001332 -0.001964 -0.002439
# 2 -0.002544 0.036085 0.016461 -0.021946 -0.008048 0.006303
# 3 -0.002566 0.016461 0.028957 -0.012336 -0.012503 0.005106
# 4 -0.001332 -0.021946 -0.012336 0.053467 0.002928 0.009802
# 5 -0.001964 -0.008048 -0.012503 0.002928 0.040633 -0.011813
# 6 -0.002439 0.006303 0.005106 0.009802 -0.011813 0.031754
#
#
# Mechanical properties :
#
#
# Convention : Reuss Voigt Hill
#
# Bulk Modulus (GPa) = 10.32965 26.22812 18.27889
# Shear Modulus (GPa) = 23.86319 35.96306 29.91313
#
# Velocity S-wave (km/s) = 3.14094 3.85589 3.51663
# Velocity P-wave (km/s) = 4.17427 5.53778 4.90365
#
# Compressibility (1/GPa) = 0.09680869
#
# Stress axis : x y z
#
# Youngs Moduli (GPa) = 110.32318 27.71265 34.53344
#
# Poissons Ratio (x) = 0.07049 0.08860
# Poissons Ratio (y) = 0.28063 -0.56844
# Poissons Ratio (z) = 0.28306 -0.45617
#
# Static dielectric constant tensor:
#      x y z
#    x 2.013540 -0.046990 0.008060 
#    y -0.046990 1.990550 -0.080100 
#    z 0.008060 -0.080100 2.123550 
# 
# From -- ./inp_files/160992.got.cif
#   From: 2010.05.17/outbox.cif.g08.bks.cpg/sg2_81_cif.got.tgz:160992.got - 2010.06.03 11:33:40.
