data_PCOD9031048
_publ_section_title
;
Structure prediction by ZEFSAII (Michael W. Deem and Ramdas Pophale) SiO2 
 PCOD9031048
Probable space group: P -1
;
_chemical_formula_sum "Si O2"
_cell_formula_units_Z 16
_cell_length_a 10.908431
_cell_length_b 11.800738
_cell_length_c 14.028131
_cell_angle_alpha 81.039538
_cell_angle_beta 32.884433
_cell_angle_gamma 60.062476
_cell_volume 704.089903
_symmetry_space_group_name_H-M "P -1"
_symmetry_group_IT_number 2
_symmetry_cell_setting 'triclinic'
loop_
_space_group_symop_operation_xyz
x,y,z
-x,-y,-z
loop_
_atom_site_type_symbol
_atom_site_label
_atom_site_fract_x
_atom_site_fract_y
_atom_site_fract_z
Si Si1 0.807521 0.838625 0.092672
Si Si2 0.294502 0.976172 0.688948
Si Si3 0.628091 0.203288 0.626661
Si Si4 0.538045 0.485602 0.278705
Si Si5 0.326255 0.588151 0.198326
Si Si6 0.707139 0.664542 0.583094
Si Si7 0.716231 0.135969 0.791583
Si Si8 0.349356 0.896876 0.960705
O O1 0.591502 0.812640 0.277627
O O2 0.867558 0.906134 0.130202
O O3 0.646139 0.975672 0.100722
O O4 0.135523 0.670118 0.872502
O O5 0.527149 0.802376 0.603820
O O6 0.012668 0.016008 0.811325
O O7 0.500000 0.000000 0.500000
O O8 0.566125 0.358143 0.628729
O O9 0.551820 0.202890 0.788043
O O10 0.983385 0.047547 0.396864
O O11 0.554533 0.502285 0.151261
O O12 0.304259 0.459974 0.433783
O O13 0.188976 0.764769 0.262949
O O14 0.045343 0.597560 0.388003
O O15 0.500000 0.500000 0.000000
O O16 0.525072 0.753832 0.789548
O O17 0.533205 0.156317 0.001059
#
# Coordination Sequence:
#
# PCOD9031048 Si02
#       8
#     2   2   2   2   2   2   2   2
#     4  11  21  39  61  92 127 166 211 256 318 375
#     4  11  21  35  66  95 124 163 203 266 321 374
#     4  10  23  42  64  88 124 182 214 251 311 366
#     4  11  22  40  60  88 134 166 208 259 310 384
#     4  11  24  40  65  96 125 165 207 265 330 372
#     4  11  21  39  63  97 129 159 203 269 325 371
#     4  10  22  43  64  89 126 163 224 260 300 389
#     4  11  20  39  67  95 125 156 208 273 320 365
#
# _framework density 22.724371999999999
#
# number of rings (size 3 to 8) (size 9 to 14) (size 15 to 20)
#    0.000    1.250    2.500    5.250    1.750    0.500 
#    0.000    3.125    0.000    0.000    0.000    0.000 
#    0.000    0.000    0.000    0.000    0.000    0.000 
#
# Total GULP energy -89443.893651 kJ/mol
# GULP energy per Si atom -5590.243353 kJ/mol
# Density = 2.267265 g / cm^3
# Si number density = 22.724372 Si / 1000 Ang^3
#
#
#
# Elastic Constant Matrix: (Units=GPa)
#
#
# Indices 1 2 3 4 5 6 
#
# 1 34.4623 13.2152 -3.5801 2.3722 5.9802 3.2484
# 2 13.2152 148.5310 11.5095 11.9059 4.2212 26.3314
# 3 -3.5801 11.5095 50.9914 -8.4552 -5.3370 1.7806
# 4 2.3722 11.9059 -8.4552 25.2188 -9.0276 2.3834
# 5 5.9802 4.2212 -5.3370 -9.0276 28.0845 -7.4580
# 6 3.2484 26.3314 1.7806 2.3834 -7.4580 37.5651
#
#
#
# Elastic Compliance Matrix: (Units=1/GPa)
#
#
# Indices 1 2 3 4 5 6 
#
# 1 0.031899 -0.001784 0.001088 -0.004584 -0.008580 -0.002972
# 2 -0.001784 0.009059 -0.003634 -0.006701 -0.005609 -0.006712
# 3 0.001088 -0.003634 0.023518 0.012670 0.009499 0.002420
# 4 -0.004584 -0.006701 0.012670 0.055451 0.023725 0.005685
# 5 -0.008580 -0.005609 0.009499 0.023725 0.051125 0.012868
# 6 -0.002972 -0.006712 0.002420 0.005685 0.012868 0.033662
#
#
# Mechanical properties :
#
#
# Convention : Reuss Voigt Hill
#
# Bulk Modulus (GPa) = 17.91589 30.69712 24.30650
# Shear Modulus (GPa) = 21.55351 32.36301 26.95826
#
# Velocity S-wave (km/s) = 3.08307 3.77789 3.44803
# Velocity P-wave (km/s) = 4.53596 5.70681 5.15474
#
# Compressibility (1/GPa) = 0.05581639
#
# Stress axis : x y z
#
# Youngs Moduli (GPa) = 31.34890 110.38323 42.51997
#
# Poissons Ratio (x) = 0.19696 -0.04626
# Poissons Ratio (y) = 0.05594 0.15451
# Poissons Ratio (z) = -0.03411 0.40112
#
# Static dielectric constant tensor:
#      x y z
#    x 1.873630 -0.023510 0.009640 
#    y -0.023510 1.883160 -0.022780 
#    z 0.009640 -0.022780 1.804050 
# 
# From -- ./inp_files/390807.got.cif
#   From: 2010.05.17/outbox.cif.g08.bks.cpg/sg2_196_cif.got.tgz:390807.got - 2010.06.03 11:33:40.
