data_PCOD9031747
_publ_section_title
;
Structure prediction by ZEFSAII (Michael W. Deem and Ramdas Pophale) SiO2 
 PCOD9031747
Probable space group: P -1
;
_chemical_formula_sum "Si O2"
_cell_formula_units_Z 12
_cell_length_a 7.789499
_cell_length_b 13.836109
_cell_length_c 14.043823
_cell_angle_alpha 158.690287
_cell_angle_beta 96.021191
_cell_angle_gamma 92.269174
_cell_volume 505.994188
_symmetry_space_group_name_H-M "P -1"
_symmetry_group_IT_number 2
_symmetry_cell_setting 'triclinic'
loop_
_space_group_symop_operation_xyz
x,y,z
-x,-y,-z
loop_
_atom_site_type_symbol
_atom_site_label
_atom_site_fract_x
_atom_site_fract_y
_atom_site_fract_z
Si Si1 0.992001 0.821803 0.041898
Si Si2 0.957802 0.761607 0.196078
Si Si3 0.900285 0.169078 0.211189
Si Si4 0.547660 0.323612 0.757363
Si Si5 0.559246 0.427520 0.640292
Si Si6 0.636007 0.122374 0.999236
O O1 0.050518 0.874501 0.204151
O O2 0.164911 0.787153 0.964604
O O3 0.942684 0.087718 0.243876
O O4 0.786889 0.567494 0.780373
O O5 0.748421 0.578214 0.985409
O O6 0.000000 0.000000 0.500000
O O7 0.000000 0.500000 0.000000
O O8 0.000000 0.500000 0.500000
O O9 0.697424 0.087519 0.078750
O O10 0.000000 0.000000 0.000000
O O11 0.479841 0.294494 0.617680
O O12 0.500000 0.000000 0.500000
O O13 0.500000 0.500000 0.000000
O O14 0.491891 0.177457 0.329648
O O15 0.462841 0.652867 0.816620
#
# Coordination Sequence:
#
# PCOD9031747 Si02
#       6
#     2   2   2   2   2   2
#     4  10  26  47  70  97 150 174 224 304 329 404
#     4  11  26  43  67 101 127 182 234 268 354 412
#     4  10  22  43  68 103 134 179 228 277 349 406
#     4  11  24  43  64  94 138 171 223 296 330 396
#     4  11  26  43  68 105 133 182 234 272 352 410
#     4  11  24  43  73 101 134 183 232 272 349 417
#
# _framework density 23.715689000000001
#
# number of rings (size 3 to 8) (size 9 to 14) (size 15 to 20)
#    0.000    1.333    0.000    4.000    7.000   12.000 
#    0.000    0.000    0.000    0.000    0.000    0.000 
#    0.000    0.000    0.000    0.000    0.000    0.000 
#
# Total GULP energy -66913.348919 kJ/mol
# GULP energy per Si atom -5576.112410 kJ/mol
# Density = 2.366171 g / cm^3
# Si number density = 23.715689 Si / 1000 Ang^3
#
#
#
# Elastic Constant Matrix: (Units=GPa)
#
#
# Indices 1 2 3 4 5 6 
#
# 1 94.0928 8.0836 34.9016 -2.1923 5.5005 7.5555
# 2 8.0836 159.3930 54.3962 0.4067 -18.7978 -5.9494
# 3 34.9016 54.3962 204.3579 2.7981 -14.4297 -9.4986
# 4 -2.1923 0.4067 2.7981 37.5073 -4.4581 3.7332
# 5 5.5005 -18.7978 -14.4297 -4.4581 51.5601 5.6623
# 6 7.5555 -5.9494 -9.4986 3.7332 5.6623 24.1739
#
#
#
# Elastic Compliance Matrix: (Units=1/GPa)
#
#
# Indices 1 2 3 4 5 6 
#
# 1 0.011979 -0.000148 -0.002332 0.001164 -0.001384 -0.004552
# 2 -0.000148 0.007130 -0.001700 0.000229 0.002093 0.000608
# 3 -0.002332 -0.001700 0.005938 -0.000699 0.000953 0.002529
# 4 0.001164 0.000229 -0.000699 0.027654 0.002759 -0.005499
# 5 -0.001384 0.002093 0.000953 0.002759 0.021259 -0.004084
# 6 -0.004552 0.000608 0.002529 -0.005499 -0.004084 0.045739
#
#
# Mechanical properties :
#
#
# Convention : Reuss Voigt Hill
#
# Bulk Modulus (GPa) = 59.92006 72.51183 66.21594
# Shear Modulus (GPa) = 37.41909 46.67909 42.04909
#
# Velocity S-wave (km/s) = 3.97649 4.44134 4.21533
# Velocity P-wave (km/s) = 6.81206 7.54603 7.18842
#
# Compressibility (1/GPa) = 0.01668890
#
# Stress axis : x y z
#
# Youngs Moduli (GPa) = 83.47963 140.24667 168.39407
#
# Poissons Ratio (x) = 0.02073 0.39265
# Poissons Ratio (y) = 0.01234 0.28624
# Poissons Ratio (z) = 0.19465 0.23840
#
# Static dielectric constant tensor:
#      x y z
#    x 1.409870 -0.657430 0.179660 
#    y -0.657430 1.155050 0.201740 
#    z 0.179660 0.201740 1.776710 
# 
# From -- ./inp_files/128031.got.cif
#   From: 2010.05.17/outbox.cif.g08.bks.cpg/sg2_65_cif.got.tgz:128031.got - 2010.06.03 11:33:40.
