data_PCOD9031096
_publ_section_title
;
Structure prediction by ZEFSAII (Michael W. Deem and Ramdas Pophale) SiO2 
 PCOD9031096
Probable space group: P -1
;
_chemical_formula_sum "Si O2"
_cell_formula_units_Z 16
_cell_length_a 19.461107
_cell_length_b 10.811489
_cell_length_c 9.575729
_cell_angle_alpha 52.965248
_cell_angle_beta 139.266997
_cell_angle_gamma 143.767553
_cell_volume 776.865363
_symmetry_space_group_name_H-M "P -1"
_symmetry_group_IT_number 2
_symmetry_cell_setting 'triclinic'
loop_
_space_group_symop_operation_xyz
x,y,z
-x,-y,-z
loop_
_atom_site_type_symbol
_atom_site_label
_atom_site_fract_x
_atom_site_fract_y
_atom_site_fract_z
Si Si1 0.543054 0.158925 0.573898
Si Si2 0.391379 0.795732 0.060906
Si Si3 0.159960 0.652487 0.591203
Si Si4 0.786268 0.613640 0.273603
Si Si5 0.438695 0.515284 0.214967
Si Si6 0.271187 0.365279 0.513246
Si Si7 0.738561 0.953636 0.686891
Si Si8 0.011567 0.971209 0.872321
O O1 0.597418 0.132684 0.815406
O O2 0.663575 0.399405 0.558350
O O3 0.500000 0.000000 0.500000
O O4 0.395365 0.098935 0.413766
O O5 0.439823 0.665261 0.215248
O O6 0.243813 0.672636 0.841406
O O7 0.500000 0.000000 0.000000
O O8 0.190651 0.550356 0.589771
O O9 0.211527 0.874788 0.471110
O O10 0.000000 0.500000 0.500000
O O11 0.775732 0.682790 0.362835
O O12 0.644558 0.514901 0.033527
O O13 0.914203 0.817294 0.243535
O O14 0.594774 0.610315 0.344236
O O15 0.334412 0.287616 0.285587
O O16 0.137266 0.210791 0.308793
O O17 0.873316 0.054449 0.926304
O O18 0.000000 0.000000 0.000000
#
# Coordination Sequence:
#
# PCOD9031096 Si02
#       8
#     2   2   2   2   2   2   2   2
#     4  11  25  44  67  98 135 174 223 277 337 392
#     4  11  24  44  68  99 131 175 226 278 333 399
#     4  11  23  41  67  96 135 179 222 271 335 392
#     4  10  22  45  65  98 140 171 222 279 331 397
#     4   9  23  41  74  97 130 171 230 276 337 390
#     4  11  24  41  73  98 132 181 221 272 341 398
#     4  10  22  43  64  96 138 169 217 281 324 388
#     4  11  25  41  67  99 138 174 225 271 329 399
#
# _framework density 20.595590000000001
#
# number of rings (size 3 to 8) (size 9 to 14) (size 15 to 20)
#    0.000    1.500    1.250    2.250   10.500    2.000 
#    2.250    1.250    0.000    0.000    0.000    0.000 
#    0.000    0.000    0.000    0.000    0.000    0.000 
#
# Total GULP energy -89287.477954 kJ/mol
# GULP energy per Si atom -5580.467372 kJ/mol
# Density = 2.054871 g / cm^3
# Si number density = 20.595590 Si / 1000 Ang^3
#
#
#
# Elastic Constant Matrix: (Units=GPa)
#
#
# Indices 1 2 3 4 5 6 
#
# 1 83.7903 55.3281 62.7299 17.6835 -17.7019 6.3491
# 2 55.3281 131.9069 57.3582 5.9921 0.0415 7.3562
# 3 62.7299 57.3582 121.3379 26.2850 -1.5100 -2.9994
# 4 17.6835 5.9921 26.2850 51.0594 3.6847 0.6333
# 5 -17.7019 0.0415 -1.5100 3.6847 40.7675 3.3146
# 6 6.3491 7.3562 -2.9994 0.6333 3.3146 27.9692
#
#
#
# Elastic Compliance Matrix: (Units=1/GPa)
#
#
# Indices 1 2 3 4 5 6 
#
# 1 0.028637 -0.006774 -0.010648 -0.004493 0.013047 -0.007305
# 2 -0.006774 0.011504 -0.002566 0.002563 -0.003162 -0.001446
# 3 -0.010648 -0.002566 0.015900 -0.003966 -0.004110 0.005374
# 4 -0.004493 0.002563 -0.003966 0.023186 -0.004187 -0.000108
# 5 0.013047 -0.003162 -0.004110 -0.004187 0.030923 -0.006141
# 6 -0.007305 -0.001446 0.005374 -0.000108 -0.006141 0.039099
#
#
# Mechanical properties :
#
#
# Convention : Reuss Voigt Hill
#
# Bulk Modulus (GPa) = 62.24819 76.42972 69.33896
# Shear Modulus (GPa) = 25.69631 34.73381 30.21506
#
# Velocity S-wave (km/s) = 3.53606 4.11112 3.83438
# Velocity P-wave (km/s) = 6.85283 7.72822 7.30365
#
# Compressibility (1/GPa) = 0.01606472
#
# Stress axis : x y z
#
# Youngs Moduli (GPa) = 34.91925 86.92889 62.89266
#
# Poissons Ratio (x) = 0.58890 0.66967
# Poissons Ratio (y) = 0.23656 0.16138
# Poissons Ratio (z) = 0.37181 0.22306
#
# Static dielectric constant tensor:
#      x y z
#    x 1.734500 0.011980 -0.113730 
#    y 0.011980 1.687040 0.043270 
#    z -0.113730 0.043270 1.382820 
# 
# From -- ./inp_files/345983.got.cif
#   From: 2010.05.17/outbox.cif.g08.bks.cpg/sg2_173_cif.got.tgz:345983.got - 2010.06.03 11:33:40.
