data_PCOD9031686
_publ_section_title
;
Structure prediction by ZEFSAII (Michael W. Deem and Ramdas Pophale) SiO2 
 PCOD9031686
Probable space group: P -1
;
_chemical_formula_sum "Si O2"
_cell_formula_units_Z 14
_cell_length_a 7.692940
_cell_length_b 15.303443
_cell_length_c 5.294862
_cell_angle_alpha 61.631463
_cell_angle_beta 70.291999
_cell_angle_gamma 70.210695
_cell_volume 504.260137
_symmetry_space_group_name_H-M "P -1"
_symmetry_group_IT_number 2
_symmetry_cell_setting 'triclinic'
loop_
_space_group_symop_operation_xyz
x,y,z
-x,-y,-z
loop_
_atom_site_type_symbol
_atom_site_label
_atom_site_fract_x
_atom_site_fract_y
_atom_site_fract_z
Si Si1 0.353128 0.620625 0.632904
Si Si2 0.108345 0.214544 0.921884
Si Si3 0.951948 0.621784 0.887965
Si Si4 0.548093 0.626060 0.030493
Si Si5 0.751352 0.126303 0.380402
Si Si6 0.170874 0.049685 0.742113
Si Si7 0.534478 0.122815 0.996657
O O1 0.475480 0.654853 0.307024
O O2 0.405629 0.497820 0.798897
O O3 0.400652 0.654533 0.839340
O O4 0.132899 0.652541 0.633962
O O5 0.937052 0.170931 0.188225
O O6 0.065156 0.331913 0.880631
O O7 0.314671 0.166479 0.003410
O O8 0.123794 0.165365 0.698972
O O9 0.744738 0.655214 0.827202
O O10 0.000000 0.500000 0.000000
O O11 0.395532 0.838723 0.824857
O O12 0.804197 0.003598 0.470651
O O13 0.657018 0.147643 0.667332
O O14 0.373971 0.998135 0.839647
O O15 0.000000 0.000000 0.000000
#
# Coordination Sequence:
#
# PCOD9031686 Si02
#       7
#     2   2   2   2   2   2   2
#     4   9  19  38  64  85 118 158 205 262 321 365
#     4  11  22  41  66  97 130 178 218 265 331 386
#     4  10  23  41  65  96 132 172 224 274 321 384
#     4   9  19  38  63  88 114 160 207 259 319 375
#     4   9  23  42  67  98 138 166 215 268 324 393
#     4   8  19  41  64  99 131 171 210 268 322 395
#     4  10  22  43  67  99 137 169 213 267 326 395
#
# _framework density 27.763448
#
# number of rings (size 3 to 8) (size 9 to 14) (size 15 to 20)
#    0.857    1.714    0.000    0.429    0.000    7.429 
#    0.000    8.571    0.000    0.000    0.000    0.000 
#    0.000    0.000    0.000    0.000    0.000    0.000 
#
# Total GULP energy -78313.677490 kJ/mol
# GULP energy per Si atom -5593.834106 kJ/mol
# Density = 2.770026 g / cm^3
# Si number density = 27.763448 Si / 1000 Ang^3
#
#
#
# Elastic Constant Matrix: (Units=GPa)
#
#
# Indices 1 2 3 4 5 6 
#
# 1 206.6582 26.5991 62.2750 5.5706 -24.2829 -17.2524
# 2 26.5991 236.5369 37.3051 30.0798 7.8515 21.7659
# 3 62.2750 37.3051 120.3757 14.4380 -18.1488 -2.2703
# 4 5.5706 30.0798 14.4380 50.0073 0.0822 6.5757
# 5 -24.2829 7.8515 -18.1488 0.0822 47.7915 6.8494
# 6 -17.2524 21.7659 -2.2703 6.5757 6.8494 47.9183
#
#
#
# Elastic Compliance Matrix: (Units=1/GPa)
#
#
# Indices 1 2 3 4 5 6 
#
# 1 0.006103 -0.000529 -0.002690 0.000146 0.001876 0.002022
# 2 -0.000529 0.005005 -0.001227 -0.002329 -0.001263 -0.002022
# 3 -0.002690 -0.001227 0.010769 -0.002072 0.002933 -0.000036
# 4 0.000146 -0.002329 -0.002072 0.022247 -0.000077 -0.002029
# 5 0.001876 -0.001263 0.002933 -0.000077 0.023480 -0.001957
# 6 0.002022 -0.002022 -0.000036 -0.002029 -0.001957 0.023072
#
#
# Mechanical properties :
#
#
# Convention : Reuss Voigt Hill
#
# Bulk Modulus (GPa) = 77.00544 90.65878 83.83211
# Shear Modulus (GPa) = 48.12583 58.30286 53.21435
#
# Velocity S-wave (km/s) = 4.16796 4.58753 4.38277
# Velocity P-wave (km/s) = 7.13856 7.79651 7.47477
#
# Compressibility (1/GPa) = 0.01298610
#
# Stress axis : x y z
#
# Youngs Moduli (GPa) = 163.85727 199.80917 92.85909
#
# Poissons Ratio (x) = 0.10569 0.24977
# Poissons Ratio (y) = 0.08667 0.11389
# Poissons Ratio (z) = 0.44075 0.24507
#
# Static dielectric constant tensor:
#      x y z
#    x 2.067490 -0.003410 0.028240 
#    y -0.003410 2.330500 -0.045850 
#    z 0.028240 -0.045850 2.103940 
# 
# From -- ./inp_files/35765.got.cif
#   From: 2010.05.17/outbox.cif.g08.bks.cpg/sg2_18_cif.got.tgz:35765.got - 2010.06.03 11:33:40.
