data_PCOD9031261
_publ_section_title
;
Structure prediction by ZEFSAII (Michael W. Deem and Ramdas Pophale) SiO2 
 PCOD9031261
Probable space group: P -1
;
_chemical_formula_sum "Si O2"
_cell_formula_units_Z 15
_cell_length_a 5.328094
_cell_length_b 11.184735
_cell_length_c 10.189482
_cell_angle_alpha 74.280780
_cell_angle_beta 106.546722
_cell_angle_gamma 97.216780
_cell_volume 559.535929
_symmetry_space_group_name_H-M "P -1"
_symmetry_group_IT_number 2
_symmetry_cell_setting 'triclinic'
loop_
_space_group_symop_operation_xyz
x,y,z
-x,-y,-z
loop_
_atom_site_type_symbol
_atom_site_label
_atom_site_fract_x
_atom_site_fract_y
_atom_site_fract_z
Si Si1 0.005313 0.593153 0.593739
Si Si2 0.673902 0.770679 0.975496
Si Si3 0.500000 0.000000 0.000000
Si Si4 0.142076 0.020727 0.717977
Si Si5 0.722869 0.130949 0.468169
Si Si6 0.570489 0.745632 0.422190
Si Si7 0.761063 0.331836 0.843632
Si Si8 0.485055 0.439959 0.159450
O O1 0.124136 0.734224 0.548281
O O2 0.226818 0.545285 0.738880
O O3 0.000000 0.500000 0.500000
O O4 0.701335 0.627919 0.539983
O O5 0.454943 0.730629 0.068248
O O6 0.955435 0.718930 0.070913
O O7 0.652793 0.917539 0.935763
O O8 0.598395 0.702469 0.846899
O O9 0.775041 0.024194 0.116108
O O10 0.283870 0.159048 0.686346
O O11 0.850542 0.046716 0.624039
O O12 0.242848 0.930479 0.647410
O O13 0.454998 0.165408 0.482824
O O14 0.325102 0.698756 0.309349
O O15 0.725020 0.478752 0.820619
O O16 0.500000 0.500000 0.000000
#
# Coordination Sequence:
#
# PCOD9031261 Si02
#       8
#     2   2   1   2   2   2   2   2
#     4  11  23  43  66 102 135 175 237 290 355 420
#     4  11  25  44  69 104 143 191 235 294 364 425
#     4  12  22  42  70 102 140 176 242 292 354 426
#     4  10  22  43  65  97 137 180 233 289 356 417
#     4  10  23  42  66  94 139 183 228 290 350 429
#     4  11  22  41  70  97 137 185 237 288 353 428
#     4  11  23  45  71 101 142 190 239 293 358 426
#     4  10  23  46  70 100 143 186 236 296 360 432
#
# _framework density 26.807929000000001
#
# number of rings (size 3 to 8) (size 9 to 14) (size 15 to 20)
#    0.000    1.333    2.667    2.400    1.867    1.067 
#   16.800    0.000    0.000    0.000    0.000    0.000 
#    0.000    0.000    0.000    0.000    0.000    0.000 
#
# Total GULP energy -83545.492686 kJ/mol
# GULP energy per Si atom -5569.699512 kJ/mol
# Density = 2.674691 g / cm^3
# Si number density = 26.807929 Si / 1000 Ang^3
#
#
#
# Elastic Constant Matrix: (Units=GPa)
#
#
# Indices 1 2 3 4 5 6 
#
# 1 95.5832 18.2151 42.9217 -9.6314 25.8791 -26.8804
# 2 18.2151 103.4492 78.4469 18.1950 10.2761 -37.9244
# 3 42.9217 78.4469 170.8865 32.9165 48.0179 -18.4180
# 4 -9.6314 18.1950 32.9165 43.8132 -0.3392 2.6856
# 5 25.8791 10.2761 48.0179 -0.3392 37.3899 -13.4525
# 6 -26.8804 -37.9244 -18.4180 2.6856 -13.4525 49.1403
#
#
#
# Elastic Compliance Matrix: (Units=1/GPa)
#
#
# Indices 1 2 3 4 5 6 
#
# 1 0.015499 0.003305 -0.004832 0.005139 -0.002406 0.008279
# 2 0.003305 0.028309 -0.017160 0.000626 0.020144 0.022705
# 3 -0.004832 -0.017160 0.022890 -0.010481 -0.026461 -0.013978
# 4 0.005139 0.000626 -0.010481 0.031621 0.010171 0.000422
# 5 -0.002406 0.020144 -0.026461 0.010171 0.064670 0.021461
# 6 0.008279 0.022705 -0.013978 0.000422 0.021461 0.043014
#
#
# Mechanical properties :
#
#
# Convention : Reuss Voigt Hill
#
# Bulk Modulus (GPa) = 34.09883 72.12070 53.10976
# Shear Modulus (GPa) = 19.75094 41.42436 30.58765
#
# Velocity S-wave (km/s) = 2.71727 3.93520 3.38152
# Velocity P-wave (km/s) = 4.75311 6.89992 5.92457
#
# Compressibility (1/GPa) = 0.02932652
#
# Stress axis : x y z
#
# Youngs Moduli (GPa) = 64.51937 35.32393 43.68639
#
# Poissons Ratio (x) = -0.11674 0.21108
# Poissons Ratio (y) = -0.21323 0.74964
# Poissons Ratio (z) = 0.31174 0.60614
#
# Static dielectric constant tensor:
#      x y z
#    x 2.451670 0.050670 -0.130910 
#    y 0.050670 2.310810 -0.065830 
#    z -0.130910 -0.065830 2.186270 
# 
# From -- ./inp_files/67912.got.cif
#   From: 2010.05.17/outbox.cif.g08.bks.cpg/sg2_34_cif.got.tgz:67912.got - 2010.06.03 11:33:40.
