data_PCOD9031308
_publ_section_title
;
Structure prediction by ZEFSAII (Michael W. Deem and Ramdas Pophale) SiO2 
 PCOD9031308
Probable space group: P -1
;
_chemical_formula_sum "Si O2"
_cell_formula_units_Z 16
_cell_length_a 5.425009
_cell_length_b 11.213378
_cell_length_c 24.358143
_cell_angle_alpha 145.816890
_cell_angle_beta 118.680864
_cell_angle_gamma 78.373598
_cell_volume 670.473017
_symmetry_space_group_name_H-M "P -1"
_symmetry_group_IT_number 2
_symmetry_cell_setting 'triclinic'
loop_
_space_group_symop_operation_xyz
x,y,z
-x,-y,-z
loop_
_atom_site_type_symbol
_atom_site_label
_atom_site_fract_x
_atom_site_fract_y
_atom_site_fract_z
Si Si1 0.388065 0.501968 0.119185
Si Si2 0.319522 0.079903 0.166493
Si Si3 0.555389 0.804690 0.895338
Si Si4 0.073802 0.479811 0.563673
Si Si5 0.657827 0.754154 0.088057
Si Si6 0.036177 0.797875 0.240449
Si Si7 0.392820 0.148734 0.501166
Si Si8 0.915711 0.599733 0.696151
O O1 0.363154 0.355512 0.115399
O O2 0.196785 0.653726 0.170039
O O3 0.741657 0.651199 0.192842
O O4 0.237527 0.314865 0.984169
O O5 0.247345 0.100285 0.102402
O O6 0.623872 0.293715 0.302339
O O7 0.080136 0.146223 0.200259
O O8 0.408130 0.862540 0.096083
O O9 0.240807 0.633741 0.767951
O O10 0.500000 0.000000 0.000000
O O11 0.123518 0.252773 0.505639
O O12 0.000000 0.500000 0.500000
O O13 0.833826 0.511726 0.591983
O O14 0.900325 0.899114 0.214949
O O15 0.500000 0.500000 0.000000
O O16 0.299114 0.983384 0.375276
O O17 0.676068 0.394424 0.626938
O O18 0.500000 0.000000 0.500000
#
# Coordination Sequence:
#
# PCOD9031308 Si02
#       8
#     2   2   2   2   2   2   2   2
#     4  11  25  44  70 104 142 187 240 293 358 432
#     4  10  22  43  66 102 136 180 237 287 361 427
#     4  11  23  41  68 100 139 185 232 294 356 426
#     4  10  23  45  67  98 141 182 246 290 364 430
#     4  10  22  46  67 101 141 184 237 298 358 433
#     4  11  26  45  71 101 143 189 236 296 363 425
#     4  11  25  43  69 102 142 188 240 300 363 433
#     4  10  25  43  71 103 142 186 239 305 354 444
#
# _framework density 23.86375
#
# number of rings (size 3 to 8) (size 9 to 14) (size 15 to 20)
#    0.000    1.500    1.250    1.875    8.750    5.000 
#   13.500    0.000    0.000    0.000    0.000    0.000 
#    0.000    0.000    0.000    0.000    0.000    0.000 
#
# Total GULP energy -89161.040948 kJ/mol
# GULP energy per Si atom -5572.565059 kJ/mol
# Density = 2.380943 g / cm^3
# Si number density = 23.863750 Si / 1000 Ang^3
#
#
#
# Elastic Constant Matrix: (Units=GPa)
#
#
# Indices 1 2 3 4 5 6 
#
# 1 68.3985 44.8128 23.0069 9.4514 -28.6943 -9.4785
# 2 44.8128 153.8941 60.7271 -15.3975 -40.7481 -13.2229
# 3 23.0069 60.7271 126.4191 -14.8880 -18.6010 1.8354
# 4 9.4514 -15.3975 -14.8880 58.2896 -1.9822 0.2312
# 5 -28.6943 -40.7481 -18.6010 -1.9822 49.2246 1.1163
# 6 -9.4785 -13.2229 1.8354 0.2312 1.1163 15.3470
#
#
#
# Elastic Compliance Matrix: (Units=1/GPa)
#
#
# Indices 1 2 3 4 5 6 
#
# 1 0.023837 -0.002813 -0.002224 -0.004874 0.010260 0.011892
# 2 -0.002813 0.011490 -0.003878 0.002684 0.006330 0.008126
# 3 -0.002224 -0.003878 0.010452 0.002018 -0.000340 -0.005970
# 4 -0.004874 0.002684 0.002018 0.019208 0.000946 -0.001298
# 5 0.010260 0.006330 -0.000340 0.000946 0.031229 0.009546
# 6 0.011892 0.008126 -0.005970 -0.001298 0.009546 0.079544
#
#
# Mechanical properties :
#
#
# Convention : Reuss Voigt Hill
#
# Bulk Modulus (GPa) = 35.77855 67.31170 51.54512
# Shear Modulus (GPa) = 24.64193 39.24987 31.94590
#
# Velocity S-wave (km/s) = 3.21691 4.05995 3.66277
# Velocity P-wave (km/s) = 5.36874 7.08841 6.28764
#
# Compressibility (1/GPa) = 0.02794971
#
# Stress axis : x y z
#
# Youngs Moduli (GPa) = 41.95166 87.03136 95.67512
#
# Poissons Ratio (x) = 0.24480 0.21277
# Poissons Ratio (y) = 0.11800 0.37103
# Poissons Ratio (z) = 0.09330 0.33751
#
# Static dielectric constant tensor:
#      x y z
#    x 7.689080 3.351170 -2.338110 
#    y 3.351170 4.059150 -1.423020 
#    z -2.338110 -1.423020 2.919860 
# 
# From -- ./inp_files/109641.got.cif
#   From: 2010.05.17/outbox.cif.g08.bks.cpg/sg2_55_cif.got.tgz:109641.got - 2010.06.03 11:33:40.
