data_PCOD9031922
_publ_section_title
;
Structure prediction by ZEFSAII (Michael W. Deem and Ramdas Pophale) SiO2 
 PCOD9031922
Probable space group: P -1
;
_chemical_formula_sum "Si O2"
_cell_formula_units_Z 16
_cell_length_a 8.345367
_cell_length_b 12.573377
_cell_length_c 7.777110
_cell_angle_alpha 110.545398
_cell_angle_beta 69.047269
_cell_angle_gamma 70.325722
_cell_volume 605.805515
_symmetry_space_group_name_H-M "P -1"
_symmetry_group_IT_number 2
_symmetry_cell_setting 'triclinic'
loop_
_space_group_symop_operation_xyz
x,y,z
-x,-y,-z
loop_
_atom_site_type_symbol
_atom_site_label
_atom_site_fract_x
_atom_site_fract_y
_atom_site_fract_z
Si Si1 0.736892 0.208541 0.569757
Si Si2 0.068762 0.434520 0.658615
Si Si3 0.630080 0.484856 0.770614
Si Si4 0.694581 0.764372 0.246653
Si Si5 0.270135 0.761806 0.019504
Si Si6 0.108263 0.289531 0.230830
Si Si7 0.699164 0.997749 0.966845
Si Si8 0.840251 0.944262 0.251967
O O1 0.694739 0.344839 0.573771
O O2 0.522275 0.217344 0.652758
O O3 0.879178 0.052606 0.382251
O O4 0.788401 0.232632 0.755050
O O5 0.158949 0.363490 0.764169
O O6 0.176327 0.332367 0.401430
O O7 0.833552 0.477373 0.752033
O O8 0.074021 0.566536 0.687602
O O9 0.464914 0.620646 0.815020
O O10 0.500000 0.500000 0.000000
O O11 0.726938 0.883849 0.363649
O O12 0.750135 0.754123 0.017368
O O13 0.312975 0.879289 0.051531
O O14 0.056865 0.815708 0.039092
O O15 0.118034 0.156227 0.216995
O O16 0.714076 0.019291 0.174695
O O17 0.500000 0.000000 0.000000
#
# Coordination Sequence:
#
# PCOD9031922 Si02
#       8
#     2   2   2   2   2   2   2   2
#     4  11  24  41  69 103 132 174 233 276 340 409
#     4  11  23  42  72  97 138 178 229 280 346 406
#     4  10  22  43  68  99 135 178 226 276 345 405
#     4  11  23  43  69  99 139 175 227 289 344 400
#     4  11  23  43  68  93 141 181 216 282 340 404
#     4  10  24  40  65 104 132 173 229 277 342 404
#     4  11  24  42  68  92 138 178 223 283 341 395
#     4  11  25  42  66 102 131 177 233 269 342 414
#
# _framework density 26.411114999999999
#
# number of rings (size 3 to 8) (size 9 to 14) (size 15 to 20)
#    0.000    1.250    0.000    6.750    5.250    2.000 
#    0.000    0.625    0.000    0.000    0.000    0.000 
#    0.000    0.000    0.000    0.000    0.000    0.000 
#
# Total GULP energy -89412.502540 kJ/mol
# GULP energy per Si atom -5588.281409 kJ/mol
# Density = 2.635100 g / cm^3
# Si number density = 26.411115 Si / 1000 Ang^3
#
#
#
# Elastic Constant Matrix: (Units=GPa)
#
#
# Indices 1 2 3 4 5 6 
#
# 1 116.2603 28.9078 9.4790 7.9858 -24.4072 -8.4344
# 2 28.9078 179.4173 34.9130 36.9188 -2.9668 11.2673
# 3 9.4790 34.9130 75.4331 25.8682 0.4169 -8.6169
# 4 7.9858 36.9188 25.8682 49.7241 -0.5386 7.4869
# 5 -24.4072 -2.9668 0.4169 -0.5386 34.3290 3.1764
# 6 -8.4344 11.2673 -8.6169 7.4869 3.1764 56.7815
#
#
#
# Elastic Compliance Matrix: (Units=1/GPa)
#
#
# Indices 1 2 3 4 5 6 
#
# 1 0.010691 -0.001517 -0.000312 -0.000576 0.007325 0.001508
# 2 -0.001517 0.007054 -0.001936 -0.003780 -0.000375 -0.001399
# 3 -0.000312 -0.001936 0.017502 -0.008254 -0.001115 0.004144
# 4 -0.000576 -0.003780 -0.008254 0.027951 0.000199 -0.004285
# 5 0.007325 -0.000375 -0.001115 0.000199 0.034411 -0.000958
# 6 0.001508 -0.001399 0.004144 -0.004285 -0.000958 0.019361
#
#
# Mechanical properties :
#
#
# Convention : Reuss Voigt Hill
#
# Bulk Modulus (GPa) = 36.07796 57.52335 46.80065
# Shear Modulus (GPa) = 37.38650 48.02098 42.70374
#
# Velocity S-wave (km/s) = 3.76647 4.26867 4.02541
# Velocity P-wave (km/s) = 5.71007 6.79137 6.27406
#
# Compressibility (1/GPa) = 0.02771776
#
# Stress axis : x y z
#
# Youngs Moduli (GPa) = 93.53901 141.75925 57.13632
#
# Poissons Ratio (x) = 0.21502 0.01783
# Poissons Ratio (y) = 0.14188 0.11060
# Poissons Ratio (z) = 0.02919 0.27441
#
# Static dielectric constant tensor:
#      x y z
#    x 2.061110 0.038530 -0.045600 
#    y 0.038530 2.170710 0.035810 
#    z -0.045600 0.035810 2.194460 
# 
# From -- ./inp_files/189174.got.cif
#   From: 2010.05.17/outbox.cif.g08.bks.cpg/sg2_95_cif.got.tgz:189174.got - 2010.06.03 11:33:40.
