data_PCOD9031665
_publ_section_title
;
Structure prediction by ZEFSAII (Michael W. Deem and Ramdas Pophale) SiO2 
 PCOD9031665
Probable space group: P -1
;
_chemical_formula_sum "Si O2"
_cell_formula_units_Z 15
_cell_length_a 14.223693
_cell_length_b 9.111062
_cell_length_c 21.899052
_cell_angle_alpha 140.246626
_cell_angle_beta 157.390548
_cell_angle_gamma 39.433949
_cell_volume 674.682252
_symmetry_space_group_name_H-M "P -1"
_symmetry_group_IT_number 2
_symmetry_cell_setting 'triclinic'
loop_
_space_group_symop_operation_xyz
x,y,z
-x,-y,-z
loop_
_atom_site_type_symbol
_atom_site_label
_atom_site_fract_x
_atom_site_fract_y
_atom_site_fract_z
Si Si1 0.064792 0.760952 0.721884
Si Si2 0.713482 0.789199 0.308796
Si Si3 0.500000 0.000000 0.500000
Si Si4 0.412721 0.489293 0.250790
Si Si5 0.868450 0.119728 0.337671
Si Si6 0.192491 0.748361 0.987928
Si Si7 0.404091 0.232968 0.906486
Si Si8 0.957759 0.728958 0.965867
O O1 0.118198 0.480639 0.676813
O O2 0.067604 0.785370 0.658262
O O3 0.804936 0.918814 0.641917
O O4 0.310144 0.830797 0.919036
O O5 0.634502 0.850733 0.211575
O O6 0.880825 0.940050 0.489508
O O7 0.449688 0.794274 0.186185
O O8 0.488551 0.718026 0.395549
O O9 0.647776 0.311339 0.301361
O O10 0.281552 0.354989 0.179548
O O11 0.198121 0.583884 0.101045
O O12 0.761006 0.891821 0.189985
O O13 0.293427 0.516146 0.933746
O O14 0.012747 0.695211 0.915792
O O15 0.069590 0.987808 0.954511
#
# Coordination Sequence:
#
# PCOD9031665 Si02
#       8
#     2   2   1   2   2   2   2   2
#     4  11  25  45  70  99 136 181 229 280 341 402
#     4  11  23  43  67  98 137 182 228 278 342 400
#     4  12  28  40  70 100 144 170 224 292 346 388
#     4  11  25  42  69  97 136 179 223 285 339 401
#     4  12  25  45  70 104 136 179 234 281 333 409
#     4  10  22  43  67  98 135 182 224 279 335 412
#     4  11  25  42  74  99 137 184 230 277 339 414
#     4  10  24  42  68  97 136 176 231 275 344 402
#
# _framework density 22.232688
#
# number of rings (size 3 to 8) (size 9 to 14) (size 15 to 20)
#    0.000    1.067    1.333    5.200   11.200    0.000 
#    0.000    0.000    0.000    4.800    0.000    0.000 
#    0.000    0.000    0.000    0.000    0.000    0.000 
#
# Total GULP energy -83656.093565 kJ/mol
# GULP energy per Si atom -5577.072904 kJ/mol
# Density = 2.218209 g / cm^3
# Si number density = 22.232688 Si / 1000 Ang^3
#
#
#
# Elastic Constant Matrix: (Units=GPa)
#
#
# Indices 1 2 3 4 5 6 
#
# 1 90.1826 27.1643 37.6871 -10.0115 -3.6404 -0.2927
# 2 27.1643 90.1258 19.3178 8.0233 9.7295 -6.2699
# 3 37.6871 19.3178 119.1364 3.4234 4.9346 -1.5661
# 4 -10.0115 8.0233 3.4234 31.0588 -4.7376 8.2140
# 5 -3.6404 9.7295 4.9346 -4.7376 13.2798 -5.3618
# 6 -0.2927 -6.2699 -1.5661 8.2140 -5.3618 23.9230
#
#
#
# Elastic Compliance Matrix: (Units=1/GPa)
#
#
# Indices 1 2 3 4 5 6 
#
# 1 0.017029 -0.006661 -0.005235 0.010582 0.014340 -0.002299
# 2 -0.006661 0.015798 0.000516 -0.009688 -0.015451 0.003956
# 3 -0.005235 0.000516 0.010381 -0.004188 -0.006906 0.000641
# 4 0.010582 -0.009688 -0.004188 0.045506 0.022427 -0.013282
# 5 0.014340 -0.015451 -0.006906 0.022427 0.105843 0.011696
# 6 -0.002299 0.003956 0.000641 -0.013282 0.011696 0.050033
#
#
# Mechanical properties :
#
#
# Convention : Reuss Voigt Hill
#
# Bulk Modulus (GPa) = 48.90428 51.97591 50.44009
# Shear Modulus (GPa) = 18.23716 28.00404 23.12060
#
# Velocity S-wave (km/s) = 2.86717 3.55292 3.22830
# Velocity P-wave (km/s) = 5.74502 6.34507 6.05248
#
# Compressibility (1/GPa) = 0.02044811
#
# Stress axis : x y z
#
# Youngs Moduli (GPa) = 58.72422 63.29793 96.33032
#
# Poissons Ratio (x) = 0.42160 0.50430
# Poissons Ratio (y) = 0.39114 -0.04967
# Poissons Ratio (z) = 0.30743 -0.03264
#
# Static dielectric constant tensor:
#      x y z
#    x 1.849260 0.009780 0.017230 
#    y 0.009780 1.816200 0.033120 
#    z 0.017230 0.033120 1.829590 
# 
# From -- ./inp_files/507359.got.cif
#   From: 2010.05.17/outbox.cif.g08.bks.cpg/sg2_254_cif.got.tgz:507359.got - 2010.06.03 11:33:40.
