data_PCOD9031459
_publ_section_title
;
Structure prediction by ZEFSAII (Michael W. Deem and Ramdas Pophale) SiO2 
 PCOD9031459
Probable space group: P -1
;
_chemical_formula_sum "Si O2"
_cell_formula_units_Z 16
_cell_length_a 12.444415
_cell_length_b 5.042578
_cell_length_c 11.717045
_cell_angle_alpha 73.557229
_cell_angle_beta 113.258816
_cell_angle_gamma 107.783885
_cell_volume 632.046164
_symmetry_space_group_name_H-M "P -1"
_symmetry_group_IT_number 2
_symmetry_cell_setting 'triclinic'
loop_
_space_group_symop_operation_xyz
x,y,z
-x,-y,-z
loop_
_atom_site_type_symbol
_atom_site_label
_atom_site_fract_x
_atom_site_fract_y
_atom_site_fract_z
Si Si1 0.044438 0.394575 0.414200
Si Si2 0.398518 0.294303 0.392067
Si Si3 0.183796 0.105561 0.664250
Si Si4 0.811107 0.667798 0.106965
Si Si5 0.811921 0.431585 0.733738
Si Si6 0.666114 0.945904 0.847852
Si Si7 0.959291 0.268037 0.106808
Si Si8 0.433918 0.148092 0.668140
O O1 0.153420 0.264001 0.519395
O O2 0.106513 0.647145 0.325148
O O3 0.000000 0.500000 0.500000
O O4 0.933322 0.152956 0.351706
O O5 0.310896 0.497520 0.369529
O O6 0.416792 0.097668 0.529918
O O7 0.515042 0.510337 0.362007
O O8 0.331658 0.148745 0.271052
O O9 0.197500 0.293027 0.763735
O O10 0.311752 0.040313 0.697873
O O11 0.855216 0.392998 0.114843
O O12 0.912464 0.948362 0.087818
O O13 0.698022 0.729316 0.980000
O O14 0.769655 0.231110 0.848451
O O15 0.912674 0.704073 0.779770
O O16 0.536839 0.024644 0.789273
O O17 0.000000 0.500000 0.000000
#
# Coordination Sequence:
#
# PCOD9031459 Si02
#       8
#     2   2   2   2   2   2   2   2
#     4  11  24  41  65 101 135 181 228 281 353 428
#     4  10  22  43  66  98 132 169 238 297 346 407
#     4  11  25  44  66  97 143 182 228 282 353 429
#     4  12  27  45  68 107 145 188 234 285 354 431
#     4  11  22  38  68 100 135 172 227 291 350 412
#     4  11  25  40  70  98 131 180 237 291 346 410
#     4  12  24  44  69 105 144 186 231 286 354 419
#     4  10  23  44  66  96 131 179 234 289 354 400
#
# _framework density 25.314608
#
# number of rings (size 3 to 8) (size 9 to 14) (size 15 to 20)
#    0.000    1.000    3.750    2.250    5.250    1.500 
#    0.000    0.625    0.000    0.000    0.000    0.000 
#    0.000    0.000    0.000    0.000    0.000    0.000 
#
# Total GULP energy -89237.350921 kJ/mol
# GULP energy per Si atom -5577.334433 kJ/mol
# Density = 2.525699 g / cm^3
# Si number density = 25.314608 Si / 1000 Ang^3
#
#
#
# Elastic Constant Matrix: (Units=GPa)
#
#
# Indices 1 2 3 4 5 6 
#
# 1 116.3252 7.9101 22.5988 1.9700 9.0675 12.8287
# 2 7.9101 39.8030 8.3685 5.6292 6.7563 -10.2795
# 3 22.5988 8.3685 129.9391 -3.7088 25.5883 -4.4426
# 4 1.9700 5.6292 -3.7088 40.0466 -3.8359 0.5652
# 5 9.0675 6.7563 25.5883 -3.8359 47.4196 -3.1132
# 6 12.8287 -10.2795 -4.4426 0.5652 -3.1132 28.2603
#
#
#
# Elastic Compliance Matrix: (Units=1/GPa)
#
#
# Indices 1 2 3 4 5 6 
#
# 1 0.009826 -0.002942 -0.001522 -0.000228 -0.001043 -0.005880
# 2 -0.002942 0.030070 -0.000555 -0.004590 -0.003009 0.011946
# 3 -0.001522 -0.000555 0.008907 0.000546 -0.004300 0.001404
# 4 -0.000228 -0.004590 0.000546 0.025931 0.002387 -0.001736
# 5 -0.001043 -0.003009 -0.004300 0.002387 0.024317 0.001334
# 6 -0.005880 0.011946 0.001404 -0.001736 0.001334 0.042802
#
#
# Mechanical properties :
#
#
# Convention : Reuss Voigt Hill
#
# Bulk Modulus (GPa) = 25.79597 40.42468 33.11033
# Shear Modulus (GPa) = 30.33745 39.62463 34.98104
#
# Velocity S-wave (km/s) = 3.46557 3.96066 3.72136
# Velocity P-wave (km/s) = 5.12112 6.07613 5.61895
#
# Compressibility (1/GPa) = 0.03876574
#
# Stress axis : x y z
#
# Youngs Moduli (GPa) = 101.77197 33.25532 112.27621
#
# Poissons Ratio (x) = 0.09784 0.17083
# Poissons Ratio (y) = 0.29943 0.06230
# Poissons Ratio (z) = 0.15485 0.01845
#
# Static dielectric constant tensor:
#      x y z
#    x 2.040970 -0.068880 -0.015090 
#    y -0.068880 2.123090 0.075170 
#    z -0.015090 0.075170 2.234740 
# 
# From -- ./inp_files/93424.got.cif
#   From: 2010.05.17/outbox.cif.g08.bks.cpg/sg2_47_cif.got.tgz:93424.got - 2010.06.03 11:33:40.
