data_PCOD9031090
_publ_section_title
;
Structure prediction by ZEFSAII (Michael W. Deem and Ramdas Pophale) SiO2 
 PCOD9031090
Probable space group: P -1
;
_chemical_formula_sum "Si O2"
_cell_formula_units_Z 16
_cell_length_a 18.217959
_cell_length_b 8.444407
_cell_length_c 5.188756
_cell_angle_alpha 117.737147
_cell_angle_beta 123.279110
_cell_angle_gamma 66.737421
_cell_volume 580.049353
_symmetry_space_group_name_H-M "P -1"
_symmetry_group_IT_number 2
_symmetry_cell_setting 'triclinic'
loop_
_space_group_symop_operation_xyz
x,y,z
-x,-y,-z
loop_
_atom_site_type_symbol
_atom_site_label
_atom_site_fract_x
_atom_site_fract_y
_atom_site_fract_z
Si Si1 0.366468 0.522595 0.190054
Si Si2 0.372776 0.934403 0.019413
Si Si3 0.680252 0.821309 0.395378
Si Si4 0.484605 0.335124 0.674303
Si Si5 0.231195 0.729428 0.750481
Si Si6 0.869341 0.571285 0.571911
Si Si7 0.021462 0.703446 0.825198
Si Si8 0.081673 0.005422 0.477586
O O1 0.391775 0.397702 0.394172
O O2 0.440370 0.650274 0.394967
O O3 0.363855 0.359897 0.852194
O O4 0.273135 0.657073 0.052354
O O5 0.474290 0.843703 0.220579
O O6 0.337217 0.070211 0.289618
O O7 0.317582 0.767408 0.789580
O O8 0.356668 0.042553 0.804908
O O9 0.785139 0.734262 0.494481
O O10 0.500000 0.500000 0.000000
O O11 0.172310 0.576475 0.449828
O O12 0.168078 0.925420 0.748648
O O13 0.911696 0.450053 0.315841
O O14 0.957692 0.647441 0.883342
O O15 0.075515 0.856993 0.131414
O O16 0.942378 0.800866 0.554144
O O17 0.000000 0.000000 0.500000
#
# Coordination Sequence:
#
# PCOD9031090 Si02
#       8
#     2   2   2   2   2   2   2   2
#     4   9  23  44  68 102 136 181 227 282 344 415
#     4  11  27  44  73 101 139 186 228 291 343 417
#     4  11  26  46  68 106 141 183 234 286 348 406
#     4  10  23  45  73 102 139 183 224 280 346 424
#     4  10  22  43  65  97 130 180 228 282 345 409
#     4  10  22  43  64  96 134 179 230 288 344 412
#     4  10  23  41  64  94 132 177 231 288 348 407
#     4  11  22  39  63  95 126 175 223 282 343 399
#
# _framework density 27.583857999999999
#
# number of rings (size 3 to 8) (size 9 to 14) (size 15 to 20)
#    0.000    1.750    1.250    0.750    8.750    4.500 
#    4.500    0.000    0.000    0.000    0.000    0.000 
#    0.000    0.000    0.000    0.000    0.000    0.000 
#
# Total GULP energy -89403.554678 kJ/mol
# GULP energy per Si atom -5587.722167 kJ/mol
# Density = 2.752108 g / cm^3
# Si number density = 27.583858 Si / 1000 Ang^3
#
#
#
# Elastic Constant Matrix: (Units=GPa)
#
#
# Indices 1 2 3 4 5 6 
#
# 1 79.9361 51.9446 27.4335 -9.2493 12.4225 2.2092
# 2 51.9446 210.7336 63.3116 -45.3190 -2.5531 -20.3195
# 3 27.4335 63.3116 83.5253 0.5970 -15.4849 -4.8366
# 4 -9.2493 -45.3190 0.5970 74.0081 3.2243 7.5462
# 5 12.4225 -2.5531 -15.4849 3.2243 42.7893 5.6669
# 6 2.2092 -20.3195 -4.8366 7.5462 5.6669 65.2177
#
#
#
# Elastic Compliance Matrix: (Units=1/GPa)
#
#
# Indices 1 2 3 4 5 6 
#
# 1 0.017199 -0.002785 -0.004886 0.000916 -0.006821 -0.001326
# 2 -0.002785 0.008233 -0.005489 0.004606 -0.001276 0.001830
# 3 -0.004886 -0.005489 0.019319 -0.004463 0.008462 -0.000331
# 4 0.000916 0.004606 -0.004463 0.016667 -0.002781 -0.000614
# 5 -0.006821 -0.001276 0.008462 -0.002781 0.028774 -0.001717
# 6 -0.001326 0.001830 -0.000331 -0.000614 -0.001717 0.016144
#
#
# Mechanical properties :
#
#
# Convention : Reuss Voigt Hill
#
# Bulk Modulus (GPa) = 54.25541 73.28606 63.77074
# Shear Modulus (GPa) = 36.02321 51.83671 43.92996
#
# Velocity S-wave (km/s) = 3.61772 4.33972 3.99506
# Velocity P-wave (km/s) = 6.09610 7.19285 6.66707
#
# Compressibility (1/GPa) = 0.01843134
#
# Stress axis : x y z
#
# Youngs Moduli (GPa) = 58.14203 121.46877 51.76182
#
# Poissons Ratio (x) = 0.33832 0.25289
# Poissons Ratio (y) = 0.16194 0.28412
# Poissons Ratio (z) = 0.28406 0.66673
#
# Static dielectric constant tensor:
#      x y z
#    x 2.283370 0.060800 0.004430 
#    y 0.060800 2.236710 -0.006820 
#    z 0.004430 -0.006820 2.284680 
# 
# From -- ./inp_files/52697.got.cif
#   From: 2010.05.17/outbox.cif.g08.bks.cpg/sg2_27_cif.got.tgz:52697.got - 2010.06.03 11:33:40.
