data_PCOD9031305
_publ_section_title
;
Structure prediction by ZEFSAII (Michael W. Deem and Ramdas Pophale) SiO2 
 PCOD9031305
Probable space group: P -1
;
_chemical_formula_sum "Si O2"
_cell_formula_units_Z 16
_cell_length_a 9.514343
_cell_length_b 10.249626
_cell_length_c 17.740153
_cell_angle_alpha 33.346714
_cell_angle_beta 120.618819
_cell_angle_gamma 112.872219
_cell_volume 815.913885
_symmetry_space_group_name_H-M "P -1"
_symmetry_group_IT_number 2
_symmetry_cell_setting 'triclinic'
loop_
_space_group_symop_operation_xyz
x,y,z
-x,-y,-z
loop_
_atom_site_type_symbol
_atom_site_label
_atom_site_fract_x
_atom_site_fract_y
_atom_site_fract_z
Si Si1 0.063618 0.405306 0.644465
Si Si2 0.181542 0.489262 0.089334
Si Si3 0.653507 0.015824 0.091037
Si Si4 0.511051 0.664693 0.850335
Si Si5 0.808952 0.268084 0.349342
Si Si6 0.122882 0.281133 0.334605
Si Si7 0.445789 0.128756 0.702071
Si Si8 0.244872 0.569451 0.364897
O O1 0.213980 0.208109 0.775457
O O2 0.117388 0.614557 0.613215
O O3 0.000000 0.500000 0.500000
O O4 0.910555 0.306883 0.694159
O O5 0.313568 0.369228 0.124852
O O6 0.166398 0.342222 0.232620
O O7 0.000000 0.500000 0.000000
O O8 0.251697 0.743914 0.004999
O O9 0.589948 0.994750 0.169430
O O10 0.500000 0.000000 0.000000
O O11 0.369447 0.613945 0.776556
O O12 0.465911 0.931408 0.738323
O O13 0.500000 0.500000 0.000000
O O14 0.930630 0.297817 0.297218
O O15 0.809675 0.987252 0.499005
O O16 0.198315 0.467478 0.320949
O O17 0.306725 0.336170 0.543167
O O18 0.611607 0.260185 0.687355
#
# Coordination Sequence:
#
# PCOD9031305 Si02
#       8
#     2   2   2   2   2   2   2   2
#     4  11  24  41  71 101 133 179 231 279 341 407
#     4  12  28  43  68  99 136 177 231 286 341 411
#     4  12  26  47  67  98 144 184 227 281 349 414
#     4  12  24  44  68  99 136 180 221 272 354 410
#     4  10  23  42  71  97 134 176 222 276 344 411
#     4  10  22  44  67  94 135 169 224 277 341 395
#     4  11  23  42  70  92 138 174 226 275 347 402
#     4  10  22  43  66 102 127 177 224 285 329 411
#
# _framework density 19.609912000000001
#
# number of rings (size 3 to 8) (size 9 to 14) (size 15 to 20)
#    0.000    1.000    3.750    2.250    3.500    0.500 
#    0.000    1.875    0.000    0.000    0.000    0.000 
#    0.000    0.000    0.000    0.000    0.000    0.000 
#
# Total GULP energy -89420.407952 kJ/mol
# GULP energy per Si atom -5588.775497 kJ/mol
# Density = 1.956528 g / cm^3
# Si number density = 19.609912 Si / 1000 Ang^3
#
#
#
# Elastic Constant Matrix: (Units=GPa)
#
#
# Indices 1 2 3 4 5 6 
#
# 1 137.6451 58.2760 70.7423 23.1685 7.7571 -8.8928
# 2 58.2760 69.2837 28.7333 5.6133 -3.0549 -3.3712
# 3 70.7423 28.7333 78.6556 11.0890 -4.5197 3.2148
# 4 23.1685 5.6133 11.0890 36.4579 -1.5046 0.2499
# 5 7.7571 -3.0549 -4.5197 -1.5046 41.4681 3.3778
# 6 -8.8928 -3.3712 3.2148 0.2499 3.3778 37.4930
#
#
#
# Elastic Compliance Matrix: (Units=1/GPa)
#
#
# Indices 1 2 3 4 5 6 
#
# 1 0.022312 -0.011790 -0.015312 -0.008059 -0.007515 0.006276
# 2 -0.011790 0.023428 0.001853 0.003510 0.004364 -0.001265
# 3 -0.015312 0.001853 0.026183 0.001790 0.006433 -0.006302
# 4 -0.008059 0.003510 0.001790 0.031617 0.003292 -0.002257
# 5 -0.007515 0.004364 0.006433 0.003292 0.027021 -0.004398
# 6 0.006276 -0.001265 -0.006302 -0.002257 -0.004398 0.028998
#
#
# Mechanical properties :
#
#
# Convention : Reuss Voigt Hill
#
# Bulk Modulus (GPa) = 46.67494 66.78752 56.73123
# Shear Modulus (GPa) = 23.02037 31.60599 27.31318
#
# Velocity S-wave (km/s) = 3.42996 4.01900 3.73611
# Velocity P-wave (km/s) = 6.28805 7.46113 6.89956
#
# Compressibility (1/GPa) = 0.02142477
#
# Stress axis : x y z
#
# Youngs Moduli (GPa) = 44.81944 42.68395 38.19204
#
# Poissons Ratio (x) = 0.50323 0.58481
# Poissons Ratio (y) = 0.52840 -0.07076
# Poissons Ratio (z) = 0.68629 -0.07908
#
# Static dielectric constant tensor:
#      x y z
#    x 1.684310 0.012800 0.028860 
#    y 0.012800 1.684380 0.010900 
#    z 0.028860 0.010900 1.680320 
# 
# From -- ./inp_files/299171.got.cif
#   From: 2010.05.17/outbox.cif.g08.bks.cpg/sg2_150_cif.got.tgz:299171.got - 2010.06.03 11:33:40.
