data_PCOD9031042
_publ_section_title
;
Structure prediction by ZEFSAII (Michael W. Deem and Ramdas Pophale) SiO2 
 PCOD9031042
Probable space group: P -1
;
_chemical_formula_sum "Si O2"
_cell_formula_units_Z 12
_cell_length_a 6.836265
_cell_length_b 16.435267
_cell_length_c 15.600400
_cell_angle_alpha 16.998298
_cell_angle_beta 103.330500
_cell_angle_gamma 107.832645
_cell_volume 475.422680
_symmetry_space_group_name_H-M "P -1"
_symmetry_group_IT_number 2
_symmetry_cell_setting 'triclinic'
loop_
_space_group_symop_operation_xyz
x,y,z
-x,-y,-z
loop_
_atom_site_type_symbol
_atom_site_label
_atom_site_fract_x
_atom_site_fract_y
_atom_site_fract_z
Si Si1 0.119220 0.677489 0.104466
Si Si2 0.594122 0.463260 0.174393
Si Si3 0.140517 0.970905 0.319026
Si Si4 0.558994 0.946823 0.961965
Si Si5 0.848243 0.562103 0.351140
Si Si6 0.837586 0.684977 0.802349
O O1 0.023161 0.329554 0.433052
O O2 0.999914 0.740775 0.113418
O O3 0.360405 0.787511 0.043905
O O4 0.038881 0.867533 0.834781
O O5 0.694939 0.196323 0.458481
O O6 0.342923 0.375029 0.228378
O O7 0.699168 0.630709 0.929505
O O8 0.681217 0.714604 0.001543
O O9 0.689107 0.248370 0.625987
O O10 0.710783 0.749878 0.184893
O O11 0.500000 0.000000 0.000000
O O12 0.000000 0.500000 0.500000
O O13 0.000000 0.000000 0.500000
O O14 0.000000 0.500000 0.000000
#
# Coordination Sequence:
#
# PCOD9031042 Si02
#       6
#     2   2   2   2   2   2
#     4  11  24  43  64  89 130 162 220 260 316 389
#     4  10  22  43  64  92 134 164 208 258 304 370
#     4  10  22  43  64  86 130 182 196 254 322 372
#     4  12  25  41  66  94 121 161 211 273 334 377
#     4  12  25  41  66  94 121 161 211 273 334 377
#     4  11  22  39  68 102 124 161 214 257 306 358
#
# _framework density 25.240697000000001
#
# number of rings (size 3 to 8) (size 9 to 14) (size 15 to 20)
#    0.000    1.000    1.667    5.000    2.333    2.667 
#    0.000   33.333    0.000    0.000    0.000    0.000 
#    0.000    0.000    0.000    0.000    0.000    0.000 
#
# Total GULP energy -66910.920338 kJ/mol
# GULP energy per Si atom -5575.910028 kJ/mol
# Density = 2.518325 g / cm^3
# Si number density = 25.240697 Si / 1000 Ang^3
#
#
#
# Elastic Constant Matrix: (Units=GPa)
#
#
# Indices 1 2 3 4 5 6 
#
# 1 134.0486 26.5228 53.9613 -6.1999 -0.9822 11.2312
# 2 26.5228 5.6846 5.0419 -7.4601 -8.9447 -46.3609
# 3 53.9613 5.0419 199.7913 -16.1880 17.2862 5.4204
# 4 -6.1999 -7.4601 -16.1880 35.0817 4.5651 -9.4748
# 5 -0.9822 -8.9447 17.2862 4.5651 45.9371 -7.0360
# 6 11.2312 -46.3609 5.4204 -9.4748 -7.0360 -41.2798
#
#
#
# Elastic Compliance Matrix: (Units=1/GPa)
#
#
# Indices 1 2 3 4 5 6 
#
# 1 0.008562 -0.002132 -0.002400 0.000878 0.001197 0.004004
# 2 -0.002132 0.017946 0.000494 -0.001860 0.000338 -0.020302
# 3 -0.002400 0.000494 0.006099 0.002678 -0.002605 -0.000577
# 4 0.000878 -0.001860 0.002678 0.029248 -0.004752 -0.003224
# 5 0.001197 0.000338 -0.002605 -0.004752 0.022823 -0.003196
# 6 0.004004 -0.020302 -0.000577 -0.003224 -0.003196 0.000874
#
#
# Mechanical properties :
#
#
# Convention : Reuss Voigt Hill
#
# Bulk Modulus (GPa) = 40.76481 56.73073 48.74777
# Shear Modulus (GPa) = 49.11344 24.88103 36.99724
#
# Velocity S-wave (km/s) = 4.41591 3.14307 3.83270
# Velocity P-wave (km/s) = 6.49506 5.97466 6.24029
#
# Compressibility (1/GPa) = 0.02453096
#
# Stress axis : x y z
#
# Youngs Moduli (GPa) = 116.79807 55.72149 163.96356
#
# Poissons Ratio (x) = 0.11881 0.39346
# Poissons Ratio (y) = 0.24904 -0.08097
# Poissons Ratio (z) = 0.28028 -0.02752
#
# Static dielectric constant tensor:
#      x y z
#    x 1.982220 -0.075210 -0.024150 
#    y -0.075210 2.323830 0.230110 
#    z -0.024150 0.230110 1.946340 
# 
# From -- ./inp_files/125096.got.cif
#   From: 2010.05.17/outbox.cif.g08.bks.cpg/sg2_63_cif.got.tgz:125096.got - 2010.06.03 11:33:40.
