data_PCOD9031827
_publ_section_title
;
Structure prediction by ZEFSAII (Michael W. Deem and Ramdas Pophale) SiO2 
 PCOD9031827
Probable space group: P -1
;
_chemical_formula_sum "Si O2"
_cell_formula_units_Z 14
_cell_length_a 8.897633
_cell_length_b 8.455916
_cell_length_c 12.164126
_cell_angle_alpha 128.813991
_cell_angle_beta 69.538788
_cell_angle_gamma 127.129049
_cell_volume 567.937099
_symmetry_space_group_name_H-M "P -1"
_symmetry_group_IT_number 2
_symmetry_cell_setting 'triclinic'
loop_
_space_group_symop_operation_xyz
x,y,z
-x,-y,-z
loop_
_atom_site_type_symbol
_atom_site_label
_atom_site_fract_x
_atom_site_fract_y
_atom_site_fract_z
Si Si1 0.879991 0.596874 0.515147
Si Si2 0.343285 0.920315 0.253050
Si Si3 0.946780 0.519817 0.216580
Si Si4 0.486699 0.220308 0.550529
Si Si5 0.700294 0.018082 0.951645
Si Si6 0.644938 0.776280 0.065452
Si Si7 0.149207 0.146982 0.742850
O O1 0.864195 0.527790 0.359943
O O2 0.681303 0.454913 0.568037
O O3 0.000000 0.500000 0.500000
O O4 0.003588 0.882906 0.619600
O O5 0.530844 0.908599 0.182941
O O6 0.173410 0.664595 0.227380
O O7 0.376436 0.114408 0.418525
O O8 0.278033 0.979936 0.182540
O O9 0.854698 0.259014 0.077225
O O10 0.899699 0.662962 0.202889
O O11 0.355442 0.246954 0.681048
O O12 0.500000 0.000000 0.500000
O O13 0.691736 0.817080 0.942567
O O14 0.500000 0.000000 0.000000
O O15 0.820645 0.864494 0.140126
O O16 0.500000 0.500000 0.000000
#
# Coordination Sequence:
#
# PCOD9031827 Si02
#       7
#     2   2   2   2   2   2   2
#     4  12  23  42  69 100 138 185 224 275 342 401
#     4  11  22  44  70  96 137 180 223 280 342 400
#     4  12  25  44  68 101 139 175 229 284 335 405
#     4  12  23  43  71 102 138 184 220 279 345 399
#     4  10  22  43  68  95 131 182 223 273 344 396
#     4  11  24  46  71  96 135 178 229 282 334 406
#     4  12  25  45  68 105 141 173 232 281 331 411
#
# _framework density 24.650615999999999
#
# number of rings (size 3 to 8) (size 9 to 14) (size 15 to 20)
#    0.000    0.571    4.286    5.143    0.000    0.571 
#    7.714    1.429    0.000    0.000    0.000    0.000 
#    0.000    0.000    0.000    0.000    0.000    0.000 
#
# Total GULP energy -78460.804762 kJ/mol
# GULP energy per Si atom -5604.343197 kJ/mol
# Density = 2.459451 g / cm^3
# Si number density = 24.650616 Si / 1000 Ang^3
#
#
#
# Elastic Constant Matrix: (Units=GPa)
#
#
# Indices 1 2 3 4 5 6 
#
# 1 64.8934 28.3579 13.9069 -10.3163 4.7154 0.2355
# 2 28.3579 159.3360 41.9832 -5.6353 18.6407 3.1910
# 3 13.9069 41.9832 104.6879 -10.1287 35.7782 -10.0420
# 4 -10.3163 -5.6353 -10.1287 49.2553 1.3146 5.7110
# 5 4.7154 18.6407 35.7782 1.3146 34.4752 -6.8374
# 6 0.2355 3.1910 -10.0420 5.7110 -6.8374 53.3675
#
#
#
# Elastic Compliance Matrix: (Units=1/GPa)
#
#
# Indices 1 2 3 4 5 6 
#
# 1 0.017303 -0.002702 -0.000880 0.003191 -0.000203 -0.000448
# 2 -0.002702 0.007553 -0.002215 0.000010 -0.001627 -0.001066
# 3 -0.000880 -0.002215 0.016247 0.003217 -0.015494 0.000864
# 4 0.003191 0.000010 0.003217 0.022050 -0.005101 -0.002423
# 5 -0.000203 -0.001627 -0.015494 -0.005101 0.046930 0.003741
# 6 -0.000448 -0.001066 0.000864 -0.002423 0.003741 0.019705
#
#
# Mechanical properties :
#
#
# Convention : Reuss Voigt Hill
#
# Bulk Modulus (GPa) = 33.88859 55.26816 44.57837
# Shear Modulus (GPa) = 33.06488 43.73085 38.39787
#
# Velocity S-wave (km/s) = 3.66641 4.21649 3.95103
# Velocity P-wave (km/s) = 5.63034 6.79517 6.24000
#
# Compressibility (1/GPa) = 0.02950846
#
# Stress axis : x y z
#
# Youngs Moduli (GPa) = 57.79363 132.40357 61.55072
#
# Poissons Ratio (x) = 0.35777 0.05414
# Poissons Ratio (y) = 0.15616 0.13635
# Poissons Ratio (z) = 0.05084 0.29330
#
# Static dielectric constant tensor:
#      x y z
#    x 1.453520 -0.062710 -0.118830 
#    y -0.062710 1.943930 -0.067220 
#    z -0.118830 -0.067220 1.908430 
# 
# From -- ./inp_files/241868.got.cif
#   From: 2010.05.17/outbox.cif.g08.bks.cpg/sg2_121_cif.got.tgz:241868.got - 2010.06.03 11:33:40.
