data_PCOD9031866
_publ_section_title
;
Structure prediction by ZEFSAII (Michael W. Deem and Ramdas Pophale) SiO2 
 PCOD9031866
Probable space group: P -1
;
_chemical_formula_sum "Si O2"
_cell_formula_units_Z 16
_cell_length_a 8.162301
_cell_length_b 7.682456
_cell_length_c 14.649032
_cell_angle_alpha 84.930777
_cell_angle_beta 77.153514
_cell_angle_gamma 126.763994
_cell_volume 688.032001
_symmetry_space_group_name_H-M "P -1"
_symmetry_group_IT_number 2
_symmetry_cell_setting 'triclinic'
loop_
_space_group_symop_operation_xyz
x,y,z
-x,-y,-z
loop_
_atom_site_type_symbol
_atom_site_label
_atom_site_fract_x
_atom_site_fract_y
_atom_site_fract_z
Si Si1 0.978432 0.622232 0.578397
Si Si2 0.048613 0.073731 0.713901
Si Si3 0.989948 0.358997 0.233444
Si Si4 0.645653 0.823351 0.888824
Si Si5 0.526366 0.360217 0.882127
Si Si6 0.442958 0.988836 0.788727
Si Si7 0.524260 0.519574 0.605330
Si Si8 0.274522 0.990413 0.393894
O O1 0.013176 0.546853 0.673619
O O2 0.742593 0.558969 0.605967
O O3 0.000000 0.500000 0.500000
O O4 0.173773 0.879252 0.509875
O O5 0.294400 0.297203 0.679118
O O6 0.033278 0.854972 0.716415
O O7 0.899995 0.008271 0.824294
O O8 0.922349 0.077279 0.644233
O O9 0.220637 0.531857 0.148659
O O10 0.789507 0.245262 0.197469
O O11 0.548048 0.585361 0.860436
O O12 0.541012 0.927735 0.856357
O O13 0.597933 0.762573 0.003308
O O14 0.431865 0.175793 0.822543
O O15 0.592088 0.068412 0.675733
O O16 0.500000 0.500000 0.500000
O O17 0.564316 0.741356 0.625095
#
# Coordination Sequence:
#
# PCOD9031866 Si02
#       8
#     2   2   2   2   2   2   2   2
#     4  12  26  43  64  96 137 179 222 284 335 394
#     4  10  22  43  68  97 129 175 224 275 339 396
#     4  11  25  41  65  99 137 176 225 280 331 408
#     4   9  22  46  75 100 139 174 223 284 336 408
#     4  10  22  48  71  99 140 175 223 285 340 394
#     4  11  25  41  70 102 136 181 221 278 341 406
#     4  12  24  41  71  92 126 183 227 277 339 396
#     4  11  24  45  62  99 136 174 232 274 329 407
#
# _framework density 23.254732000000001
#
# number of rings (size 3 to 8) (size 9 to 14) (size 15 to 20)
#    0.000    1.250    2.500    2.250    5.250    3.000 
#    0.000    9.375    0.000    0.000    0.000    0.000 
#    0.000    0.000    0.000    0.000    0.000    0.000 
#
# Total GULP energy -89527.578675 kJ/mol
# GULP energy per Si atom -5595.473667 kJ/mol
# Density = 2.320180 g / cm^3
# Si number density = 23.254732 Si / 1000 Ang^3
#
#
#
# Elastic Constant Matrix: (Units=GPa)
#
#
# Indices 1 2 3 4 5 6 
#
# 1 31.8166 23.6499 23.2386 6.7565 -0.5166 -3.2615
# 2 23.6499 126.0823 50.9521 2.1006 -13.9697 10.5155
# 3 23.2386 50.9521 130.9268 -17.8365 -19.8552 2.7671
# 4 6.7565 2.1006 -17.8365 41.7058 -3.2487 -12.6815
# 5 -0.5166 -13.9697 -19.8552 -3.2487 20.8580 0.4844
# 6 -3.2615 10.5155 2.7671 -12.6815 0.4844 33.2934
#
#
#
# Elastic Compliance Matrix: (Units=1/GPa)
#
#
# Indices 1 2 3 4 5 6 
#
# 1 0.045374 -0.006388 -0.009226 -0.011068 -0.013736 0.003213
# 2 -0.006388 0.011118 -0.002623 -0.001694 0.004635 -0.004632
# 3 -0.009226 -0.002623 0.013277 0.008853 0.011986 0.002019
# 4 -0.011068 -0.001694 0.008853 0.034085 0.012059 0.011523
# 5 -0.013736 0.004635 0.011986 0.012059 0.063998 -0.000143
# 6 0.003213 -0.004632 0.002019 0.011523 -0.000143 0.036037
#
#
# Mechanical properties :
#
#
# Convention : Reuss Voigt Hill
#
# Bulk Modulus (GPa) = 30.03501 53.83409 41.93455
# Shear Modulus (GPa) = 19.88377 31.90376 25.89377
#
# Velocity S-wave (km/s) = 2.92728 3.70797 3.34051
# Velocity P-wave (km/s) = 4.93650 6.44454 5.74025
#
# Compressibility (1/GPa) = 0.03329448
#
# Stress axis : x y z
#
# Youngs Moduli (GPa) = 22.03899 89.94800 75.31754
#
# Poissons Ratio (x) = 0.57459 0.69491
# Poissons Ratio (y) = 0.14079 0.19754
# Poissons Ratio (z) = 0.20334 0.23591
#
# Static dielectric constant tensor:
#      x y z
#    x 1.883150 -0.060160 0.009200 
#    y -0.060160 1.966670 0.029150 
#    z 0.009200 0.029150 1.927350 
# 
# From -- ./inp_files/110795.got.cif
#   From: 2010.05.17/outbox.cif.g08.bks.cpg/sg2_56_cif.got.tgz:110795.got - 2010.06.03 11:33:40.
