data_PCOD9031163
_publ_section_title
;
Structure prediction by ZEFSAII (Michael W. Deem and Ramdas Pophale) SiO2 
 PCOD9031163
Probable space group: P -1
;
_chemical_formula_sum "Si O2"
_cell_formula_units_Z 16
_cell_length_a 9.100475
_cell_length_b 9.617593
_cell_length_c 17.202355
_cell_angle_alpha 91.504527
_cell_angle_beta 149.027414
_cell_angle_gamma 88.347459
_cell_volume 774.513687
_symmetry_space_group_name_H-M "P -1"
_symmetry_group_IT_number 2
_symmetry_cell_setting 'triclinic'
loop_
_space_group_symop_operation_xyz
x,y,z
-x,-y,-z
loop_
_atom_site_type_symbol
_atom_site_label
_atom_site_fract_x
_atom_site_fract_y
_atom_site_fract_z
Si Si1 0.626116 0.941795 0.637350
Si Si2 0.282851 0.961348 0.968830
Si Si3 0.730406 0.359860 0.011013
Si Si4 0.747507 0.434420 0.195870
Si Si5 0.210640 0.423684 0.534590
Si Si6 0.152716 0.105775 0.512720
Si Si7 0.439730 0.817854 0.808265
Si Si8 0.639651 0.668502 0.738338
O O1 0.607470 0.778574 0.653036
O O2 0.957670 0.977121 0.794396
O O3 0.500000 0.000000 0.500000
O O4 0.434386 0.026991 0.612254
O O5 0.331388 0.801624 0.009618
O O6 0.500000 0.000000 0.000000
O O7 0.349182 0.060299 0.073035
O O8 0.795599 0.430196 0.125728
O O9 0.024644 0.363823 0.096948
O O10 0.440754 0.437000 0.855548
O O11 0.550226 0.303314 0.125320
O O12 0.041004 0.421628 0.375817
O O13 0.241206 0.264016 0.574638
O O14 0.481080 0.523123 0.651976
O O15 0.000000 0.500000 0.500000
O O16 0.887661 0.127579 0.333480
O O17 0.000000 0.000000 0.500000
O O18 0.503677 0.747117 0.752981
#
# Coordination Sequence:
#
# PCOD9031163 Si02
#       8
#     2   2   2   2   2   2   2   2
#     4  11  25  43  66  99 131 169 222 272 324 393
#     4  11  23  42  69  94 129 175 215 269 333 380
#     4  10  24  42  64  93 129 166 220 271 320 389
#     4  10  22  43  65  90 126 171 215 266 323 388
#     4  11  22  41  68  94 128 174 209 262 330 380
#     4  11  22  43  67  97 131 168 216 269 320 391
#     4  11  22  43  68  91 135 168 214 273 324 388
#     4  11  24  45  63  98 133 167 219 273 323 386
#
# _framework density 20.658125999999999
#
# number of rings (size 3 to 8) (size 9 to 14) (size 15 to 20)
#    0.000    1.250    5.000    0.750    5.250    7.000 
#    2.250    0.000    0.000    0.000    0.000    0.000 
#    0.000    0.000    0.000    0.000    0.000    0.000 
#
# Total GULP energy -89254.942943 kJ/mol
# GULP energy per Si atom -5578.433934 kJ/mol
# Density = 2.061111 g / cm^3
# Si number density = 20.658126 Si / 1000 Ang^3
#
#
#
# Elastic Constant Matrix: (Units=GPa)
#
#
# Indices 1 2 3 4 5 6 
#
# 1 56.6858 28.2800 19.5361 3.8368 22.2636 6.7589
# 2 28.2800 150.4335 63.4604 12.5348 24.0963 4.7346
# 3 19.5361 63.4604 67.0739 9.0503 18.8072 8.1767
# 4 3.8368 12.5348 9.0503 38.8964 -2.3859 8.5248
# 5 22.2636 24.0963 18.8072 -2.3859 37.9406 2.8453
# 6 6.7589 4.7346 8.1767 8.5248 2.8453 26.9211
#
#
#
# Elastic Compliance Matrix: (Units=1/GPa)
#
#
# Indices 1 2 3 4 5 6 
#
# 1 0.024368 -0.001837 -0.001259 -0.001477 -0.012328 -0.003642
# 2 -0.001837 0.011524 -0.009948 -0.001796 -0.001587 0.002192
# 3 -0.001259 -0.009948 0.027360 -0.002363 -0.006291 -0.004831
# 4 -0.001477 -0.001796 -0.002363 0.029178 0.005645 -0.008432
# 5 -0.012328 -0.001587 -0.006291 0.005645 0.038112 -0.000531
# 6 -0.003642 0.002192 -0.004831 -0.008432 -0.000531 0.041868
#
#
# Mechanical properties :
#
#
# Convention : Reuss Voigt Hill
#
# Bulk Modulus (GPa) = 26.90919 55.19404 41.05161
# Shear Modulus (GPa) = 23.70939 31.61275 27.66107
#
# Velocity S-wave (km/s) = 3.39145 3.91613 3.66319
# Velocity P-wave (km/s) = 5.32824 6.87196 6.14874
#
# Compressibility (1/GPa) = 0.03716202
#
# Stress axis : x y z
#
# Youngs Moduli (GPa) = 41.03812 86.77228 36.54974
#
# Poissons Ratio (x) = 0.15944 0.04602
# Poissons Ratio (y) = 0.07540 0.36361
# Poissons Ratio (z) = 0.05167 0.86324
#
# Static dielectric constant tensor:
#      x y z
#    x 1.767980 -0.030200 -0.026230 
#    y -0.030200 1.746290 -0.032180 
#    z -0.026230 -0.032180 1.758690 
# 
# From -- ./inp_files/217699.got.cif
#   From: 2010.05.17/outbox.cif.g08.bks.cpg/sg2_109_cif.got.tgz:217699.got - 2010.06.03 11:33:40.
