data_PCOD9031117
_publ_section_title
;
Structure prediction by ZEFSAII (Michael W. Deem and Ramdas Pophale) SiO2 
 PCOD9031117
Probable space group: P -1
;
_chemical_formula_sum "Si O2"
_cell_formula_units_Z 16
_cell_length_a 8.940216
_cell_length_b 15.367260
_cell_length_c 8.042223
_cell_angle_alpha 82.846780
_cell_angle_beta 61.924564
_cell_angle_gamma 123.095781
_cell_volume 699.526810
_symmetry_space_group_name_H-M "P -1"
_symmetry_group_IT_number 2
_symmetry_cell_setting 'triclinic'
loop_
_space_group_symop_operation_xyz
x,y,z
-x,-y,-z
loop_
_atom_site_type_symbol
_atom_site_label
_atom_site_fract_x
_atom_site_fract_y
_atom_site_fract_z
Si Si1 0.201500 0.078348 0.240405
Si Si2 0.653288 0.687011 0.847812
Si Si3 0.576350 0.667390 0.508256
Si Si4 0.825593 0.557131 0.716713
Si Si5 0.676976 0.185141 0.147848
Si Si6 0.372413 0.012354 0.924089
Si Si7 0.344809 0.749980 0.487549
Si Si8 0.156822 0.404285 0.694636
O O1 0.230227 0.190097 0.148584
O O2 0.441398 0.133777 0.192792
O O3 0.176950 0.002194 0.118169
O O4 0.000000 0.000000 0.500000
O O5 0.654654 0.712007 0.645200
O O6 0.781698 0.638670 0.798959
O O7 0.387794 0.577803 0.074634
O O8 0.527392 0.736666 0.415232
O O9 0.328356 0.526662 0.681744
O O10 0.748399 0.661327 0.329876
O O11 0.813240 0.560571 0.523030
O O12 0.087378 0.622140 0.608620
O O13 0.670329 0.209710 0.335827
O O14 0.706429 0.090629 0.137637
O O15 0.893119 0.310238 0.915630
O O16 0.562028 0.146350 0.716743
O O17 0.500000 0.000000 0.000000
#
# Coordination Sequence:
#
# PCOD9031117 Si02
#       8
#     2   2   2   2   2   2   2   2
#     4  11  25  43  73  95 130 181 231 281 331 400
#     4  10  22  43  64  99 136 180 225 270 347 397
#     4  10  23  42  69  99 142 172 224 274 347 397
#     4  10  23  38  70 100 140 177 218 280 337 411
#     4  11  24  44  71  96 135 183 225 278 339 395
#     4  10  25  45  65  94 133 174 226 276 337 391
#     4  12  24  43  72 104 133 176 230 280 335 410
#     4  10  23  44  70 101 143 180 214 280 346 404
#
# _framework density 22.872602000000001
#
# number of rings (size 3 to 8) (size 9 to 14) (size 15 to 20)
#    0.000    1.500    1.250    2.625   10.500    2.500 
#    0.000    1.250    0.000    0.000    0.000    0.000 
#    0.000    0.000    0.000    0.000    0.000    0.000 
#
# Total GULP energy -89569.402658 kJ/mol
# GULP energy per Si atom -5598.087666 kJ/mol
# Density = 2.282054 g / cm^3
# Si number density = 22.872602 Si / 1000 Ang^3
#
#
#
# Elastic Constant Matrix: (Units=GPa)
#
#
# Indices 1 2 3 4 5 6 
#
# 1 55.2530 -2.4147 4.9751 -5.3066 3.3150 -6.9966
# 2 -2.4147 79.0097 -0.6196 15.3680 0.0095 -22.8161
# 3 4.9751 -0.6196 102.8718 -11.6690 -6.4824 -9.6866
# 4 -5.3066 15.3680 -11.6690 25.8123 -1.1503 2.5583
# 5 3.3150 0.0095 -6.4824 -1.1503 29.3867 -9.6198
# 6 -6.9966 -22.8161 -9.6866 2.5583 -9.6198 29.1311
#
#
#
# Elastic Compliance Matrix: (Units=1/GPa)
#
#
# Indices 1 2 3 4 5 6 
#
# 1 0.019137 0.001787 -0.000143 0.002233 -0.000247 0.005671
# 2 0.001787 0.021371 0.000822 -0.013760 0.006210 0.020700
# 3 -0.000143 0.000822 0.010974 0.004107 0.004343 0.005332
# 4 0.002233 -0.013760 0.004107 0.050546 -0.001930 -0.013951
# 5 -0.000247 0.006210 0.004343 -0.001930 0.041528 0.020132
# 6 0.005671 0.020700 0.005332 -0.013951 0.020132 0.061548
#
#
# Mechanical properties :
#
#
# Convention : Reuss Voigt Hill
#
# Bulk Modulus (GPa) = 17.72609 26.77957 22.25283
# Shear Modulus (GPa) = 22.83346 32.54558 27.68952
#
# Velocity S-wave (km/s) = 3.16300 3.77624 3.48314
# Velocity P-wave (km/s) = 4.59414 5.54498 5.09181
#
# Compressibility (1/GPa) = 0.05641401
#
# Stress axis : x y z
#
# Youngs Moduli (GPa) = 52.25515 46.79245 91.12144
#
# Poissons Ratio (x) = -0.08362 0.01304
# Poissons Ratio (y) = -0.09338 -0.07490
# Poissons Ratio (z) = 0.00748 -0.03846
#
# Static dielectric constant tensor:
#      x y z
#    x 1.851440 -0.015400 -0.001880 
#    y -0.015400 1.886940 0.020440 
#    z -0.001880 0.020440 1.802900 
# 
# From -- ./inp_files/186979.got.cif
#   From: 2010.05.17/outbox.cif.g08.bks.cpg/sg2_94_cif.got.tgz:186979.got - 2010.06.03 11:33:40.
