data_PCOD9031830
_publ_section_title
;
Structure prediction by ZEFSAII (Michael W. Deem and Ramdas Pophale) SiO2 
 PCOD9031830
Probable space group: P -1
;
_chemical_formula_sum "Si O2"
_cell_formula_units_Z 16
_cell_length_a 13.620976
_cell_length_b 15.433598
_cell_length_c 18.477934
_cell_angle_alpha 19.708477
_cell_angle_beta 29.562875
_cell_angle_gamma 34.395366
_cell_volume 645.847053
_symmetry_space_group_name_H-M "P -1"
_symmetry_group_IT_number 2
_symmetry_cell_setting 'triclinic'
loop_
_space_group_symop_operation_xyz
x,y,z
-x,-y,-z
loop_
_atom_site_type_symbol
_atom_site_label
_atom_site_fract_x
_atom_site_fract_y
_atom_site_fract_z
Si Si1 0.378672 0.261165 0.023093
Si Si2 0.147468 0.777168 0.499783
Si Si3 0.403354 0.061831 0.591249
Si Si4 0.751490 0.341500 0.779685
Si Si5 0.016813 0.596422 0.997141
Si Si6 0.810020 0.885010 0.535381
Si Si7 0.087015 0.678851 0.151618
Si Si8 0.725087 0.419080 0.582146
O O1 0.233008 0.484199 0.969046
O O2 0.257272 0.020279 0.267106
O O3 0.548564 0.189485 0.028227
O O4 0.500666 0.382981 0.781344
O O5 0.246965 0.701851 0.419028
O O6 0.144645 0.541649 0.742517
O O7 0.915097 0.850632 0.573304
O O8 0.584493 0.989232 0.587639
O O9 0.500000 0.000000 0.500000
O O10 0.324205 0.357429 0.410236
O O11 0.218520 0.882188 0.866525
O O12 0.876337 0.291687 0.809652
O O13 0.835258 0.295424 0.681176
O O14 0.000000 0.500000 0.000000
O O15 0.041100 0.896008 0.759869
O O16 0.833244 0.604738 0.703820
O O17 0.849092 0.679071 0.290556
#
# Coordination Sequence:
#
# PCOD9031830 Si02
#       8
#     2   2   2   2   2   2   2   2
#     4  10  22  43  68  95 133 174 218 275 328 392
#     4  11  24  43  71  98 134 175 220 273 342 393
#     4  12  25  40  64 102 138 171 224 276 327 396
#     4  10  23  41  66  91 136 174 224 270 321 394
#     4  12  25  43  69 102 135 168 224 277 331 395
#     4  11  24  38  67  98 136 169 215 276 332 384
#     4  11  24  41  68  95 130 185 219 264 342 387
#     4   9  23  43  69  94 133 180 221 271 328 400
#
# _framework density 24.773669000000002
#
# number of rings (size 3 to 8) (size 9 to 14) (size 15 to 20)
#    0.750    0.500    3.750    1.500    5.250    0.500 
#    0.000    3.125    2.750    0.000    0.000    0.000 
#    0.000    0.000    0.000    0.000    0.000    0.000 
#
# Total GULP energy -89301.018148 kJ/mol
# GULP energy per Si atom -5581.313634 kJ/mol
# Density = 2.471728 g / cm^3
# Si number density = 24.773669 Si / 1000 Ang^3
#
#
#
# Elastic Constant Matrix: (Units=GPa)
#
#
# Indices 1 2 3 4 5 6 
#
# 1 87.6953 28.4517 51.8302 -3.3449 -9.0776 18.9201
# 2 28.4517 89.2539 55.1410 -5.3948 10.6011 21.5437
# 3 51.8302 55.1410 167.4768 1.6202 7.5511 16.8492
# 4 -3.3449 -5.3948 1.6202 35.7760 9.2801 -6.2395
# 5 -9.0776 10.6011 7.5511 9.2801 39.3013 8.6823
# 6 18.9201 21.5437 16.8492 -6.2395 8.6823 41.6710
#
#
#
# Elastic Compliance Matrix: (Units=1/GPa)
#
#
# Indices 1 2 3 4 5 6 
#
# 1 0.016554 -0.002121 -0.004075 -0.001518 0.006962 -0.006450
# 2 -0.002121 0.016061 -0.004032 0.002554 -0.003641 -0.004569
# 3 -0.004075 -0.004032 0.008569 -0.000896 -0.001428 0.000633
# 4 -0.001518 0.002554 -0.000896 0.031939 -0.009860 0.006568
# 5 0.006962 -0.003641 -0.001428 -0.009860 0.032620 -0.008974
# 6 -0.006450 -0.004569 0.000633 0.006568 -0.008974 0.031885
#
#
# Mechanical properties :
#
#
# Convention : Reuss Voigt Hill
#
# Bulk Modulus (GPa) = 48.24700 68.36354 58.30527
# Shear Modulus (GPa) = 30.30417 37.28320 33.79369
#
# Velocity S-wave (km/s) = 3.50128 3.88358 3.69738
# Velocity P-wave (km/s) = 5.98855 6.91120 6.46635
#
# Compressibility (1/GPa) = 0.02072668
#
# Stress axis : x y z
#
# Youngs Moduli (GPa) = 60.40829 62.26228 116.69877
#
# Poissons Ratio (x) = 0.13208 0.47554
# Poissons Ratio (y) = 0.12815 0.47058
# Poissons Ratio (z) = 0.24616 0.25107
#
# Static dielectric constant tensor:
#      x y z
#    x 2.025980 -0.057170 0.029810 
#    y -0.057170 2.035010 0.019930 
#    z 0.029810 0.019930 2.018910 
# 
# From -- ./inp_files/598312.got.cif
#   From: 2010.05.17/outbox.cif.g08.bks.cpg/sg2_300_cif.got.tgz:598312.got - 2010.06.03 11:33:40.
