data_PCOD9031505
_publ_section_title
;
Structure prediction by ZEFSAII (Michael W. Deem and Ramdas Pophale) SiO2 
 PCOD9031505
Probable space group: P -1
;
_chemical_formula_sum "Si O2"
_cell_formula_units_Z 16
_cell_length_a 6.829088
_cell_length_b 9.619844
_cell_length_c 11.115723
_cell_angle_alpha 108.522511
_cell_angle_beta 105.624190
_cell_angle_gamma 79.175630
_cell_volume 662.638971
_symmetry_space_group_name_H-M "P -1"
_symmetry_group_IT_number 2
_symmetry_cell_setting 'triclinic'
loop_
_space_group_symop_operation_xyz
x,y,z
-x,-y,-z
loop_
_atom_site_type_symbol
_atom_site_label
_atom_site_fract_x
_atom_site_fract_y
_atom_site_fract_z
Si Si1 0.427377 0.340673 0.647270
Si Si2 0.888209 0.403314 0.362256
Si Si3 0.987109 0.921498 0.711731
Si Si4 0.929745 0.654814 0.883830
Si Si5 0.319467 0.574188 0.077974
Si Si6 0.723723 0.920146 0.040132
Si Si7 0.786907 0.867436 0.290324
Si Si8 0.525652 0.894592 0.591718
O O1 0.336641 0.510384 0.668078
O O2 0.590309 0.325977 0.777691
O O3 0.246695 0.250135 0.646473
O O4 0.497258 0.265550 0.512360
O O5 0.000000 0.500000 0.500000
O O6 0.901718 0.234453 0.357829
O O7 0.007378 0.397028 0.253267
O O8 0.885422 0.031885 0.138479
O O9 0.753033 0.898021 0.678277
O O10 0.000531 0.062418 0.664173
O O11 0.795603 0.542519 0.897172
O O12 0.802423 0.813576 0.917173
O O13 0.143073 0.659539 0.991384
O O14 0.500000 0.500000 0.000000
O O15 0.735154 0.815118 0.133431
O O16 0.500000 0.000000 0.000000
O O17 0.631517 0.016679 0.320684
O O18 0.500000 0.000000 0.500000
#
# Coordination Sequence:
#
# PCOD9031505 Si02
#       8
#     2   2   2   2   2   2   2   2
#     4  11  23  43  73 101 143 185 246 305 354 438
#     4  12  26  47  69 108 150 192 238 294 369 450
#     4  10  25  45  68  98 145 187 238 298 369 425
#     4  11  27  45  74 106 147 195 243 298 377 435
#     4  11  24  46  74 109 143 184 245 312 367 430
#     4  10  25  44  70 100 140 187 245 296 365 430
#     4   9  24  44  69  99 140 183 250 297 353 432
#     4  10  22  43  67 102 136 185 240 300 360 428
#
# _framework density 24.145879999999998
#
# number of rings (size 3 to 8) (size 9 to 14) (size 15 to 20)
#    0.750    0.750    2.500    0.750    8.750    4.500 
#    0.000    1.250    0.000    0.000    0.000    0.000 
#    0.000    0.000    0.000    0.000    0.000    0.000 
#
# Total GULP energy -89408.865740 kJ/mol
# GULP energy per Si atom -5588.054109 kJ/mol
# Density = 2.409092 g / cm^3
# Si number density = 24.145880 Si / 1000 Ang^3
#
#
#
# Elastic Constant Matrix: (Units=GPa)
#
#
# Indices 1 2 3 4 5 6 
#
# 1 77.4968 16.2399 42.3413 6.6627 5.5089 -19.9699
# 2 16.2399 69.7762 16.9198 8.2708 6.5293 -12.2830
# 3 42.3413 16.9198 146.4993 14.5395 5.7759 -10.7124
# 4 6.6627 8.2708 14.5395 38.3465 -6.7454 -5.6080
# 5 5.5089 6.5293 5.7759 -6.7454 29.3520 5.4457
# 6 -19.9699 -12.2830 -10.7124 -5.6080 5.4457 36.5998
#
#
#
# Elastic Compliance Matrix: (Units=1/GPa)
#
#
# Indices 1 2 3 4 5 6 
#
# 1 0.018050 -0.001177 -0.004210 -0.000729 -0.004082 0.008717
# 2 -0.001177 0.016490 -0.000685 -0.003246 -0.004974 0.004934
# 3 -0.004210 -0.000685 0.008406 -0.002568 -0.001251 -0.000274
# 4 -0.000729 -0.003246 -0.002568 0.029432 0.007925 0.001092
# 5 -0.004082 -0.004974 -0.001251 0.007925 0.039670 -0.008951
# 6 0.008717 0.004934 -0.000274 0.001092 -0.008951 0.035153
#
#
# Mechanical properties :
#
#
# Convention : Reuss Voigt Hill
#
# Bulk Modulus (GPa) = 32.46640 49.41938 40.94289
# Shear Modulus (GPa) = 29.47871 35.41108 32.44490
#
# Velocity S-wave (km/s) = 3.49787 3.83371 3.66963
# Velocity P-wave (km/s) = 5.45789 6.33308 5.91170
#
# Compressibility (1/GPa) = 0.03080107
#
# Stress axis : x y z
#
# Youngs Moduli (GPa) = 55.40249 60.64135 118.96185
#
# Poissons Ratio (x) = 0.07139 0.50084
# Poissons Ratio (y) = 0.06522 0.08152
# Poissons Ratio (z) = 0.23325 0.04156
#
# Static dielectric constant tensor:
#      x y z
#    x 1.982460 0.026400 -0.027430 
#    y 0.026400 1.975690 -0.017670 
#    z -0.027430 -0.017670 1.953170 
# 
# From -- ./inp_files/365289.got.cif
#   From: 2010.05.17/outbox.cif.g08.bks.cpg/sg2_183_cif.got.tgz:365289.got - 2010.06.03 11:33:40.
