data_PCOD9031530
_publ_section_title
;
Structure prediction by ZEFSAII (Michael W. Deem and Ramdas Pophale) SiO2 
 PCOD9031530
Probable space group: P -1
;
_chemical_formula_sum "Si O2"
_cell_formula_units_Z 15
_cell_length_a 23.228789
_cell_length_b 11.940397
_cell_length_c 5.158595
_cell_angle_alpha 87.330613
_cell_angle_beta 89.567110
_cell_angle_gamma 155.817919
_cell_volume 581.076324
_symmetry_space_group_name_H-M "P -1"
_symmetry_group_IT_number 2
_symmetry_cell_setting 'triclinic'
loop_
_space_group_symop_operation_xyz
x,y,z
-x,-y,-z
loop_
_atom_site_type_symbol
_atom_site_label
_atom_site_fract_x
_atom_site_fract_y
_atom_site_fract_z
Si Si1 0.500000 0.500000 0.000000
Si Si2 0.407504 0.863300 0.264736
Si Si3 0.952342 0.775831 0.237122
Si Si4 0.662717 0.669622 0.443820
Si Si5 0.204021 0.321772 0.511971
Si Si6 0.748891 0.993488 0.766667
Si Si7 0.790549 0.295014 0.601324
Si Si8 0.052114 0.774720 0.895597
O O1 0.560411 0.525172 0.240530
O O2 0.360269 0.162611 0.992945
O O3 0.272343 0.540153 0.310223
O O4 0.344556 0.876232 0.278227
O O5 0.680105 0.567933 0.463651
O O6 0.500000 0.000000 0.000000
O O7 0.850636 0.702248 0.239318
O O8 0.864385 0.511784 0.374287
O O9 0.028795 0.861258 0.977352
O O10 0.074076 0.030341 0.403863
O O11 0.642662 0.697363 0.719874
O O12 0.820629 0.997431 0.338476
O O13 0.500000 0.000000 0.500000
O O14 0.762944 0.117410 0.548163
O O15 0.889074 0.192125 0.868017
O O16 0.906300 0.480848 0.804205
#
# Coordination Sequence:
#
# PCOD9031530 Si02
#       8
#     1   2   2   2   2   2   2   2
#     4  10  26  42  66  98 134 194 242 278 360 426
#     4  11  29  52  73 109 146 198 249 299 373 438
#     4  10  22  43  67 107 131 182 233 295 377 422
#     4  11  23  45  67 106 139 187 239 294 363 431
#     4  10  22  45  74  99 144 181 236 304 359 440
#     4  11  24  44  67  97 144 186 236 296 357 438
#     4  11  25  44  69 103 144 184 240 304 358 434
#     4  11  22  41  69 105 136 179 239 295 371 428
#
# _framework density 25.814166
#
# number of rings (size 3 to 8) (size 9 to 14) (size 15 to 20)
#    0.000    1.333    2.667    0.800    5.600    6.933 
#    0.000    0.000    0.000    0.000    0.000    0.000 
#    0.000    0.000    0.000    0.000    0.000    0.000 
#
# Total GULP energy -83719.685348 kJ/mol
# GULP energy per Si atom -5581.312357 kJ/mol
# Density = 2.575541 g / cm^3
# Si number density = 25.814166 Si / 1000 Ang^3
#
#
#
# Elastic Constant Matrix: (Units=GPa)
#
#
# Indices 1 2 3 4 5 6 
#
# 1 173.2808 29.5711 36.0917 -3.2699 -7.0809 0.8361
# 2 29.5711 75.4550 22.6908 3.0412 -6.5158 16.8947
# 3 36.0917 22.6908 101.3954 16.3881 -5.0485 11.6833
# 4 -3.2699 3.0412 16.3881 31.2873 5.2141 4.0834
# 5 -7.0809 -6.5158 -5.0485 5.2141 28.5562 -5.9381
# 6 0.8361 16.8947 11.6833 4.0834 -5.9381 50.0573
#
#
#
# Elastic Compliance Matrix: (Units=1/GPa)
#
#
# Indices 1 2 3 4 5 6 
#
# 1 0.006676 -0.002194 -0.002279 0.001856 0.000639 0.001085
# 2 -0.002194 0.015951 -0.002105 -0.000382 0.001835 -0.004607
# 3 -0.002279 -0.002105 0.012499 -0.006754 0.002113 -0.001367
# 4 0.001856 -0.000382 -0.006754 0.037392 -0.008135 -0.002341
# 5 0.000639 0.001835 0.002113 -0.008135 0.038304 0.004084
# 6 0.001085 -0.004607 -0.001367 -0.002341 0.004084 0.022508
#
#
# Mechanical properties :
#
#
# Convention : Reuss Voigt Hill
#
# Bulk Modulus (GPa) = 45.51371 58.53763 52.02567
# Shear Modulus (GPa) = 32.50801 39.43200 35.97000
#
# Velocity S-wave (km/s) = 3.55252 3.91261 3.73691
# Velocity P-wave (km/s) = 5.87340 6.56788 6.23033
#
# Compressibility (1/GPa) = 0.02197140
#
# Stress axis : x y z
#
# Youngs Moduli (GPa) = 149.79396 62.69218 80.00709
#
# Poissons Ratio (x) = 0.13753 0.18231
# Poissons Ratio (y) = 0.32860 0.16840
# Poissons Ratio (z) = 0.34132 0.13196
#
# Static dielectric constant tensor:
#      x y z
#    x 2.135090 0.049240 -0.237420 
#    y 0.049240 2.243100 -0.284100 
#    z -0.237420 -0.284100 2.425460 
# 
# From -- ./inp_files/127051.got.cif
#   From: 2010.05.17/outbox.cif.g08.bks.cpg/sg2_64_cif.got.tgz:127051.got - 2010.06.03 11:33:40.
