data_PCOD9031776
_publ_section_title
;
Structure prediction by ZEFSAII (Michael W. Deem and Ramdas Pophale) SiO2 
 PCOD9031776
Probable space group: P -1
;
_chemical_formula_sum "Si O2"
_cell_formula_units_Z 14
_cell_length_a 13.346403
_cell_length_b 9.812945
_cell_length_c 12.197618
_cell_angle_alpha 98.609297
_cell_angle_beta 81.104294
_cell_angle_gamma 29.382448
_cell_volume 627.027014
_symmetry_space_group_name_H-M "P -1"
_symmetry_group_IT_number 2
_symmetry_cell_setting 'triclinic'
loop_
_space_group_symop_operation_xyz
x,y,z
-x,-y,-z
loop_
_atom_site_type_symbol
_atom_site_label
_atom_site_fract_x
_atom_site_fract_y
_atom_site_fract_z
Si Si1 0.297362 0.332623 0.505474
Si Si2 0.735907 0.607794 0.882568
Si Si3 0.754388 0.300144 0.744174
Si Si4 0.081707 0.548270 0.948571
Si Si5 0.819611 0.955583 0.817895
Si Si6 0.329423 0.141344 0.264169
Si Si7 0.670863 0.395120 0.521602
O O1 0.220977 0.326235 0.419558
O O2 0.390034 0.366258 0.451011
O O3 0.069346 0.642973 0.663126
O O4 0.500000 0.000000 0.500000
O O5 0.647886 0.574540 0.842688
O O6 0.844896 0.560897 0.758707
O O7 0.908296 0.374537 0.931607
O O8 0.500000 0.000000 0.000000
O O9 0.653180 0.383120 0.652323
O O10 0.711309 0.238494 0.836314
O O11 0.047643 0.966557 0.621892
O O12 0.908565 0.817464 0.910886
O O13 0.376000 0.177984 0.817025
O O14 0.000000 0.500000 0.000000
O O15 0.662401 0.024564 0.801354
O O16 0.500000 0.500000 0.500000
#
# Coordination Sequence:
#
# PCOD9031776 Si02
#       7
#     2   2   2   2   2   2   2
#     4  11  22  39  65 100 130 165 218 269 328 390
#     4  10  22  43  68  89 125 176 221 264 317 388
#     4  10  23  43  61  96 134 168 217 268 329 391
#     4  11  23  41  64  91 127 168 224 267 314 383
#     4  11  24  39  65  97 132 169 214 273 329 386
#     4  11  22  41  66  93 127 170 220 268 325 385
#     4  10  23  40  64  94 135 175 207 264 338 392
#
# _framework density 22.327586
#
# number of rings (size 3 to 8) (size 9 to 14) (size 15 to 20)
#    0.000    1.429    4.286    0.429    2.000    2.857 
#    0.000    2.857    0.000    0.000    0.000    0.000 
#    0.000    0.000    0.000    0.000    0.000    0.000 
#
# Total GULP energy -78150.563970 kJ/mol
# GULP energy per Si atom -5582.183141 kJ/mol
# Density = 2.227677 g / cm^3
# Si number density = 22.327586 Si / 1000 Ang^3
#
#
#
# Elastic Constant Matrix: (Units=GPa)
#
#
# Indices 1 2 3 4 5 6 
#
# 1 138.7373 52.5683 38.4395 -15.9673 15.1869 -1.3143
# 2 52.5683 88.5469 47.1154 -29.5190 9.0649 11.0430
# 3 38.4395 47.1154 90.8312 -41.7753 22.9482 -3.7594
# 4 -15.9673 -29.5190 -41.7753 44.9044 -2.6513 8.7300
# 5 15.1869 9.0649 22.9482 -2.6513 39.4375 -7.9333
# 6 -1.3143 11.0430 -3.7594 8.7300 -7.9333 34.3628
#
#
#
# Elastic Compliance Matrix: (Units=1/GPa)
#
#
# Indices 1 2 3 4 5 6 
#
# 1 0.009814 -0.005910 -0.002087 -0.002891 -0.000882 0.002577
# 2 -0.005910 0.022044 -0.003966 0.010707 -0.001959 -0.010916
# 3 -0.002087 -0.003966 0.027481 0.022308 -0.013708 -0.004631
# 4 -0.002891 0.010707 0.022308 0.051594 -0.014389 -0.017540
# 5 -0.000882 -0.001959 -0.013708 -0.014389 0.035351 0.010913
# 6 0.002577 -0.010916 -0.004631 -0.017540 0.010913 0.039177
#
#
# Mechanical properties :
#
#
# Convention : Reuss Voigt Hill
#
# Bulk Modulus (GPa) = 28.23904 66.04019 47.13961
# Shear Modulus (GPa) = 22.60477 35.74042 29.17259
#
# Velocity S-wave (km/s) = 3.18530 4.00525 3.61857
# Velocity P-wave (km/s) = 5.11891 7.14363 6.21428
#
# Compressibility (1/GPa) = 0.03541197
#
# Stress axis : x y z
#
# Youngs Moduli (GPa) = 101.89543 45.36433 36.38817
#
# Poissons Ratio (x) = 0.26812 0.07596
# Poissons Ratio (y) = 0.60225 0.14430
# Poissons Ratio (z) = 0.21270 0.17990
#
# Static dielectric constant tensor:
#      x y z
#    x 1.853740 0.012170 -0.022560 
#    y 0.012170 2.075680 -0.010700 
#    z -0.022560 -0.010700 1.933170 
# 
# From -- ./inp_files/417565.got.cif
#   From: 2010.05.17/outbox.cif.g08.bks.cpg/sg2_209_cif.got.tgz:417565.got - 2010.06.03 11:33:40.
