data_PCOD9031798
_publ_section_title
;
Structure prediction by ZEFSAII (Michael W. Deem and Ramdas Pophale) SiO2 
 PCOD9031798
Probable space group: P -1
;
_chemical_formula_sum "Si O2"
_cell_formula_units_Z 12
_cell_length_a 16.433642
_cell_length_b 7.542729
_cell_length_c 8.692321
_cell_angle_alpha 146.457487
_cell_angle_beta 53.264332
_cell_angle_gamma 126.386168
_cell_volume 466.078745
_symmetry_space_group_name_H-M "P -1"
_symmetry_group_IT_number 2
_symmetry_cell_setting 'triclinic'
loop_
_space_group_symop_operation_xyz
x,y,z
-x,-y,-z
loop_
_atom_site_type_symbol
_atom_site_label
_atom_site_fract_x
_atom_site_fract_y
_atom_site_fract_z
Si Si1 0.311521 0.616868 0.378775
Si Si2 0.416472 0.293744 0.610980
Si Si3 0.874857 0.759828 0.886810
Si Si4 0.435773 0.132999 0.985987
Si Si5 0.265831 0.268092 0.475242
Si Si6 0.076765 0.915617 0.618115
O O1 0.228701 0.430297 0.215030
O O2 0.267478 0.559477 0.561135
O O3 0.357140 0.995405 0.567513
O O4 0.402075 0.411627 0.121002
O O5 0.466130 0.652500 0.877551
O O6 0.336367 0.320542 0.585591
O O7 0.518342 0.155481 0.346476
O O8 0.923083 0.463476 0.686427
O O9 0.957947 0.940954 0.798199
O O10 0.870525 0.988129 0.203316
O O11 0.329251 0.041283 0.140208
O O12 0.149788 0.120583 0.555998
#
# Coordination Sequence:
#
# PCOD9031798 Si02
#       6
#     2   2   2   2   2   2
#     4  10  24  41  68  97 124 173 213 263 313 378
#     4  12  22  46  59  92 137 170 208 264 306 380
#     4  10  22  43  68  93 126 166 207 262 327 378
#     4  10  26  40  63  94 129 174 212 256 316 368
#     4  10  24  41  68  97 124 173 213 263 313 378
#     4  10  22  43  68  93 126 166 207 262 327 378
#
# _framework density 25.746721000000001
#
# number of rings (size 3 to 8) (size 9 to 14) (size 15 to 20)
#    1.000    0.667    1.667    2.000    2.333    3.333 
#    0.000    0.000    0.000    6.000    0.000    0.000 
#    0.000    0.000    0.000    0.000    0.000    0.000 
#
# Total GULP energy -67098.421077 kJ/mol
# GULP energy per Si atom -5591.535090 kJ/mol
# Density = 2.568812 g / cm^3
# Si number density = 25.746721 Si / 1000 Ang^3
#
#
#
# Elastic Constant Matrix: (Units=GPa)
#
#
# Indices 1 2 3 4 5 6 
#
# 1 12.5157 -0.2726 4.0023 -1.2490 8.1998 6.7735
# 2 -0.2726 212.6994 35.1553 -27.3887 -5.6866 11.7824
# 3 4.0023 35.1553 94.9439 11.5344 2.8387 6.8740
# 4 -1.2490 -27.3887 11.5344 33.4335 6.2491 -9.3693
# 5 8.1998 -5.6866 2.8387 6.2491 29.7829 -2.2561
# 6 6.7735 11.7824 6.8740 -9.3693 -2.2561 43.0184
#
#
#
# Elastic Compliance Matrix: (Units=1/GPa)
#
#
# Indices 1 2 3 4 5 6 
#
# 1 0.113864 0.002076 -0.004353 0.008813 -0.033724 -0.017651
# 2 0.002076 0.005978 -0.003008 0.006039 -0.000425 -0.000191
# 3 -0.004353 -0.003008 0.012921 -0.007871 0.000876 -0.002224
# 4 0.008813 0.006039 -0.007871 0.041429 -0.008702 0.006783
# 5 -0.033724 -0.000425 0.000876 -0.008702 0.044958 0.005749
# 6 -0.017651 -0.000191 -0.002224 0.006783 0.005749 0.028211
#
#
# Mechanical properties :
#
#
# Convention : Reuss Voigt Hill
#
# Bulk Modulus (GPa) = 8.18375 44.21433 26.19904
# Shear Modulus (GPa) = 16.74130 39.99857 28.36994
#
# Velocity S-wave (km/s) = 2.55273 3.94577 3.32307
# Velocity P-wave (km/s) = 3.44587 6.16189 4.99214
#
# Compressibility (1/GPa) = 0.12219336
#
# Stress axis : x y z
#
# Youngs Moduli (GPa) = 8.78240 167.27720 77.39356
#
# Poissons Ratio (x) = -0.34735 0.33691
# Poissons Ratio (y) = -0.01824 0.23281
# Poissons Ratio (z) = 0.03823 0.50320
#
# Static dielectric constant tensor:
#      x y z
#    x 2.042930 -0.007120 0.018050 
#    y -0.007120 2.103210 -0.085090 
#    z 0.018050 -0.085090 2.020350 
# 
# From -- ./inp_files/343946.got.cif
#   From: 2010.05.17/outbox.cif.g08.bks.cpg/sg2_172_cif.got.tgz:343946.got - 2010.06.03 11:33:40.
