data_PCOD9031564
_publ_section_title
;
Structure prediction by ZEFSAII (Michael W. Deem and Ramdas Pophale) SiO2 
 PCOD9031564
Probable space group: P -1
;
_chemical_formula_sum "Si O2"
_cell_formula_units_Z 14
_cell_length_a 10.464583
_cell_length_b 7.077259
_cell_length_c 8.445826
_cell_angle_alpha 54.364734
_cell_angle_beta 84.593596
_cell_angle_gamma 92.186503
_cell_volume 502.753325
_symmetry_space_group_name_H-M "P -1"
_symmetry_group_IT_number 2
_symmetry_cell_setting 'triclinic'
loop_
_space_group_symop_operation_xyz
x,y,z
-x,-y,-z
loop_
_atom_site_type_symbol
_atom_site_label
_atom_site_fract_x
_atom_site_fract_y
_atom_site_fract_z
Si Si1 0.917918 0.478610 0.356044
Si Si2 0.441343 0.362815 0.421586
Si Si3 0.522475 0.292152 0.977238
Si Si4 0.655792 0.130196 0.312005
Si Si5 0.111112 0.764079 0.973566
Si Si6 0.242473 0.167565 0.967331
Si Si7 0.088373 0.014296 0.326946
O O1 0.846739 0.220372 0.522788
O O2 0.000000 0.500000 0.500000
O O3 0.815252 0.652742 0.233513
O O4 0.025322 0.541609 0.171396
O O5 0.500000 0.500000 0.500000
O O6 0.567352 0.256243 0.381272
O O7 0.331779 0.140652 0.526940
O O8 0.385434 0.567198 0.227664
O O9 0.568321 0.100714 0.177474
O O10 0.394424 0.204753 0.941984
O O11 0.500000 0.500000 0.000000
O O12 0.786120 0.273301 0.158379
O O13 0.017789 0.940213 0.819030
O O14 0.184956 0.914834 0.031077
O O15 0.201002 0.185951 0.148067
O O16 0.000000 0.000000 0.500000
#
# Coordination Sequence:
#
# PCOD9031564 Si02
#       7
#     2   2   2   2   2   2   2
#     4  11  21  45  73  98 134 182 232 286 352 408
#     4  10  22  43  67  93 132 182 236 274 335 420
#     4  10  24  44  66  97 140 180 230 284 343 413
#     4  10  24  43  65  98 142 178 224 291 345 403
#     4  11  23  42  70 103 139 178 237 289 343 431
#     4  11  23  42  71 100 135 185 240 285 343 427
#     4  11  25  41  66 105 140 178 231 291 351 413
#
# _framework density 27.846658000000001
#
# number of rings (size 3 to 8) (size 9 to 14) (size 15 to 20)
#    0.000    1.429    2.857    1.714    0.000   14.857 
#    2.571    0.000    0.000    0.000    0.000    0.000 
#    0.000    0.000    0.000    0.000    0.000    0.000 
#
# Total GULP energy -78134.934967 kJ/mol
# GULP energy per Si atom -5581.066783 kJ/mol
# Density = 2.778328 g / cm^3
# Si number density = 27.846658 Si / 1000 Ang^3
#
#
#
# Elastic Constant Matrix: (Units=GPa)
#
#
# Indices 1 2 3 4 5 6 
#
# 1 95.5981 18.9443 38.8056 -7.0820 -9.1769 -7.3524
# 2 18.9443 103.0639 32.7309 9.7671 -13.6653 2.3527
# 3 38.8056 32.7309 201.6491 -8.5835 4.7528 0.0312
# 4 -7.0820 9.7671 -8.5835 46.9494 1.5267 -7.3388
# 5 -9.1769 -13.6653 4.7528 1.5267 47.7446 -1.5248
# 6 -7.3524 2.3527 0.0312 -7.3388 -1.5248 31.7029
#
#
#
# Elastic Compliance Matrix: (Units=1/GPa)
#
#
# Indices 1 2 3 4 5 6 
#
# 1 0.012267 -0.001621 -0.002050 0.002307 0.002139 0.003604
# 2 -0.001621 0.011327 -0.001741 -0.003308 0.003151 -0.001829
# 3 -0.002050 -0.001741 0.005720 0.001122 -0.001503 -0.000165
# 4 0.002307 -0.003308 0.001122 0.023544 -0.001171 0.006173
# 5 0.002139 0.003151 -0.001503 -0.001171 0.022479 0.001074
# 6 0.003604 -0.001829 -0.000165 0.006173 0.001074 0.033995
#
#
# Mechanical properties :
#
#
# Convention : Reuss Voigt Hill
#
# Bulk Modulus (GPa) = 54.08849 64.58586 59.33718
# Shear Modulus (GPa) = 39.58203 45.93471 42.75837
#
# Velocity S-wave (km/s) = 3.77427 4.06588 3.92279
# Velocity P-wave (km/s) = 6.20156 6.72946 6.47090
#
# Compressibility (1/GPa) = 0.01848822
#
# Stress axis : x y z
#
# Youngs Moduli (GPa) = 81.51658 88.28723 174.83881
#
# Poissons Ratio (x) = 0.14311 0.35850
# Poissons Ratio (y) = 0.13213 0.30445
# Poissons Ratio (z) = 0.16715 0.15374
#
# Static dielectric constant tensor:
#      x y z
#    x 3.238430 0.206380 0.102460 
#    y 0.206380 2.385720 0.064780 
#    z 0.102460 0.064780 2.233080 
# 
# From -- ./inp_files/236705.got.cif
#   From: 2010.05.17/outbox.cif.g08.bks.cpg/sg2_119_cif.got.tgz:236705.got - 2010.06.03 11:33:40.
