data_PCOD9031999
_publ_section_title
;
Structure prediction by ZEFSAII (Michael W. Deem and Ramdas Pophale) SiO2 
 PCOD9031999
Probable space group: P -1
;
_chemical_formula_sum "Si O2"
_cell_formula_units_Z 16
_cell_length_a 11.664999
_cell_length_b 16.194372
_cell_length_c 7.407045
_cell_angle_alpha 48.777663
_cell_angle_beta 138.280969
_cell_angle_gamma 135.092809
_cell_volume 631.564980
_symmetry_space_group_name_H-M "P -1"
_symmetry_group_IT_number 2
_symmetry_cell_setting 'triclinic'
loop_
_space_group_symop_operation_xyz
x,y,z
-x,-y,-z
loop_
_atom_site_type_symbol
_atom_site_label
_atom_site_fract_x
_atom_site_fract_y
_atom_site_fract_z
Si Si1 0.804592 0.393647 0.086397
Si Si2 0.985795 0.897293 0.268495
Si Si3 0.447117 0.613430 0.509894
Si Si4 0.189667 0.173779 0.466286
Si Si5 0.187738 0.368807 0.670622
Si Si6 0.379043 0.032056 0.661638
Si Si7 0.947908 0.648986 0.073252
Si Si8 0.375459 0.730989 0.592285
O O1 0.648625 0.306463 0.173414
O O2 0.998513 0.377987 0.358116
O O3 0.715190 0.365998 0.822834
O O4 0.863204 0.534500 0.005152
O O5 0.882944 0.899628 0.330668
O O6 0.852886 0.768285 0.213371
O O7 0.202634 0.916504 0.534763
O O8 0.000000 0.000000 0.000000
O O9 0.635905 0.691746 0.508228
O O10 0.371544 0.470113 0.646022
O O11 0.466772 0.666367 0.658542
O O12 0.267986 0.101859 0.530550
O O13 0.032268 0.218515 0.153807
O O14 0.185549 0.390937 0.848987
O O15 0.515066 0.126445 0.536082
O O16 0.500000 0.000000 0.000000
O O17 0.156320 0.672584 0.351907
#
# Coordination Sequence:
#
# PCOD9031999 Si02
#       8
#     2   2   2   2   2   2   2   2
#     4  11  22  38  72 105 143 176 231 282 358 428
#     4  12  28  47  69 101 144 188 235 295 353 409
#     4  11  23  41  69 108 136 177 232 290 355 419
#     4  11  27  44  71 101 138 180 234 294 356 418
#     4  11  23  42  71 103 140 180 234 283 352 423
#     4  11  26  48  74  95 136 193 242 286 342 426
#     4  11  21  44  69 105 142 179 219 292 364 417
#     4  10  22  43  69 103 136 180 238 286 344 420
#
# _framework density 25.333894999999998
#
# number of rings (size 3 to 8) (size 9 to 14) (size 15 to 20)
#    0.000    1.000    2.500    3.750    7.000    4.500 
#    0.000    3.125    0.000    0.000    0.000    0.000 
#    0.000    0.000    0.000    0.000    0.000    0.000 
#
# Total GULP energy -89640.621393 kJ/mol
# GULP energy per Si atom -5602.538837 kJ/mol
# Density = 2.527623 g / cm^3
# Si number density = 25.333895 Si / 1000 Ang^3
#
#
#
# Elastic Constant Matrix: (Units=GPa)
#
#
# Indices 1 2 3 4 5 6 
#
# 1 86.2266 30.8232 19.7115 -11.1536 -26.7004 31.6332
# 2 30.8232 133.4817 14.9573 -16.1558 -15.7600 33.7195
# 3 19.7115 14.9573 93.2767 -15.3264 -12.6532 9.1082
# 4 -11.1536 -16.1558 -15.3264 43.0614 5.3895 -4.0384
# 5 -26.7004 -15.7600 -12.6532 5.3895 45.8605 -11.0696
# 6 31.6332 33.7195 9.1082 -4.0384 -11.0696 45.5141
#
#
#
# Elastic Compliance Matrix: (Units=1/GPa)
#
#
# Indices 1 2 3 4 5 6 
#
# 1 0.018408 -0.000353 -0.001457 0.002223 0.007464 -0.010228
# 2 -0.000353 0.009671 -0.000250 0.002703 0.001201 -0.006337
# 3 -0.001457 -0.000250 0.011937 0.003506 0.001843 -0.000432
# 4 0.002223 0.002703 0.003506 0.025913 -0.000346 -0.002035
# 5 0.007464 0.001201 0.001843 -0.000346 0.027143 0.000124
# 6 -0.010228 -0.006337 -0.000432 -0.002035 0.000124 0.033711
#
#
# Mechanical properties :
#
#
# Convention : Reuss Voigt Hill
#
# Bulk Modulus (GPa) = 27.85879 49.32988 38.59433
# Shear Modulus (GPa) = 34.99722 43.38672 39.19197
#
# Velocity S-wave (km/s) = 3.72080 4.14284 3.93748
# Velocity P-wave (km/s) = 5.42952 6.51140 5.99492
#
# Compressibility (1/GPa) = 0.03589531
#
# Stress axis : x y z
#
# Youngs Moduli (GPa) = 54.32526 103.39950 83.77277
#
# Poissons Ratio (x) = 0.03654 0.12204
# Poissons Ratio (y) = 0.01920 0.02096
# Poissons Ratio (z) = 0.07914 0.02587
#
# Static dielectric constant tensor:
#      x y z
#    x 1.999850 -0.022620 0.052630 
#    y -0.022620 2.025000 0.011960 
#    z 0.052630 0.011960 2.076400 
# 
# From -- ./inp_files/278881.got.cif
#   From: 2010.05.17/outbox.cif.g08.bks.cpg/sg2_140_cif.got.tgz:278881.got - 2010.06.03 11:33:40.
