data_PCOD9031375
_publ_section_title
;
Structure prediction by ZEFSAII (Michael W. Deem and Ramdas Pophale) SiO2 
 PCOD9031375
Probable space group: P -1
;
_chemical_formula_sum "Si O2"
_cell_formula_units_Z 16
_cell_length_a 8.034462
_cell_length_b 16.363792
_cell_length_c 6.915960
_cell_angle_alpha 96.104784
_cell_angle_beta 88.631705
_cell_angle_gamma 130.670994
_cell_volume 684.493257
_symmetry_space_group_name_H-M "P -1"
_symmetry_group_IT_number 2
_symmetry_cell_setting 'triclinic'
loop_
_space_group_symop_operation_xyz
x,y,z
-x,-y,-z
loop_
_atom_site_type_symbol
_atom_site_label
_atom_site_fract_x
_atom_site_fract_y
_atom_site_fract_z
Si Si1 0.602466 0.810812 0.516518
Si Si2 0.782506 0.634631 0.468611
Si Si3 0.234609 0.548579 0.434146
Si Si4 0.164418 0.096409 0.866805
Si Si5 0.443874 0.030184 0.819522
Si Si6 0.530306 0.421545 0.890044
Si Si7 0.732103 0.152030 0.496985
Si Si8 0.714175 0.738870 0.837873
O O1 0.407879 0.679782 0.460140
O O2 0.791586 0.876533 0.361194
O O3 0.470454 0.852970 0.553891
O O4 0.704354 0.812462 0.712902
O O5 0.709057 0.516323 0.464006
O O6 0.649533 0.633681 0.295623
O O7 0.754672 0.675134 0.682210
O O8 0.043234 0.726382 0.455562
O O9 0.240305 0.519188 0.206388
O O10 0.000000 0.500000 0.500000
O O11 0.373526 0.100951 0.883295
O O12 0.137963 0.180956 0.970455
O O13 0.000000 0.000000 0.000000
O O14 0.258609 0.919887 0.674400
O O15 0.654578 0.094612 0.691012
O O16 0.500000 0.000000 0.000000
O O17 0.500000 0.500000 0.000000
O O18 0.499383 0.348243 0.047347
#
# Coordination Sequence:
#
# PCOD9031375 Si02
#       8
#     2   2   2   2   2   2   2   2
#     4  11  23  44  66  97 137 172 227 286 342 407
#     4  12  24  41  71  99 139 181 232 280 346 417
#     4  12  23  45  69  99 140 180 225 284 343 410
#     4  11  24  41  66  98 131 174 227 280 341 416
#     4  10  22  43  66  93 138 170 223 284 345 408
#     4  12  25  46  69 102 140 184 233 285 344 412
#     4  10  23  42  66  99 131 179 221 283 348 407
#     4  12  23  41  70  95 136 178 223 288 341 404
#
# _framework density 23.374956000000001
#
# number of rings (size 3 to 8) (size 9 to 14) (size 15 to 20)
#    0.000    0.750    5.000    2.625    0.000    3.500 
#    0.000    5.000    0.000    0.000    0.000    0.000 
#    0.000    0.000    0.000    0.000    0.000    0.000 
#
# Total GULP energy -89083.132075 kJ/mol
# GULP energy per Si atom -5567.695755 kJ/mol
# Density = 2.332175 g / cm^3
# Si number density = 23.374956 Si / 1000 Ang^3
#
#
#
# Elastic Constant Matrix: (Units=GPa)
#
#
# Indices 1 2 3 4 5 6 
#
# 1 69.2545 7.9880 50.6193 -3.9629 -14.5122 -10.0047
# 2 7.9880 97.7115 39.9412 -12.8389 -12.4527 -4.1572
# 3 50.6193 39.9412 155.3867 -37.1251 -9.8068 -1.0628
# 4 -3.9629 -12.8389 -37.1251 51.1716 -13.7408 -4.8518
# 5 -14.5122 -12.4527 -9.8068 -13.7408 37.2032 -8.9854
# 6 -10.0047 -4.1572 -1.0628 -4.8518 -8.9854 35.0754
#
#
#
# Elastic Compliance Matrix: (Units=1/GPa)
#
#
# Indices 1 2 3 4 5 6 
#
# 1 0.023177 0.003036 -0.007320 0.001081 0.010865 0.009682
# 2 0.003036 0.012772 -0.002902 0.003704 0.007184 0.004645
# 3 -0.007320 -0.002902 0.011453 0.007440 0.001796 -0.000596
# 4 0.001081 0.003704 0.007440 0.031642 0.017697 0.009883
# 5 0.010865 0.007184 0.001796 0.017697 0.044867 0.017947
# 6 0.009682 0.004645 -0.000596 0.009883 0.017947 0.037769
#
#
# Mechanical properties :
#
#
# Convention : Reuss Voigt Hill
#
# Bulk Modulus (GPa) = 30.27531 57.71665 43.99598
# Shear Modulus (GPa) = 26.72909 39.61032 33.16971
#
# Velocity S-wave (km/s) = 3.38523 4.12097 3.77108
# Velocity P-wave (km/s) = 5.31600 6.88393 6.15013
#
# Compressibility (1/GPa) = 0.03303022
#
# Stress axis : x y z
#
# Youngs Moduli (GPa) = 43.14558 78.29566 87.31226
#
# Poissons Ratio (x) = -0.23773 0.63917
# Poissons Ratio (y) = -0.13100 0.25338
# Poissons Ratio (z) = 0.31585 0.22722
#
# Static dielectric constant tensor:
#      x y z
#    x 1.887820 0.022610 -0.010740 
#    y 0.022610 2.069220 0.041270 
#    z -0.010740 0.041270 1.906460 
# 
# From -- ./inp_files/47807.got.cif
#   From: 2010.05.17/outbox.cif.g08.bks.cpg/sg2_24_cif.got.tgz:47807.got - 2010.06.03 11:33:40.
