data_PCOD9031788
_publ_section_title
;
Structure prediction by ZEFSAII (Michael W. Deem and Ramdas Pophale) SiO2 
 PCOD9031788
Probable space group: P -1
;
_chemical_formula_sum "Si O2"
_cell_formula_units_Z 16
_cell_length_a 5.216694
_cell_length_b 21.997521
_cell_length_c 8.264571
_cell_angle_alpha 51.100791
_cell_angle_beta 98.282765
_cell_angle_gamma 71.311109
_cell_volume 617.750393
_symmetry_space_group_name_H-M "P -1"
_symmetry_group_IT_number 2
_symmetry_cell_setting 'triclinic'
loop_
_space_group_symop_operation_xyz
x,y,z
-x,-y,-z
loop_
_atom_site_type_symbol
_atom_site_label
_atom_site_fract_x
_atom_site_fract_y
_atom_site_fract_z
Si Si1 0.438583 0.927267 0.804203
Si Si2 0.845582 0.414904 0.192936
Si Si3 0.284547 0.943937 0.416541
Si Si4 0.177721 0.548961 0.207489
Si Si5 0.616026 0.893194 0.213861
Si Si6 0.522720 0.660034 0.081958
Si Si7 0.388618 0.347542 0.555610
Si Si8 0.722471 0.254686 0.416295
O O1 0.435356 0.890014 0.687925
O O2 0.625115 0.978372 0.714673
O O3 0.572670 0.862970 0.082405
O O4 0.080935 0.001784 0.688256
O O5 0.846819 0.323333 0.319146
O O6 0.026254 0.400134 0.397745
O O7 0.500000 0.500000 0.000000
O O8 0.990368 0.428937 0.021115
O O9 0.429446 0.887384 0.357978
O O10 0.353335 0.603163 0.147439
O O11 0.409806 0.438878 0.417858
O O12 0.890267 0.590779 0.229969
O O13 0.967095 0.842497 0.377101
O O14 0.500000 0.000000 0.000000
O O15 0.462074 0.706019 0.176243
O O16 0.426620 0.726170 0.806656
O O17 0.525269 0.286032 0.510119
#
# Coordination Sequence:
#
# PCOD9031788 Si02
#       8
#     2   2   2   2   2   2   2   2
#     4   9  18  36  63  94 119 162 208 266 329 397
#     4  11  22  42  70  95 139 181 219 276 339 400
#     4   9  18  36  63  92 125 155 211 267 328 390
#     4  11  22  42  66 100 137 179 224 275 333 401
#     4  10  22  43  68  92 131 174 228 277 345 395
#     4  11  26  41  67 101 138 178 228 276 333 402
#     4  12  23  41  69  96 139 180 227 276 337 405
#     4  11  25  44  64  99 136 179 229 286 335 404
#
# _framework density 25.900428999999999
#
# number of rings (size 3 to 8) (size 9 to 14) (size 15 to 20)
#    0.000    1.500    2.500    3.000    1.750    1.000 
#    9.000    0.000    5.500    0.000    0.000    0.000 
#    0.000    0.000    0.000    0.000    0.000    0.000 
#
# Total GULP energy -89457.373195 kJ/mol
# GULP energy per Si atom -5591.085825 kJ/mol
# Density = 2.584148 g / cm^3
# Si number density = 25.900429 Si / 1000 Ang^3
#
#
#
# Elastic Constant Matrix: (Units=GPa)
#
#
# Indices 1 2 3 4 5 6 
#
# 1 112.1585 36.2064 31.4478 -2.5625 8.1107 -1.0592
# 2 36.2064 121.7928 78.0502 36.5454 7.7664 5.0747
# 3 31.4478 78.0502 179.0426 45.9047 18.4879 -6.4616
# 4 -2.5625 36.5454 45.9047 65.7439 -1.8478 4.6150
# 5 8.1107 7.7664 18.4879 -1.8478 24.3610 -5.5827
# 6 -1.0592 5.0747 -6.4616 4.6150 -5.5827 29.0502
#
#
#
# Elastic Compliance Matrix: (Units=1/GPa)
#
#
# Indices 1 2 3 4 5 6 
#
# 1 0.010406 -0.003208 -0.001011 0.002855 -0.001462 -0.000020
# 2 -0.003208 0.013318 -0.004076 -0.004513 -0.001077 -0.002840
# 3 -0.001011 -0.004076 0.009358 -0.004630 -0.005248 0.002484
# 4 0.002855 -0.004513 -0.004630 0.021385 0.005035 -0.002567
# 5 -0.001462 -0.001077 -0.005248 0.005035 0.047935 0.007380
# 6 -0.000020 -0.002840 0.002484 -0.002567 0.007380 0.037297
#
#
# Mechanical properties :
#
#
# Convention : Reuss Voigt Hill
#
# Bulk Modulus (GPa) = 60.63883 78.26696 69.45289
# Shear Modulus (GPa) = 30.90475 41.65033 36.27754
#
# Velocity S-wave (km/s) = 3.45804 4.01446 3.74659
# Velocity P-wave (km/s) = 6.27751 7.19526 6.75200
#
# Compressibility (1/GPa) = 0.01649108
#
# Stress axis : x y z
#
# Youngs Moduli (GPa) = 96.09971 75.08691 106.85600
#
# Poissons Ratio (x) = 0.24090 0.10802
# Poissons Ratio (y) = 0.30831 0.43559
# Poissons Ratio (z) = 0.09714 0.30609
#
# Static dielectric constant tensor:
#      x y z
#    x 2.063240 0.019660 -0.085860 
#    y 0.019660 2.126170 0.064600 
#    z -0.085860 0.064600 2.033580 
# 
# From -- ./inp_files/143110.got.cif
#   From: 2010.05.17/outbox.cif.g08.bks.cpg/sg2_72_cif.got.tgz:143110.got - 2010.06.03 11:33:40.
