data_PCOD9031144
_publ_section_title
;
Structure prediction by ZEFSAII (Michael W. Deem and Ramdas Pophale) SiO2 
 PCOD9031144
Probable space group: P -1
;
_chemical_formula_sum "Si O2"
_cell_formula_units_Z 14
_cell_length_a 13.417286
_cell_length_b 27.526846
_cell_length_c 9.281349
_cell_angle_alpha 32.681485
_cell_angle_beta 149.445000
_cell_angle_gamma 155.624787
_cell_volume 691.860845
_symmetry_space_group_name_H-M "P -1"
_symmetry_group_IT_number 2
_symmetry_cell_setting 'triclinic'
loop_
_space_group_symop_operation_xyz
x,y,z
-x,-y,-z
loop_
_atom_site_type_symbol
_atom_site_label
_atom_site_fract_x
_atom_site_fract_y
_atom_site_fract_z
Si Si1 0.063595 0.492265 0.261667
Si Si2 0.399750 0.858067 0.315961
Si Si3 0.312670 0.865817 0.676491
Si Si4 0.486584 0.259025 0.640998
Si Si5 0.972484 0.721733 0.341876
Si Si6 0.446667 0.675276 0.776264
Si Si7 0.105944 0.864724 0.714878
O O1 0.327375 0.621665 0.324456
O O2 0.084129 0.390464 0.528027
O O3 0.172894 0.553558 0.807881
O O4 0.000000 0.500000 0.000000
O O5 0.475769 0.779302 0.634881
O O6 0.210193 0.839816 0.248750
O O7 0.675216 0.996013 0.305204
O O8 0.211228 0.807701 0.067517
O O9 0.143533 0.862499 0.598277
O O10 0.108087 0.758335 0.575482
O O11 0.500000 0.000000 0.500000
O O12 0.472226 0.832259 0.032219
O O13 0.558720 0.303899 0.452612
O O14 0.183285 0.194688 0.450077
O O15 0.701395 0.692906 0.078800
#
# Coordination Sequence:
#
# PCOD9031144 Si02
#       7
#     2   2   2   2   2   2   2
#     4  11  26  47  67 101 139 175 230 283 328 406
#     4  10  22  43  65 103 135 169 226 280 328 408
#     4  12  26  43  67 104 142 173 225 281 338 406
#     4  12  26  46  69 100 136 183 228 274 339 400
#     4  11  24  45  69  98 136 177 224 278 343 391
#     4  11  25  44  73  97 132 184 225 279 339 395
#     4  11  24  40  70  97 137 178 224 274 336 402
#
# _framework density 20.235282999999999
#
# number of rings (size 3 to 8) (size 9 to 14) (size 15 to 20)
#    0.000    0.857    5.714    0.429    4.000    3.429 
#    0.000    0.000    0.000    0.000    0.000    0.000 
#    0.000    0.000    0.000    0.000    0.000    0.000 
#
# Total GULP energy -78142.759101 kJ/mol
# GULP energy per Si atom -5581.625650 kJ/mol
# Density = 2.018923 g / cm^3
# Si number density = 20.235283 Si / 1000 Ang^3
#
#
#
# Elastic Constant Matrix: (Units=GPa)
#
#
# Indices 1 2 3 4 5 6 
#
# 1 111.5303 27.2048 51.0026 14.4255 0.0111 16.5484
# 2 27.2048 93.8457 48.0053 16.5197 14.2695 16.5926
# 3 51.0026 48.0053 116.4855 15.9987 21.8309 19.9825
# 4 14.4255 16.5197 15.9987 28.2569 1.3463 -0.3827
# 5 0.0111 14.2695 21.8309 1.3463 39.1430 3.1897
# 6 16.5484 16.5926 19.9825 -0.3827 3.1897 28.9671
#
#
#
# Elastic Compliance Matrix: (Units=1/GPa)
#
#
# Indices 1 2 3 4 5 6 
#
# 1 0.012222 -0.000303 -0.004626 -0.003647 0.003139 -0.004012
# 2 -0.000303 0.015260 -0.003740 -0.006595 -0.002780 -0.005769
# 3 -0.004626 -0.003740 0.014604 -0.003484 -0.006282 -0.004644
# 4 -0.003647 -0.006595 -0.003484 0.043093 0.002166 0.008596
# 5 0.003139 -0.002780 -0.006282 0.002166 0.029919 0.000867
# 6 -0.004012 -0.005769 -0.004644 0.008596 0.000867 0.043340
#
#
# Mechanical properties :
#
#
# Convention : Reuss Voigt Hill
#
# Bulk Modulus (GPa) = 40.40484 63.80965 52.10724
# Shear Modulus (GPa) = 27.17025 32.31664 29.74345
#
# Velocity S-wave (km/s) = 3.66829 4.00064 3.83806
# Velocity P-wave (km/s) = 6.16057 7.27616 6.74148
#
# Compressibility (1/GPa) = 0.02474951
#
# Stress axis : x y z
#
# Youngs Moduli (GPa) = 81.81920 65.52891 68.47515
#
# Poissons Ratio (x) = 0.01984 0.31675
# Poissons Ratio (y) = 0.02477 0.25609
# Poissons Ratio (z) = 0.37848 0.24507
#
# Static dielectric constant tensor:
#      x y z
#    x 1.756140 0.013400 -0.053580 
#    y 0.013400 1.748210 -0.059150 
#    z -0.053580 -0.059150 1.726810 
# 
# From -- ./inp_files/202331.got.cif
#   From: 2010.05.17/outbox.cif.g08.bks.cpg/sg2_102_cif.got.tgz:202331.got - 2010.06.03 11:33:40.
