data_PCOD9031694
_publ_section_title
;
Structure prediction by ZEFSAII (Michael W. Deem and Ramdas Pophale) SiO2 
 PCOD9031694
Probable space group: P -1
;
_chemical_formula_sum "Si O2"
_cell_formula_units_Z 16
_cell_length_a 7.819839
_cell_length_b 13.065152
_cell_length_c 9.194753
_cell_angle_alpha 77.489917
_cell_angle_beta 128.366234
_cell_angle_gamma 77.107024
_cell_volume 635.777661
_symmetry_space_group_name_H-M "P -1"
_symmetry_group_IT_number 2
_symmetry_cell_setting 'triclinic'
loop_
_space_group_symop_operation_xyz
x,y,z
-x,-y,-z
loop_
_atom_site_type_symbol
_atom_site_label
_atom_site_fract_x
_atom_site_fract_y
_atom_site_fract_z
Si Si1 0.894562 0.632214 0.842587
Si Si2 0.432507 0.051593 0.611863
Si Si3 0.343038 0.391562 0.556565
Si Si4 0.969901 0.357215 0.587700
Si Si5 0.701635 0.362741 0.159672
Si Si6 0.106069 0.887644 0.698638
Si Si7 0.766656 0.153510 0.900437
Si Si8 0.217791 0.178265 0.022057
O O1 0.107915 0.639462 0.860027
O O2 0.692077 0.646409 0.611150
O O3 0.000000 0.500000 0.000000
O O4 0.803363 0.729185 0.891644
O O5 0.140331 0.131402 0.431082
O O6 0.585764 0.116572 0.729162
O O7 0.500000 0.000000 0.500000
O O8 0.517929 0.936526 0.795869
O O9 0.224715 0.533880 0.450219
O O10 0.613066 0.298173 0.780922
O O11 0.164264 0.380057 0.587631
O O12 0.803834 0.343074 0.382574
O O13 0.131246 0.245643 0.805363
O O14 0.666471 0.245220 0.162680
O O15 0.500000 0.500000 0.000000
O O16 0.000000 0.000000 0.500000
O O17 0.158666 0.910845 0.884157
O O18 0.021659 0.130194 0.969405
#
# Coordination Sequence:
#
# PCOD9031694 Si02
#       8
#     2   2   2   2   2   2   2   2
#     4  11  22  44  69 105 147 193 239 301 365 434
#     4  12  26  49  73 103 147 190 238 307 363 434
#     4  10  22  43  67  99 145 187 233 302 362 425
#     4  10  23  39  69 104 138 187 240 294 367 427
#     4  11  24  46  70 103 147 185 242 304 358 437
#     4  12  29  48  74 111 147 192 250 300 375 443
#     4  12  26  46  75 101 146 196 245 300 367 438
#     4  12  25  43  72 107 144 192 248 294 372 435
#
# _framework density 25.166029000000002
#
# number of rings (size 3 to 8) (size 9 to 14) (size 15 to 20)
#    0.000    0.750    3.750    3.375    3.500    3.000 
#    0.000    0.000    0.000    0.000    0.000    0.000 
#    0.000    0.000    0.000    0.000    0.000    0.000 
#
# Total GULP energy -89485.630408 kJ/mol
# GULP energy per Si atom -5592.851901 kJ/mol
# Density = 2.510875 g / cm^3
# Si number density = 25.166029 Si / 1000 Ang^3
#
#
#
# Elastic Constant Matrix: (Units=GPa)
#
#
# Indices 1 2 3 4 5 6 
#
# 1 37.9885 19.4153 28.4078 -0.0576 -13.0929 5.1920
# 2 19.4153 116.2509 64.5943 -16.2289 -5.5122 9.8637
# 3 28.4078 64.5943 207.5306 -9.8133 -33.0378 1.1635
# 4 -0.0576 -16.2289 -9.8133 64.2573 10.7150 0.9632
# 5 -13.0929 -5.5122 -33.0378 10.7150 44.4298 -12.2370
# 6 5.1920 9.8637 1.1635 0.9632 -12.2370 26.1266
#
#
#
# Elastic Compliance Matrix: (Units=1/GPa)
#
#
# Indices 1 2 3 4 5 6 
#
# 1 0.032927 -0.004295 -0.002009 -0.002692 0.008062 -0.000957
# 2 -0.004295 0.012200 -0.003825 0.003436 -0.005106 -0.006100
# 3 -0.002009 -0.003825 0.007108 -0.000875 0.005579 0.004172
# 4 -0.002692 0.003436 -0.000875 0.017431 -0.006427 -0.004376
# 5 0.008062 -0.005106 0.005579 -0.006427 0.034483 0.016465
# 6 -0.000957 -0.006100 0.004172 -0.004376 0.016465 0.048455
#
#
# Mechanical properties :
#
#
# Convention : Reuss Voigt Hill
#
# Bulk Modulus (GPa) = 31.27418 65.17830 48.22624
# Shear Modulus (GPa) = 27.24472 43.58625 35.41549
#
# Velocity S-wave (km/s) = 3.29386 4.16618 3.75543
# Velocity P-wave (km/s) = 5.18846 7.00702 6.16516
#
# Compressibility (1/GPa) = 0.03197526
#
# Stress axis : x y z
#
# Youngs Moduli (GPa) = 30.37064 81.96551 140.69563
#
# Poissons Ratio (x) = 0.35208 0.28261
# Poissons Ratio (y) = 0.13045 0.53823
# Poissons Ratio (z) = 0.06100 0.31356
#
# Static dielectric constant tensor:
#      x y z
#    x 2.068390 -0.030430 0.063550 
#    y -0.030430 2.194240 -0.070550 
#    z 0.063550 -0.070550 2.029140 
# 
# From -- ./inp_files/207183.got.cif
#   From: 2010.05.17/outbox.cif.g08.bks.cpg/sg2_104_cif.got.tgz:207183.got - 2010.06.03 11:33:40.
