data_PCOD9031155
_publ_section_title
;
Structure prediction by ZEFSAII (Michael W. Deem and Ramdas Pophale) SiO2 
 PCOD9031155
Probable space group: P -1
;
_chemical_formula_sum "Si O2"
_cell_formula_units_Z 16
_cell_length_a 12.102175
_cell_length_b 16.025502
_cell_length_c 12.602139
_cell_angle_alpha 34.389078
_cell_angle_beta 35.896295
_cell_angle_gamma 53.845465
_cell_volume 786.300402
_symmetry_space_group_name_H-M "P -1"
_symmetry_group_IT_number 2
_symmetry_cell_setting 'triclinic'
loop_
_space_group_symop_operation_xyz
x,y,z
-x,-y,-z
loop_
_atom_site_type_symbol
_atom_site_label
_atom_site_fract_x
_atom_site_fract_y
_atom_site_fract_z
Si Si1 0.704386 0.113579 0.687487
Si Si2 0.098369 0.900904 0.104598
Si Si3 0.549869 0.386226 0.246635
Si Si4 0.268316 0.899824 0.567757
Si Si5 0.718631 0.652382 0.689324
Si Si6 0.490704 0.627007 0.461242
Si Si7 0.149393 0.091911 0.064410
Si Si8 0.529395 0.135741 0.249145
O O1 0.751816 0.100228 0.542129
O O2 0.669189 0.282254 0.548546
O O3 0.858419 0.049608 0.701711
O O4 0.500000 0.000000 0.000000
O O5 0.924183 0.768456 0.421778
O O6 0.199941 0.020634 0.989483
O O7 0.252768 0.830622 0.996419
O O8 0.000000 0.000000 0.000000
O O9 0.615774 0.227844 0.360536
O O10 0.344306 0.373198 0.358859
O O11 0.549783 0.431125 0.324137
O O12 0.698085 0.505071 0.932689
O O13 0.059905 0.871004 0.816066
O O14 0.391745 0.062856 0.336542
O O15 0.550676 0.729468 0.782933
O O16 0.500000 0.500000 0.500000
O O17 0.689643 0.759946 0.179912
O O18 0.500000 0.000000 0.500000
#
# Coordination Sequence:
#
# PCOD9031155 Si02
#       8
#     2   2   2   2   2   2   2   2
#     4   9  20  38  61  88 119 161 212 263 309 361
#     4  12  22  39  67  97 127 160 214 261 314 376
#     4  10  23  43  61  88 136 168 201 264 320 377
#     4  11  20  40  63  89 129 164 206 265 318 374
#     4  11  23  42  63  98 131 167 211 256 320 385
#     4  10  22  43  65  87 126 171 210 262 319 375
#     4  11  22  39  64  96 120 163 215 262 315 373
#     4  12  21  37  66  94 123 164 210 259 313 371
#
# _framework density 20.348455000000001
#
# number of rings (size 3 to 8) (size 9 to 14) (size 15 to 20)
#    0.000    1.250    3.750    3.375    0.000    3.000 
#    6.750    2.500    0.000    0.000    0.000    0.000 
#    0.000    0.000    0.000    0.000    0.000    0.000 
#
# Total GULP energy -89306.309047 kJ/mol
# GULP energy per Si atom -5581.644315 kJ/mol
# Density = 2.030214 g / cm^3
# Si number density = 20.348455 Si / 1000 Ang^3
#
#
#
# Elastic Constant Matrix: (Units=GPa)
#
#
# Indices 1 2 3 4 5 6 
#
# 1 79.7606 31.5194 22.7846 -10.8257 14.9311 9.5247
# 2 31.5194 86.9023 28.2923 7.1626 3.3303 21.3160
# 3 22.7846 28.2923 84.6108 1.6888 -2.8144 -0.8015
# 4 -10.8257 7.1626 1.6888 30.7324 -5.5487 -8.3343
# 5 14.9311 3.3303 -2.8144 -5.5487 38.8879 2.8768
# 6 9.5247 21.3160 -0.8015 -8.3343 2.8768 25.9851
#
#
#
# Elastic Compliance Matrix: (Units=1/GPa)
#
#
# Indices 1 2 3 4 5 6 
#
# 1 0.017683 -0.006156 -0.003019 0.007206 -0.005556 0.001401
# 2 -0.006156 0.021172 -0.005368 -0.012017 -0.000139 -0.019116
# 3 -0.003019 -0.005368 0.014536 0.001501 0.002428 0.006171
# 4 0.007206 -0.012017 0.001501 0.044065 0.003101 0.021052
# 5 -0.005556 -0.000139 0.002428 0.003101 0.028473 0.000067
# 6 0.001401 -0.019116 0.006171 0.021052 0.000067 0.060586
#
#
# Mechanical properties :
#
#
# Convention : Reuss Voigt Hill
#
# Bulk Modulus (GPa) = 41.14093 46.27404 43.70749
# Shear Modulus (GPa) = 22.35116 30.36624 26.35870
#
# Velocity S-wave (km/s) = 3.31784 3.86724 3.60302
# Velocity P-wave (km/s) = 5.91096 6.53689 6.23179
#
# Compressibility (1/GPa) = 0.02430669
#
# Stress axis : x y z
#
# Youngs Moduli (GPa) = 56.55025 47.23226 68.79505
#
# Poissons Ratio (x) = 0.29074 0.20769
# Poissons Ratio (y) = 0.34810 0.36927
# Poissons Ratio (z) = 0.17072 0.25353
#
# Static dielectric constant tensor:
#      x y z
#    x 1.847510 0.088710 0.017460 
#    y 0.088710 1.793030 0.028020 
#    z 0.017460 0.028020 1.730830 
# 
# From -- ./inp_files/433704.got.cif
#   From: 2010.05.17/outbox.cif.g08.bks.cpg/sg2_217_cif.got.tgz:433704.got - 2010.06.03 11:33:40.
