data_PCOD9031313
_publ_section_title
;
Structure prediction by ZEFSAII (Michael W. Deem and Ramdas Pophale) SiO2 
 PCOD9031313
Probable space group: P -1
;
_chemical_formula_sum "Si O2"
_cell_formula_units_Z 15
_cell_length_a 5.238276
_cell_length_b 12.701043
_cell_length_c 13.392817
_cell_angle_alpha 127.226683
_cell_angle_beta 67.387182
_cell_angle_gamma 118.980457
_cell_volume 615.288957
_symmetry_space_group_name_H-M "P -1"
_symmetry_group_IT_number 2
_symmetry_cell_setting 'triclinic'
loop_
_space_group_symop_operation_xyz
x,y,z
-x,-y,-z
loop_
_atom_site_type_symbol
_atom_site_label
_atom_site_fract_x
_atom_site_fract_y
_atom_site_fract_z
Si Si1 0.763105 0.045237 0.907145
Si Si2 0.668830 0.154061 0.522535
Si Si3 0.275023 0.327629 0.635342
Si Si4 0.694525 0.278866 0.949223
Si Si5 0.500000 0.500000 0.500000
Si Si6 0.974149 0.784263 0.685097
Si Si7 0.132549 0.527262 0.125514
Si Si8 0.840991 0.702399 0.871640
O O1 0.690636 0.121117 0.863707
O O2 0.858906 0.914217 0.791386
O O3 0.008124 0.171159 0.001078
O O4 0.500000 0.000000 0.000000
O O5 0.469820 0.252072 0.620312
O O6 0.983692 0.213887 0.564397
O O7 0.744809 0.163815 0.398817
O O8 0.500000 0.000000 0.500000
O O9 0.460284 0.429360 0.578944
O O10 0.126264 0.413939 0.775716
O O11 0.624830 0.345542 0.896009
O O12 0.484678 0.289497 0.078162
O O13 0.009516 0.392464 0.994202
O O14 0.735940 0.648749 0.593277
O O15 0.021686 0.735860 0.761606
O O16 0.194713 0.451709 0.171157
#
# Coordination Sequence:
#
# PCOD9031313 Si02
#       8
#     2   2   2   2   1   2   2   2
#     4  11  24  42  68 109 137 183 230 296 360 434
#     4  11  28  50  70 104 143 190 250 299 368 436
#     4  11  26  46  75 103 139 191 245 303 365 431
#     4  10  22  43  66 102 145 177 236 278 373 428
#     4  10  26  46  72 102 140 190 250 300 360 422
#     4  11  25  45  75 101 145 189 242 307 360 435
#     4  10  24  40  70 100 142 183 226 301 353 441
#     4  11  23  42  70 106 137 182 236 291 367 433
#
# _framework density 24.378788
#
# number of rings (size 3 to 8) (size 9 to 14) (size 15 to 20)
#    0.000    1.333    1.333    2.000    9.333    3.200 
#    0.000    0.000    0.000    0.000    0.000    0.000 
#    0.000    0.000    0.000    0.000    0.000    0.000 
#
# Total GULP energy -83625.029973 kJ/mol
# GULP energy per Si atom -5575.001998 kJ/mol
# Density = 2.432330 g / cm^3
# Si number density = 24.378788 Si / 1000 Ang^3
#
#
#
# Elastic Constant Matrix: (Units=GPa)
#
#
# Indices 1 2 3 4 5 6 
#
# 1 45.7573 38.3062 11.4220 10.2820 -7.9166 0.4066
# 2 38.3062 221.6486 46.6999 5.9012 0.4032 -10.2782
# 3 11.4220 46.6999 74.8189 4.1311 -1.8509 -3.8043
# 4 10.2820 5.9012 4.1311 34.6507 -2.4546 7.3581
# 5 -7.9166 0.4032 -1.8509 -2.4546 32.5404 6.8775
# 6 0.4066 -10.2782 -3.8043 7.3581 6.8775 35.3275
#
#
#
# Elastic Compliance Matrix: (Units=1/GPa)
#
#
# Indices 1 2 3 4 5 6 
#
# 1 0.028731 -0.004663 -0.001021 -0.006759 0.006844 -0.001722
# 2 -0.004663 0.006033 -0.003019 0.000215 -0.001740 0.001778
# 3 -0.001021 -0.003019 0.015532 -0.001218 0.000372 0.000987
# 4 -0.006759 0.000215 -0.001218 0.032672 0.002278 -0.007239
# 5 0.006844 -0.001740 0.000372 0.002278 0.034235 -0.007684
# 6 -0.001722 0.001778 0.000987 -0.007239 -0.007684 0.031954
#
#
# Mechanical properties :
#
#
# Convention : Reuss Voigt Hill
#
# Bulk Modulus (GPa) = 30.40226 59.45343 44.92784
# Shear Modulus (GPa) = 28.16501 36.89017 32.52759
#
# Velocity S-wave (km/s) = 3.40267 3.89422 3.65671
# Velocity P-wave (km/s) = 5.28540 6.68283 6.02477
#
# Compressibility (1/GPa) = 0.03289229
#
# Stress axis : x y z
#
# Youngs Moduli (GPa) = 34.80589 165.74583 64.38228
#
# Poissons Ratio (x) = 0.77281 0.06572
# Poissons Ratio (y) = 0.16229 0.19434
# Poissons Ratio (z) = 0.03553 0.50031
#
# Static dielectric constant tensor:
#      x y z
#    x 2.096620 -0.020090 0.047940 
#    y -0.020090 1.951060 -0.046000 
#    z 0.047940 -0.046000 1.945820 
# 
# From -- ./inp_files/482330.got.cif
#   From: 2010.05.17/outbox.cif.g08.bks.cpg/sg2_242_cif.got.tgz:482330.got - 2010.06.03 11:33:40.
