data_PCOD9031699
_publ_section_title
;
Structure prediction by ZEFSAII (Michael W. Deem and Ramdas Pophale) SiO2 
 PCOD9031699
Probable space group: P -1
;
_chemical_formula_sum "Si O2"
_cell_formula_units_Z 14
_cell_length_a 10.517012
_cell_length_b 9.018177
_cell_length_c 8.451133
_cell_angle_alpha 96.485834
_cell_angle_beta 59.922710
_cell_angle_gamma 90.207741
_cell_volume 687.865045
_symmetry_space_group_name_H-M "P -1"
_symmetry_group_IT_number 2
_symmetry_cell_setting 'triclinic'
loop_
_space_group_symop_operation_xyz
x,y,z
-x,-y,-z
loop_
_atom_site_type_symbol
_atom_site_label
_atom_site_fract_x
_atom_site_fract_y
_atom_site_fract_z
Si Si1 0.578513 0.608170 0.191005
Si Si2 0.683377 0.193741 0.547356
Si Si3 0.145387 0.569756 0.975579
Si Si4 0.151050 0.555203 0.348189
Si Si5 0.524185 0.027262 0.173575
Si Si6 0.162050 0.908468 0.879756
Si Si7 0.581798 0.670707 0.842650
O O1 0.452367 0.683748 0.389432
O O2 0.535978 0.451128 0.125816
O O3 0.728494 0.555010 0.174198
O O4 0.587558 0.705544 0.033533
O O5 0.789020 0.291744 0.600795
O O6 0.780468 0.121470 0.337996
O O7 0.590978 0.065939 0.669295
O O8 0.146845 0.570632 0.164538
O O9 0.154133 0.740268 0.933688
O O10 0.000000 0.500000 0.000000
O O11 0.266616 0.418420 0.301034
O O12 0.000000 0.500000 0.500000
O O13 0.696930 0.016801 0.116061
O O14 0.464494 0.200065 0.234429
O O15 0.500000 0.000000 0.000000
O O16 0.000000 0.000000 0.000000
#
# Coordination Sequence:
#
# PCOD9031699 Si02
#       7
#     2   2   2   2   2   2   2
#     4   9  18  39  67  94 124 162 225 271 321 388
#     4  11  24  43  70  96 133 177 228 276 332 404
#     4  11  23  41  68  97 135 177 217 274 344 394
#     4  10  22  43  68 100 133 169 226 282 338 396
#     4  12  23  43  71 100 131 182 226 271 340 410
#     4  12  29  47  62  97 145 181 221 283 343 400
#     4   9  18  37  67  94 124 167 215 277 319 394
#
# _framework density 20.352830999999998
#
# number of rings (size 3 to 8) (size 9 to 14) (size 15 to 20)
#    0.000    1.429    2.857    3.000    2.000    2.857 
#    2.571    2.143    0.000    0.000    0.000    0.000 
#    0.000    0.000    0.000    0.000    0.000    0.000 
#
# Total GULP energy -77983.022981 kJ/mol
# GULP energy per Si atom -5570.215927 kJ/mol
# Density = 2.030651 g / cm^3
# Si number density = 20.352831 Si / 1000 Ang^3
#
#
#
# Elastic Constant Matrix: (Units=GPa)
#
#
# Indices 1 2 3 4 5 6 
#
# 1 157.1191 54.3856 66.2022 6.4721 -29.8998 7.6150
# 2 54.3856 118.8654 52.4551 -17.6698 -15.0763 -1.3242
# 3 66.2022 52.4551 128.2009 3.5425 -22.9036 1.0087
# 4 6.4721 -17.6698 3.5425 29.2385 10.2322 -3.5912
# 5 -29.8998 -15.0763 -22.9036 10.2322 30.3297 2.4118
# 6 7.6150 -1.3242 1.0087 -3.5912 2.4118 35.9081
#
#
#
# Elastic Compliance Matrix: (Units=1/GPa)
#
#
# Indices 1 2 3 4 5 6 
#
# 1 0.011368 -0.004457 -0.001755 -0.009429 0.011182 -0.004220
# 2 -0.004457 0.013621 -0.004596 0.012055 -0.005411 0.003146
# 3 -0.001755 -0.004596 0.012116 -0.006634 0.007476 -0.001303
# 4 -0.009429 0.012055 -0.006634 0.055330 -0.027776 0.010030
# 5 0.011182 -0.005411 0.007476 -0.027776 0.057069 -0.009392
# 6 -0.004220 0.003146 -0.001303 0.010030 -0.009392 0.030530
#
#
# Mechanical properties :
#
#
# Convention : Reuss Voigt Hill
#
# Bulk Modulus (GPa) = 64.56334 83.36347 73.96340
# Shear Modulus (GPa) = 24.17626 34.50473 29.34050
#
# Velocity S-wave (km/s) = 3.45027 4.12190 3.80095
# Velocity P-wave (km/s) = 6.90387 7.98132 7.46207
#
# Compressibility (1/GPa) = 0.01548867
#
# Stress axis : x y z
#
# Youngs Moduli (GPa) = 87.96768 73.41443 82.53209
#
# Poissons Ratio (x) = 0.32721 0.14485
# Poissons Ratio (y) = 0.39207 0.37934
# Poissons Ratio (z) = 0.15439 0.33744
#
# Static dielectric constant tensor:
#      x y z
#    x 1.900360 0.034600 -0.073020 
#    y 0.034600 1.854740 -0.000040 
#    z -0.073020 -0.000040 1.780490 
# 
# From -- ./inp_files/159062.got.cif
#   From: 2010.05.17/outbox.cif.g08.bks.cpg/sg2_80_cif.got.tgz:159062.got - 2010.06.03 11:33:40.
