data_PCOD9031506
_publ_section_title
;
Structure prediction by ZEFSAII (Michael W. Deem and Ramdas Pophale) SiO2 
 PCOD9031506
Probable space group: P -1
;
_chemical_formula_sum "Si O2"
_cell_formula_units_Z 16
_cell_length_a 12.301881
_cell_length_b 8.962893
_cell_length_c 19.761718
_cell_angle_alpha 151.332668
_cell_angle_beta 137.360610
_cell_angle_gamma 51.637523
_cell_volume 705.989038
_symmetry_space_group_name_H-M "P -1"
_symmetry_group_IT_number 2
_symmetry_cell_setting 'triclinic'
loop_
_space_group_symop_operation_xyz
x,y,z
-x,-y,-z
loop_
_atom_site_type_symbol
_atom_site_label
_atom_site_fract_x
_atom_site_fract_y
_atom_site_fract_z
Si Si1 0.390299 0.088433 0.660745
Si Si2 0.682996 0.596183 0.017724
Si Si3 0.502468 0.288928 0.565614
Si Si4 0.066185 0.416863 0.627359
Si Si5 0.956278 0.351386 0.135735
Si Si6 0.709728 0.186551 0.350217
Si Si7 0.061512 0.092130 0.845248
Si Si8 0.841977 0.475262 0.822184
O O1 0.223880 0.230350 0.620629
O O2 0.452421 0.846664 0.539858
O O3 0.359694 0.917293 0.650044
O O4 0.527204 0.374296 0.840845
O O5 0.788559 0.417516 0.049383
O O6 0.799318 0.706258 0.052460
O O7 0.644107 0.918253 0.162512
O O8 0.348285 0.482089 0.566197
O O9 0.654506 0.513565 0.749119
O O10 0.500000 0.000000 0.500000
O O11 0.046451 0.538350 0.744266
O O12 0.903363 0.211559 0.451987
O O13 0.082603 0.728403 0.713258
O O14 0.090885 0.548221 0.231732
O O15 0.000000 0.000000 0.000000
O O16 0.895037 0.175346 0.767821
O O17 0.070323 0.236508 0.981939
#
# Coordination Sequence:
#
# PCOD9031506 Si02
#       8
#     2   2   2   2   2   2   2   2
#     4  12  28  48  72 103 146 183 238 292 351 422
#     4  11  27  45  70 105 143 186 237 292 351 414
#     4  12  28  46  72 101 145 185 237 288 358 419
#     4  12  26  44  72 104 141 185 236 287 357 412
#     4  11  23  40  73 102 138 182 235 282 347 417
#     4  12  28  47  73 104 146 184 237 295 350 417
#     4  10  23  42  71 101 143 183 232 289 348 422
#     4  10  22  43  67 102 138 183 234 283 347 416
#
# _framework density 22.663243000000001
#
# number of rings (size 3 to 8) (size 9 to 14) (size 15 to 20)
#    0.000    0.750    2.500    3.375   10.500    1.000 
#    0.000    0.000    0.000    0.000    0.000    0.000 
#    0.000    0.000    0.000    0.000    0.000    0.000 
#
# Total GULP energy -89584.191734 kJ/mol
# GULP energy per Si atom -5599.011983 kJ/mol
# Density = 2.261166 g / cm^3
# Si number density = 22.663243 Si / 1000 Ang^3
#
#
#
# Elastic Constant Matrix: (Units=GPa)
#
#
# Indices 1 2 3 4 5 6 
#
# 1 36.2270 22.5388 11.3007 -1.2781 7.9574 -3.4582
# 2 22.5388 83.6624 24.4411 13.0992 -1.2016 -11.0637
# 3 11.3007 24.4411 84.7012 -0.2141 7.2443 -0.6206
# 4 -1.2781 13.0992 -0.2141 34.8611 -12.0198 1.7249
# 5 7.9574 -1.2016 7.2443 -12.0198 32.8658 7.2931
# 6 -3.4582 -11.0637 -0.6206 1.7249 7.2931 33.8311
#
#
#
# Elastic Compliance Matrix: (Units=1/GPa)
#
#
# Indices 1 2 3 4 5 6 
#
# 1 0.036067 -0.009412 -0.001333 0.001745 -0.008669 0.002364
# 2 -0.009412 0.017359 -0.003736 -0.007132 0.000018 0.005006
# 3 -0.001333 -0.003736 0.013260 0.000656 -0.002355 -0.000641
# 4 0.001745 -0.007132 0.000656 0.036660 0.014146 -0.007061
# 5 -0.008669 0.000018 -0.002355 0.014146 0.040523 -0.010380
# 6 0.002364 0.005006 -0.000641 -0.007061 -0.010380 0.034023
#
#
# Mechanical properties :
#
#
# Convention : Reuss Voigt Hill
#
# Bulk Modulus (GPa) = 26.50837 35.68354 31.09595
# Shear Modulus (GPa) = 22.78641 30.06560 26.42601
#
# Velocity S-wave (km/s) = 3.17430 3.64624 3.41842
# Velocity P-wave (km/s) = 5.01567 5.78844 5.41585
#
# Compressibility (1/GPa) = 0.03772394
#
# Stress axis : x y z
#
# Youngs Moduli (GPa) = 27.72638 57.60733 75.41211
#
# Poissons Ratio (x) = 0.54221 0.10051
# Poissons Ratio (y) = 0.26096 0.28175
# Poissons Ratio (z) = 0.03695 0.21523
#
# Static dielectric constant tensor:
#      x y z
#    x 1.850900 0.034780 -0.001750 
#    y 0.034780 1.842790 0.019050 
#    z -0.001750 0.019050 1.855740 
# 
# From -- ./inp_files/594322.got.cif
#   From: 2010.05.17/outbox.cif.g08.bks.cpg/sg2_298_cif.got.tgz:594322.got - 2010.06.03 11:33:40.
