data_PCOD9031040
_publ_section_title
;
Structure prediction by ZEFSAII (Michael W. Deem and Ramdas Pophale) SiO2 
 PCOD9031040
Probable space group: P -1
;
_chemical_formula_sum "Si O2"
_cell_formula_units_Z 14
_cell_length_a 11.303901
_cell_length_b 19.401926
_cell_length_c 7.687608
_cell_angle_alpha 131.993184
_cell_angle_beta 40.734242
_cell_angle_gamma 147.347092
_cell_volume 591.307707
_symmetry_space_group_name_H-M "P -1"
_symmetry_group_IT_number 2
_symmetry_cell_setting 'triclinic'
loop_
_space_group_symop_operation_xyz
x,y,z
-x,-y,-z
loop_
_atom_site_type_symbol
_atom_site_label
_atom_site_fract_x
_atom_site_fract_y
_atom_site_fract_z
Si Si1 0.413555 0.151456 0.562373
Si Si2 0.271734 0.384190 0.321190
Si Si3 0.231227 0.826159 0.022482
Si Si4 0.977311 0.130229 0.391611
Si Si5 0.883359 0.856221 0.377857
Si Si6 0.921228 0.400251 0.569536
Si Si7 0.813885 0.537854 0.088350
O O1 0.508007 0.112778 0.242895
O O2 0.325860 0.209181 0.645261
O O3 0.656200 0.258495 0.584680
O O4 0.186609 0.020916 0.697080
O O5 0.566398 0.468566 0.130143
O O6 0.234346 0.429387 0.618930
O O7 0.122777 0.234020 0.254558
O O8 0.136436 0.400940 0.361054
O O9 0.216750 0.864229 0.296092
O O10 0.090673 0.851863 0.101919
O O11 0.053125 0.674364 0.972905
O O12 0.177094 0.187586 0.426288
O O13 0.000000 0.000000 0.500000
O O14 0.000000 0.500000 0.500000
O O15 0.869712 0.448706 0.873988
#
# Coordination Sequence:
#
# PCOD9031040 Si02
#       7
#     2   2   2   2   2   2   2
#     4  11  20  36  60  90 128 149 195 258 298 353
#     4  10  23  44  62  84 123 162 207 245 294 369
#     4   9  18  34  60  91 112 157 199 245 298 338
#     4   8  19  39  60  86 115 162 203 237 299 352
#     4   8  18  33  56  88 115 150 201 241 290 350
#     4  12  26  38  59  97 123 158 202 247 310 358
#     4  10  22  43  64  85 119 167 202 246 295 360
#
# _framework density 23.676335999999999
#
# number of rings (size 3 to 8) (size 9 to 14) (size 15 to 20)
#    0.857    1.429    1.429    0.857    2.000    2.286 
#    5.143    0.714    0.000    0.000    0.000    0.000 
#    0.000    0.000    0.000    0.000    0.000    0.000 
#
# Total GULP energy -78108.071646 kJ/mol
# GULP energy per Si atom -5579.147975 kJ/mol
# Density = 2.362245 g / cm^3
# Si number density = 23.676336 Si / 1000 Ang^3
#
#
#
# Elastic Constant Matrix: (Units=GPa)
#
#
# Indices 1 2 3 4 5 6 
#
# 1 106.7932 22.9363 2.1546 -10.0813 -20.1625 -5.4503
# 2 22.9363 98.6532 -11.6687 -13.4670 6.9768 4.7767
# 3 2.1546 -11.6687 50.0640 -8.0235 -2.1963 -0.3903
# 4 -10.0813 -13.4670 -8.0235 31.5489 2.6450 -3.0899
# 5 -20.1625 6.9768 -2.1963 2.6450 30.2178 0.4294
# 6 -5.4503 4.7767 -0.3903 -3.0899 0.4294 28.1917
#
#
#
# Elastic Compliance Matrix: (Units=1/GPa)
#
#
# Indices 1 2 3 4 5 6 
#
# 1 0.012041 -0.003372 -0.000613 0.001824 0.008567 0.002960
# 2 -0.003372 0.012584 0.003707 0.005483 -0.005337 -0.002051
# 3 -0.000613 0.003707 0.021982 0.007034 -0.000288 0.000333
# 4 0.001824 0.005483 0.007034 0.037001 -0.002828 0.003619
# 5 0.008567 -0.005337 -0.000288 -0.002828 0.040245 0.001634
# 6 0.002960 -0.002051 0.000333 0.003619 0.001634 0.036768
#
#
# Mechanical properties :
#
#
# Convention : Reuss Voigt Hill
#
# Bulk Modulus (GPa) = 21.71505 31.37276 26.54390
# Shear Modulus (GPa) = 28.32423 34.13088 31.22756
#
# Velocity S-wave (km/s) = 3.46252 3.80091 3.63565
# Velocity P-wave (km/s) = 5.01766 5.70456 5.37210
#
# Compressibility (1/GPa) = 0.04605100
#
# Stress axis : x y z
#
# Youngs Moduli (GPa) = 83.04844 79.46448 45.49171
#
# Poissons Ratio (x) = 0.26797 0.02788
# Poissons Ratio (y) = 0.28005 -0.16863
# Poissons Ratio (z) = 0.05090 -0.29457
#
# Static dielectric constant tensor:
#      x y z
#    x 1.936000 0.016830 0.056070 
#    y 0.016830 1.911350 0.057730 
#    z 0.056070 0.057730 1.960640 
# 
# From -- ./inp_files/282214.got.cif
#   From: 2010.05.17/outbox.cif.g08.bks.cpg/sg2_142_cif.got.tgz:282214.got - 2010.06.03 11:33:40.
