data_PCOD9031094
_publ_section_title
;
Structure prediction by ZEFSAII (Michael W. Deem and Ramdas Pophale) SiO2 
 PCOD9031094
Probable space group: P -1
;
_chemical_formula_sum "Si O2"
_cell_formula_units_Z 16
_cell_length_a 16.341280
_cell_length_b 11.054096
_cell_length_c 10.013720
_cell_angle_alpha 101.770929
_cell_angle_beta 67.091156
_cell_angle_gamma 44.258930
_cell_volume 767.812447
_symmetry_space_group_name_H-M "P -1"
_symmetry_group_IT_number 2
_symmetry_cell_setting 'triclinic'
loop_
_space_group_symop_operation_xyz
x,y,z
-x,-y,-z
loop_
_atom_site_type_symbol
_atom_site_label
_atom_site_fract_x
_atom_site_fract_y
_atom_site_fract_z
Si Si1 0.439011 0.028659 0.190831
Si Si2 0.977131 0.417432 0.387796
Si Si3 0.368959 0.247743 0.725846
Si Si4 0.246242 0.659502 0.897833
Si Si5 0.172428 0.914069 0.742173
Si Si6 0.669534 0.117376 0.836808
Si Si7 0.445003 0.557334 0.239509
Si Si8 0.972113 0.657749 0.967625
O O1 0.598543 0.837881 0.161637
O O2 0.377089 0.961045 0.207512
O O3 0.245628 0.337337 0.421907
O O4 0.500000 0.000000 0.000000
O O5 0.044695 0.358908 0.180155
O O6 0.000000 0.500000 0.500000
O O7 0.875696 0.862806 0.714481
O O8 0.393886 0.364390 0.731500
O O9 0.169719 0.480423 0.832322
O O10 0.500000 0.000000 0.500000
O O11 0.217825 0.764897 0.800173
O O12 0.350500 0.629221 0.917568
O O13 0.040368 0.862750 0.119791
O O14 0.326094 0.706640 0.483217
O O15 0.170984 0.058830 0.828739
O O16 0.662896 0.228131 0.751948
O O17 0.502139 0.354447 0.100472
O O18 0.000000 0.500000 0.000000
#
# Coordination Sequence:
#
# PCOD9031094 Si02
#       8
#     2   2   2   2   2   2   2   2
#     4  11  24  43  66  98 137 177 220 277 340 404
#     4  10  23  42  63  91 135 172 211 278 329 395
#     4  11  23  41  67  97 130 177 218 283 340 388
#     4  10  22  43  64  96 138 163 230 280 331 409
#     4  10  24  41  69  99 133 178 223 280 346 395
#     4  10  24  43  66  97 131 178 231 260 346 408
#     4  11  22  44  70  94 134 180 221 285 328 407
#     4  11  25  40  68 101 131 173 229 277 340 410
#
# _framework density 20.838422000000001
#
# number of rings (size 3 to 8) (size 9 to 14) (size 15 to 20)
#    0.000    1.500    2.500    1.125    8.750    2.000 
#    4.500    1.250    0.000    0.000    0.000    0.000 
#    0.000    0.000    0.000    0.000    0.000    0.000 
#
# Total GULP energy -89179.089088 kJ/mol
# GULP energy per Si atom -5573.693068 kJ/mol
# Density = 2.079099 g / cm^3
# Si number density = 20.838422 Si / 1000 Ang^3
#
#
#
# Elastic Constant Matrix: (Units=GPa)
#
#
# Indices 1 2 3 4 5 6 
#
# 1 35.9947 11.0197 11.6978 -3.5985 6.0653 -7.9457
# 2 11.0197 120.9982 32.1334 3.6795 14.1443 -9.2393
# 3 11.6978 32.1334 85.6752 2.3517 22.1215 8.6993
# 4 -3.5985 3.6795 2.3517 31.4830 -3.8671 6.6264
# 5 6.0653 14.1443 22.1215 -3.8671 18.6080 -3.3722
# 6 -7.9457 -9.2393 8.6993 6.6264 -3.3722 29.2464
#
#
#
# Elastic Compliance Matrix: (Units=1/GPa)
#
#
# Indices 1 2 3 4 5 6 
#
# 1 0.032072 -0.000824 -0.004361 0.001867 -0.002619 0.009025
# 2 -0.000824 0.009922 -0.003078 -0.002270 -0.003370 0.003952
# 3 -0.004361 -0.003078 0.020452 -0.002300 -0.022908 -0.010361
# 4 0.001867 -0.002270 -0.002300 0.034964 0.009975 -0.006298
# 5 -0.002619 -0.003370 -0.022908 0.009975 0.088821 0.013019
# 6 0.009025 0.003952 -0.010361 -0.006298 0.013019 0.043902
#
#
# Mechanical properties :
#
#
# Convention : Reuss Voigt Hill
#
# Bulk Modulus (GPa) = 21.77728 39.15221 30.46475
# Shear Modulus (GPa) = 19.08651 28.38864 23.73757
#
# Velocity S-wave (km/s) = 3.02971 3.69497 3.37875
# Velocity P-wave (km/s) = 4.76572 6.08547 5.46558
#
# Compressibility (1/GPa) = 0.04591941
#
# Stress axis : x y z
#
# Youngs Moduli (GPa) = 31.18013 100.79006 48.89561
#
# Poissons Ratio (x) = 0.08306 0.21324
# Poissons Ratio (y) = 0.02570 0.15048
# Poissons Ratio (z) = 0.13598 0.31018
#
# Static dielectric constant tensor:
#      x y z
#    x 1.564310 -0.037630 -0.025150 
#    y -0.037630 1.772190 0.035390 
#    z -0.025150 0.035390 1.758680 
# 
# From -- ./inp_files/332160.got.cif
#   From: 2010.05.17/outbox.cif.g08.bks.cpg/sg2_167_cif.got.tgz:332160.got - 2010.06.03 11:33:40.
