data_PCOD9031729
_publ_section_title
;
Structure prediction by ZEFSAII (Michael W. Deem and Ramdas Pophale) SiO2 
 PCOD9031729
Probable space group: P -1
;
_chemical_formula_sum "Si O2"
_cell_formula_units_Z 14
_cell_length_a 5.375955
_cell_length_b 11.983754
_cell_length_c 11.425042
_cell_angle_alpha 132.432036
_cell_angle_beta 81.491679
_cell_angle_gamma 87.022186
_cell_volume 525.539936
_symmetry_space_group_name_H-M "P -1"
_symmetry_group_IT_number 2
_symmetry_cell_setting 'triclinic'
loop_
_space_group_symop_operation_xyz
x,y,z
-x,-y,-z
loop_
_atom_site_type_symbol
_atom_site_label
_atom_site_fract_x
_atom_site_fract_y
_atom_site_fract_z
Si Si1 0.987349 0.348256 0.816936
Si Si2 0.700189 0.155734 0.849309
Si Si3 0.167454 0.283230 0.284940
Si Si4 0.753321 0.139512 0.109939
Si Si5 0.582743 0.877610 0.515384
Si Si6 0.585949 0.597919 0.453297
Si Si7 0.380604 0.436166 0.162001
O O1 0.214506 0.257723 0.657294
O O2 0.921687 0.215938 0.810236
O O3 0.755951 0.413675 0.790884
O O4 0.000000 0.500000 0.000000
O O5 0.668596 0.994283 0.685369
O O6 0.744177 0.157306 0.984444
O O7 0.456995 0.300470 0.964622
O O8 0.448903 0.158006 0.176317
O O9 0.173205 0.356679 0.464415
O O10 0.210701 0.378018 0.232435
O O11 0.888937 0.248478 0.257647
O O12 0.000000 0.000000 0.000000
O O13 0.439931 0.765061 0.524552
O O14 0.500000 0.000000 0.500000
O O15 0.500000 0.500000 0.500000
O O16 0.603518 0.482416 0.259925
#
# Coordination Sequence:
#
# PCOD9031729 Si02
#       7
#     2   2   2   2   2   2   2
#     4  12  24  42  70 100 140 198 249 306 378 463
#     4  11  24  43  67 103 146 192 245 315 382 450
#     4  10  23  42  68 102 139 189 248 307 363 440
#     4  11  23  41  66 101 143 189 239 302 378 447
#     4  12  26  44  69 107 149 193 248 317 383 449
#     4  10  23  45  71 102 142 196 249 306 370 453
#     4  10  22  43  68 101 141 191 248 305 369 452
#
# _framework density 26.639272999999999
#
# number of rings (size 3 to 8) (size 9 to 14) (size 15 to 20)
#    0.000    1.143    0.000    5.571    0.000    8.000 
#    0.000   10.714    0.000    0.000    0.000    0.000 
#    0.000    0.000    0.000    0.000    0.000    0.000 
#
# Total GULP energy -77997.932831 kJ/mol
# GULP energy per Si atom -5571.280917 kJ/mol
# Density = 2.657864 g / cm^3
# Si number density = 26.639273 Si / 1000 Ang^3
#
#
#
# Elastic Constant Matrix: (Units=GPa)
#
#
# Indices 1 2 3 4 5 6 
#
# 1 105.7176 56.0937 73.2704 3.1694 -0.9743 -13.1921
# 2 56.0937 142.3538 59.7484 -1.0025 2.5935 18.5074
# 3 73.2704 59.7484 219.6457 7.2702 12.7348 5.3301
# 4 3.1694 -1.0025 7.2702 54.7700 -3.5394 -0.0958
# 5 -0.9743 2.5935 12.7348 -3.5394 60.8939 -2.7607
# 6 -13.1921 18.5074 5.3301 -0.0958 -2.7607 47.4126
#
#
#
# Elastic Compliance Matrix: (Units=1/GPa)
#
#
# Indices 1 2 3 4 5 6 
#
# 1 0.016274 -0.005651 -0.004154 -0.000373 0.001679 0.007298
# 2 -0.005651 0.010310 -0.000770 0.000570 -0.000587 -0.005543
# 3 -0.004154 -0.000770 0.006296 -0.000707 -0.001466 -0.001650
# 4 -0.000373 0.000570 -0.000707 0.018460 0.001184 -0.000141
# 5 0.001679 -0.000587 -0.001466 0.001184 0.016933 0.001849
# 6 0.007298 -0.005543 -0.001650 -0.000141 0.001849 0.025579
#
#
# Mechanical properties :
#
#
# Convention : Reuss Voigt Hill
#
# Bulk Modulus (GPa) = 85.24445 93.99356 89.61901
# Shear Modulus (GPa) = 42.04807 51.18896 46.61852
#
# Velocity S-wave (km/s) = 3.97725 4.38832 4.18783
# Velocity P-wave (km/s) = 7.29111 7.81261 7.55636
#
# Compressibility (1/GPa) = 0.01173097
#
# Stress axis : x y z
#
# Youngs Moduli (GPa) = 61.44867 96.99255 158.82670
#
# Poissons Ratio (x) = 0.54813 0.65969
# Poissons Ratio (y) = 0.34726 0.12225
# Poissons Ratio (z) = 0.25523 0.07466
#
# Static dielectric constant tensor:
#      x y z
#    x 2.156510 0.131600 -0.141960 
#    y 0.131600 2.046380 0.112480 
#    z -0.141960 0.112480 1.193240 
# 
# From -- ./inp_files/365406.got.cif
#   From: 2010.05.17/outbox.cif.g08.bks.cpg/sg2_183_cif.got.tgz:365406.got - 2010.06.03 11:33:40.
