data_PCOD9031742
_publ_section_title
;
Structure prediction by ZEFSAII (Michael W. Deem and Ramdas Pophale) SiO2 
 PCOD9031742
Probable space group: P -1
;
_chemical_formula_sum "Si O2"
_cell_formula_units_Z 12
_cell_length_a 11.849860
_cell_length_b 5.391175
_cell_length_c 12.185747
_cell_angle_alpha 73.641498
_cell_angle_beta 39.975332
_cell_angle_gamma 69.958876
_cell_volume 469.623227
_symmetry_space_group_name_H-M "P -1"
_symmetry_group_IT_number 2
_symmetry_cell_setting 'triclinic'
loop_
_space_group_symop_operation_xyz
x,y,z
-x,-y,-z
loop_
_atom_site_type_symbol
_atom_site_label
_atom_site_fract_x
_atom_site_fract_y
_atom_site_fract_z
Si Si1 0.204225 0.959149 0.717671
Si Si2 0.831729 0.808311 0.747903
Si Si3 0.233248 0.894544 0.459030
Si Si4 0.328634 0.686270 0.048282
Si Si5 0.143753 0.234828 0.944902
Si Si6 0.582733 0.464602 0.234039
O O1 0.250624 0.008595 0.553127
O O2 0.339213 0.698452 0.695980
O O3 0.222384 0.159286 0.775440
O O4 0.991329 0.944574 0.886240
O O5 0.812212 0.508914 0.819755
O O6 0.039528 0.819845 0.602649
O O7 0.760705 0.897438 0.667745
O O8 0.728983 0.048789 0.871351
O O9 0.382973 0.629185 0.366976
O O10 0.500000 0.500000 0.000000
O O11 0.375934 0.720830 0.880862
O O12 0.295308 0.315343 0.895745
O O13 0.000000 0.500000 0.000000
#
# Coordination Sequence:
#
# PCOD9031742 Si02
#       6
#     2   2   2   2   2   2
#     4  10  22  43  68 102 142 189 237 298 368 430
#     4  11  28  51  73 110 145 198 240 301 364 428
#     4  11  25  46  69 107 151 187 238 303 370 431
#     4  12  26  50  79 104 143 193 254 295 354 437
#     4   9  21  40  65 100 136 189 240 290 357 429
#     4  11  24  42  71 106 140 189 242 302 358 432
#
# _framework density 25.552399999999999
#
# number of rings (size 3 to 8) (size 9 to 14) (size 15 to 20)
#    0.000    1.333    1.667    2.000    9.333    3.333 
#    9.000    0.000    0.000    0.000    0.000    0.000 
#    0.000    0.000    0.000    0.000    0.000    0.000 
#
# Total GULP energy -67217.667931 kJ/mol
# GULP energy per Si atom -5601.472328 kJ/mol
# Density = 2.549424 g / cm^3
# Si number density = 25.552400 Si / 1000 Ang^3
#
#
#
# Elastic Constant Matrix: (Units=GPa)
#
#
# Indices 1 2 3 4 5 6 
#
# 1 118.3756 26.7257 56.3464 1.1068 30.2364 -23.8026
# 2 26.7257 105.0966 41.2602 6.1658 15.0475 -7.9377
# 3 56.3464 41.2602 103.8910 25.1797 29.8195 -17.2267
# 4 1.1068 6.1658 25.1797 27.3250 -12.2912 -9.3765
# 5 30.2364 15.0475 29.8195 -12.2912 70.4179 4.9603
# 6 -23.8026 -7.9377 -17.2267 -9.3765 4.9603 37.8716
#
#
#
# Elastic Compliance Matrix: (Units=1/GPa)
#
#
# Indices 1 2 3 4 5 6 
#
# 1 0.014155 -0.000165 -0.007956 0.008640 -0.001701 0.007605
# 2 -0.000165 0.011379 -0.004853 0.002126 0.000023 0.000597
# 3 -0.007956 -0.004853 0.025768 -0.027236 -0.011243 0.000432
# 4 0.008640 0.002126 -0.027236 0.072668 0.019424 0.008934
# 5 -0.001701 0.000023 -0.011243 0.019424 0.023390 -0.004433
# 6 0.007605 0.000597 0.000432 0.008934 -0.004433 0.034299
#
#
# Mechanical properties :
#
#
# Convention : Reuss Voigt Hill
#
# Bulk Modulus (GPa) = 39.44150 64.00310 51.72230
# Shear Modulus (GPa) = 23.14187 40.65828 31.90007
#
# Velocity S-wave (km/s) = 3.01269 3.99328 3.53713
# Velocity P-wave (km/s) = 5.25079 6.80910 6.08007
#
# Compressibility (1/GPa) = 0.02535401
#
# Stress axis : x y z
#
# Youngs Moduli (GPa) = 70.64635 87.87970 38.80797
#
# Poissons Ratio (x) = 0.01449 0.30877
# Poissons Ratio (y) = 0.01165 0.18832
# Poissons Ratio (z) = 0.56209 0.42645
#
# Static dielectric constant tensor:
#      x y z
#    x 2.088140 -0.147330 0.058280 
#    y -0.147330 2.274350 -0.177020 
#    z 0.058280 -0.177020 2.086390 
# 
# From -- ./inp_files/59647.got.cif
#   From: 2010.05.17/outbox.cif.g08.bks.cpg/sg2_30_cif.got.tgz:59647.got - 2010.06.03 11:33:40.
