data_PCOD9031630
_publ_section_title
;
Structure prediction by ZEFSAII (Michael W. Deem and Ramdas Pophale) SiO2 
 PCOD9031630
Probable space group: P -1
;
_chemical_formula_sum "Si O2"
_cell_formula_units_Z 16
_cell_length_a 5.330045
_cell_length_b 16.275043
_cell_length_c 11.287094
_cell_angle_alpha 49.731524
_cell_angle_beta 115.901045
_cell_angle_gamma 99.044190
_cell_volume 660.779692
_symmetry_space_group_name_H-M "P -1"
_symmetry_group_IT_number 2
_symmetry_cell_setting 'triclinic'
loop_
_space_group_symop_operation_xyz
x,y,z
-x,-y,-z
loop_
_atom_site_type_symbol
_atom_site_label
_atom_site_fract_x
_atom_site_fract_y
_atom_site_fract_z
Si Si1 0.804489 0.447338 0.413710
Si Si2 0.623389 0.105569 0.380891
Si Si3 0.989787 0.777965 0.239552
Si Si4 0.107836 0.005653 0.689887
Si Si5 0.760089 0.391132 0.938898
Si Si6 0.504919 0.102335 0.818624
Si Si7 0.818027 0.435667 0.156299
Si Si8 0.909269 0.805741 0.937903
O O1 0.794194 0.334847 0.584772
O O2 0.538329 0.541205 0.234311
O O3 0.877007 0.401727 0.336195
O O4 0.000000 0.500000 0.500000
O O5 0.856784 0.110157 0.523660
O O6 0.355444 0.192906 0.206082
O O7 0.500000 0.000000 0.500000
O O8 0.810047 0.072903 0.332567
O O9 0.199267 0.863862 0.181876
O O10 0.740750 0.806306 0.258395
O O11 0.833092 0.778780 0.080052
O O12 0.383247 0.056472 0.719286
O O13 0.010011 0.922502 0.840818
O O14 0.970204 0.478430 0.891997
O O15 0.828055 0.351248 0.127135
O O16 0.845467 0.289438 0.965829
O O17 0.500000 0.000000 0.000000
O O18 0.500000 0.500000 0.000000
#
# Coordination Sequence:
#
# PCOD9031630 Si02
#       8
#     2   2   2   2   2   2   2   2
#     4  11  26  46  74 104 153 188 244 311 369 444
#     4   9  21  41  62  96 133 179 249 294 359 431
#     4  12  29  45  74 111 142 197 246 296 381 444
#     4  10  22  43  67  96 142 185 237 306 363 431
#     4  10  23  45  73 101 143 190 243 305 366 444
#     4  12  26  48  73 102 148 193 243 307 365 439
#     4   9  21  46  68  99 142 187 238 298 372 424
#     4  11  23  41  71 100 137 186 246 290 369 441
#
# _framework density 24.213819000000001
#
# number of rings (size 3 to 8) (size 9 to 14) (size 15 to 20)
#    0.000    1.500    1.250    1.875    7.000    3.000 
#   13.500    0.000    0.000    0.000    0.000    0.000 
#    0.000    0.000    0.000    0.000    0.000    0.000 
#
# Total GULP energy -89129.740775 kJ/mol
# GULP energy per Si atom -5570.608798 kJ/mol
# Density = 2.415871 g / cm^3
# Si number density = 24.213819 Si / 1000 Ang^3
#
#
#
# Elastic Constant Matrix: (Units=GPa)
#
#
# Indices 1 2 3 4 5 6 
#
# 1 55.5686 8.0977 13.2739 -0.2777 6.8980 3.5243
# 2 8.0977 64.4488 28.6335 8.5095 5.7155 -1.3101
# 3 13.2739 28.6335 127.7857 2.2941 6.2386 0.1833
# 4 -0.2777 8.5095 2.2941 29.7115 -4.3099 6.6059
# 5 6.8980 5.7155 6.2386 -4.3099 38.4300 3.4149
# 6 3.5243 -1.3101 0.1833 6.6059 3.4149 37.4619
#
#
#
# Elastic Compliance Matrix: (Units=1/GPa)
#
#
# Indices 1 2 3 4 5 6 
#
# 1 0.019037 -0.001624 -0.001493 0.000751 -0.002695 -0.001727
# 2 -0.001624 0.018431 -0.003728 -0.005862 -0.002688 0.002094
# 3 -0.001493 -0.003728 0.008839 0.000295 -0.000576 -0.000033
# 4 0.000751 -0.005862 0.000295 0.037787 0.005589 -0.007450
# 5 -0.002695 -0.002688 -0.000576 0.005589 0.027925 -0.003369
# 6 -0.001727 0.002094 -0.000033 -0.007450 -0.003369 0.028550
#
#
# Mechanical properties :
#
#
# Convention : Reuss Voigt Hill
#
# Bulk Modulus (GPa) = 30.65821 38.64593 34.65207
# Shear Modulus (GPa) = 30.27890 34.30720 32.29305
#
# Velocity S-wave (km/s) = 3.54005 3.76818 3.65590
# Velocity P-wave (km/s) = 5.42201 5.90992 5.67122
#
# Compressibility (1/GPa) = 0.03261769
#
# Stress axis : x y z
#
# Youngs Moduli (GPa) = 52.52941 54.25543 113.13619
#
# Poissons Ratio (x) = 0.08810 0.16892
# Poissons Ratio (y) = 0.08530 0.42175
# Poissons Ratio (z) = 0.07843 0.20226
#
# Static dielectric constant tensor:
#      x y z
#    x 2.012100 0.003280 0.040780 
#    y 0.003280 1.927190 -0.025620 
#    z 0.040780 -0.025620 1.978170 
# 
# From -- ./inp_files/368931.got.cif
#   From: 2010.05.17/outbox.cif.g08.bks.cpg/sg2_185_cif.got.tgz:368931.got - 2010.06.03 11:33:40.
