data_PCOD9031412
_publ_section_title
;
Structure prediction by ZEFSAII (Michael W. Deem and Ramdas Pophale) SiO2 
 PCOD9031412
Probable space group: P -1
;
_chemical_formula_sum "Si O2"
_cell_formula_units_Z 15
_cell_length_a 11.638693
_cell_length_b 7.991532
_cell_length_c 11.383072
_cell_angle_alpha 59.182319
_cell_angle_beta 69.963878
_cell_angle_gamma 39.521335
_cell_volume 575.936126
_symmetry_space_group_name_H-M "P -1"
_symmetry_group_IT_number 2
_symmetry_cell_setting 'triclinic'
loop_
_space_group_symop_operation_xyz
x,y,z
-x,-y,-z
loop_
_atom_site_type_symbol
_atom_site_label
_atom_site_fract_x
_atom_site_fract_y
_atom_site_fract_z
Si Si1 0.695985 0.526677 0.761011
Si Si2 0.320327 0.810755 0.794654
Si Si3 0.433039 0.950350 0.280094
Si Si4 0.978284 0.110412 0.193257
Si Si5 0.937852 0.777119 0.649162
Si Si6 0.745659 0.680020 0.447577
Si Si7 0.848817 0.791517 0.071275
Si Si8 0.500000 0.000000 0.000000
O O1 0.536880 0.556112 0.804577
O O2 0.647959 0.731073 0.808676
O O3 0.683773 0.677428 0.595805
O O4 0.890884 0.203770 0.799287
O O5 0.220973 0.737281 0.810544
O O6 0.265837 0.073098 0.649363
O O7 0.249002 0.938601 0.904874
O O8 0.276262 0.998248 0.369382
O O9 0.610463 0.751930 0.369883
O O10 0.464187 0.877469 0.159988
O O11 0.021444 0.097712 0.319113
O O12 0.032465 0.239430 0.056517
O O13 0.054119 0.631966 0.542257
O O14 0.020064 0.492424 0.791117
O O15 0.688311 0.848105 0.056350
#
# Coordination Sequence:
#
# PCOD9031412 Si02
#       8
#     2   2   2   2   2   2   2   1
#     4  11  24  44  67  96 132 171 222 269 320 380
#     4  10  22  43  66  96 131 170 216 268 331 379
#     4  11  22  41  71  97 122 172 220 264 322 387
#     4  12  26  39  62 102 136 171 211 268 331 388
#     4  11  24  43  67  94 130 173 220 267 326 381
#     4  10  23  46  70  93 125 178 228 262 312 392
#     4  11  23  44  65  97 132 175 215 265 323 401
#     4  12  20  40  76  96 126 166 232 256 324 392
#
# _framework density 26.044554000000002
#
# number of rings (size 3 to 8) (size 9 to 14) (size 15 to 20)
#    0.000    1.067    5.333    4.000    0.000    6.400 
#    0.000    1.333    0.000    0.000    0.000    0.000 
#    0.000    0.000    0.000    0.000    0.000    0.000 
#
# Total GULP energy -83870.405094 kJ/mol
# GULP energy per Si atom -5591.360340 kJ/mol
# Density = 2.598528 g / cm^3
# Si number density = 26.044554 Si / 1000 Ang^3
#
#
#
# Elastic Constant Matrix: (Units=GPa)
#
#
# Indices 1 2 3 4 5 6 
#
# 1 158.3029 25.2950 5.8749 13.9495 -3.0947 -33.7146
# 2 25.2950 99.3364 10.4123 13.9809 -11.8496 -14.0133
# 3 5.8749 10.4123 69.6117 0.8373 -8.1312 -6.4839
# 4 13.9495 13.9809 0.8373 29.7973 -7.6896 -10.8682
# 5 -3.0947 -11.8496 -8.1312 -7.6896 21.4625 -4.6883
# 6 -33.7146 -14.0133 -6.4839 -10.8682 -4.6883 42.1366
#
#
#
# Elastic Compliance Matrix: (Units=1/GPa)
#
#
# Indices 1 2 3 4 5 6 
#
# 1 0.007826 -0.000859 0.000260 -0.000566 0.001878 0.006079
# 2 -0.000859 0.011865 -0.000675 -0.002433 0.005997 0.003195
# 3 0.000260 -0.000675 0.015679 0.003214 0.007647 0.004076
# 4 -0.000566 -0.002433 0.003214 0.044263 0.018426 0.012699
# 5 0.001878 0.005997 0.007647 0.018426 0.063270 0.016466
# 6 0.006079 0.003195 0.004076 0.012699 0.016466 0.035394
#
#
# Mechanical properties :
#
#
# Convention : Reuss Voigt Hill
#
# Bulk Modulus (GPa) = 30.46680 45.60172 38.03426
# Shear Modulus (GPa) = 26.07103 37.72385 31.89744
#
# Velocity S-wave (km/s) = 3.16732 3.80996 3.50341
# Velocity P-wave (km/s) = 5.00991 6.07466 5.56780
#
# Compressibility (1/GPa) = 0.03282261
#
# Stress axis : x y z
#
# Youngs Moduli (GPa) = 127.78157 84.28359 63.78107
#
# Poissons Ratio (x) = 0.07238 -0.01661
# Poissons Ratio (y) = 0.10974 0.04304
# Poissons Ratio (z) = -0.03327 0.05688
#
# Static dielectric constant tensor:
#      x y z
#    x 1.680360 0.158870 0.104360 
#    y 0.158870 2.061630 -0.038160 
#    z 0.104360 -0.038160 1.951870 
# 
# From -- ./inp_files/416518.got.cif
#   From: 2010.05.17/outbox.cif.g08.bks.cpg/sg2_209_cif.got.tgz:416518.got - 2010.06.03 11:33:40.
