data_PCOD9031876
_publ_section_title
;
Structure prediction by ZEFSAII (Michael W. Deem and Ramdas Pophale) SiO2 
 PCOD9031876
Probable space group: P -1
;
_chemical_formula_sum "Si O2"
_cell_formula_units_Z 14
_cell_length_a 8.697530
_cell_length_b 6.999453
_cell_length_c 14.370103
_cell_angle_alpha 69.492950
_cell_angle_beta 53.360550
_cell_angle_gamma 95.666352
_cell_volume 599.810477
_symmetry_space_group_name_H-M "P -1"
_symmetry_group_IT_number 2
_symmetry_cell_setting 'triclinic'
loop_
_space_group_symop_operation_xyz
x,y,z
-x,-y,-z
loop_
_atom_site_type_symbol
_atom_site_label
_atom_site_fract_x
_atom_site_fract_y
_atom_site_fract_z
Si Si1 0.385524 0.750595 0.969452
Si Si2 0.307134 0.484560 0.511722
Si Si3 0.234792 0.556320 0.870279
Si Si4 0.432307 0.243917 0.912146
Si Si5 0.780007 0.308531 0.648224
Si Si6 0.937077 0.398635 0.262640
Si Si7 0.025428 0.035623 0.595522
O O1 0.551737 0.730080 0.986705
O O2 0.160534 0.564299 0.113797
O O3 0.397009 0.715172 0.861149
O O4 0.377819 0.988521 0.950562
O O5 0.500000 0.500000 0.500000
O O6 0.363860 0.697975 0.387023
O O7 0.130733 0.487977 0.646386
O O8 0.223171 0.259857 0.518245
O O9 0.281183 0.336277 0.900486
O O10 0.233243 0.641058 0.751960
O O11 0.000000 0.500000 0.000000
O O12 0.667465 0.369419 0.763752
O O13 0.000000 0.500000 0.500000
O O14 0.829525 0.095191 0.685893
O O15 0.953986 0.173702 0.328662
O O16 0.000000 0.000000 0.500000
#
# Coordination Sequence:
#
# PCOD9031876 Si02
#       7
#     2   2   2   2   2   2   2
#     4  10  24  43  69  99 134 179 236 282 342 408
#     4  11  24  43  68 103 140 178 232 289 354 416
#     4  10  24  42  65  98 137 179 227 281 340 410
#     4  11  23  43  69 100 137 178 232 288 341 413
#     4  10  22  43  68  97 136 186 227 282 350 414
#     4  11  24  44  69  97 141 185 224 286 354 411
#     4  11  24  44  70  98 137 187 233 281 347 422
#
# _framework density 23.340705
#
# number of rings (size 3 to 8) (size 9 to 14) (size 15 to 20)
#    0.000    1.429    1.429    3.000    2.000   13.143 
#    2.571    0.000    0.000    0.000    0.000    0.000 
#    0.000    0.000    0.000    0.000    0.000    0.000 
#
# Total GULP energy -78244.903894 kJ/mol
# GULP energy per Si atom -5588.921707 kJ/mol
# Density = 2.328758 g / cm^3
# Si number density = 23.340705 Si / 1000 Ang^3
#
#
#
# Elastic Constant Matrix: (Units=GPa)
#
#
# Indices 1 2 3 4 5 6 
#
# 1 155.2600 50.9699 43.9269 -8.6032 46.4750 -21.1032
# 2 50.9699 117.0418 37.5668 -7.3661 22.1083 -13.0577
# 3 43.9269 37.5668 84.5247 -2.5022 25.5847 -2.0117
# 4 -8.6032 -7.3661 -2.5022 39.8116 -0.6095 9.7717
# 5 46.4750 22.1083 25.5847 -0.6095 56.0555 7.0602
# 6 -21.1032 -13.0577 -2.0117 9.7717 7.0602 53.9539
#
#
#
# Elastic Compliance Matrix: (Units=1/GPa)
#
#
# Indices 1 2 3 4 5 6 
#
# 1 0.010622 -0.001938 -0.002241 0.000578 -0.007578 0.004489
# 2 -0.001938 0.010998 -0.003387 0.000943 -0.001401 0.001790
# 3 -0.002241 -0.003387 0.015659 -0.000039 -0.003879 -0.000598
# 4 0.000578 0.000943 -0.000039 0.026481 0.000002 -0.004344
# 5 -0.007578 -0.001401 -0.003879 0.000002 0.027330 -0.007024
# 6 0.004489 0.001790 -0.000598 -0.004344 -0.007024 0.022407
#
#
# Mechanical properties :
#
#
# Convention : Reuss Voigt Hill
#
# Bulk Modulus (GPa) = 45.14930 69.08373 57.11652
# Shear Modulus (GPa) = 36.76166 44.92174 40.84170
#
# Velocity S-wave (km/s) = 3.97294 4.39180 4.18761
# Velocity P-wave (km/s) = 6.35855 7.44173 6.92136
#
# Compressibility (1/GPa) = 0.02214874
#
# Stress axis : x y z
#
# Youngs Moduli (GPa) = 94.14799 90.92202 63.85960
#
# Poissons Ratio (x) = 0.17617 0.14311
# Poissons Ratio (y) = 0.18242 0.21628
# Poissons Ratio (z) = 0.21098 0.30793
#
# Static dielectric constant tensor:
#      x y z
#    x 1.958750 0.027420 0.019890 
#    y 0.027420 1.889660 0.006990 
#    z 0.019890 0.006990 1.941320 
# 
# From -- ./inp_files/488120.got.cif
#   From: 2010.05.17/outbox.cif.g08.bks.cpg/sg2_245_cif.got.tgz:488120.got - 2010.06.03 11:33:40.
