data_PCOD9031646
_publ_section_title
;
Structure prediction by ZEFSAII (Michael W. Deem and Ramdas Pophale) SiO2 
 PCOD9031646
Probable space group: P -1
;
_chemical_formula_sum "Si O2"
_cell_formula_units_Z 14
_cell_length_a 12.949418
_cell_length_b 15.782603
_cell_length_c 7.855692
_cell_angle_alpha 61.219908
_cell_angle_beta 103.643563
_cell_angle_gamma 153.465711
_cell_volume 545.266107
_symmetry_space_group_name_H-M "P -1"
_symmetry_group_IT_number 2
_symmetry_cell_setting 'triclinic'
loop_
_space_group_symop_operation_xyz
x,y,z
-x,-y,-z
loop_
_atom_site_type_symbol
_atom_site_label
_atom_site_fract_x
_atom_site_fract_y
_atom_site_fract_z
Si Si1 0.552824 0.327903 0.318519
Si Si2 0.202136 0.155774 0.585659
Si Si3 0.581610 0.106104 0.246224
Si Si4 0.921184 0.142856 0.993587
Si Si5 0.623446 0.224281 0.708941
Si Si6 0.004127 0.186704 0.586150
Si Si7 0.134785 0.489722 0.160547
O O1 0.464396 0.331765 0.426666
O O2 0.812157 0.589344 0.077708
O O3 0.646824 0.309879 0.468480
O O4 0.282516 0.081202 0.348668
O O5 0.191958 0.249666 0.584426
O O6 0.000000 0.000000 0.500000
O O7 0.100986 0.987473 0.834520
O O8 0.864661 0.289383 0.153704
O O9 0.500000 0.000000 0.500000
O O10 0.390269 0.897533 0.236331
O O11 0.635107 0.264305 0.094814
O O12 0.954005 0.177597 0.769146
O O13 0.652164 0.966808 0.129443
O O14 0.848949 0.435232 0.729257
O O15 0.131198 0.378105 0.335537
#
# Coordination Sequence:
#
# PCOD9031646 Si02
#       7
#     2   2   2   2   2   2   2
#     4  10  22  43  67  97 138 179 224 274 325 388
#     4   9  22  43  63 100 140 178 232 271 318 394
#     4  11  27  48  71  98 130 174 226 272 347 400
#     4  11  24  42  69 100 135 184 222 268 336 389
#     4  11  24  45  67 100 135 169 226 276 327 409
#     4  11  22  44  67 100 138 177 227 272 336 392
#     4  11  25  46  68 103 133 172 219 285 331 399
#
# _framework density 25.675535
#
# number of rings (size 3 to 8) (size 9 to 14) (size 15 to 20)
#    0.000    1.429    2.857    0.857    2.000    6.857 
#    2.571    0.000    0.000    0.000    0.000    0.000 
#    0.000    0.000    0.000    0.000    0.000    0.000 
#
# Total GULP energy -78413.421519 kJ/mol
# GULP energy per Si atom -5600.958680 kJ/mol
# Density = 2.561710 g / cm^3
# Si number density = 25.675535 Si / 1000 Ang^3
#
#
#
# Elastic Constant Matrix: (Units=GPa)
#
#
# Indices 1 2 3 4 5 6 
#
# 1 120.1947 11.9867 67.4265 -20.8827 23.0485 -12.9833
# 2 11.9867 99.8551 16.9785 -2.9281 3.9333 -13.8646
# 3 67.4265 16.9785 168.4505 -4.0000 25.8101 -3.6259
# 4 -20.8827 -2.9281 -4.0000 40.1229 -4.3665 -0.1653
# 5 23.0485 3.9333 25.8101 -4.3665 49.2628 1.2219
# 6 -12.9833 -13.8646 -3.6259 -0.1653 1.2219 39.6461
#
#
#
# Elastic Compliance Matrix: (Units=1/GPa)
#
#
# Indices 1 2 3 4 5 6 
#
# 1 0.012891 0.000060 -0.004437 0.005930 -0.003284 0.003963
# 2 0.000060 0.010718 -0.000944 0.000689 -0.000420 0.003697
# 3 -0.004437 -0.000944 0.008083 -0.001818 -0.002221 -0.000983
# 4 0.005930 0.000689 -0.001818 0.027947 0.000548 0.002116
# 5 -0.003284 -0.000420 -0.002221 0.000548 0.023134 -0.002136
# 6 0.003963 0.003697 -0.000983 0.002116 -0.002136 0.027799
#
#
# Mechanical properties :
#
#
# Convention : Reuss Voigt Hill
#
# Bulk Modulus (GPa) = 47.50271 64.58707 56.04489
# Shear Modulus (GPa) = 38.99227 45.28025 42.13626
#
# Velocity S-wave (km/s) = 3.90122 4.20403 4.05545
# Velocity P-wave (km/s) = 6.23169 6.98390 6.61849
#
# Compressibility (1/GPa) = 0.02105143
#
# Stress axis : x y z
#
# Youngs Moduli (GPa) = 77.57457 93.30165 123.70976
#
# Poissons Ratio (x) = -0.00564 0.54885
# Poissons Ratio (y) = -0.00469 0.11680
# Poissons Ratio (z) = 0.34417 0.08809
#
# Static dielectric constant tensor:
#      x y z
#    x 2.027550 -0.052440 -0.064680 
#    y -0.052440 2.040440 -0.016470 
#    z -0.064680 -0.016470 2.040600 
# 
# From -- ./inp_files/337133.got.cif
#   From: 2010.05.17/outbox.cif.g08.bks.cpg/sg2_169_cif.got.tgz:337133.got - 2010.06.03 11:33:40.
