data_PCOD9031847
_publ_section_title
;
Structure prediction by ZEFSAII (Michael W. Deem and Ramdas Pophale) SiO2 
 PCOD9031847
Probable space group: P -1
;
_chemical_formula_sum "Si O2"
_cell_formula_units_Z 13
_cell_length_a 20.396077
_cell_length_b 5.203061
_cell_length_c 17.588833
_cell_angle_alpha 60.402717
_cell_angle_beta 20.212155
_cell_angle_gamma 70.786172
_cell_volume 501.507656
_symmetry_space_group_name_H-M "P -1"
_symmetry_group_IT_number 2
_symmetry_cell_setting 'triclinic'
loop_
_space_group_symop_operation_xyz
x,y,z
-x,-y,-z
loop_
_atom_site_type_symbol
_atom_site_label
_atom_site_fract_x
_atom_site_fract_y
_atom_site_fract_z
Si Si1 0.500000 0.500000 0.500000
Si Si2 0.275069 0.358930 0.615105
Si Si3 0.099330 0.490651 0.179241
Si Si4 0.143224 0.572884 0.953974
Si Si5 0.097143 0.895135 0.337660
Si Si6 0.555477 0.070611 0.138792
Si Si7 0.808687 0.821004 0.435750
O O1 0.366318 0.279386 0.602558
O O2 0.315631 0.616430 0.698498
O O3 0.273161 0.199604 0.558813
O O4 0.039249 0.326943 0.885596
O O5 0.440734 0.739628 0.361414
O O6 0.213276 0.668865 0.951216
O O7 0.888372 0.543578 0.402857
O O8 0.051396 0.108527 0.291337
O O9 0.252354 0.673637 0.056125
O O10 0.012676 0.172888 0.164948
O O11 0.000000 0.500000 0.500000
O O12 0.345598 0.998983 0.035276
O O13 0.000000 0.000000 0.500000
O O14 0.377621 0.196355 0.304504
#
# Coordination Sequence:
#
# PCOD9031847 Si02
#       7
#     1   2   2   2   2   2   2
#     4  12  20  38  62  96 136 184 228 288 358 402
#     4  10  23  39  63  95 134 179 236 287 342 417
#     4  11  22  44  71  96 136 187 230 288 353 419
#     4  10  23  39  63  95 134 179 236 287 342 417
#     4  12  25  42  70 109 146 179 230 294 355 420
#     4  11  22  44  71  96 136 187 230 288 353 419
#     4  10  22  43  68  96 130 190 238 282 344 425
#
# _framework density 25.921837
#
# number of rings (size 3 to 8) (size 9 to 14) (size 15 to 20)
#    0.000    1.231    1.538    5.077    0.000    0.615 
#    0.000   16.154    0.000    0.000    0.000    0.000 
#    0.000    0.000    0.000    0.000    0.000    0.000 
#
# Total GULP energy -72524.674770 kJ/mol
# GULP energy per Si atom -5578.821136 kJ/mol
# Density = 2.586284 g / cm^3
# Si number density = 25.921837 Si / 1000 Ang^3
#
#
#
# Elastic Constant Matrix: (Units=GPa)
#
#
# Indices 1 2 3 4 5 6 
#
# 1 -3.7218 2.5318 24.5230 -15.4914 3.7608 -0.4810
# 2 2.5318 142.8441 59.0293 29.2560 23.9992 -15.5899
# 3 24.5230 59.0293 132.7197 41.2525 11.1263 -7.4796
# 4 -15.4914 29.2560 41.2525 58.2426 10.8560 7.7963
# 5 3.7608 23.9992 11.1263 10.8560 32.4218 -6.4319
# 6 -0.4810 -15.5899 -7.4796 7.7963 -6.4319 50.3229
#
#
#
# Elastic Compliance Matrix: (Units=1/GPa)
#
#
# Indices 1 2 3 4 5 6 
#
# 1 -0.044691 -0.001870 0.016513 -0.025567 0.010810 0.006790
# 2 -0.001870 0.009751 -0.002498 -0.003107 -0.004603 0.002525
# 3 0.016513 -0.002498 0.004932 0.002769 -0.002820 -0.000672
# 4 -0.025567 -0.003107 0.002769 0.010197 0.000441 -0.002319
# 5 0.010810 -0.004603 -0.002820 0.000441 0.034328 0.002578
# 6 0.006790 0.002525 -0.000672 -0.002319 0.002578 0.021307
#
#
# Mechanical properties :
#
#
# Convention : Reuss Voigt Hill
#
# Bulk Modulus (GPa) = -174.89227 49.33444 -62.77892
# Shear Modulus (GPa) = 519.28547 40.58131 279.93339
#
# Velocity S-wave (km/s) = 14.16906 3.96097 10.40316
# Velocity P-wave (km/s) = 14.14452 6.32395 10.95582
#
# Compressibility (1/GPa) = -0.00571781
#
# Stress axis : x y z
#
# Youngs Moduli (GPa) = -22.37581 102.55347 202.74506
#
# Poissons Ratio (x) = 0.19181 -3.34791
# Poissons Ratio (y) = -0.04185 0.50638
# Poissons Ratio (z) = 0.36949 0.25614
#
# Static dielectric constant tensor:
#      x y z
#    x 2.060180 0.013800 0.053830 
#    y 0.013800 2.099770 -0.015650 
#    z 0.053830 -0.015650 2.014150 
# 
# From -- ./inp_files/479217.got.cif
#   From: 2010.05.17/outbox.cif.g08.bks.cpg/sg2_240_cif.got.tgz:479217.got - 2010.06.03 11:33:40.
