data_PCOD9031391
_publ_section_title
;
Structure prediction by ZEFSAII (Michael W. Deem and Ramdas Pophale) SiO2 
 PCOD9031391
Probable space group: P -1
;
_chemical_formula_sum "Si O2"
_cell_formula_units_Z 13
_cell_length_a 7.883410
_cell_length_b 9.092708
_cell_length_c 12.468977
_cell_angle_alpha 39.451931
_cell_angle_beta 82.379676
_cell_angle_gamma 71.150675
_cell_volume 527.240434
_symmetry_space_group_name_H-M "P -1"
_symmetry_group_IT_number 2
_symmetry_cell_setting 'triclinic'
loop_
_space_group_symop_operation_xyz
x,y,z
-x,-y,-z
loop_
_atom_site_type_symbol
_atom_site_label
_atom_site_fract_x
_atom_site_fract_y
_atom_site_fract_z
Si Si1 0.107869 0.965762 0.238127
Si Si2 0.255753 0.785398 0.968656
Si Si3 0.451144 0.766155 0.176201
Si Si4 0.194146 0.323005 0.184130
Si Si5 0.500000 0.500000 0.500000
Si Si6 0.581534 0.931744 0.362904
Si Si7 0.062022 0.182319 0.467855
O O1 0.108131 0.217373 0.153756
O O2 0.956654 0.037915 0.117389
O O3 0.313675 0.825123 0.259601
O O4 0.049435 0.804956 0.420708
O O5 0.372193 0.925902 0.821799
O O6 0.344259 0.702396 0.123179
O O7 0.260708 0.549882 0.030889
O O8 0.604028 0.552037 0.344629
O O9 0.500000 0.000000 0.000000
O O10 0.066166 0.386888 0.265063
O O11 0.376645 0.090022 0.324719
O O12 0.591578 0.666653 0.470780
O O13 0.733005 0.920989 0.443734
O O14 0.000000 0.000000 0.500000
#
# Coordination Sequence:
#
# PCOD9031391 Si02
#       7
#     2   2   2   2   1   2   2
#     4  10  22  43  66  94 143 177 223 289 346 414
#     4  11  23  41  67 100 138 177 231 287 351 406
#     4  12  24  46  67 101 136 180 233 278 347 416
#     4  11  20  41  66 102 132 179 231 288 341 410
#     4  12  24  44  70  98 140 178 232 284 336 414
#     4  11  22  41  68  98 139 183 231 283 343 411
#     4   9  21  39  64  95 136 174 230 282 342 406
#
# _framework density 24.656682
#
# number of rings (size 3 to 8) (size 9 to 14) (size 15 to 20)
#    0.000    1.231    3.077    2.769    0.000    0.000 
#    2.769    5.385    0.000    0.000    0.000    0.000 
#    0.000    0.000    0.000    0.000    0.000    0.000 
#
# Total GULP energy -72397.621275 kJ/mol
# GULP energy per Si atom -5569.047790 kJ/mol
# Density = 2.460056 g / cm^3
# Si number density = 24.656682 Si / 1000 Ang^3
#
#
#
# Elastic Constant Matrix: (Units=GPa)
#
#
# Indices 1 2 3 4 5 6 
#
# 1 116.0239 44.6067 32.1184 6.6249 11.4141 28.7140
# 2 44.6067 58.9405 28.3766 7.1202 1.1568 14.6444
# 3 32.1184 28.3766 114.4378 15.3143 -18.2892 21.2352
# 4 6.6249 7.1202 15.3143 46.1088 12.0673 0.5268
# 5 11.4141 1.1568 -18.2892 12.0673 60.4240 8.0122
# 6 28.7140 14.6444 21.2352 0.5268 8.0122 31.1024
#
#
#
# Elastic Compliance Matrix: (Units=1/GPa)
#
#
# Indices 1 2 3 4 5 6 
#
# 1 0.014235 -0.008360 -0.000621 -0.000034 -0.001600 -0.008370
# 2 -0.008360 0.025623 -0.003191 -0.001881 0.000809 -0.002345
# 3 -0.000621 -0.003191 0.012941 -0.005255 0.006243 -0.008279
# 4 -0.000034 -0.001881 -0.005255 0.025612 -0.007458 0.005992
# 5 -0.001600 0.000809 0.006243 -0.007458 0.021348 -0.008539
# 6 -0.008370 -0.002345 -0.008279 0.005992 -0.008539 0.048733
#
#
# Mechanical properties :
#
#
# Convention : Reuss Voigt Hill
#
# Bulk Modulus (GPa) = 35.14140 55.51175 45.32658
# Shear Modulus (GPa) = 27.42407 39.81373 33.61890
#
# Velocity S-wave (km/s) = 3.33864 4.02272 3.69654
# Velocity P-wave (km/s) = 5.39863 6.64373 6.05328
#
# Compressibility (1/GPa) = 0.02845646
#
# Stress axis : x y z
#
# Youngs Moduli (GPa) = 70.24761 39.02705 77.27269
#
# Poissons Ratio (x) = 0.32625 0.04796
# Poissons Ratio (y) = 0.58725 0.24661
# Poissons Ratio (z) = 0.04360 0.12455
#
# Static dielectric constant tensor:
#      x y z
#    x 1.743810 0.043470 -0.358220 
#    y 0.043470 1.924800 0.241160 
#    z -0.358220 0.241160 1.326700 
# 
# From -- ./inp_files/191073.got.cif
#   From: 2010.05.17/outbox.cif.g08.bks.cpg/sg2_96_cif.got.tgz:191073.got - 2010.06.03 11:33:40.
