data_PCOD9031852
_publ_section_title
;
Structure prediction by ZEFSAII (Michael W. Deem and Ramdas Pophale) SiO2 
 PCOD9031852
Probable space group: P -1
;
_chemical_formula_sum "Si O2"
_cell_formula_units_Z 16
_cell_length_a 12.500945
_cell_length_b 9.913343
_cell_length_c 15.034755
_cell_angle_alpha 114.599758
_cell_angle_beta 39.527394
_cell_angle_gamma 137.708742
_cell_volume 744.357005
_symmetry_space_group_name_H-M "P -1"
_symmetry_group_IT_number 2
_symmetry_cell_setting 'triclinic'
loop_
_space_group_symop_operation_xyz
x,y,z
-x,-y,-z
loop_
_atom_site_type_symbol
_atom_site_label
_atom_site_fract_x
_atom_site_fract_y
_atom_site_fract_z
Si Si1 0.288595 0.748527 0.050400
Si Si2 0.739857 0.808051 0.165187
Si Si3 0.459451 0.987260 0.650701
Si Si4 0.501176 0.505342 0.608945
Si Si5 0.668194 0.547298 0.982040
Si Si6 0.981714 0.306286 0.640061
Si Si7 0.105797 0.704951 0.647367
Si Si8 0.480370 0.831915 0.768014
O O1 0.360591 0.641757 0.023139
O O2 0.058733 0.673369 0.225000
O O3 0.285704 0.717847 0.940464
O O4 0.500000 0.000000 0.000000
O O5 0.602810 0.878327 0.275315
O O6 0.707011 0.714813 0.259490
O O7 0.628055 0.619274 0.115075
O O8 0.000000 0.000000 0.000000
O O9 0.743717 0.141502 0.490576
O O10 0.311033 0.808336 0.619612
O O11 0.393519 0.880959 0.758171
O O12 0.500000 0.500000 0.500000
O O13 0.758049 0.604218 0.508114
O O14 0.495009 0.673479 0.684110
O O15 0.932142 0.710554 0.809403
O O16 0.500000 0.500000 0.000000
O O17 0.981836 0.469316 0.638966
O O18 0.748319 0.061878 0.691361
#
# Coordination Sequence:
#
# PCOD9031852 Si02
#       8
#     2   2   2   2   2   2   2   2
#     4   9  21  43  63  96 135 167 220 274 339 406
#     4  12  26  47  68 103 137 180 238 285 335 421
#     4  11  24  42  69  94 138 178 228 275 344 409
#     4  12  26  47  68 100 142 184 229 287 349 407
#     4  11  24  43  70  97 134 177 224 284 342 403
#     4  10  22  43  68  96 135 175 224 286 337 414
#     4  10  22  44  65  97 133 177 226 279 334 413
#     4  11  24  42  70 101 132 178 227 286 348 409
#
# _framework density 21.495062000000001
#
# number of rings (size 3 to 8) (size 9 to 14) (size 15 to 20)
#    0.000    1.250    3.750    1.125    7.000    2.500 
#    6.750    2.500    0.000    0.000    0.000    0.000 
#    0.000    0.000    0.000    0.000    0.000    0.000 
#
# Total GULP energy -89261.125223 kJ/mol
# GULP energy per Si atom -5578.820326 kJ/mol
# Density = 2.144614 g / cm^3
# Si number density = 21.495062 Si / 1000 Ang^3
#
#
#
# Elastic Constant Matrix: (Units=GPa)
#
#
# Indices 1 2 3 4 5 6 
#
# 1 69.7555 19.2092 21.2954 -2.4643 30.1818 -19.0542
# 2 19.2092 104.7483 35.2352 15.6917 10.7072 -16.4784
# 3 21.2954 35.2352 104.0027 -0.7828 26.7126 -11.1150
# 4 -2.4643 15.6917 -0.7828 41.8157 -1.1477 0.6822
# 5 30.1818 10.7072 26.7126 -1.1477 33.8679 -3.0666
# 6 -19.0542 -16.4784 -11.1150 0.6822 -3.0666 24.5572
#
#
#
# Elastic Compliance Matrix: (Units=1/GPa)
#
#
# Indices 1 2 3 4 5 6 
#
# 1 0.032317 -0.000758 0.003580 0.001085 -0.029310 0.022497
# 2 -0.000758 0.012610 -0.003414 -0.004951 -0.000203 0.006440
# 3 0.003580 -0.003414 0.013806 0.001324 -0.012490 0.005140
# 4 0.001085 -0.004951 0.001324 0.025909 0.000199 -0.002576
# 5 -0.029310 -0.000203 -0.012490 0.000199 0.063705 -0.020582
# 6 0.022497 0.006440 0.005140 -0.002576 -0.020582 0.062326
#
#
# Mechanical properties :
#
#
# Convention : Reuss Voigt Hill
#
# Bulk Modulus (GPa) = 17.37639 47.77623 32.57631
# Shear Modulus (GPa) = 21.64146 33.56595 27.60370
#
# Velocity S-wave (km/s) = 3.17647 3.95595 3.58744
# Velocity P-wave (km/s) = 4.64271 6.56818 5.68752
#
# Compressibility (1/GPa) = 0.05754936
#
# Stress axis : x y z
#
# Youngs Moduli (GPa) = 30.94357 79.30487 72.43307
#
# Poissons Ratio (x) = 0.06013 -0.25933
# Poissons Ratio (y) = 0.02346 0.24726
# Poissons Ratio (z) = -0.11079 0.27072
#
# Static dielectric constant tensor:
#      x y z
#    x 1.760000 0.030990 0.017130 
#    y 0.030990 1.817810 -0.055630 
#    z 0.017130 -0.055630 1.843430 
# 
# From -- ./inp_files/314477.got.cif
#   From: 2010.05.17/outbox.cif.g08.bks.cpg/sg2_158_cif.got.tgz:314477.got - 2010.06.03 11:33:40.
