data_PCOD9031132
_publ_section_title
;
Structure prediction by ZEFSAII (Michael W. Deem and Ramdas Pophale) SiO2 
 PCOD9031132
Probable space group: P -1
;
_chemical_formula_sum "Si O2"
_cell_formula_units_Z 14
_cell_length_a 8.521979
_cell_length_b 9.211912
_cell_length_c 11.531312
_cell_angle_alpha 67.098231
_cell_angle_beta 60.001035
_cell_angle_gamma 47.041764
_cell_volume 572.077651
_symmetry_space_group_name_H-M "P -1"
_symmetry_group_IT_number 2
_symmetry_cell_setting 'triclinic'
loop_
_space_group_symop_operation_xyz
x,y,z
-x,-y,-z
loop_
_atom_site_type_symbol
_atom_site_label
_atom_site_fract_x
_atom_site_fract_y
_atom_site_fract_z
Si Si1 0.725705 0.556812 0.485292
Si Si2 0.156442 0.570431 0.891896
Si Si3 0.959282 0.754561 0.356483
Si Si4 0.242804 0.924848 0.488196
Si Si5 0.530414 0.797558 0.021997
Si Si6 0.844472 0.222757 0.947226
Si Si7 0.865734 0.758723 0.738171
O O1 0.786837 0.701308 0.457179
O O2 0.464487 0.696630 0.493370
O O3 0.805665 0.403553 0.609639
O O4 0.924149 0.416012 0.361835
O O5 0.012661 0.746258 0.797722
O O6 0.380006 0.346965 0.852983
O O7 0.214768 0.645657 0.957650
O O8 0.000000 0.500000 0.000000
O O9 0.020941 0.740798 0.204874
O O10 0.829361 0.971149 0.392162
O O11 0.287116 0.045805 0.345101
O O12 0.000000 0.000000 0.500000
O O13 0.698547 0.722796 0.870805
O O14 0.340678 0.779771 0.052796
O O15 0.500000 0.000000 0.000000
O O16 0.000000 0.000000 0.000000
#
# Coordination Sequence:
#
# PCOD9031132 Si02
#       7
#     2   2   2   2   2   2   2
#     4  10  23  48  75 100 143 191 240 310 369 433
#     4  10  22  43  65 101 145 189 236 293 363 437
#     4  10  24  46  71 104 141 189 246 299 371 439
#     4  11  26  42  73 105 134 188 241 305 367 428
#     4  11  25  43  71 103 149 200 242 304 371 439
#     4  12  26  43  71 111 149 194 245 303 371 451
#     4  10  24  44  71 102 140 188 236 295 374 434
#
# _framework density 24.472203
#
# number of rings (size 3 to 8) (size 9 to 14) (size 15 to 20)
#    0.000    1.429    0.000    4.286    8.000    3.429 
#    2.571    0.000    0.000    0.000    0.000    0.000 
#    0.000    0.000    0.000    0.000    0.000    0.000 
#
# Total GULP energy -78018.648452 kJ/mol
# GULP energy per Si atom -5572.760604 kJ/mol
# Density = 2.441650 g / cm^3
# Si number density = 24.472203 Si / 1000 Ang^3
#
#
#
# Elastic Constant Matrix: (Units=GPa)
#
#
# Indices 1 2 3 4 5 6 
#
# 1 73.3502 11.1087 -15.9407 -3.2651 2.3094 -2.6187
# 2 11.1087 126.6342 15.3771 -5.1114 8.3055 -7.0354
# 3 -15.9407 15.3771 62.3974 -8.0204 8.4251 -6.3149
# 4 -3.2651 -5.1114 -8.0204 35.7714 0.7531 12.4527
# 5 2.3094 8.3055 8.4251 0.7531 32.5094 -3.7936
# 6 -2.6187 -7.0354 -6.3149 12.4527 -3.7936 51.9964
#
#
#
# Elastic Compliance Matrix: (Units=1/GPa)
#
#
# Indices 1 2 3 4 5 6 
#
# 1 0.015111 -0.001679 0.004848 0.002099 -0.001893 0.000482
# 2 -0.001679 0.008453 -0.002213 0.000380 -0.001406 0.000597
# 3 0.004848 -0.002213 0.019077 0.004184 -0.004713 0.000916
# 4 0.002099 0.000380 0.004184 0.031684 -0.002897 -0.007134
# 5 -0.001893 -0.001406 -0.004713 -0.002897 0.032803 0.002229
# 6 0.000482 0.000597 0.000916 -0.007134 0.002229 0.021319
#
#
# Mechanical properties :
#
#
# Convention : Reuss Voigt Hill
#
# Bulk Modulus (GPa) = 22.44390 31.49687 26.97038
# Shear Modulus (GPa) = 35.36408 40.84456 38.10432
#
# Velocity S-wave (km/s) = 3.80553 4.08979 3.95022
# Velocity P-wave (km/s) = 5.33859 5.93298 5.64362
#
# Compressibility (1/GPa) = 0.04455554
#
# Stress axis : x y z
#
# Youngs Moduli (GPa) = 66.17534 118.29467 52.41871
#
# Poissons Ratio (x) = 0.19858 -0.25415
# Poissons Ratio (y) = 0.11109 0.11600
# Poissons Ratio (z) = -0.32084 0.26178
#
# Static dielectric constant tensor:
#      x y z
#    x 2.107400 -0.057630 0.051560 
#    y -0.057630 2.093860 -0.041860 
#    z 0.051560 -0.041860 2.023500 
# 
# From -- ./inp_files/378206.got.cif
#   From: 2010.05.17/outbox.cif.g08.bks.cpg/sg2_190_cif.got.tgz:378206.got - 2010.06.03 11:33:40.
