data_PCOD9031284
_publ_section_title
;
Structure prediction by ZEFSAII (Michael W. Deem and Ramdas Pophale) SiO2 
 PCOD9031284
Probable space group: P -1
;
_chemical_formula_sum "Si O2"
_cell_formula_units_Z 14
_cell_length_a 8.402488
_cell_length_b 12.056230
_cell_length_c 14.881752
_cell_angle_alpha 28.864289
_cell_angle_beta 58.573331
_cell_angle_gamma 59.834301
_cell_volume 617.134625
_symmetry_space_group_name_H-M "P -1"
_symmetry_group_IT_number 2
_symmetry_cell_setting 'triclinic'
loop_
_space_group_symop_operation_xyz
x,y,z
-x,-y,-z
loop_
_atom_site_type_symbol
_atom_site_label
_atom_site_fract_x
_atom_site_fract_y
_atom_site_fract_z
Si Si1 0.440317 0.163199 0.141888
Si Si2 0.353649 0.085752 0.905212
Si Si3 0.859540 0.163056 0.487226
Si Si4 0.857451 0.495394 0.403678
Si Si5 0.626110 0.329647 0.273162
Si Si6 0.949503 0.187991 0.748147
Si Si7 0.313232 0.037547 0.628617
O O1 0.586857 0.064225 0.093449
O O2 0.270328 0.004235 0.304395
O O3 0.537348 0.118120 0.241905
O O4 0.380138 0.427880 0.947282
O O5 0.320446 0.349379 0.695623
O O6 0.500000 0.000000 0.000000
O O7 0.152020 0.027759 0.040108
O O8 0.942629 0.325170 0.421190
O O9 0.731937 0.325104 0.340154
O O10 0.000000 0.000000 0.500000
O O11 0.811849 0.343766 0.610691
O O12 0.996483 0.662330 0.289191
O O13 0.421356 0.248008 0.411411
O O14 0.728569 0.126302 0.324951
O O15 0.136533 0.120276 0.683374
#
# Coordination Sequence:
#
# PCOD9031284 Si02
#       7
#     2   2   2   2   2   2   2
#     4  11  24  41  65  99 132 174 226 275 333 399
#     4  12  26  43  67 104 140 174 223 276 338 406
#     4  11  25  45  65  96 133 178 228 274 338 397
#     4  11  25  44  68  97 136 179 224 280 330 399
#     4  10  23  41  68  97 134 177 221 282 333 394
#     4  11  25  43  70 101 132 180 226 274 337 401
#     4  10  22  43  66 100 134 173 226 274 338 401
#
# _framework density 22.685485
#
# number of rings (size 3 to 8) (size 9 to 14) (size 15 to 20)
#    0.000    1.143    1.429    3.429    4.000    4.000 
#    0.000    0.000    0.000    0.000    0.000    0.000 
#    0.000    0.000    0.000    0.000    0.000    0.000 
#
# Total GULP energy -78328.135358 kJ/mol
# GULP energy per Si atom -5594.866811 kJ/mol
# Density = 2.263385 g / cm^3
# Si number density = 22.685485 Si / 1000 Ang^3
#
#
#
# Elastic Constant Matrix: (Units=GPa)
#
#
# Indices 1 2 3 4 5 6 
#
# 1 78.4557 51.5292 47.1370 0.7406 15.5342 18.1111
# 2 51.5292 117.6188 13.1563 -5.1005 -10.3802 17.8364
# 3 47.1370 13.1563 127.0317 2.7994 22.8900 -3.2063
# 4 0.7406 -5.1005 2.7994 24.6882 -5.5018 3.3751
# 5 15.5342 -10.3802 22.8900 -5.5018 35.4030 7.6234
# 6 18.1111 17.8364 -3.2063 3.3751 7.6234 41.1765
#
#
#
# Elastic Compliance Matrix: (Units=1/GPa)
#
#
# Indices 1 2 3 4 5 6 
#
# 1 0.028499 -0.011890 -0.007498 -0.004034 -0.010546 -0.005685
# 2 -0.011890 0.015572 0.000499 0.006616 0.011377 -0.004125
# 3 -0.007498 0.000499 0.011860 -0.003051 -0.005855 0.005339
# 4 -0.004034 0.006616 -0.003051 0.046675 0.014630 -0.007864
# 5 -0.010546 0.011377 -0.005855 0.014630 0.044460 -0.010176
# 6 -0.005685 -0.004125 0.005339 -0.007864 -0.010176 0.031517
#
#
# Mechanical properties :
#
#
# Convention : Reuss Voigt Hill
#
# Bulk Modulus (GPa) = 55.08703 60.75012 57.91858
# Shear Modulus (GPa) = 22.48097 34.33911 28.41004
#
# Velocity S-wave (km/s) = 3.15141 3.89486 3.54269
# Velocity P-wave (km/s) = 6.13005 6.86032 6.50544
#
# Compressibility (1/GPa) = 0.01815309
#
# Stress axis : x y z
#
# Youngs Moduli (GPa) = 35.08910 64.21843 84.32003
#
# Poissons Ratio (x) = 0.76358 0.63221
# Poissons Ratio (y) = 0.41722 -0.04212
# Poissons Ratio (z) = 0.26309 -0.03208
#
# Static dielectric constant tensor:
#      x y z
#    x 1.904950 -0.010360 0.049070 
#    y -0.010360 1.813940 -0.013920 
#    z 0.049070 -0.013920 1.815080 
# 
# From -- ./inp_files/498678.got.cif
#   From: 2010.05.17/outbox.cif.g08.bks.cpg/sg2_250_cif.got.tgz:498678.got - 2010.06.03 11:33:40.
