data_PCOD9031058
_publ_section_title
;
Structure prediction by ZEFSAII (Michael W. Deem and Ramdas Pophale) SiO2 
 PCOD9031058
Probable space group: P -1
;
_chemical_formula_sum "Si O2"
_cell_formula_units_Z 13
_cell_length_a 9.048710
_cell_length_b 15.165049
_cell_length_c 11.469729
_cell_angle_alpha 35.447564
_cell_angle_beta 137.307240
_cell_angle_gamma 143.395512
_cell_volume 529.146074
_symmetry_space_group_name_H-M "P -1"
_symmetry_group_IT_number 2
_symmetry_cell_setting 'triclinic'
loop_
_space_group_symop_operation_xyz
x,y,z
-x,-y,-z
loop_
_atom_site_type_symbol
_atom_site_label
_atom_site_fract_x
_atom_site_fract_y
_atom_site_fract_z
Si Si1 0.051214 0.322311 0.345742
Si Si2 0.404843 0.041362 0.518554
Si Si3 0.348035 0.556243 0.734377
Si Si4 0.629649 0.421584 0.931682
Si Si5 0.791498 0.413442 0.646762
Si Si6 0.743386 0.950856 0.976691
Si Si7 0.500000 0.000000 0.000000
O O1 0.230381 0.399483 0.255093
O O2 0.191048 0.434253 0.421038
O O3 0.891616 0.109948 0.482417
O O4 0.834919 0.372201 0.143226
O O5 0.469741 0.239990 0.344785
O O6 0.500000 0.000000 0.500000
O O7 0.579479 0.023417 0.737199
O O8 0.486465 0.445550 0.929613
O O9 0.283508 0.564437 0.550762
O O10 0.082256 0.461327 0.749294
O O11 0.431110 0.260506 0.910484
O O12 0.618359 0.215551 0.810554
O O13 0.727952 0.006160 0.039796
O O14 0.000000 0.000000 0.000000
#
# Coordination Sequence:
#
# PCOD9031058 Si02
#       7
#     2   2   2   2   2   2   1
#     4  10  22  43  64  91 134 173 210 280 338 409
#     4  11  23  45  65  96 140 179 221 285 348 404
#     4  11  24  43  67  99 131 179 227 286 338 407
#     4  10  23  41  65  94 133 169 225 278 341 401
#     4  11  23  41  68  94 135 173 227 278 339 400
#     4  11  24  44  69 102 135 186 234 280 341 418
#     4  12  22  44  70 102 138 184 226 286 338 410
#
# _framework density 24.567886000000001
#
# number of rings (size 3 to 8) (size 9 to 14) (size 15 to 20)
#    0.000    1.231    4.615    0.923    2.154    1.846 
#    5.538    0.000    0.000    0.000    0.000    0.000 
#    0.000    0.000    0.000    0.000    0.000    0.000 
#
# Total GULP energy -72480.020010 kJ/mol
# GULP energy per Si atom -5575.386155 kJ/mol
# Density = 2.451197 g / cm^3
# Si number density = 24.567886 Si / 1000 Ang^3
#
#
#
# Elastic Constant Matrix: (Units=GPa)
#
#
# Indices 1 2 3 4 5 6 
#
# 1 133.7128 24.9414 14.1602 2.3388 5.6179 9.4114
# 2 24.9414 100.6014 40.1275 -16.5941 -13.6586 4.9432
# 3 14.1602 40.1275 79.6254 -14.1847 -6.2067 16.6024
# 4 2.3388 -16.5941 -14.1847 26.3425 6.0899 -6.0091
# 5 5.6179 -13.6586 -6.2067 6.0899 39.8288 -10.0803
# 6 9.4114 4.9432 16.6024 -6.0091 -10.0803 39.2191
#
#
#
# Elastic Compliance Matrix: (Units=1/GPa)
#
#
# Indices 1 2 3 4 5 6 
#
# 1 0.008309 -0.002555 -0.000296 -0.002543 -0.002348 -0.002540
# 2 -0.002555 0.014394 -0.006144 0.005762 0.004317 0.003392
# 3 -0.000296 -0.006144 0.017734 0.004627 -0.001621 -0.006369
# 4 -0.002543 0.005762 0.004627 0.045941 -0.002901 0.004219
# 5 -0.002348 0.004317 -0.001621 -0.002901 0.029067 0.007732
# 6 -0.002540 0.003392 -0.006369 0.004219 0.007732 0.031010
#
#
# Mechanical properties :
#
#
# Convention : Reuss Voigt Hill
#
# Bulk Modulus (GPa) = 44.55287 52.48865 48.52076
# Shear Modulus (GPa) = 29.08201 36.72546 32.90373
#
# Velocity S-wave (km/s) = 3.44429 3.87053 3.66361
# Velocity P-wave (km/s) = 5.83022 6.43318 6.13911
#
# Compressibility (1/GPa) = 0.02244524
#
# Stress axis : x y z
#
# Youngs Moduli (GPa) = 120.35687 69.47241 56.38970
#
# Poissons Ratio (x) = 0.17752 0.01672
# Poissons Ratio (y) = 0.30754 0.34646
# Poissons Ratio (z) = 0.03568 0.42684
#
# Static dielectric constant tensor:
#      x y z
#    x 1.942170 -0.024390 -0.055600 
#    y -0.024390 1.952630 0.071390 
#    z -0.055600 0.071390 2.029620 
# 
# From -- ./inp_files/153438.got.cif
#   From: 2010.05.17/outbox.cif.g08.bks.cpg/sg2_77_cif.got.tgz:153438.got - 2010.06.03 11:33:40.
