data_PCOD9031986
_publ_section_title
;
Structure prediction by ZEFSAII (Michael W. Deem and Ramdas Pophale) SiO2 
 PCOD9031986
Probable space group: P -1
;
_chemical_formula_sum "Si O2"
_cell_formula_units_Z 16
_cell_length_a 15.501318
_cell_length_b 9.601312
_cell_length_c 18.060745
_cell_angle_alpha 141.817495
_cell_angle_beta 26.633894
_cell_angle_gamma 147.454988
_cell_volume 642.328942
_symmetry_space_group_name_H-M "P -1"
_symmetry_group_IT_number 2
_symmetry_cell_setting 'triclinic'
loop_
_space_group_symop_operation_xyz
x,y,z
-x,-y,-z
loop_
_atom_site_type_symbol
_atom_site_label
_atom_site_fract_x
_atom_site_fract_y
_atom_site_fract_z
Si Si1 0.835180 0.547141 0.754574
Si Si2 0.323238 0.206230 0.494601
Si Si3 0.420973 0.359323 0.752023
Si Si4 0.050644 0.874897 0.068431
Si Si5 0.957863 0.574899 0.170648
Si Si6 0.690756 0.231641 0.586177
Si Si7 0.731433 0.871346 0.652522
Si Si8 0.317604 0.694336 0.065892
O O1 0.692898 0.375366 0.721362
O O2 0.779122 0.427723 0.829946
O O3 0.080030 0.598508 0.564475
O O4 0.833258 0.819338 0.875867
O O5 0.500000 0.500000 0.500000
O O6 0.119395 0.251297 0.653797
O O7 0.354959 0.102064 0.350270
O O8 0.299547 0.020487 0.501034
O O9 0.180304 0.205336 0.832171
O O10 0.489914 0.169398 0.659249
O O11 0.604068 0.563536 0.639720
O O12 0.454256 0.556913 0.877574
O O13 0.999081 0.716372 0.118810
O O14 0.172882 0.740321 0.874217
O O15 0.155645 0.606200 0.082486
O O16 0.632760 0.011484 0.838481
O O17 0.000000 0.000000 0.500000
#
# Coordination Sequence:
#
# PCOD9031986 Si02
#       8
#     2   2   2   2   2   2   2   2
#     4  11  24  45  73 101 140 192 230 282 353 428
#     4  12  25  44  71 104 139 180 240 291 341 414
#     4  11  27  45  68 107 143 181 233 296 346 419
#     4  10  23  45  71 100 140 183 233 286 358 408
#     4  10  22  43  69 102 133 184 233 286 350 416
#     4  11  26  45  69 105 141 185 234 284 355 414
#     4  12  24  45  72 101 138 183 235 289 353 415
#     4  11  24  44  71 104 141 184 236 286 353 417
#
# _framework density 24.909357
#
# number of rings (size 3 to 8) (size 9 to 14) (size 15 to 20)
#    0.000    1.000    3.750    1.875    3.500    5.000 
#    4.500    0.000    0.000    0.000    0.000    0.000 
#    0.000    0.000    0.000    0.000    0.000    0.000 
#
# Total GULP energy -89211.304614 kJ/mol
# GULP energy per Si atom -5575.706538 kJ/mol
# Density = 2.485266 g / cm^3
# Si number density = 24.909357 Si / 1000 Ang^3
#
#
#
# Elastic Constant Matrix: (Units=GPa)
#
#
# Indices 1 2 3 4 5 6 
#
# 1 137.7061 28.2273 15.5221 -1.1171 20.2155 -47.5754
# 2 28.2273 88.2063 -0.5181 21.4895 30.1011 -50.2136
# 3 15.5221 -0.5181 62.1569 20.0293 -29.5318 44.0849
# 4 -1.1171 21.4895 20.0293 44.5177 -3.4407 9.7164
# 5 20.2155 30.1011 -29.5318 -3.4407 164.1107 -127.1740
# 6 -47.5754 -50.2136 44.0849 9.7164 -127.1740 189.7475
#
#
#
# Elastic Compliance Matrix: (Units=1/GPa)
#
#
# Indices 1 2 3 4 5 6 
#
# 1 0.009423 -0.002050 -0.005387 0.002930 0.001189 0.003719
# 2 -0.002050 0.016738 0.000679 -0.009419 0.000817 0.004788
# 3 -0.005387 0.000679 0.025456 -0.010461 -0.000364 -0.006794
# 4 0.002930 -0.009419 -0.010461 0.032087 -0.001238 -0.001800
# 5 0.001189 0.000817 -0.000364 -0.001238 0.012939 0.009335
# 6 0.003719 0.004788 -0.006794 -0.001800 0.009335 0.015397
#
#
# Mechanical properties :
#
#
# Convention : Reuss Voigt Hill
#
# Bulk Modulus (GPa) = 26.24576 41.61466 33.93021
# Shear Modulus (GPa) = 36.16476 95.99773 66.08124
#
# Velocity S-wave (km/s) = 3.81445 6.21470 5.15619
# Velocity P-wave (km/s) = 5.47352 8.26071 7.00710
#
# Compressibility (1/GPa) = 0.03810140
#
# Stress axis : x y z
#
# Youngs Moduli (GPa) = 106.12112 59.74290 39.28410
#
# Poissons Ratio (x) = 0.12246 0.21162
# Poissons Ratio (y) = 0.21753 -0.02667
# Poissons Ratio (z) = 0.57167 -0.04056
#
# Static dielectric constant tensor:
#      x y z
#    x 1.981210 0.095280 0.115220 
#    y 0.095280 2.051790 -0.080490 
#    z 0.115220 -0.080490 2.270260 
# 
# From -- ./inp_files/538426.got.cif
#   From: 2010.05.17/outbox.cif.g08.bks.cpg/sg2_270_cif.got.tgz:538426.got - 2010.06.03 11:33:40.
