data_PCOD9031837
_publ_section_title
;
Structure prediction by ZEFSAII (Michael W. Deem and Ramdas Pophale) SiO2 
 PCOD9031837
Probable space group: P -1
;
_chemical_formula_sum "Si O2"
_cell_formula_units_Z 16
_cell_length_a 13.041477
_cell_length_b 18.787048
_cell_length_c 8.815539
_cell_angle_alpha 45.835829
_cell_angle_beta 128.593051
_cell_angle_gamma 150.524027
_cell_volume 761.483842
_symmetry_space_group_name_H-M "P -1"
_symmetry_group_IT_number 2
_symmetry_cell_setting 'triclinic'
loop_
_space_group_symop_operation_xyz
x,y,z
-x,-y,-z
loop_
_atom_site_type_symbol
_atom_site_label
_atom_site_fract_x
_atom_site_fract_y
_atom_site_fract_z
Si Si1 0.751328 0.426237 0.732099
Si Si2 0.299450 0.409589 0.736834
Si Si3 0.449380 0.064290 0.259490
Si Si4 0.537856 0.376667 0.152099
Si Si5 0.157165 0.035275 0.480946
Si Si6 0.417975 0.054957 0.909235
Si Si7 0.056859 0.927149 0.226928
Si Si8 0.819356 0.414890 0.138354
O O1 0.661912 0.477137 0.511152
O O2 0.580957 0.241379 0.810335
O O3 0.962007 0.505388 0.733697
O O4 0.824696 0.486245 0.885993
O O5 0.324392 0.476992 0.822344
O O6 0.078952 0.235586 0.740055
O O7 0.444784 0.397618 0.908675
O O8 0.675267 0.244904 0.187560
O O9 0.500000 0.000000 0.500000
O O10 0.296738 0.046354 0.236075
O O11 0.347688 0.988639 0.114053
O O12 0.344305 0.212800 0.312697
O O13 0.692168 0.390353 0.192980
O O14 0.255491 0.005524 0.715434
O O15 0.030189 0.916769 0.397582
O O16 0.000000 0.000000 0.500000
O O17 0.500000 0.000000 0.000000
O O18 0.000000 0.000000 0.000000
#
# Coordination Sequence:
#
# PCOD9031837 Si02
#       8
#     2   2   2   2   2   2   2   2
#     4  10  23  44  66 100 137 174 226 273 338 400
#     4  11  24  44  68 101 134 178 227 278 337 402
#     4  11  22  39  68  97 134 174 227 278 333 405
#     4  11  24  46  67  99 136 177 227 277 338 401
#     4  12  25  47  69  98 141 177 227 288 335 404
#     4  11  25  43  66 100 137 181 226 281 340 398
#     4  12  23  43  68  98 130 177 230 273 337 397
#     4  10  22  43  68  95 137 177 219 281 332 404
#
# _framework density 21.011609
#
# number of rings (size 3 to 8) (size 9 to 14) (size 15 to 20)
#    0.000    1.000    3.750    2.250    0.000    5.000 
#    6.750    0.000    0.000    0.000    0.000    0.000 
#    0.000    0.000    0.000    0.000    0.000    0.000 
#
# Total GULP energy -89211.930394 kJ/mol
# GULP energy per Si atom -5575.745650 kJ/mol
# Density = 2.096379 g / cm^3
# Si number density = 21.011609 Si / 1000 Ang^3
#
#
#
# Elastic Constant Matrix: (Units=GPa)
#
#
# Indices 1 2 3 4 5 6 
#
# 1 100.3266 5.3564 51.1855 1.5127 -10.7258 12.2614
# 2 5.3564 70.0607 19.8206 8.1453 -9.4647 -12.2837
# 3 51.1855 19.8206 157.2063 15.5419 18.9567 5.1820
# 4 1.5127 8.1453 15.5419 30.6116 -4.8763 1.5751
# 5 -10.7258 -9.4647 18.9567 -4.8763 27.8074 4.4431
# 6 12.2614 -12.2837 5.1820 1.5751 4.4431 27.6146
#
#
#
# Elastic Compliance Matrix: (Units=1/GPa)
#
#
# Indices 1 2 3 4 5 6 
#
# 1 0.015874 0.000615 -0.007109 0.005194 0.013349 -0.007885
# 2 0.000615 0.017613 -0.003259 -0.002335 0.006894 0.007197
# 3 -0.007109 -0.003259 0.011248 -0.006673 -0.013021 0.002072
# 4 0.005194 -0.002335 -0.006673 0.038925 0.013623 -0.006504
# 5 0.013349 0.006894 -0.013021 0.013623 0.056362 -0.010263
# 6 -0.007885 0.007197 0.002072 -0.006504 -0.010263 0.044549
#
#
# Mechanical properties :
#
#
# Convention : Reuss Voigt Hill
#
# Bulk Modulus (GPa) = 39.63691 53.36872 46.50282
# Shear Modulus (GPa) = 23.53082 33.95546 28.74314
#
# Velocity S-wave (km/s) = 3.35012 4.02435 3.70261
# Velocity P-wave (km/s) = 5.81976 6.85920 6.36075
#
# Compressibility (1/GPa) = 0.02522901
#
# Stress axis : x y z
#
# Youngs Moduli (GPa) = 62.99497 56.77680 88.90307
#
# Poissons Ratio (x) = -0.03490 0.63205
# Poissons Ratio (y) = -0.03873 0.28969
# Poissons Ratio (z) = 0.44785 0.18501
#
# Static dielectric constant tensor:
#      x y z
#    x 1.760670 -0.005630 -0.072670 
#    y -0.005630 1.786020 -0.009420 
#    z -0.072670 -0.009420 1.917720 
# 
# From -- ./inp_files/279118.got.cif
#   From: 2010.05.17/outbox.cif.g08.bks.cpg/sg2_140_cif.got.tgz:279118.got - 2010.06.03 11:33:40.
