data_PCOD9031529
_publ_section_title
;
Structure prediction by ZEFSAII (Michael W. Deem and Ramdas Pophale) SiO2 
 PCOD9031529
Probable space group: P -1
;
_chemical_formula_sum "Si O2"
_cell_formula_units_Z 16
_cell_length_a 9.010638
_cell_length_b 8.579474
_cell_length_c 20.764979
_cell_angle_alpha 145.381550
_cell_angle_beta 113.161374
_cell_angle_gamma 88.816423
_cell_volume 682.929222
_symmetry_space_group_name_H-M "P -1"
_symmetry_group_IT_number 2
_symmetry_cell_setting 'triclinic'
loop_
_space_group_symop_operation_xyz
x,y,z
-x,-y,-z
loop_
_atom_site_type_symbol
_atom_site_label
_atom_site_fract_x
_atom_site_fract_y
_atom_site_fract_z
Si Si1 0.989622 0.968767 0.910609
Si Si2 0.633868 0.947579 0.051529
Si Si3 0.117203 0.009855 0.398475
Si Si4 0.308959 0.806200 0.448191
Si Si5 0.267736 0.802794 0.106809
Si Si6 0.415619 0.117762 0.375565
Si Si7 0.706110 0.256890 0.295212
Si Si8 0.271623 0.331497 0.851694
O O1 0.831048 0.584691 0.728904
O O2 0.909125 0.169415 0.933619
O O3 0.206505 0.085098 0.966288
O O4 0.000000 0.000000 0.000000
O O5 0.747349 0.251045 0.225259
O O6 0.483452 0.621826 0.958518
O O7 0.500000 0.000000 0.000000
O O8 0.188380 0.958055 0.460714
O O9 0.890628 0.736881 0.250954
O O10 0.247840 0.998758 0.360528
O O11 0.164758 0.376577 0.528933
O O12 0.400905 0.862135 0.553615
O O13 0.500000 0.000000 0.500000
O O14 0.321644 0.878017 0.216423
O O15 0.473735 0.107613 0.212064
O O16 0.230285 0.469905 0.955760
O O17 0.500000 0.500000 0.500000
O O18 0.737897 0.998602 0.247770
#
# Coordination Sequence:
#
# PCOD9031529 Si02
#       8
#     2   2   2   2   2   2   2   2
#     4  12  24  44  75 108 145 187 235 306 365 428
#     4  11  25  47  71 102 147 192 242 290 365 443
#     4  11  23  45  71 102 148 191 242 298 355 437
#     4  10  22  43  67 106 147 177 233 293 365 429
#     4  11  22  44  72 101 142 183 243 297 356 429
#     4  11  21  41  71 110 141 185 238 301 367 422
#     4  11  24  49  68  99 149 194 237 302 358 431
#     4  11  26  49  69 104 148 192 246 293 366 432
#
# _framework density 23.428488999999999
#
# number of rings (size 3 to 8) (size 9 to 14) (size 15 to 20)
#    0.000    1.000    2.500    5.625    1.750    0.500 
#   18.000    1.250    0.000    0.000    0.000    0.000 
#    0.000    0.000    0.000    0.000    0.000    0.000 
#
# Total GULP energy -89635.565471 kJ/mol
# GULP energy per Si atom -5602.222842 kJ/mol
# Density = 2.337517 g / cm^3
# Si number density = 23.428489 Si / 1000 Ang^3
#
#
#
# Elastic Constant Matrix: (Units=GPa)
#
#
# Indices 1 2 3 4 5 6 
#
# 1 151.8276 51.8689 67.2426 -16.3030 4.4605 -12.1708
# 2 51.8689 101.3658 53.7551 -21.7705 -0.2925 -31.4605
# 3 67.2426 53.7551 139.7258 -24.5896 2.6049 -17.8383
# 4 -16.3030 -21.7705 -24.5896 54.5681 -4.1573 3.8772
# 5 4.4605 -0.2925 2.6049 -4.1573 43.3752 -7.6658
# 6 -12.1708 -31.4605 -17.8383 3.8772 -7.6658 35.5475
#
#
#
# Elastic Compliance Matrix: (Units=1/GPa)
#
#
# Indices 1 2 3 4 5 6 
#
# 1 0.009111 -0.003544 -0.003260 -0.000112 -0.001108 -0.001880
# 2 -0.003544 0.018510 -0.002943 0.004276 0.003548 0.013991
# 3 -0.003260 -0.002943 0.010457 0.002484 0.000153 0.001288
# 4 -0.000112 0.004276 0.002484 0.021077 0.002482 0.003229
# 5 -0.001108 0.003548 0.000153 0.002482 0.024821 0.007920
# 6 -0.001880 0.013991 0.001288 0.003229 0.007920 0.041872
#
#
# Mechanical properties :
#
#
# Convention : Reuss Voigt Hill
#
# Bulk Modulus (GPa) = 53.81099 82.07250 67.94175
# Shear Modulus (GPa) = 32.99515 41.36834 37.18175
#
# Velocity S-wave (km/s) = 3.75685 4.20662 3.98808
# Velocity P-wave (km/s) = 6.46812 7.66168 7.09006
#
# Compressibility (1/GPa) = 0.01858356
#
# Stress axis : x y z
#
# Youngs Moduli (GPa) = 109.75957 54.02408 95.62981
#
# Poissons Ratio (x) = 0.19144 0.31178
# Poissons Ratio (y) = 0.38895 0.28147
# Poissons Ratio (z) = 0.35784 0.15901
#
# Static dielectric constant tensor:
#      x y z
#    x 1.878040 0.008610 0.002430 
#    y 0.008610 1.906520 -0.011090 
#    z 0.002430 -0.011090 1.859800 
# 
# From -- ./inp_files/556611.got.cif
#   From: 2010.05.17/outbox.cif.g08.bks.cpg/sg2_279_cif.got.tgz:556611.got - 2010.06.03 11:33:40.
