data_PCOD9031886
_publ_section_title
;
Structure prediction by ZEFSAII (Michael W. Deem and Ramdas Pophale) SiO2 
 PCOD9031886
Probable space group: P -1
;
_chemical_formula_sum "Si O2"
_cell_formula_units_Z 14
_cell_length_a 12.340856
_cell_length_b 14.182037
_cell_length_c 7.397702
_cell_angle_alpha 118.827175
_cell_angle_beta 138.926144
_cell_angle_gamma 42.179093
_cell_volume 562.541228
_symmetry_space_group_name_H-M "P -1"
_symmetry_group_IT_number 2
_symmetry_cell_setting 'triclinic'
loop_
_space_group_symop_operation_xyz
x,y,z
-x,-y,-z
loop_
_atom_site_type_symbol
_atom_site_label
_atom_site_fract_x
_atom_site_fract_y
_atom_site_fract_z
Si Si1 0.510431 0.088950 0.330570
Si Si2 0.262008 0.671183 0.154723
Si Si3 0.057120 0.023366 0.401304
Si Si4 0.647989 0.178314 0.870539
Si Si5 0.835226 0.637028 0.041348
Si Si6 0.542034 0.344911 0.258486
Si Si7 0.102648 0.224163 0.473713
O O1 0.507788 0.144607 0.574415
O O2 0.639636 0.920483 0.344214
O O3 0.279939 0.210910 0.062137
O O4 0.690027 0.079952 0.429746
O O5 0.345847 0.728859 0.180908
O O6 0.437785 0.500580 0.203678
O O7 0.269696 0.706270 0.405821
O O8 0.030028 0.730611 0.837633
O O9 0.001261 0.173235 0.428883
O O10 0.896126 0.029041 0.069287
O O11 0.000000 0.000000 0.500000
O O12 0.587232 0.249821 0.055623
O O13 0.930189 0.648138 0.353795
O O14 0.648609 0.632277 0.850179
O O15 0.000000 0.500000 0.000000
#
# Coordination Sequence:
#
# PCOD9031886 Si02
#       7
#     2   2   2   2   2   2   2
#     4  10  22  43  68  97 143 183 224 288 351 403
#     4  10  23  45  69 107 139 175 235 287 356 403
#     4   9  20  37  72 103 133 177 232 280 354 410
#     4  11  21  40  73 105 138 174 230 298 347 408
#     4  12  26  47  68 101 142 193 236 282 343 418
#     4  11  25  42  75 102 142 185 235 285 350 419
#     4   9  24  43  73  96 150 179 223 295 350 404
#
# _framework density 24.887067999999999
#
# number of rings (size 3 to 8) (size 9 to 14) (size 15 to 20)
#    0.857    0.857    1.429    2.143    2.000    5.143 
#    0.000    0.714    0.000    0.000    0.000    0.000 
#    0.000    0.000    0.000    0.000    0.000    0.000 
#
# Total GULP energy -78203.780682 kJ/mol
# GULP energy per Si atom -5585.984334 kJ/mol
# Density = 2.483042 g / cm^3
# Si number density = 24.887068 Si / 1000 Ang^3
#
#
#
# Elastic Constant Matrix: (Units=GPa)
#
#
# Indices 1 2 3 4 5 6 
#
# 1 68.9964 26.4302 20.8654 -9.4524 -22.6748 -8.6354
# 2 26.4302 119.1457 57.7272 12.7346 -20.0455 -20.5913
# 3 20.8654 57.7272 162.0540 18.5316 -24.9401 -12.8390
# 4 -9.4524 12.7346 18.5316 46.1496 -0.3595 -12.5729
# 5 -22.6748 -20.0455 -24.9401 -0.3595 35.0332 6.7896
# 6 -8.6354 -20.5913 -12.8390 -12.5729 6.7896 36.2492
#
#
#
# Elastic Compliance Matrix: (Units=1/GPa)
#
#
# Indices 1 2 3 4 5 6 
#
# 1 0.020424 -0.002547 -0.000486 0.006071 0.010834 0.003323
# 2 -0.002547 0.011613 -0.003012 -0.001396 0.002052 0.004054
# 3 -0.000486 -0.003012 0.008159 -0.002675 0.003857 -0.000587
# 4 0.006071 -0.001396 -0.002675 0.026838 -0.000254 0.009062
# 5 0.010834 0.002052 0.003857 -0.000254 0.039950 -0.002459
# 6 0.003323 0.004054 -0.000587 0.009062 -0.002459 0.034077
#
#
# Mechanical properties :
#
#
# Convention : Reuss Voigt Hill
#
# Bulk Modulus (GPa) = 35.57987 62.24907 48.91447
# Shear Modulus (GPa) = 30.76528 39.83130 35.29829
#
# Velocity S-wave (km/s) = 3.51977 4.00494 3.77017
# Velocity P-wave (km/s) = 5.55391 6.81564 6.21687
#
# Compressibility (1/GPa) = 0.02810578
#
# Stress axis : x y z
#
# Youngs Moduli (GPa) = 48.96124 86.11350 122.56013
#
# Poissons Ratio (x) = 0.21934 0.05957
# Poissons Ratio (y) = 0.12471 0.36916
# Poissons Ratio (z) = 0.02380 0.25938
#
# Static dielectric constant tensor:
#      x y z
#    x 1.992240 -0.012060 0.022450 
#    y -0.012060 2.054430 -0.043720 
#    z 0.022450 -0.043720 2.004590 
# 
# From -- ./inp_files/78508.got.cif
#   From: 2010.05.17/outbox.cif.g08.bks.cpg/sg2_40_cif.got.tgz:78508.got - 2010.06.03 11:33:40.
