data_PCOD9031654
_publ_section_title
;
Structure prediction by ZEFSAII (Michael W. Deem and Ramdas Pophale) SiO2 
 PCOD9031654
Probable space group: P -1
;
_chemical_formula_sum "Si O2"
_cell_formula_units_Z 15
_cell_length_a 6.345215
_cell_length_b 18.165170
_cell_length_c 7.913674
_cell_angle_alpha 47.729247
_cell_angle_beta 95.905520
_cell_angle_gamma 111.292631
_cell_volume 615.528282
_symmetry_space_group_name_H-M "P -1"
_symmetry_group_IT_number 2
_symmetry_cell_setting 'triclinic'
loop_
_space_group_symop_operation_xyz
x,y,z
-x,-y,-z
loop_
_atom_site_type_symbol
_atom_site_label
_atom_site_fract_x
_atom_site_fract_y
_atom_site_fract_z
Si Si1 0.919618 0.710391 0.871833
Si Si2 0.312492 0.686913 0.133718
Si Si3 0.294010 0.811871 0.486235
Si Si4 0.010769 0.890069 0.103230
Si Si5 0.796315 0.876782 0.763359
Si Si6 0.534989 0.478245 0.736077
Si Si7 0.500000 0.000000 0.500000
Si Si8 0.457725 0.303356 0.519267
O O1 0.852086 0.813153 0.715622
O O2 0.065659 0.725632 0.691269
O O3 0.695209 0.605762 0.063454
O O4 0.099957 0.716589 0.026487
O O5 0.297029 0.585085 0.173603
O O6 0.346430 0.665998 0.364123
O O7 0.549586 0.788267 0.951036
O O8 0.443467 0.745255 0.546309
O O9 0.220339 0.865955 0.236108
O O10 0.421608 0.906888 0.484090
O O11 0.776705 0.791389 0.292144
O O12 0.990800 0.895531 0.892390
O O13 0.000000 0.000000 0.000000
O O14 0.739691 0.980459 0.574438
O O15 0.500000 0.500000 0.500000
O O16 0.596786 0.590194 0.666301
#
# Coordination Sequence:
#
# PCOD9031654 Si02
#       8
#     2   2   2   2   2   2   1   2
#     4  11  23  40  71  98 135 180 224 277 338 417
#     4   9  19  42  68 100 130 174 226 275 337 397
#     4  12  27  42  64 104 140 178 227 274 350 400
#     4  11  24  45  67  97 131 184 227 280 335 398
#     4  10  22  43  67  98 132 175 233 279 327 398
#     4   9  21  42  70 101 134 178 225 283 337 403
#     4  12  24  44  68  96 140 180 226 284 334 396
#     4  10  24  42  66  99 141 172 225 289 329 404
#
# _framework density 24.369312000000001
#
# number of rings (size 3 to 8) (size 9 to 14) (size 15 to 20)
#    0.000    1.600    2.667    1.600    1.867    5.867 
#    0.000    1.333    0.000    0.000    0.000    0.000 
#    0.000    0.000    0.000    0.000    0.000    0.000 
#
# Total GULP energy -83640.073984 kJ/mol
# GULP energy per Si atom -5576.004932 kJ/mol
# Density = 2.431385 g / cm^3
# Si number density = 24.369312 Si / 1000 Ang^3
#
#
#
# Elastic Constant Matrix: (Units=GPa)
#
#
# Indices 1 2 3 4 5 6 
#
# 1 63.0754 78.8807 31.5623 -3.4742 21.4835 -14.9173
# 2 78.8807 163.2883 52.3171 -24.3043 9.5873 -23.5048
# 3 31.5623 52.3171 87.9830 -7.2542 1.6418 1.1090
# 4 -3.4742 -24.3043 -7.2542 45.0321 10.7395 5.6786
# 5 21.4835 9.5873 1.6418 10.7395 41.3753 11.6186
# 6 -14.9173 -23.5048 1.1090 5.6786 11.6186 33.5549
#
#
#
# Elastic Compliance Matrix: (Units=1/GPa)
#
#
# Indices 1 2 3 4 5 6 
#
# 1 0.075075 -0.026971 -0.010931 -0.004853 -0.039254 0.029258
# 2 -0.026971 0.019945 -0.001764 0.006674 0.008269 -0.001953
# 3 -0.010931 -0.001764 0.016313 0.000100 0.008063 -0.009443
# 4 -0.004853 0.006674 0.000100 0.026880 -0.006022 0.000050
# 5 -0.039254 0.008269 0.008063 -0.006022 0.051997 -0.028910
# 6 0.029258 -0.001953 -0.009443 0.000050 -0.028910 0.051755
#
#
# Mechanical properties :
#
#
# Convention : Reuss Voigt Hill
#
# Bulk Modulus (GPa) = 31.24813 71.09632 51.17223
# Shear Modulus (GPa) = 15.06200 34.09823 24.58011
#
# Velocity S-wave (km/s) = 2.48880 3.74468 3.17937
# Velocity P-wave (km/s) = 4.59450 6.92349 5.87555
#
# Compressibility (1/GPa) = 0.03200192
#
# Stress axis : x y z
#
# Youngs Moduli (GPa) = 13.32005 50.13813 61.30190
#
# Poissons Ratio (x) = 1.35226 0.67006
# Poissons Ratio (y) = 0.35925 0.10813
# Poissons Ratio (z) = 0.14560 0.08844
#
# Static dielectric constant tensor:
#      x y z
#    x 1.878880 0.042620 0.025330 
#    y 0.042620 2.188720 0.151790 
#    z 0.025330 0.151790 2.084130 
# 
# From -- ./inp_files/137212.got.cif
#   From: 2010.05.17/outbox.cif.g08.bks.cpg/sg2_69_cif.got.tgz:137212.got - 2010.06.03 11:33:40.
