data_PCOD9031653
_publ_section_title
;
Structure prediction by ZEFSAII (Michael W. Deem and Ramdas Pophale) SiO2 
 PCOD9031653
Probable space group: P -1
;
_chemical_formula_sum "Si O2"
_cell_formula_units_Z 16
_cell_length_a 10.898055
_cell_length_b 9.329274
_cell_length_c 25.302943
_cell_angle_alpha 142.734720
_cell_angle_beta 33.676323
_cell_angle_gamma 120.366801
_cell_volume 763.839979
_symmetry_space_group_name_H-M "P -1"
_symmetry_group_IT_number 2
_symmetry_cell_setting 'triclinic'
loop_
_space_group_symop_operation_xyz
x,y,z
-x,-y,-z
loop_
_atom_site_type_symbol
_atom_site_label
_atom_site_fract_x
_atom_site_fract_y
_atom_site_fract_z
Si Si1 0.079731 0.504975 0.228695
Si Si2 0.873133 0.306974 0.343081
Si Si3 0.591710 0.053207 0.925025
Si Si4 0.467060 0.857282 0.654187
Si Si5 0.499965 0.369290 0.223905
Si Si6 0.877231 0.320198 0.148066
Si Si7 0.179515 0.948767 0.470063
Si Si8 0.000677 0.329531 0.999641
O O1 0.993825 0.418009 0.287899
O O2 0.957685 0.403231 0.197071
O O3 0.960765 0.823766 0.369058
O O4 0.381578 0.352977 0.074571
O O5 0.683073 0.583557 0.521218
O O6 0.691955 0.212773 0.351759
O O7 0.110332 0.056948 0.210242
O O8 0.562584 0.867297 0.835827
O O9 0.500000 0.000000 0.000000
O O10 0.591286 0.011378 0.623321
O O11 0.257936 0.057178 0.827060
O O12 0.590850 0.407223 0.260371
O O13 0.281612 0.649536 0.365783
O O14 0.750356 0.294057 0.076364
O O15 0.968586 0.446252 0.104330
O O16 0.000000 0.000000 0.000000
O O17 0.000000 0.000000 0.500000
O O18 0.000000 0.500000 0.000000
#
# Coordination Sequence:
#
# PCOD9031653 Si02
#       8
#     2   2   2   2   2   2   2   2
#     4  10  19  35  55  84 115 150 193 236 295 336
#     4   9  19  29  55  83 107 145 189 246 288 332
#     4  10  17  32  53  81 113 143 191 243 279 336
#     4  10  17  33  50  81 109 139 191 236 294 328
#     4  10  20  33  54  84 115 146 197 227 292 337
#     4  10  19  34  58  86 116 155 200 238 283 350
#     4  11  22  35  55  88 115 149 190 247 292 347
#     4  10  19  33  54  80 111 150 194 231 283 344
#
# _framework density 20.946795000000002
#
# number of rings (size 3 to 8) (size 9 to 14) (size 15 to 20)
#    0.750    1.250    2.500    4.500    0.000    0.500 
#    0.000    0.000    0.000    1.500    9.750    0.000 
#    0.000    0.000    0.000    0.000    0.000    0.000 
#
# Total GULP energy -89108.640470 kJ/mol
# GULP energy per Si atom -5569.290029 kJ/mol
# Density = 2.089912 g / cm^3
# Si number density = 20.946795 Si / 1000 Ang^3
#
#
#
# Elastic Constant Matrix: (Units=GPa)
#
#
# Indices 1 2 3 4 5 6 
#
# 1 74.5223 -10.4321 47.7714 -0.5305 -16.8157 3.7347
# 2 -10.4321 23.8602 12.4299 -5.9491 -3.3042 0.1452
# 3 47.7714 12.4299 128.0506 10.8147 -17.9834 6.6939
# 4 -0.5305 -5.9491 10.8147 17.2627 5.7076 -3.4633
# 5 -16.8157 -3.3042 -17.9834 5.7076 33.2449 -2.8903
# 6 3.7347 0.1452 6.6939 -3.4633 -2.8903 23.5303
#
#
#
# Elastic Compliance Matrix: (Units=1/GPa)
#
#
# Indices 1 2 3 4 5 6 
#
# 1 0.025730 0.022028 -0.012168 0.014334 0.006346 0.002131
# 2 0.022028 0.070539 -0.018187 0.036929 0.002583 0.006995
# 3 -0.012168 -0.018187 0.016550 -0.019297 0.003866 -0.005030
# 4 0.014334 0.036929 -0.019297 0.090688 -0.013815 0.014637
# 5 0.006346 0.002583 0.003866 -0.013815 0.038054 0.000518
# 6 0.002131 0.006995 -0.005030 0.014637 0.000518 0.045766
#
#
# Mechanical properties :
#
#
# Convention : Reuss Voigt Hill
#
# Bulk Modulus (GPa) = 10.39884 36.21907 23.30896
# Shear Modulus (GPa) = 14.87940 26.58519 20.73230
#
# Velocity S-wave (km/s) = 2.66812 3.56642 3.14946
# Velocity P-wave (km/s) = 3.80355 5.85556 4.93734
#
# Compressibility (1/GPa) = 0.09616454
#
# Stress axis : x y z
#
# Youngs Moduli (GPa) = 38.86566 14.17663 60.42359
#
# Poissons Ratio (x) = -0.31228 0.73523
# Poissons Ratio (y) = -0.85613 1.09892
# Poissons Ratio (z) = 0.47291 0.25783
#
# Static dielectric constant tensor:
#      x y z
#    x 1.794040 -0.011500 -0.012130 
#    y -0.011500 1.617460 -0.066480 
#    z -0.012130 -0.066480 1.794410 
# 
# From -- ./inp_files/623067.got.cif
#   From: 2010.05.17/outbox.cif.g08.bks.cpg/sg2_312_cif.got.tgz:623067.got - 2010.06.03 11:33:40.
