data_PCOD9031897
_publ_section_title
;
Structure prediction by ZEFSAII (Michael W. Deem and Ramdas Pophale) SiO2 
 PCOD9031897
Probable space group: P -1
;
_chemical_formula_sum "Si O2"
_cell_formula_units_Z 16
_cell_length_a 8.779697
_cell_length_b 8.624384
_cell_length_c 17.076637
_cell_angle_alpha 82.880001
_cell_angle_beta 137.002367
_cell_angle_gamma 120.195328
_cell_volume 693.851367
_symmetry_space_group_name_H-M "P -1"
_symmetry_group_IT_number 2
_symmetry_cell_setting 'triclinic'
loop_
_space_group_symop_operation_xyz
x,y,z
-x,-y,-z
loop_
_atom_site_type_symbol
_atom_site_label
_atom_site_fract_x
_atom_site_fract_y
_atom_site_fract_z
Si Si1 0.302520 0.802066 0.993501
Si Si2 0.308096 0.409556 0.618940
Si Si3 0.812497 0.511798 0.714278
Si Si4 0.248717 0.729492 0.537823
Si Si5 0.650290 0.653260 0.182145
Si Si6 0.803868 0.138116 0.716860
Si Si7 0.800127 0.382744 0.271756
Si Si8 0.229522 0.969837 0.111044
O O1 0.000347 0.645819 0.849657
O O2 0.442776 0.691171 0.064686
O O3 0.500000 0.000000 0.000000
O O4 0.249018 0.853301 0.055504
O O5 0.495532 0.424821 0.618592
O O6 0.372047 0.622854 0.627465
O O7 0.377301 0.361912 0.732289
O O8 0.969337 0.261954 0.492676
O O9 0.805492 0.324942 0.707099
O O10 0.006662 0.647502 0.706566
O O11 0.030805 0.569427 0.401151
O O12 0.503079 0.941023 0.592399
O O13 0.635437 0.462086 0.165204
O O14 0.958407 0.827575 0.253371
O O15 0.851109 0.117893 0.826929
O O16 0.544039 0.172967 0.220495
O O17 0.000000 0.000000 0.000000
#
# Coordination Sequence:
#
# PCOD9031897 Si02
#       8
#     2   2   2   2   2   2   2   2
#     4  12  26  45  68 101 141 181 223 285 338 408
#     4  10  22  43  68  98 133 182 225 280 334 398
#     4  11  26  43  67 102 139 176 233 278 342 404
#     4  10  23  45  73  95 140 180 229 282 338 398
#     4  10  24  42  70  98 140 176 226 276 339 403
#     4  11  25  43  68 104 135 181 227 279 341 404
#     4  10  24  47  68 104 137 182 228 277 339 408
#     4  12  26  41  71 100 135 180 230 275 346 404
#
# _framework density 23.059694
#
# number of rings (size 3 to 8) (size 9 to 14) (size 15 to 20)
#    0.000    1.250    1.250    3.750    8.750    7.500 
#    0.000    3.750    0.000    0.000    0.000    0.000 
#    0.000    0.000    0.000    0.000    0.000    0.000 
#
# Total GULP energy -89264.534611 kJ/mol
# GULP energy per Si atom -5579.033413 kJ/mol
# Density = 2.300721 g / cm^3
# Si number density = 23.059694 Si / 1000 Ang^3
#
#
#
# Elastic Constant Matrix: (Units=GPa)
#
#
# Indices 1 2 3 4 5 6 
#
# 1 132.7253 8.4858 25.5390 -6.6215 15.0047 8.8601
# 2 8.4858 56.4416 16.1664 -1.8937 -6.7097 16.6984
# 3 25.5390 16.1664 72.9246 7.0095 -0.9357 -1.9910
# 4 -6.6215 -1.8937 7.0095 45.3497 -2.2939 -2.7075
# 5 15.0047 -6.7097 -0.9357 -2.2939 34.9460 4.4952
# 6 8.8601 16.6984 -1.9910 -2.7075 4.4952 35.1718
#
#
#
# Elastic Compliance Matrix: (Units=1/GPa)
#
#
# Indices 1 2 3 4 5 6 
#
# 1 0.008769 -0.000263 -0.003248 0.001489 -0.003587 -0.001695
# 2 -0.000263 0.023742 -0.005559 0.001397 0.006184 -0.012203
# 3 -0.003248 -0.005559 0.016485 -0.003005 0.000037 0.004155
# 4 0.001489 0.001397 -0.003005 0.022867 0.000995 0.000425
# 5 -0.003587 0.006184 0.000037 0.000995 0.032190 -0.006068
# 6 -0.001695 -0.012203 0.004155 0.000425 -0.006068 0.035696
#
#
# Mechanical properties :
#
#
# Convention : Reuss Voigt Hill
#
# Bulk Modulus (GPa) = 32.40915 40.27489 36.34202
# Shear Modulus (GPa) = 29.73106 37.22017 33.47561
#
# Velocity S-wave (km/s) = 3.59459 4.02192 3.81424
# Velocity P-wave (km/s) = 5.59581 6.25069 5.93230
#
# Compressibility (1/GPa) = 0.03085548
#
# Stress axis : x y z
#
# Youngs Moduli (GPa) = 114.03669 42.12018 60.65959
#
# Poissons Ratio (x) = 0.01108 0.19703
# Poissons Ratio (y) = 0.03000 0.33722
# Poissons Ratio (z) = 0.37041 0.23415
#
# Static dielectric constant tensor:
#      x y z
#    x 2.038590 0.089080 -0.106000 
#    y 0.089080 1.906930 -0.076160 
#    z -0.106000 -0.076160 1.932010 
# 
# From -- ./inp_files/557212.got.cif
#   From: 2010.05.17/outbox.cif.g08.bks.cpg/sg2_279_cif.got.tgz:557212.got - 2010.06.03 11:33:40.
