data_PCOD9031171
_publ_section_title
;
Structure prediction by ZEFSAII (Michael W. Deem and Ramdas Pophale) SiO2 
 PCOD9031171
Probable space group: P -1
;
_chemical_formula_sum "Si O2"
_cell_formula_units_Z 12
_cell_length_a 16.329243
_cell_length_b 5.460671
_cell_length_c 15.610558
_cell_angle_alpha 116.584450
_cell_angle_beta 26.649984
_cell_angle_gamma 123.531280
_cell_volume 516.464517
_symmetry_space_group_name_H-M "P -1"
_symmetry_group_IT_number 2
_symmetry_cell_setting 'triclinic'
loop_
_space_group_symop_operation_xyz
x,y,z
-x,-y,-z
loop_
_atom_site_type_symbol
_atom_site_label
_atom_site_fract_x
_atom_site_fract_y
_atom_site_fract_z
Si Si1 0.268931 0.433669 0.212136
Si Si2 0.053183 0.908397 0.047014
Si Si3 0.268309 0.884782 0.684150
Si Si4 0.259030 0.488175 0.042029
Si Si5 0.277780 0.093455 0.317016
Si Si6 0.937348 0.682436 0.309597
O O1 0.199280 0.324407 0.164118
O O2 0.203705 0.223394 0.323087
O O3 0.243030 0.747228 0.293376
O O4 0.500000 0.500000 0.000000
O O5 0.009560 0.781335 0.162196
O O6 0.200687 0.250490 0.982450
O O7 0.164024 0.773529 0.856400
O O8 0.846487 0.901310 0.200651
O O9 0.214094 0.653236 0.620592
O O10 0.500000 0.000000 0.500000
O O11 0.121337 0.671919 0.188379
O O12 0.486638 0.709450 0.866125
O O13 0.176362 0.155442 0.505752
#
# Coordination Sequence:
#
# PCOD9031171 Si02
#       6
#     2   2   2   2   2   2
#     4  10  23  43  68  97 134 181 226 268 326 390
#     4  10  23  40  64  95 131 164 221 271 331 395
#     4  10  22  43  65  91 129 170 215 272 335 399
#     4  10  23  41  64  93 133 174 218 275 326 386
#     4  11  25  42  68  98 136 179 225 269 327 393
#     4  11  25  39  65 100 127 172 221 274 333 396
#
# _framework density 23.234895000000002
#
# number of rings (size 3 to 8) (size 9 to 14) (size 15 to 20)
#    0.000    1.667    0.000    3.500   11.667    3.333 
#    0.000    0.000    0.000    0.000    0.000    0.000 
#    0.000    0.000    0.000    0.000    0.000    0.000 
#
# Total GULP energy -67073.381194 kJ/mol
# GULP energy per Si atom -5589.448433 kJ/mol
# Density = 2.318201 g / cm^3
# Si number density = 23.234895 Si / 1000 Ang^3
#
#
#
# Elastic Constant Matrix: (Units=GPa)
#
#
# Indices 1 2 3 4 5 6 
#
# 1 156.7107 41.3102 72.4069 -0.7712 -4.9763 -5.3665
# 2 41.3102 91.1686 49.6242 15.0321 1.9591 1.5800
# 3 72.4069 49.6242 154.9708 5.0993 -0.2702 8.2301
# 4 -0.7712 15.0321 5.0993 46.9793 14.3898 6.8023
# 5 -4.9763 1.9591 -0.2702 14.3898 37.6974 4.7823
# 6 -5.3665 1.5800 8.2301 6.8023 4.7823 39.2160
#
#
#
# Elastic Compliance Matrix: (Units=1/GPa)
#
#
# Indices 1 2 3 4 5 6 
#
# 1 0.008645 -0.002209 -0.003450 0.000744 0.000721 0.001779
# 2 -0.002209 0.014627 -0.003530 -0.004602 0.000607 0.000574
# 3 -0.003450 -0.003530 0.009305 0.000424 -0.000069 -0.002348
# 4 0.000744 -0.004602 0.000424 0.025998 -0.009179 -0.003192
# 5 0.000721 0.000607 -0.000069 -0.009179 0.030350 -0.002020
# 6 0.001779 0.000574 -0.002348 -0.003192 -0.002020 0.027013
#
#
# Mechanical properties :
#
#
# Convention : Reuss Voigt Hill
#
# Bulk Modulus (GPa) = 70.41730 81.05920 75.73825
# Shear Modulus (GPa) = 35.95897 40.74578 38.35238
#
# Velocity S-wave (km/s) = 3.93826 4.19220 4.06721
# Velocity P-wave (km/s) = 7.14509 7.64168 7.39755
#
# Compressibility (1/GPa) = 0.01420106
#
# Stress axis : x y z
#
# Youngs Moduli (GPa) = 115.67793 68.36892 107.46376
#
# Poissons Ratio (x) = 0.15099 0.37070
# Poissons Ratio (y) = 0.25548 0.37932
# Poissons Ratio (z) = 0.39904 0.24132
#
# Static dielectric constant tensor:
#      x y z
#    x 1.877600 -0.023110 0.016830 
#    y -0.023110 2.040500 -0.040140 
#    z 0.016830 -0.040140 1.823630 
# 
# From -- ./inp_files/26660.got.cif
#   From: 2010.05.17/outbox.cif.g08.bks.cpg/sg2_14_cif.got.tgz:26660.got - 2010.06.03 11:33:40.
