data_PCOD9031194
_publ_section_title
;
Structure prediction by ZEFSAII (Michael W. Deem and Ramdas Pophale) SiO2 
 PCOD9031194
Probable space group: P -1
;
_chemical_formula_sum "Si O2"
_cell_formula_units_Z 12
_cell_length_a 8.269410
_cell_length_b 11.475277
_cell_length_c 11.262770
_cell_angle_alpha 39.750778
_cell_angle_beta 69.180130
_cell_angle_gamma 49.606401
_cell_volume 497.623727
_symmetry_space_group_name_H-M "P -1"
_symmetry_group_IT_number 2
_symmetry_cell_setting 'triclinic'
loop_
_space_group_symop_operation_xyz
x,y,z
-x,-y,-z
loop_
_atom_site_type_symbol
_atom_site_label
_atom_site_fract_x
_atom_site_fract_y
_atom_site_fract_z
Si Si1 0.074328 0.631247 0.262336
Si Si2 0.180253 0.553792 0.781124
Si Si3 0.237510 0.708957 0.401918
Si Si4 0.320868 0.125672 0.675856
Si Si5 0.182384 0.141099 0.164488
Si Si6 0.384141 0.674134 0.002927
O O1 0.145786 0.680877 0.328653
O O2 0.198861 0.355397 0.447265
O O3 0.181353 0.687153 0.091781
O O4 0.811687 0.782986 0.234754
O O5 0.145433 0.674787 0.571296
O O6 0.429618 0.427049 0.863420
O O7 0.009370 0.738256 0.780694
O O8 0.150559 0.354634 0.938314
O O9 0.500000 0.500000 0.500000
O O10 0.192354 0.952913 0.232454
O O11 0.576967 0.006509 0.719688
O O12 0.313070 0.924299 0.790521
O O13 0.500000 0.500000 0.000000
#
# Coordination Sequence:
#
# PCOD9031194 Si02
#       6
#     2   2   2   2   2   2
#     4  11  24  44  64  96 127 164 212 257 317 373
#     4  10  23  43  64  95 128 164 214 256 314 369
#     4  12  22  40  69  94 125 167 209 262 310 372
#     4  10  23  45  63  92 130 165 209 261 310 372
#     4  10  22  43  65  93 129 166 209 260 309 374
#     4  11  24  43  66  92 127 169 210 258 313 375
#
# _framework density 24.114606999999999
#
# number of rings (size 3 to 8) (size 9 to 14) (size 15 to 20)
#    0.000    1.333    3.333    1.000    2.333    2.667 
#   18.000    0.000    0.000    0.000    0.000    0.000 
#    0.000    0.000    0.000    0.000    0.000    0.000 
#
# Total GULP energy -67292.364244 kJ/mol
# GULP energy per Si atom -5607.697020 kJ/mol
# Density = 2.405972 g / cm^3
# Si number density = 24.114607 Si / 1000 Ang^3
#
#
#
# Elastic Constant Matrix: (Units=GPa)
#
#
# Indices 1 2 3 4 5 6 
#
# 1 68.1974 22.8110 44.8931 -14.7683 -14.5867 -11.7215
# 2 22.8110 97.2469 60.2227 -25.8397 -9.5309 -8.6466
# 3 44.8931 60.2227 115.8480 -23.7497 -29.4578 12.0340
# 4 -14.7683 -25.8397 -23.7497 50.2967 4.8536 -5.7896
# 5 -14.5867 -9.5309 -29.4578 4.8536 37.0736 -8.1826
# 6 -11.7215 -8.6466 12.0340 -5.7896 -8.1826 51.0763
#
#
#
# Elastic Compliance Matrix: (Units=1/GPa)
#
#
# Indices 1 2 3 4 5 6 
#
# 1 0.023421 0.002868 -0.009657 0.004494 0.003731 0.009243
# 2 0.002868 0.018097 -0.010408 0.006160 -0.001844 0.006577
# 3 -0.009657 -0.010408 0.020655 -0.000096 0.008287 -0.007528
# 4 0.004494 0.006160 -0.000096 0.024796 0.001153 0.005092
# 5 0.003731 -0.001844 0.008287 0.001153 0.035370 0.004388
# 6 0.009243 0.006577 -0.007528 0.005092 0.004388 0.025867
#
#
# Mechanical properties :
#
#
# Convention : Reuss Voigt Hill
#
# Bulk Modulus (GPa) = 35.99998 59.68287 47.84143
# Shear Modulus (GPa) = 26.06099 37.91367 31.98733
#
# Velocity S-wave (km/s) = 3.29099 3.96944 3.64603
# Velocity P-wave (km/s) = 5.42235 6.76845 6.13245
#
# Compressibility (1/GPa) = 0.02777779
#
# Stress axis : x y z
#
# Youngs Moduli (GPa) = 42.69693 55.25917 48.41554
#
# Poissons Ratio (x) = -0.15850 0.46756
# Poissons Ratio (y) = -0.12247 0.50392
# Poissons Ratio (z) = 0.41233 0.57515
#
# Static dielectric constant tensor:
#      x y z
#    x 1.956140 -0.014530 0.014850 
#    y -0.014530 1.871380 0.009130 
#    z 0.014850 0.009130 1.906440 
# 
# From -- ./inp_files/174213.got.cif
#   From: 2010.05.17/outbox.cif.g08.bks.cpg/sg2_88_cif.got.tgz:174213.got - 2010.06.03 11:33:40.
