data_PCOD9031177
_publ_section_title
;
Structure prediction by ZEFSAII (Michael W. Deem and Ramdas Pophale) SiO2 
 PCOD9031177
Probable space group: P -1
;
_chemical_formula_sum "Si O2"
_cell_formula_units_Z 12
_cell_length_a 10.296230
_cell_length_b 9.834491
_cell_length_c 11.111598
_cell_angle_alpha 64.764989
_cell_angle_beta 52.667665
_cell_angle_gamma 39.200157
_cell_volume 563.302790
_symmetry_space_group_name_H-M "P -1"
_symmetry_group_IT_number 2
_symmetry_cell_setting 'triclinic'
loop_
_space_group_symop_operation_xyz
x,y,z
-x,-y,-z
loop_
_atom_site_type_symbol
_atom_site_label
_atom_site_fract_x
_atom_site_fract_y
_atom_site_fract_z
Si Si1 0.688126 0.279495 0.232482
Si Si2 0.986231 0.119785 0.348915
Si Si3 0.602156 0.802124 0.600849
Si Si4 0.659726 0.278528 0.847104
Si Si5 0.837077 0.371073 0.907091
Si Si6 0.995971 0.575755 0.654415
O O1 0.777786 0.209520 0.343033
O O2 0.608848 0.173193 0.262941
O O3 0.460319 0.537032 0.255314
O O4 0.868912 0.247293 0.054153
O O5 0.966347 0.304212 0.330814
O O6 0.000000 0.000000 0.500000
O O7 0.215244 0.939934 0.205544
O O8 0.752741 0.755463 0.648398
O O9 0.793251 0.583668 0.497905
O O10 0.500000 0.000000 0.500000
O O11 0.837626 0.263572 0.830527
O O12 0.436267 0.393801 0.014069
O O13 0.983200 0.424953 0.788534
#
# Coordination Sequence:
#
# PCOD9031177 Si02
#       6
#     2   2   2   2   2   2
#     4  10  22  43  65  92 126 169 214 254 315 382
#     4  12  26  38  65  99 132 169 202 265 328 372
#     4  11  23  40  66  93 124 175 213 254 312 379
#     4   9  20  43  66  90 129 166 211 255 323 366
#     4   9  20  45  68  89 125 173 211 267 302 374
#     4  11  24  42  62  96 133 154 220 270 300 378
#
# _framework density 21.302931999999998
#
# number of rings (size 3 to 8) (size 9 to 14) (size 15 to 20)
#    1.000    0.667    1.667    2.000    4.667    6.000 
#    3.000    0.000    0.000    0.000    0.000    0.000 
#    0.000    0.000    0.000    0.000    0.000    0.000 
#
# Total GULP energy -66967.202306 kJ/mol
# GULP energy per Si atom -5580.600192 kJ/mol
# Density = 2.125445 g / cm^3
# Si number density = 21.302932 Si / 1000 Ang^3
#
#
#
# Elastic Constant Matrix: (Units=GPa)
#
#
# Indices 1 2 3 4 5 6 
#
# 1 78.6611 9.6261 26.3494 -7.9186 17.9978 -4.5370
# 2 9.6261 36.7576 4.8908 -0.8281 15.1054 2.3482
# 3 26.3494 4.8908 82.7069 -21.5765 -2.5380 1.7024
# 4 -7.9186 -0.8281 -21.5765 39.6372 -1.7695 14.0700
# 5 17.9978 15.1054 -2.5380 -1.7695 36.7230 -8.5097
# 6 -4.5370 2.3482 1.7024 14.0700 -8.5097 38.8573
#
#
#
# Elastic Compliance Matrix: (Units=1/GPa)
#
#
# Indices 1 2 3 4 5 6 
#
# 1 0.016505 -0.000207 -0.005584 -0.000284 -0.008294 0.000471
# 2 -0.000207 0.034253 -0.002088 0.000870 -0.015409 -0.005692
# 3 -0.005584 -0.002088 0.016662 0.009424 0.004340 -0.003718
# 4 -0.000284 0.000870 0.009424 0.035033 -0.000984 -0.013399
# 5 -0.008294 -0.015409 0.004340 -0.000984 0.039944 0.008877
# 6 0.000471 -0.005692 -0.003718 -0.013399 0.008877 0.033093
#
#
# Mechanical properties :
#
#
# Convention : Reuss Voigt Hill
#
# Bulk Modulus (GPa) = 19.35727 31.09535 25.22631
# Shear Modulus (GPa) = 23.98437 33.52744 28.75591
#
# Velocity S-wave (km/s) = 3.35904 3.97147 3.67803
# Velocity P-wave (km/s) = 4.91433 5.97148 5.46851
#
# Compressibility (1/GPa) = 0.05166017
#
# Stress axis : x y z
#
# Youngs Moduli (GPa) = 60.58735 29.19442 60.01774
#
# Poissons Ratio (x) = 0.00605 0.33517
# Poissons Ratio (y) = 0.01256 0.12533
# Poissons Ratio (z) = 0.33835 0.06096
#
# Static dielectric constant tensor:
#      x y z
#    x 1.745030 -0.052390 -0.025380 
#    y -0.052390 1.791670 0.011870 
#    z -0.025380 0.011870 1.797190 
# 
# From -- ./inp_files/381581.got.cif
#   From: 2010.05.17/outbox.cif.g08.bks.cpg/sg2_191_cif.got.tgz:381581.got - 2010.06.03 11:33:40.
