data_PCOD9031370
_publ_section_title
;
Structure prediction by ZEFSAII (Michael W. Deem and Ramdas Pophale) SiO2 
 PCOD9031370
Probable space group: P -1
;
_chemical_formula_sum "Si O2"
_cell_formula_units_Z 14
_cell_length_a 7.746952
_cell_length_b 9.343826
_cell_length_c 14.618395
_cell_angle_alpha 44.556616
_cell_angle_beta 85.635237
_cell_angle_gamma 106.625215
_cell_volume 646.765330
_symmetry_space_group_name_H-M "P -1"
_symmetry_group_IT_number 2
_symmetry_cell_setting 'triclinic'
loop_
_space_group_symop_operation_xyz
x,y,z
-x,-y,-z
loop_
_atom_site_type_symbol
_atom_site_label
_atom_site_fract_x
_atom_site_fract_y
_atom_site_fract_z
Si Si1 0.419232 0.727346 0.630119
Si Si2 0.196009 0.186981 0.690538
Si Si3 0.278456 0.636270 0.135962
Si Si4 0.349798 0.352987 0.938980
Si Si5 0.391492 0.520586 0.376585
Si Si6 0.072642 0.328251 0.119329
Si Si7 0.044632 0.276996 0.837859
O O1 0.451286 0.618691 0.773035
O O2 0.527573 0.651710 0.584245
O O3 0.183570 0.562854 0.697690
O O4 0.500000 0.000000 0.500000
O O5 0.237654 0.386049 0.523808
O O6 0.411304 0.260517 0.691572
O O7 0.059407 0.193205 0.774917
O O8 0.098765 0.935798 0.762701
O O9 0.493485 0.739082 0.033399
O O10 0.306219 0.581498 0.263876
O O11 0.144009 0.414344 0.179104
O O12 0.161688 0.780341 0.082474
O O13 0.253550 0.346034 0.042600
O O14 0.175524 0.224052 0.929253
O O15 0.000000 0.500000 0.000000
#
# Coordination Sequence:
#
# PCOD9031370 Si02
#       7
#     2   2   2   2   2   2   2
#     4   8  16  34  60  90 122 163 204 256 314 362
#     4  10  22  43  66  93 133 169 210 268 321 381
#     4  11  21  43  67  93 131 164 222 261 313 386
#     4   9  21  41  60  92 129 162 214 261 311 373
#     4   9  21  41  66  95 129 166 214 265 321 375
#     4  12  24  41  66  97 129 173 213 262 323 381
#     4   9  20  40  64  92 123 170 208 260 322 368
#
# _framework density 21.646184000000002
#
# number of rings (size 3 to 8) (size 9 to 14) (size 15 to 20)
#    0.857    1.429    2.857    0.429    4.000    1.714 
#    2.571    4.286    0.000    0.000    0.000    0.000 
#    0.000    0.000    0.000    0.000    0.000    0.000 
#
# Total GULP energy -78118.822488 kJ/mol
# GULP energy per Si atom -5579.915892 kJ/mol
# Density = 2.159692 g / cm^3
# Si number density = 21.646184 Si / 1000 Ang^3
#
#
#
# Elastic Constant Matrix: (Units=GPa)
#
#
# Indices 1 2 3 4 5 6 
#
# 1 114.0647 39.2383 16.0985 -5.7544 -11.9675 -12.4237
# 2 39.2383 119.2361 33.5038 3.7708 -4.5400 15.5486
# 3 16.0985 33.5038 81.7142 1.8502 -17.3033 -2.6414
# 4 -5.7544 3.7708 1.8502 34.0704 -5.2155 -2.8333
# 5 -11.9675 -4.5400 -17.3033 -5.2155 17.7118 12.1962
# 6 -12.4237 15.5486 -2.6414 -2.8333 12.1962 34.0687
#
#
#
# Elastic Compliance Matrix: (Units=1/GPa)
#
#
# Indices 1 2 3 4 5 6 
#
# 1 0.011448 -0.004520 0.000743 0.003566 0.005062 0.004780
# 2 -0.004520 0.012193 -0.004132 -0.002426 0.000858 -0.008042
# 3 0.000743 -0.004132 0.017836 0.002379 0.019900 -0.003386
# 4 0.003566 -0.002426 0.002379 0.032160 0.013212 0.000537
# 5 0.005062 0.000858 0.019900 0.013212 0.106984 -0.034203
# 6 0.004780 -0.008042 -0.003386 0.000537 -0.034203 0.046792
#
#
# Mechanical properties :
#
#
# Convention : Reuss Voigt Hill
#
# Bulk Modulus (GPa) = 38.97006 54.74403 46.85704
# Shear Modulus (GPa) = 19.85824 32.24846 26.05335
#
# Velocity S-wave (km/s) = 3.03215 3.86398 3.47306
# Velocity P-wave (km/s) = 5.50462 6.72699 6.14627
#
# Compressibility (1/GPa) = 0.02566073
#
# Stress axis : x y z
#
# Youngs Moduli (GPa) = 87.34881 82.01226 56.06551
#
# Poissons Ratio (x) = 0.37066 -0.04167
# Poissons Ratio (y) = 0.39478 0.23168
# Poissons Ratio (z) = -0.06492 0.33890
#
# Static dielectric constant tensor:
#      x y z
#    x 1.826650 0.014130 -0.024270 
#    y 0.014130 1.798660 -0.027100 
#    z -0.024270 -0.027100 1.814750 
# 
# From -- ./inp_files/494377.got.cif
#   From: 2010.05.17/outbox.cif.g08.bks.cpg/sg2_248_cif.got.tgz:494377.got - 2010.06.03 11:33:40.
