data_PCOD9031849
_publ_section_title
;
Structure prediction by ZEFSAII (Michael W. Deem and Ramdas Pophale) SiO2 
 PCOD9031849
Probable space group: P -1
;
_chemical_formula_sum "Si O2"
_cell_formula_units_Z 16
_cell_length_a 8.838452
_cell_length_b 5.309799
_cell_length_c 13.851632
_cell_angle_alpha 84.926073
_cell_angle_beta 74.470532
_cell_angle_gamma 75.605871
_cell_volume 606.502559
_symmetry_space_group_name_H-M "P -1"
_symmetry_group_IT_number 2
_symmetry_cell_setting 'triclinic'
loop_
_space_group_symop_operation_xyz
x,y,z
-x,-y,-z
loop_
_atom_site_type_symbol
_atom_site_label
_atom_site_fract_x
_atom_site_fract_y
_atom_site_fract_z
Si Si1 0.138938 0.525595 0.334604
Si Si2 0.356958 0.166011 0.085872
Si Si3 0.664467 0.998604 0.343377
Si Si4 0.591219 0.150318 0.733219
Si Si5 0.664788 0.389288 0.182267
Si Si6 0.863297 0.852626 0.495491
Si Si7 0.216809 0.761884 0.028669
Si Si8 0.942613 0.650287 0.179045
O O1 0.254360 0.727631 0.315141
O O2 0.204608 0.267368 0.395551
O O3 0.080375 0.510350 0.235908
O O4 0.967781 0.632669 0.415208
O O5 0.383182 0.111578 0.197681
O O6 0.223832 0.003312 0.087690
O O7 0.314133 0.468512 0.053683
O O8 0.500000 0.000000 0.000000
O O9 0.521779 0.864790 0.339541
O O10 0.721307 0.996740 0.443633
O O11 0.821737 0.868677 0.255340
O O12 0.616735 0.279656 0.294637
O O13 0.476451 0.357024 0.817802
O O14 0.831832 0.469459 0.167617
O O15 0.703781 0.206140 0.088999
O O16 0.000000 0.000000 0.500000
O O17 0.031787 0.744755 0.071046
#
# Coordination Sequence:
#
# PCOD9031849 Si02
#       8
#     2   2   2   2   2   2   2   2
#     4  10  22  43  68  96 132 169 229 280 353 414
#     4  12  25  43  66  99 141 186 239 287 342 404
#     4  10  24  42  65  95 137 175 227 283 354 410
#     4  11  24  42  65  97 136 183 223 285 344 418
#     4  11  24  41  64  94 139 182 227 286 341 405
#     4  10  22  43  71  97 126 172 222 291 349 420
#     4  12  26  41  71  99 137 193 240 288 340 409
#     4  10  23  42  62  99 130 181 228 288 338 412
#
# _framework density 26.380759000000001
#
# number of rings (size 3 to 8) (size 9 to 14) (size 15 to 20)
#    0.000    1.250    2.500    2.250    5.250    4.000 
#    0.000    1.250    0.000    0.000    0.000    0.000 
#    0.000    0.000    0.000    0.000    0.000    0.000 
#
# Total GULP energy -89515.452465 kJ/mol
# GULP energy per Si atom -5594.715779 kJ/mol
# Density = 2.632072 g / cm^3
# Si number density = 26.380759 Si / 1000 Ang^3
#
#
#
# Elastic Constant Matrix: (Units=GPa)
#
#
# Indices 1 2 3 4 5 6 
#
# 1 109.1294 21.3237 26.9446 -12.9117 -12.1324 12.2884
# 2 21.3237 68.8273 18.3411 -17.9720 11.9627 1.5734
# 3 26.9446 18.3411 149.1175 -18.2756 -4.0850 -6.6162
# 4 -12.9117 -17.9720 -18.2756 46.2298 -6.5300 -6.5785
# 5 -12.1324 11.9627 -4.0850 -6.5300 45.3651 -2.1163
# 6 12.2884 1.5734 -6.6162 -6.5785 -2.1163 50.0448
#
#
#
# Elastic Compliance Matrix: (Units=1/GPa)
#
#
# Indices 1 2 3 4 5 6 
#
# 1 0.011014 -0.003259 -0.001419 0.001433 0.003770 -0.002442
# 2 -0.003259 0.018000 -0.001123 0.005017 -0.004972 0.000535
# 3 -0.001419 -0.001123 0.007518 0.002536 0.001040 0.001755
# 4 0.001433 0.005017 0.002536 0.025912 0.003175 0.003366
# 5 0.003770 -0.004972 0.001040 0.003175 0.024953 0.000841
# 6 -0.002442 0.000535 0.001755 0.003366 0.000841 0.021275
#
#
# Mechanical properties :
#
#
# Convention : Reuss Voigt Hill
#
# Bulk Modulus (GPa) = 40.11124 51.14368 45.62746
# Shear Modulus (GPa) = 38.88527 45.69225 42.28876
#
# Velocity S-wave (km/s) = 3.84344 4.16628 4.00811
# Velocity P-wave (km/s) = 5.91048 6.52477 6.22521
#
# Compressibility (1/GPa) = 0.02493067
#
# Stress axis : x y z
#
# Youngs Moduli (GPa) = 90.79150 55.55502 133.01912
#
# Poissons Ratio (x) = 0.18108 0.18872
# Poissons Ratio (y) = 0.29593 0.14932
# Poissons Ratio (z) = 0.12881 0.06236
#
# Static dielectric constant tensor:
#      x y z
#    x 2.095110 -0.063910 0.053250 
#    y -0.063910 2.163810 -0.019310 
#    z 0.053250 -0.019310 2.062700 
# 
# From -- ./inp_files/55734.got.cif
#   From: 2010.05.17/outbox.cif.g08.bks.cpg/sg2_28_cif.got.tgz:55734.got - 2010.06.03 11:33:40.
