data_PCOD9031703
_publ_section_title
;
Structure prediction by ZEFSAII (Michael W. Deem and Ramdas Pophale) SiO2 
 PCOD9031703
Probable space group: P -1
;
_chemical_formula_sum "Si O2"
_cell_formula_units_Z 16
_cell_length_a 13.588887
_cell_length_b 11.670222
_cell_length_c 8.972922
_cell_angle_alpha 125.796977
_cell_angle_beta 50.466295
_cell_angle_gamma 136.075876
_cell_volume 739.751892
_symmetry_space_group_name_H-M "P -1"
_symmetry_group_IT_number 2
_symmetry_cell_setting 'triclinic'
loop_
_space_group_symop_operation_xyz
x,y,z
-x,-y,-z
loop_
_atom_site_type_symbol
_atom_site_label
_atom_site_fract_x
_atom_site_fract_y
_atom_site_fract_z
Si Si1 0.097151 0.679265 0.458915
Si Si2 0.949634 0.711782 0.157412
Si Si3 0.347669 0.338403 0.443645
Si Si4 0.494879 0.151491 0.049608
Si Si5 0.641315 0.526041 0.793124
Si Si6 0.054514 0.194518 0.108755
Si Si7 0.157296 0.658036 0.060757
Si Si8 0.440826 0.835369 0.331264
O O1 0.066967 0.638540 0.284560
O O2 0.275902 0.775693 0.383828
O O3 0.000000 0.500000 0.500000
O O4 0.057679 0.802846 0.663109
O O5 0.818170 0.732561 0.371627
O O6 0.127084 0.786244 0.095769
O O7 0.952452 0.744410 0.003749
O O8 0.890964 0.518020 0.102906
O O9 0.500000 0.500000 0.500000
O O10 0.389405 0.199021 0.273459
O O11 0.338455 0.398453 0.332709
O O12 0.674696 0.293401 0.011320
O O13 0.461749 0.132192 0.889114
O O14 0.500000 0.000000 0.000000
O O15 0.784061 0.660266 0.861753
O O16 0.598585 0.334123 0.674645
O O17 0.500000 0.500000 0.000000
O O18 0.000000 0.000000 0.000000
O O19 0.500000 0.000000 0.500000
#
# Coordination Sequence:
#
# PCOD9031703 Si02
#       8
#     2   2   2   2   2   2   2   2
#     4  11  21  44  70  94 137 182 233 285 346 415
#     4  11  23  41  72 104 136 177 242 283 353 423
#     4  12  25  43  74 104 140 194 233 290 363 422
#     4  11  25  46  65 100 148 180 231 292 354 420
#     4  12  25  47  72  99 145 183 235 292 353 422
#     4  12  27  45  71 105 141 186 237 295 354 420
#     4  10  22  43  68 100 135 184 230 292 347 416
#     4  11  26  43  72 106 134 184 240 292 350 419
#
# _framework density 21.628872000000001
#
# number of rings (size 3 to 8) (size 9 to 14) (size 15 to 20)
#    0.000    0.750    5.000    2.250    3.500    4.000 
#    0.000    1.875    0.000    0.000    0.000    0.000 
#    0.000    0.000    0.000    0.000    0.000    0.000 
#
# Total GULP energy -89107.707267 kJ/mol
# GULP energy per Si atom -5569.231704 kJ/mol
# Density = 2.157964 g / cm^3
# Si number density = 21.628872 Si / 1000 Ang^3
#
#
#
# Elastic Constant Matrix: (Units=GPa)
#
#
# Indices 1 2 3 4 5 6 
#
# 1 111.9125 20.7158 51.8960 5.9603 11.8896 -16.6877
# 2 20.7158 61.1448 23.3611 31.0562 4.4118 -8.6901
# 3 51.8960 23.3611 136.9747 18.9670 -19.5706 -5.2624
# 4 5.9603 31.0562 18.9670 42.9770 -3.9896 -3.9806
# 5 11.8896 4.4118 -19.5706 -3.9896 54.1907 0.5621
# 6 -16.6877 -8.6901 -5.2624 -3.9806 0.5621 22.8499
#
#
#
# Elastic Compliance Matrix: (Units=1/GPa)
#
#
# Indices 1 2 3 4 5 6 
#
# 1 0.013445 -0.002241 -0.005397 0.002474 -0.004620 0.008268
# 2 -0.002241 0.028803 -0.001701 -0.019601 -0.003969 0.005609
# 3 -0.005397 -0.001701 0.010588 -0.002483 0.004992 -0.002705
# 4 0.002474 -0.019601 -0.002483 0.038501 0.002987 0.000414
# 5 -0.004620 -0.003969 0.004992 0.002987 0.021852 -0.003751
# 6 0.008268 0.005609 -0.002705 0.000414 -0.003751 0.051477
#
#
# Mechanical properties :
#
#
# Convention : Reuss Voigt Hill
#
# Bulk Modulus (GPa) = 29.27451 55.77532 42.52491
# Shear Modulus (GPa) = 25.67675 38.27413 31.97544
#
# Velocity S-wave (km/s) = 3.44924 4.21121 3.84913
# Velocity P-wave (km/s) = 5.42470 7.03485 6.28158
#
# Compressibility (1/GPa) = 0.03415941
#
# Stress axis : x y z
#
# Youngs Moduli (GPa) = 74.37718 34.71884 94.44326
#
# Poissons Ratio (x) = 0.07781 0.50968
# Poissons Ratio (y) = 0.16669 0.16061
# Poissons Ratio (z) = 0.40139 0.05904
#
# Static dielectric constant tensor:
#      x y z
#    x 2.884360 0.865120 -0.398710 
#    y 0.865120 2.441670 -0.429280 
#    z -0.398710 -0.429280 1.998100 
# 
# From -- ./inp_files/308480.got.cif
#   From: 2010.05.17/outbox.cif.g08.bks.cpg/sg2_155_cif.got.tgz:308480.got - 2010.06.03 11:33:40.
