data_PCOD9031426
_publ_section_title
;
Structure prediction by ZEFSAII (Michael W. Deem and Ramdas Pophale) SiO2 
 PCOD9031426
Probable space group: P -1
;
_chemical_formula_sum "Si O2"
_cell_formula_units_Z 13
_cell_length_a 8.099444
_cell_length_b 11.427496
_cell_length_c 8.880387
_cell_angle_alpha 102.892861
_cell_angle_beta 49.084188
_cell_angle_gamma 115.045095
_cell_volume 560.952727
_symmetry_space_group_name_H-M "P -1"
_symmetry_group_IT_number 2
_symmetry_cell_setting 'triclinic'
loop_
_space_group_symop_operation_xyz
x,y,z
-x,-y,-z
loop_
_atom_site_type_symbol
_atom_site_label
_atom_site_fract_x
_atom_site_fract_y
_atom_site_fract_z
Si Si1 0.681396 0.629991 0.853572
Si Si2 0.796690 0.042447 0.944368
Si Si3 0.407441 0.301358 0.546163
Si Si4 0.000000 0.500000 0.500000
Si Si5 0.578214 0.838378 0.782437
Si Si6 0.888331 0.526816 0.229559
Si Si7 0.726053 0.819651 0.129821
O O1 0.853362 0.593737 0.631876
O O2 0.565307 0.712370 0.848166
O O3 0.500000 0.500000 0.000000
O O4 0.802231 0.730902 0.944575
O O5 0.667921 0.142403 0.053926
O O6 0.660144 0.923745 0.106698
O O7 0.058624 0.103103 0.867967
O O8 0.763415 0.967539 0.785761
O O9 0.355441 0.181517 0.431857
O O10 0.637710 0.409299 0.370476
O O11 0.193747 0.351429 0.699755
O O12 0.473518 0.273517 0.668112
O O13 0.025469 0.527350 0.303045
O O14 0.000000 0.500000 0.000000
#
# Coordination Sequence:
#
# PCOD9031426 Si02
#       7
#     2   2   2   1   2   2   2
#     4  11  24  42  65 102 138 176 227 288 351 424
#     4   9  22  44  70  96 131 191 232 289 353 397
#     4  11  24  42  66 104 136 182 229 288 355 425
#     4  12  24  40  66 100 134 188 222 272 352 422
#     4  10  22  43  66  96 139 176 232 287 347 419
#     4  11  26  44  66 105 147 184 230 285 361 431
#     4  10  22  43  71  99 136 178 239 292 339 425
#
# _framework density 23.174859999999999
#
# number of rings (size 3 to 8) (size 9 to 14) (size 15 to 20)
#    0.000    1.538    1.538    1.846    8.615    1.231 
#    0.000    0.769    6.769    0.000    0.000    0.000 
#    0.000    0.000    0.000    0.000    0.000    0.000 
#
# Total GULP energy -72442.501354 kJ/mol
# GULP energy per Si atom -5572.500104 kJ/mol
# Density = 2.312211 g / cm^3
# Si number density = 23.174860 Si / 1000 Ang^3
#
#
#
# Elastic Constant Matrix: (Units=GPa)
#
#
# Indices 1 2 3 4 5 6 
#
# 1 69.0980 23.4629 34.4086 18.4827 6.3351 -19.0391
# 2 23.4629 68.5036 53.4906 25.1913 -6.8906 -26.9212
# 3 34.4086 53.4906 169.1950 30.9194 14.8255 -13.0705
# 4 18.4827 25.1913 30.9194 37.7295 -2.7555 -0.5845
# 5 6.3351 -6.8906 14.8255 -2.7555 37.1944 7.9044
# 6 -19.0391 -26.9212 -13.0705 -0.5845 7.9044 42.1839
#
#
#
# Elastic Compliance Matrix: (Units=1/GPa)
#
#
# Indices 1 2 3 4 5 6 
#
# 1 0.021008 0.001461 -0.001507 -0.010285 -0.005783 0.010888
# 2 0.001461 0.033244 -0.006500 -0.017057 0.003194 0.019026
# 3 -0.001507 -0.006500 0.009066 -0.002699 -0.004503 -0.001213
# 4 -0.010285 -0.017057 -0.002699 0.045365 0.006637 -0.016979
# 5 -0.005783 0.003194 -0.004503 0.006637 0.032439 -0.007954
# 6 0.010888 0.019026 -0.001213 -0.016979 -0.007954 0.041641
#
#
# Mechanical properties :
#
#
# Convention : Reuss Voigt Hill
#
# Bulk Modulus (GPa) = 19.91012 58.83565 39.37289
# Shear Modulus (GPa) = 23.51859 36.45053 29.98456
#
# Velocity S-wave (km/s) = 3.18910 3.97022 3.60090
# Velocity P-wave (km/s) = 4.70854 6.81613 5.85790
#
# Compressibility (1/GPa) = 0.05022570
#
# Stress axis : x y z
#
# Youngs Moduli (GPa) = 47.60099 30.08078 110.30366
#
# Poissons Ratio (x) = -0.04394 0.16619
# Poissons Ratio (y) = -0.06953 0.71697
# Poissons Ratio (z) = 0.07172 0.19552
#
# Static dielectric constant tensor:
#      x y z
#    x 1.922020 0.015600 0.034450 
#    y 0.015600 1.973410 -0.068930 
#    z 0.034450 -0.068930 1.898370 
# 
# From -- ./inp_files/172008.got.cif
#   From: 2010.05.17/outbox.cif.g08.bks.cpg/sg2_87_cif.got.tgz:172008.got - 2010.06.03 11:33:40.
