data_PCOD9031558
_publ_section_title
;
Structure prediction by ZEFSAII (Michael W. Deem and Ramdas Pophale) SiO2 
 PCOD9031558
Probable space group: P -1
;
_chemical_formula_sum "Si O2"
_cell_formula_units_Z 16
_cell_length_a 8.829331
_cell_length_b 27.543538
_cell_length_c 5.376420
_cell_angle_alpha 90.030599
_cell_angle_beta 83.946095
_cell_angle_gamma 147.364835
_cell_volume 691.619171
_symmetry_space_group_name_H-M "P -1"
_symmetry_group_IT_number 2
_symmetry_cell_setting 'triclinic'
loop_
_space_group_symop_operation_xyz
x,y,z
-x,-y,-z
loop_
_atom_site_type_symbol
_atom_site_label
_atom_site_fract_x
_atom_site_fract_y
_atom_site_fract_z
Si Si1 0.388064 0.234871 0.026455
Si Si2 0.747261 0.471182 0.574160
Si Si3 0.575404 0.102038 0.554402
Si Si4 0.076838 0.657119 0.396742
Si Si5 0.440748 0.359386 0.130149
Si Si6 0.524369 0.185076 0.302736
Si Si7 0.760398 0.069703 0.142548
Si Si8 0.930319 0.250884 0.879773
O O1 0.643390 0.287575 0.799727
O O2 0.473224 0.310006 0.120002
O O3 0.345392 0.182914 0.248435
O O4 0.072445 0.154089 0.965634
O O5 0.639301 0.435465 0.875931
O O6 0.000000 0.500000 0.500000
O O7 0.869930 0.557484 0.497553
O O8 0.519132 0.398094 0.393080
O O9 0.448888 0.120099 0.492603
O O10 0.715019 0.104408 0.324034
O O11 0.838135 0.185939 0.695502
O O12 0.312639 0.999431 0.699817
O O13 0.197790 0.714658 0.623251
O O14 0.946652 0.666379 0.261241
O O15 0.130799 0.288345 0.069493
O O16 0.623893 0.184382 0.039269
O O17 0.500000 0.000000 0.000000
#
# Coordination Sequence:
#
# PCOD9031558 Si02
#       8
#     2   2   2   2   2   2   2   2
#     4  11  24  41  67  98 130 185 225 278 354 413
#     4  12  26  45  68 104 142 183 238 297 343 412
#     4  10  22  43  68  98 135 177 214 295 336 414
#     4  10  24  43  67  94 139 179 227 284 350 411
#     4  12  27  42  75 100 140 186 239 291 351 409
#     4  10  22  43  67  92 139 179 225 282 343 416
#     4  11  24  42  70 100 137 169 231 283 342 417
#     4  10  24  44  67  99 136 179 229 281 350 409
#
# _framework density 23.134118999999998
#
# number of rings (size 3 to 8) (size 9 to 14) (size 15 to 20)
#    0.000    1.250    1.250    3.375    8.750    3.500 
#    0.000    8.750    0.000    0.000    0.000    0.000 
#    0.000    0.000    0.000    0.000    0.000    0.000 
#
# Total GULP energy -89375.016275 kJ/mol
# GULP energy per Si atom -5585.938517 kJ/mol
# Density = 2.308146 g / cm^3
# Si number density = 23.134119 Si / 1000 Ang^3
#
#
#
# Elastic Constant Matrix: (Units=GPa)
#
#
# Indices 1 2 3 4 5 6 
#
# 1 107.1821 54.1785 39.6871 6.4143 15.4763 -23.8147
# 2 54.1785 117.5166 30.7014 -3.9669 1.2649 -29.9067
# 3 39.6871 30.7014 67.1156 13.3000 5.9564 -12.1788
# 4 6.4143 -3.9669 13.3000 44.9212 -4.0739 -2.1793
# 5 15.4763 1.2649 5.9564 -4.0739 38.3881 -0.5178
# 6 -23.8147 -29.9067 -12.1788 -2.1793 -0.5178 35.2119
#
#
#
# Elastic Compliance Matrix: (Units=1/GPa)
#
#
# Indices 1 2 3 4 5 6 
#
# 1 0.015542 -0.004527 -0.005572 -0.001229 -0.005321 0.004585
# 2 -0.004527 0.013355 -0.002919 0.003261 0.002285 0.007507
# 3 -0.005572 -0.002919 0.020915 -0.005762 -0.001506 0.000608
# 4 -0.001229 0.003261 -0.005762 0.024863 0.003942 0.001542
# 5 -0.005321 0.002285 -0.001506 0.003942 0.028751 -0.001512
# 6 0.004585 0.007507 0.000608 0.001542 -0.001512 0.038160
#
#
# Mechanical properties :
#
#
# Convention : Reuss Voigt Hill
#
# Bulk Modulus (GPa) = 42.05786 60.10537 51.08162
# Shear Modulus (GPa) = 28.48234 34.85407 31.66821
#
# Velocity S-wave (km/s) = 3.51263 3.88572 3.70387
# Velocity P-wave (km/s) = 5.88820 6.79481 6.35768
#
# Compressibility (1/GPa) = 0.02377677
#
# Stress axis : x y z
#
# Youngs Moduli (GPa) = 64.34229 74.87768 47.81177
#
# Poissons Ratio (x) = 0.33898 0.26639
# Poissons Ratio (y) = 0.29128 0.13957
# Poissons Ratio (z) = 0.35849 0.21858
#
# Static dielectric constant tensor:
#      x y z
#    x 1.929080 0.001650 0.048890 
#    y 0.001650 1.862260 -0.069520 
#    z 0.048890 -0.069520 1.949540 
# 
# From -- ./inp_files/51147.got.cif
#   From: 2010.05.17/outbox.cif.g08.bks.cpg/sg2_26_cif.got.tgz:51147.got - 2010.06.03 11:33:40.
