data_PCOD9031287
_publ_section_title
;
Structure prediction by ZEFSAII (Michael W. Deem and Ramdas Pophale) SiO2 
 PCOD9031287
Probable space group: P -1
;
_chemical_formula_sum "Si O2"
_cell_formula_units_Z 13
_cell_length_a 8.182415
_cell_length_b 8.105401
_cell_length_c 10.466985
_cell_angle_alpha 107.034736
_cell_angle_beta 124.531046
_cell_angle_gamma 59.643372
_cell_volume 493.457982
_symmetry_space_group_name_H-M "P -1"
_symmetry_group_IT_number 2
_symmetry_cell_setting 'triclinic'
loop_
_space_group_symop_operation_xyz
x,y,z
-x,-y,-z
loop_
_atom_site_type_symbol
_atom_site_label
_atom_site_fract_x
_atom_site_fract_y
_atom_site_fract_z
Si Si1 0.827476 0.409681 0.225978
Si Si2 0.708499 0.634272 0.674679
Si Si3 0.601415 0.246193 0.894469
Si Si4 0.142426 0.746039 0.233403
Si Si5 0.324576 0.134760 0.056509
Si Si6 0.500000 0.000000 0.500000
Si Si7 0.932135 0.897787 0.558599
O O1 0.658524 0.629649 0.193392
O O2 0.050609 0.371105 0.242169
O O3 0.699210 0.303221 0.074940
O O4 0.897755 0.314047 0.374580
O O5 0.751062 0.414512 0.647801
O O6 0.624501 0.721737 0.798864
O O7 0.564628 0.783509 0.539080
O O8 0.701482 0.303356 0.830189
O O9 0.687982 0.019553 0.884420
O O10 0.094718 0.960636 0.301116
O O11 0.908623 0.754755 0.090037
O O12 0.500000 0.000000 0.000000
O O13 0.690601 0.908900 0.452460
O O14 0.000000 0.000000 0.500000
#
# Coordination Sequence:
#
# PCOD9031287 Si02
#       7
#     2   2   2   2   2   1   2
#     4  10  22  43  66 100 136 177 222 286 340 415
#     4  11  25  46  66 101 139 177 233 277 344 416
#     4  11  22  39  70 100 138 173 221 282 356 396
#     4  12  25  43  72 101 136 179 228 292 346 407
#     4  12  25  40  70 102 141 180 223 284 348 410
#     4  10  26  48  72  92 140 188 228 288 336 412
#     4  11  26  49  71  98 140 185 239 285 344 413
#
# _framework density 26.344695000000002
#
# number of rings (size 3 to 8) (size 9 to 14) (size 15 to 20)
#    0.000    0.923    3.077    3.692    8.615    0.615 
#    5.538    1.538    0.000    0.000    0.000    0.000 
#    0.000    0.000    0.000    0.000    0.000    0.000 
#
# Total GULP energy -72599.127142 kJ/mol
# GULP energy per Si atom -5584.548242 kJ/mol
# Density = 2.628473 g / cm^3
# Si number density = 26.344695 Si / 1000 Ang^3
#
#
#
# Elastic Constant Matrix: (Units=GPa)
#
#
# Indices 1 2 3 4 5 6 
#
# 1 123.3031 14.8371 28.3073 -17.9745 -24.2001 -17.1315
# 2 14.8371 121.9999 26.2129 -34.9502 -2.2908 23.7485
# 3 28.3073 26.2129 61.8461 -29.2856 -3.3161 -2.8486
# 4 -17.9745 -34.9502 -29.2856 65.3173 2.3518 -6.0895
# 5 -24.2001 -2.2908 -3.3161 2.3518 30.2801 -4.8056
# 6 -17.1315 23.7485 -2.8486 -6.0895 -4.8056 42.1379
#
#
#
# Elastic Compliance Matrix: (Units=1/GPa)
#
#
# Indices 1 2 3 4 5 6 
#
# 1 0.012280 -0.001548 -0.003489 0.001267 0.010326 0.006989
# 2 -0.001548 0.011384 -0.002707 0.003883 -0.002069 -0.006903
# 3 -0.003489 -0.002707 0.022846 0.008115 -0.000686 0.002746
# 4 0.001267 0.003883 0.008115 0.021538 0.000853 0.002085
# 5 0.010326 -0.002069 -0.000686 0.000853 0.042614 0.010301
# 6 0.006989 -0.006903 0.002746 0.002085 0.010301 0.032125
#
#
# Mechanical properties :
#
#
# Convention : Reuss Voigt Hill
#
# Bulk Modulus (GPa) = 32.23524 49.54039 40.88782
# Shear Modulus (GPa) = 29.65339 43.39985 36.52662
#
# Velocity S-wave (km/s) = 3.35862 4.06320 3.72760
# Velocity P-wave (km/s) = 5.22523 6.39205 5.83786
#
# Compressibility (1/GPa) = 0.03102195
#
# Stress axis : x y z
#
# Youngs Moduli (GPa) = 81.43581 87.84525 43.77133
#
# Poissons Ratio (x) = 0.13594 0.15273
# Poissons Ratio (y) = 0.12602 0.11848
# Poissons Ratio (z) = 0.28415 0.23779
#
# Static dielectric constant tensor:
#      x y z
#    x 1.508300 0.170870 -0.006900 
#    y 0.170870 1.899680 0.049850 
#    z -0.006900 0.049850 2.134810 
# 
# From -- ./inp_files/145996.got.cif
#   From: 2010.05.17/outbox.cif.g08.bks.cpg/sg2_73_cif.got.tgz:145996.got - 2010.06.03 11:33:40.
