data_PCOD9031675
_publ_section_title
;
Structure prediction by ZEFSAII (Michael W. Deem and Ramdas Pophale) SiO2 
 PCOD9031675
Probable space group: P -1
;
_chemical_formula_sum "Si O2"
_cell_formula_units_Z 16
_cell_length_a 17.665793
_cell_length_b 8.542898
_cell_length_c 12.247612
_cell_angle_alpha 29.776946
_cell_angle_beta 57.697251
_cell_angle_gamma 50.597888
_cell_volume 708.647444
_symmetry_space_group_name_H-M "P -1"
_symmetry_group_IT_number 2
_symmetry_cell_setting 'triclinic'
loop_
_space_group_symop_operation_xyz
x,y,z
-x,-y,-z
loop_
_atom_site_type_symbol
_atom_site_label
_atom_site_fract_x
_atom_site_fract_y
_atom_site_fract_z
Si Si1 0.912426 0.183794 0.541406
Si Si2 0.997234 0.130373 0.740129
Si Si3 0.220552 0.718876 0.864027
Si Si4 0.467878 0.813320 0.046035
Si Si5 0.747683 0.964927 0.881658
Si Si6 0.626480 0.037817 0.409414
Si Si7 0.826360 0.984661 0.056653
Si Si8 0.524899 0.099211 0.245735
O O1 0.870161 0.598200 0.307744
O O2 0.968047 0.048523 0.693774
O O3 0.819144 0.082383 0.682667
O O4 0.000000 0.000000 0.500000
O O5 0.000000 0.500000 0.500000
O O6 0.104359 0.876177 0.847165
O O7 0.914249 0.104567 0.895968
O O8 0.269487 0.974360 0.627996
O O9 0.240559 0.741312 0.965932
O O10 0.253736 0.374382 0.973528
O O11 0.555716 0.438995 0.204923
O O12 0.366541 0.790130 0.167679
O O13 0.454308 0.034442 0.811928
O O14 0.500000 0.000000 0.000000
O O15 0.783556 0.949512 0.991036
O O16 0.615051 0.914143 0.371084
O O17 0.570917 0.907166 0.619366
O O18 0.500000 0.500000 0.000000
#
# Coordination Sequence:
#
# PCOD9031675 Si02
#       8
#     2   2   2   2   2   2   2   2
#     4  11  24  45  70 100 137 178 218 283 345 399
#     4  11  24  44  66 100 133 172 224 279 333 407
#     4  12  23  44  72  99 134 177 231 274 339 406
#     4  11  22  44  64  94 140 171 222 280 332 393
#     4  11  26  44  68 104 134 178 230 275 336 411
#     4  10  22  43  67  99 129 178 228 274 338 402
#     4  11  25  46  69  97 138 179 221 279 344 400
#     4   9  21  42  66  91 134 175 220 282 333 393
#
# _framework density 22.578223000000001
#
# number of rings (size 3 to 8) (size 9 to 14) (size 15 to 20)
#    0.000    1.250    2.500    2.625    1.750    6.500 
#    9.000    0.000    0.000    0.000    0.000    0.000 
#    0.000    0.000    0.000    0.000    0.000    0.000 
#
# Total GULP energy -89246.827675 kJ/mol
# GULP energy per Si atom -5577.926730 kJ/mol
# Density = 2.252683 g / cm^3
# Si number density = 22.578223 Si / 1000 Ang^3
#
#
#
# Elastic Constant Matrix: (Units=GPa)
#
#
# Indices 1 2 3 4 5 6 
#
# 1 120.6745 41.3714 45.8446 19.5480 -20.7429 6.0370
# 2 41.3714 85.1171 15.4472 13.1028 9.6498 20.2582
# 3 45.8446 15.4472 105.0274 23.9190 -18.4851 15.6643
# 4 19.5480 13.1028 23.9190 34.1467 -11.9505 -5.5142
# 5 -20.7429 9.6498 -18.4851 -11.9505 30.2399 5.8272
# 6 6.0370 20.2582 15.6643 -5.5142 5.8272 36.5313
#
#
#
# Elastic Compliance Matrix: (Units=1/GPa)
#
#
# Indices 1 2 3 4 5 6 
#
# 1 0.013774 -0.007965 -0.003879 0.001728 0.009821 0.002498
# 2 -0.007965 0.021102 0.002325 -0.011575 -0.013227 -0.011020
# 3 -0.003879 0.002325 0.015036 -0.009325 0.003861 -0.009119
# 4 0.001728 -0.011575 -0.009325 0.046858 0.014838 0.014838
# 5 0.009821 -0.013227 0.003861 0.014838 0.052655 -0.002103
# 6 0.002498 -0.011020 -0.009119 0.014838 -0.002103 0.039557
#
#
# Mechanical properties :
#
#
# Convention : Reuss Voigt Hill
#
# Bulk Modulus (GPa) = 32.38994 57.34949 44.86971
# Shear Modulus (GPa) = 22.90301 34.06062 28.48181
#
# Velocity S-wave (km/s) = 3.18840 3.88823 3.55558
# Velocity P-wave (km/s) = 5.28501 6.75376 6.06402
#
# Compressibility (1/GPa) = 0.03087378
#
# Stress axis : x y z
#
# Youngs Moduli (GPa) = 72.60006 47.38837 66.50846
#
# Poissons Ratio (x) = 0.37745 0.25797
# Poissons Ratio (y) = 0.57826 -0.15461
# Poissons Ratio (z) = 0.28159 -0.11016
#
# Static dielectric constant tensor:
#      x y z
#    x 1.742170 -0.091190 -0.065650 
#    y -0.091190 1.750490 -0.046920 
#    z -0.065650 -0.046920 1.819390 
# 
# From -- ./inp_files/461746.got.cif
#   From: 2010.05.17/outbox.cif.g08.bks.cpg/sg2_231_cif.got.tgz:461746.got - 2010.06.03 11:33:40.
