data_PCOD9031062
_publ_section_title
;
Structure prediction by ZEFSAII (Michael W. Deem and Ramdas Pophale) SiO2 
 PCOD9031062
Probable space group: P -1
;
_chemical_formula_sum "Si O2"
_cell_formula_units_Z 16
_cell_length_a 10.266929
_cell_length_b 6.543141
_cell_length_c 13.860075
_cell_angle_alpha 77.528502
_cell_angle_beta 102.746984
_cell_angle_gamma 134.862257
_cell_volume 641.242658
_symmetry_space_group_name_H-M "P -1"
_symmetry_group_IT_number 2
_symmetry_cell_setting 'triclinic'
loop_
_space_group_symop_operation_xyz
x,y,z
-x,-y,-z
loop_
_atom_site_type_symbol
_atom_site_label
_atom_site_fract_x
_atom_site_fract_y
_atom_site_fract_z
Si Si1 0.027588 0.278768 0.026337
Si Si2 0.428149 0.513505 0.088008
Si Si3 0.224898 0.964707 0.812128
Si Si4 0.689142 0.793499 0.548654
Si Si5 0.987542 0.311537 0.804982
Si Si6 0.924309 0.848185 0.358371
Si Si7 0.395209 0.094131 0.269584
Si Si8 0.334930 0.804387 0.571898
O O1 0.969775 0.166925 0.917739
O O2 0.898421 0.076592 0.115060
O O3 0.000000 0.500000 0.000000
O O4 0.572768 0.821734 0.132718
O O5 0.427943 0.306980 0.175385
O O6 0.236806 0.430746 0.057664
O O7 0.500000 0.500000 0.000000
O O8 0.145126 0.652106 0.808131
O O9 0.197326 0.089122 0.704391
O O10 0.500000 0.500000 0.500000
O O11 0.633431 0.810908 0.644634
O O12 0.881443 0.877725 0.588401
O O13 0.756194 0.070038 0.471086
O O14 0.022831 0.213428 0.726392
O O15 0.794343 0.219803 0.760999
O O16 0.800657 0.540409 0.425112
O O17 0.559059 0.113946 0.318295
O O18 0.500000 0.000000 0.500000
#
# Coordination Sequence:
#
# PCOD9031062 Si02
#       8
#     2   2   2   2   2   2   2   2
#     4  10  23  43  64 104 152 189 241 304 363 429
#     4  12  24  42  75 106 146 197 251 299 364 448
#     4  11  24  43  70 105 142 194 248 295 365 445
#     4  10  23  41  71 102 131 188 238 299 375 444
#     4  10  23  41  66  98 137 191 231 293 365 431
#     4  11  22  44  68  99 142 182 239 304 369 439
#     4  10  22  43  65  99 142 179 235 301 361 431
#     4  10  22  43  64  92 137 176 232 298 370 424
#
# _framework density 24.951554000000002
#
# number of rings (size 3 to 8) (size 9 to 14) (size 15 to 20)
#    0.000    1.500    1.250    3.375    1.750    4.500 
#    4.500    2.500    0.000    0.000    0.000    0.000 
#    0.000    0.000    0.000    0.000    0.000    0.000 
#
# Total GULP energy -89482.411920 kJ/mol
# GULP energy per Si atom -5592.650745 kJ/mol
# Density = 2.489476 g / cm^3
# Si number density = 24.951554 Si / 1000 Ang^3
#
#
#
# Elastic Constant Matrix: (Units=GPa)
#
#
# Indices 1 2 3 4 5 6 
#
# 1 67.8605 10.5601 52.9833 6.5926 8.5623 23.5262
# 2 10.5601 156.0677 65.4223 21.9157 19.9819 19.4307
# 3 52.9833 65.4223 160.9380 1.1573 8.8056 9.7869
# 4 6.5926 21.9157 1.1573 50.9948 6.5100 11.3142
# 5 8.5623 19.9819 8.8056 6.5100 49.8140 7.1677
# 6 23.5262 19.4307 9.7869 11.3142 7.1677 38.2337
#
#
#
# Elastic Compliance Matrix: (Units=1/GPa)
#
#
# Indices 1 2 3 4 5 6 
#
# 1 0.027850 0.004854 -0.010017 -0.001572 -0.002439 -0.016117
# 2 0.004854 0.009609 -0.005023 -0.003162 -0.002646 -0.005153
# 3 -0.010017 -0.005023 0.011185 0.001964 0.000765 0.005129
# 4 -0.001572 -0.003162 0.001964 0.022221 -0.001094 -0.004299
# 5 -0.002439 -0.002646 0.000765 -0.001094 0.021721 -0.001099
# 6 -0.016117 -0.005153 0.005129 -0.004299 -0.001099 0.038856
#
#
# Mechanical properties :
#
#
# Convention : Reuss Voigt Hill
#
# Bulk Modulus (GPa) = 35.37069 71.42194 53.39631
# Shear Modulus (GPa) = 31.00993 44.86854 37.93924
#
# Velocity S-wave (km/s) = 3.52917 4.24515 3.90361
# Velocity P-wave (km/s) = 5.55097 7.26050 6.46251
#
# Compressibility (1/GPa) = 0.02827199
#
# Stress axis : x y z
#
# Youngs Moduli (GPa) = 35.90720 104.06744 89.40159
#
# Poissons Ratio (x) = -0.50517 0.89553
# Poissons Ratio (y) = -0.17430 0.44910
# Poissons Ratio (z) = 0.35968 0.52277
#
# Static dielectric constant tensor:
#      x y z
#    x 1.987740 -0.029090 -0.025020 
#    y -0.029090 1.973550 -0.015230 
#    z -0.025020 -0.015230 2.000940 
# 
# From -- ./inp_files/528394.got.cif
#   From: 2010.05.17/outbox.cif.g08.bks.cpg/sg2_265_cif.got.tgz:528394.got - 2010.06.03 11:33:40.
