data_PCOD9031938
_publ_section_title
;
Structure prediction by ZEFSAII (Michael W. Deem and Ramdas Pophale) SiO2 
 PCOD9031938
Probable space group: P -1
;
_chemical_formula_sum "Si O2"
_cell_formula_units_Z 14
_cell_length_a 13.108226
_cell_length_b 9.289040
_cell_length_c 5.460421
_cell_angle_alpha 72.558330
_cell_angle_beta 118.038924
_cell_angle_gamma 114.096341
_cell_volume 530.883804
_symmetry_space_group_name_H-M "P -1"
_symmetry_group_IT_number 2
_symmetry_cell_setting 'triclinic'
loop_
_space_group_symop_operation_xyz
x,y,z
-x,-y,-z
loop_
_atom_site_type_symbol
_atom_site_label
_atom_site_fract_x
_atom_site_fract_y
_atom_site_fract_z
Si Si1 0.943127 0.125867 0.619266
Si Si2 0.266041 0.875685 0.986532
Si Si3 0.092605 0.608922 0.242302
Si Si4 0.816192 0.655440 0.317631
Si Si5 0.748868 0.860649 0.778215
Si Si6 0.431998 0.516519 0.664634
Si Si7 0.502954 0.141910 0.611835
O O1 0.966464 0.267760 0.769008
O O2 0.928930 0.818597 0.408664
O O3 0.879401 0.958392 0.762603
O O4 0.832868 0.143815 0.323587
O O5 0.208004 0.725711 0.174295
O O6 0.398497 0.866022 0.068496
O O7 0.270612 0.033324 0.065888
O O8 0.132478 0.493677 0.532839
O O9 0.000000 0.500000 0.000000
O O10 0.704911 0.604434 0.409214
O O11 0.756525 0.696645 0.981096
O O12 0.633705 0.859301 0.479761
O O13 0.500000 0.500000 0.500000
O O14 0.440573 0.699395 0.563521
O O15 0.500000 0.500000 0.000000
O O16 0.500000 0.000000 0.500000
#
# Coordination Sequence:
#
# PCOD9031938 Si02
#       7
#     2   2   2   2   2   2   2
#     4  11  25  44  70 107 147 197 250 306 380 463
#     4  10  22  43  68  99 145 191 251 302 375 451
#     4  11  23  43  68 104 142 190 250 306 379 456
#     4  12  24  45  75 104 151 189 247 319 382 457
#     4  10  24  45  67 107 147 192 254 296 383 450
#     4  12  28  51  76 115 155 199 261 329 399 465
#     4  10  22  49  74 104 152 206 256 314 382 464
#
# _framework density 26.371119
#
# number of rings (size 3 to 8) (size 9 to 14) (size 15 to 20)
#    0.000    1.143    4.286    0.857    0.000    4.571 
#    2.571    0.000    0.000    0.000    0.000    0.000 
#    0.000    0.000    0.000    0.000    0.000    0.000 
#
# Total GULP energy -78348.758568 kJ/mol
# GULP energy per Si atom -5596.339898 kJ/mol
# Density = 2.631110 g / cm^3
# Si number density = 26.371119 Si / 1000 Ang^3
#
#
#
# Elastic Constant Matrix: (Units=GPa)
#
#
# Indices 1 2 3 4 5 6 
#
# 1 171.0300 57.8831 52.4388 -8.8789 16.1383 37.4037
# 2 57.8831 106.5295 41.8828 -30.6950 -6.6879 4.2542
# 3 52.4388 41.8828 109.4638 -14.2871 21.5475 -7.6102
# 4 -8.8789 -30.6950 -14.2871 54.5034 3.7952 -7.1278
# 5 16.1383 -6.6879 21.5475 3.7952 52.1323 -5.8659
# 6 37.4037 4.2542 -7.6102 -7.1278 -5.8659 54.1968
#
#
#
# Elastic Compliance Matrix: (Units=1/GPa)
#
#
# Indices 1 2 3 4 5 6 
#
# 1 0.010532 -0.005093 -0.003402 -0.002877 -0.003206 -0.008072
# 2 -0.005093 0.015733 -0.003356 0.007245 0.004824 0.003284
# 3 -0.003402 -0.003356 0.013515 0.001979 -0.004627 0.004269
# 4 -0.002877 0.007245 0.001979 0.023105 -0.000149 0.004717
# 5 -0.003206 0.004824 -0.004627 -0.000149 0.023130 0.003668
# 6 -0.008072 0.003284 0.004269 0.004717 0.003668 0.025381
#
#
# Mechanical properties :
#
#
# Convention : Reuss Voigt Hill
#
# Bulk Modulus (GPa) = 62.19499 76.82585 69.51042
# Shear Modulus (GPa) = 35.59801 47.82106 41.70954
#
# Velocity S-wave (km/s) = 3.67807 4.26301 3.98129
# Velocity P-wave (km/s) = 6.45548 7.30936 6.89565
#
# Compressibility (1/GPa) = 0.01607847
#
# Stress axis : x y z
#
# Youngs Moduli (GPa) = 94.94585 63.56176 73.99078
#
# Poissons Ratio (x) = 0.32371 0.25175
# Poissons Ratio (y) = 0.48355 0.24828
# Poissons Ratio (z) = 0.32304 0.21329
#
# Static dielectric constant tensor:
#      x y z
#    x 2.195340 0.029480 -0.031380 
#    y 0.029480 1.844770 0.242160 
#    z -0.031380 0.242160 1.705000 
# 
# From -- ./inp_files/104826.got.cif
#   From: 2010.05.17/outbox.cif.g08.bks.cpg/sg2_53_cif.got.tgz:104826.got - 2010.06.03 11:33:40.
