data_PCOD9031869
_publ_section_title
;
Structure prediction by ZEFSAII (Michael W. Deem and Ramdas Pophale) SiO2 
 PCOD9031869
Probable space group: P -1
;
_chemical_formula_sum "Si O2"
_cell_formula_units_Z 10
_cell_length_a 12.691135
_cell_length_b 5.306449
_cell_length_c 9.055165
_cell_angle_alpha 98.114834
_cell_angle_beta 51.163260
_cell_angle_gamma 66.881963
_cell_volume 367.488193
_symmetry_space_group_name_H-M "P -1"
_symmetry_group_IT_number 2
_symmetry_cell_setting 'triclinic'
loop_
_space_group_symop_operation_xyz
x,y,z
-x,-y,-z
loop_
_atom_site_type_symbol
_atom_site_label
_atom_site_fract_x
_atom_site_fract_y
_atom_site_fract_z
Si Si1 0.696995 0.246322 0.042379
Si Si2 0.088564 0.668984 0.303011
Si Si3 0.579578 0.786868 0.559417
Si Si4 0.960302 0.431302 0.187874
Si Si5 0.659129 0.958120 0.784719
O O1 0.540093 0.301309 0.276983
O O2 0.768146 0.444420 0.961554
O O3 0.670381 0.200122 0.889293
O O4 0.872567 0.914887 0.927098
O O5 0.181061 0.394634 0.323328
O O6 0.945695 0.686064 0.335694
O O7 0.000000 0.000000 0.500000
O O8 0.783236 0.474445 0.337866
O O9 0.603038 0.996221 0.668863
O O10 0.500000 0.000000 0.500000
O O11 0.000000 0.500000 0.000000
O O12 0.500000 0.000000 0.000000
#
# Coordination Sequence:
#
# PCOD9031869 Si02
#       5
#     2   2   2   2   2
#     4  10  22  43  68  97 132 176 227 281 337 401
#     4  11  23  42  72 103 131 176 235 283 336 403
#     4  11  21  39  65  94 130 179 220 268 337 403
#     4  11  23  43  67  95 141 179 219 280 346 401
#     4   9  21  40  68  94 135 175 225 278 337 398
#
# _framework density 27.211756000000001
#
# number of rings (size 3 to 8) (size 9 to 14) (size 15 to 20)
#    0.000    1.600    2.000    2.400    0.000    7.200 
#    0.000   11.000    0.000    0.000    0.000    0.000 
#    0.000    0.000    0.000    0.000    0.000    0.000 
#
# Total GULP energy -55864.550031 kJ/mol
# GULP energy per Si atom -5586.455003 kJ/mol
# Density = 2.714982 g / cm^3
# Si number density = 27.211756 Si / 1000 Ang^3
#
#
#
# Elastic Constant Matrix: (Units=GPa)
#
#
# Indices 1 2 3 4 5 6 
#
# 1 157.0928 65.1057 82.9324 -24.5561 -26.2594 -46.4183
# 2 65.1057 103.8283 52.6235 -31.1977 -2.2915 -30.5948
# 3 82.9324 52.6235 149.9648 -37.3141 -48.4958 -14.2409
# 4 -24.5561 -31.1977 -37.3141 57.3520 -0.5349 -4.1789
# 5 -26.2594 -2.2915 -48.4958 -0.5349 90.0538 -13.3266
# 6 -46.4183 -30.5948 -14.2409 -4.1789 -13.3266 51.5033
#
#
#
# Elastic Compliance Matrix: (Units=1/GPa)
#
#
# Indices 1 2 3 4 5 6 
#
# 1 0.013664 -0.002487 -0.003802 0.002852 0.003507 0.010925
# 2 -0.002487 0.016611 -0.002005 0.007219 -0.000214 0.007602
# 3 -0.003802 -0.002005 0.012965 0.005845 0.006004 0.000995
# 4 0.002852 0.007219 0.005845 0.027339 0.006143 0.012283
# 5 0.003507 -0.000214 0.006004 0.006143 0.016803 0.009540
# 6 0.010925 0.007602 0.000995 0.012283 0.009540 0.037519
#
#
# Mechanical properties :
#
#
# Convention : Reuss Voigt Hill
#
# Bulk Modulus (GPa) = 37.52109 90.24547 63.88328
# Shear Modulus (GPa) = 33.25035 53.79676 43.52355
#
# Velocity S-wave (km/s) = 3.49938 4.45113 4.00364
# Velocity P-wave (km/s) = 5.49054 7.72353 6.70071
#
# Compressibility (1/GPa) = 0.02665168
#
# Stress axis : x y z
#
# Youngs Moduli (GPa) = 73.18447 60.19984 77.13139
#
# Poissons Ratio (x) = 0.14973 0.29327
# Poissons Ratio (y) = 0.18203 0.15464
# Poissons Ratio (z) = 0.27827 0.12069
#
# Static dielectric constant tensor:
#      x y z
#    x 1.683030 -0.065540 -0.067480 
#    y -0.065540 2.030710 0.068250 
#    z -0.067480 0.068250 2.529890 
# 
# From -- ./inp_files/16094.got.cif
#   From: 2010.05.17/outbox.cif.g08.bks.cpg/sg2_9_cif.got.tgz:16094.got - 2010.06.03 11:33:40.
