data_PCOD9031872
_publ_section_title
;
Structure prediction by ZEFSAII (Michael W. Deem and Ramdas Pophale) SiO2 
 PCOD9031872
Probable space group: P -1
;
_chemical_formula_sum "Si O2"
_cell_formula_units_Z 16
_cell_length_a 6.835589
_cell_length_b 10.901619
_cell_length_c 20.124185
_cell_angle_alpha 42.128293
_cell_angle_beta 48.498138
_cell_angle_gamma 60.977391
_cell_volume 753.326613
_symmetry_space_group_name_H-M "P -1"
_symmetry_group_IT_number 2
_symmetry_cell_setting 'triclinic'
loop_
_space_group_symop_operation_xyz
x,y,z
-x,-y,-z
loop_
_atom_site_type_symbol
_atom_site_label
_atom_site_fract_x
_atom_site_fract_y
_atom_site_fract_z
Si Si1 0.901455 0.201047 0.410977
Si Si2 0.856801 0.747652 0.373902
Si Si3 0.342256 0.504319 0.741859
Si Si4 0.228040 0.052266 0.119700
Si Si5 0.782468 0.905005 0.044150
Si Si6 0.560868 0.953341 0.656834
Si Si7 0.905717 0.339402 0.134832
Si Si8 0.933771 0.637326 0.550500
O O1 0.770609 0.378481 0.339655
O O2 0.167902 0.134615 0.342039
O O3 0.967060 0.252117 0.452331
O O4 0.684696 0.037972 0.526573
O O5 0.898181 0.747403 0.444958
O O6 0.874678 0.534766 0.436157
O O7 0.608173 0.866676 0.357332
O O8 0.099565 0.857231 0.243286
O O9 0.301297 0.289774 0.829432
O O10 0.170420 0.568413 0.816744
O O11 0.644871 0.556257 0.663689
O O12 0.136982 0.193212 0.139174
O O13 0.534680 0.035859 0.050323
O O14 0.131573 0.116594 0.043102
O O15 0.000000 0.000000 0.000000
O O16 0.349276 0.789184 0.772041
O O17 0.000000 0.500000 0.000000
#
# Coordination Sequence:
#
# PCOD9031872 Si02
#       8
#     2   2   2   2   2   2   2   2
#     4  11  25  42  68 101 134 177 219 279 337 403
#     4  10  22  43  68  97 133 174 216 278 333 394
#     4  12  24  45  68  99 133 181 221 269 349 397
#     4  10  23  45  68  97 133 175 221 278 329 388
#     4  11  25  44  69  98 133 178 226 270 335 396
#     4  10  23  42  65  99 131 170 227 267 337 393
#     4  11  23  45  69  92 135 179 225 275 323 400
#     4  11  23  44  68  96 137 172 217 274 343 402
#
# _framework density 21.239128999999998
#
# number of rings (size 3 to 8) (size 9 to 14) (size 15 to 20)
#    0.000    1.250    5.000    0.000    1.750    6.500 
#    9.000    1.250    0.000    0.000    0.000    0.000 
#    0.000    0.000    0.000    0.000    0.000    0.000 
#
# Total GULP energy -89179.409244 kJ/mol
# GULP energy per Si atom -5573.713078 kJ/mol
# Density = 2.119079 g / cm^3
# Si number density = 21.239129 Si / 1000 Ang^3
#
#
#
# Elastic Constant Matrix: (Units=GPa)
#
#
# Indices 1 2 3 4 5 6 
#
# 1 65.1360 33.9916 34.7802 0.2536 -8.9410 -6.1891
# 2 33.9916 93.4517 3.4408 1.7130 -6.8590 -17.6065
# 3 34.7802 3.4408 119.3252 -11.0934 -5.6055 5.5278
# 4 0.2536 1.7130 -11.0934 39.3851 -6.2891 -0.2430
# 5 -8.9410 -6.8590 -5.6055 -6.2891 26.2302 1.0321
# 6 -6.1891 -17.6065 5.5278 -0.2430 1.0321 16.9544
#
#
#
# Elastic Compliance Matrix: (Units=1/GPa)
#
#
# Indices 1 2 3 4 5 6 
#
# 1 0.023728 -0.007528 -0.006717 -0.001008 0.004334 0.002756
# 2 -0.007528 0.016025 0.001171 -0.000022 0.001341 0.013429
# 3 -0.006717 0.001171 0.010890 0.003239 0.001310 -0.004820
# 4 -0.001008 -0.000022 0.003239 0.027415 0.006974 -0.001478
# 5 0.004334 0.001341 0.001310 0.006974 0.041900 0.000097
# 6 0.002756 0.013429 -0.004820 -0.001478 0.000097 0.075479
#
#
# Mechanical properties :
#
#
# Convention : Reuss Voigt Hill
#
# Bulk Modulus (GPa) = 40.82285 46.92647 43.87466
# Shear Modulus (GPa) = 21.76285 30.22729 25.99507
#
# Velocity S-wave (km/s) = 3.20450 3.77661 3.50226
# Velocity P-wave (km/s) = 5.74056 6.41556 6.08742
#
# Compressibility (1/GPa) = 0.02449609
#
# Stress axis : x y z
#
# Youngs Moduli (GPa) = 42.14412 62.40406 91.82327
#
# Poissons Ratio (x) = 0.46975 0.61677
# Poissons Ratio (y) = 0.31724 -0.10751
# Poissons Ratio (z) = 0.28308 -0.07307
#
# Static dielectric constant tensor:
#      x y z
#    x 1.771810 -0.006860 0.019830 
#    y -0.006860 1.884400 0.017890 
#    z 0.019830 0.017890 1.786640 
# 
# From -- ./inp_files/364455.got.cif
#   From: 2010.05.17/outbox.cif.g08.bks.cpg/sg2_183_cif.got.tgz:364455.got - 2010.06.03 11:33:40.
