data_PCOD9031409
_publ_section_title
;
Structure prediction by ZEFSAII (Michael W. Deem and Ramdas Pophale) SiO2 
 PCOD9031409
Probable space group: P -1
;
_chemical_formula_sum "Si O2"
_cell_formula_units_Z 16
_cell_length_a 27.526966
_cell_length_b 13.147584
_cell_length_c 17.817836
_cell_angle_alpha 146.631473
_cell_angle_beta 19.774669
_cell_angle_gamma 156.262585
_cell_volume 861.730510
_symmetry_space_group_name_H-M "P -1"
_symmetry_group_IT_number 2
_symmetry_cell_setting 'triclinic'
loop_
_space_group_symop_operation_xyz
x,y,z
-x,-y,-z
loop_
_atom_site_type_symbol
_atom_site_label
_atom_site_fract_x
_atom_site_fract_y
_atom_site_fract_z
Si Si1 0.268350 0.239841 0.175010
Si Si2 0.865668 0.919976 0.048946
Si Si3 0.789652 0.415113 0.855315
Si Si4 0.374421 0.190907 0.142981
Si Si5 0.296558 0.210791 0.637284
Si Si6 0.008916 0.748978 0.492934
Si Si7 0.246416 0.212205 0.028109
Si Si8 0.405445 0.961896 0.231641
O O1 0.242368 0.117214 0.216232
O O2 0.232168 0.102401 0.063309
O O3 0.139822 0.310584 0.392260
O O4 0.500000 0.500000 0.000000
O O5 0.835087 0.669883 0.937555
O O6 0.800618 0.932481 0.069498
O O7 0.734610 0.865996 0.277035
O O8 0.100798 0.157723 0.869283
O O9 0.962200 0.442337 0.657434
O O10 0.734207 0.264712 0.765434
O O11 0.591967 0.216959 0.072087
O O12 0.227177 0.024065 0.323917
O O13 0.536051 0.495735 0.111857
O O14 0.500793 0.116856 0.902380
O O15 0.500000 0.500000 0.500000
O O16 0.300100 0.028515 0.470971
O O17 0.917350 0.770156 0.711192
#
# Coordination Sequence:
#
# PCOD9031409 Si02
#       8
#     2   2   2   2   2   2   2   2
#     4   8  17  31  47  75 113 135 172 217 271 315
#     4  11  22  36  55  75 111 150 176 218 265 327
#     4  10  19  33  55  86 108 132 184 213 278 321
#     4  10  17  32  53  78 110 139 171 222 274 307
#     4  11  24  38  51  74 113 149 183 213 264 322
#     4   9  19  28  48  79 108 141 162 220 264 320
#     4   9  19  31  49  80 104 138 175 216 263 319
#     4  10  20  33  56  81 110 139 173 230 260 324
#
# _framework density 18.56729
#
# number of rings (size 3 to 8) (size 9 to 14) (size 15 to 20)
#    0.750    1.500    2.500    1.125    1.750    2.000 
#    0.000    0.000    0.000    0.750    0.000    0.875 
#    0.000    0.000    0.000    0.000    0.000    0.000 
#
# Total GULP energy -89099.526845 kJ/mol
# GULP energy per Si atom -5568.720428 kJ/mol
# Density = 1.852503 g / cm^3
# Si number density = 18.567290 Si / 1000 Ang^3
#
#
#
# Elastic Constant Matrix: (Units=GPa)
#
#
# Indices 1 2 3 4 5 6 
#
# 1 99.7139 4.1266 21.0409 3.7598 9.1067 11.4663
# 2 4.1266 41.4727 13.2606 -12.3859 8.9412 0.9240
# 3 21.0409 13.2606 86.0236 -3.9940 12.9834 7.1976
# 4 3.7598 -12.3859 -3.9940 27.3234 1.7522 2.5730
# 5 9.1067 8.9412 12.9834 1.7522 36.0928 5.6122
# 6 11.4663 0.9240 7.1976 2.5730 5.6122 19.8010
#
#
#
# Elastic Compliance Matrix: (Units=1/GPa)
#
#
# Indices 1 2 3 4 5 6 
#
# 1 0.011258 -0.000558 -0.002146 -0.001558 -0.001044 -0.005215
# 2 -0.000558 0.030839 -0.002894 0.014080 -0.007163 0.000137
# 3 -0.002146 -0.002894 0.013374 0.001403 -0.003191 -0.002761
# 4 -0.001558 0.014080 0.001403 0.044154 -0.005032 -0.004576
# 5 -0.001044 -0.007163 -0.003191 -0.005032 0.032124 -0.006352
# 6 -0.005215 0.000137 -0.002761 -0.004576 -0.006352 0.056915
#
#
# Mechanical properties :
#
#
# Convention : Reuss Voigt Hill
#
# Bulk Modulus (GPa) = 22.58622 33.78516 28.18569
# Shear Modulus (GPa) = 23.29707 29.22890 26.26299
#
# Velocity S-wave (km/s) = 3.54607 3.97194 3.76503
# Velocity P-wave (km/s) = 5.38118 6.26663 5.84071
#
# Compressibility (1/GPa) = 0.04427479
#
# Stress axis : x y z
#
# Youngs Moduli (GPa) = 88.82241 32.42614 74.77429
#
# Poissons Ratio (x) = 0.01809 0.16048
# Poissons Ratio (y) = 0.04956 0.21640
# Poissons Ratio (z) = 0.19063 0.09384
#
# Static dielectric constant tensor:
#      x y z
#    x 1.705750 0.004400 0.012760 
#    y 0.004400 1.639320 -0.031380 
#    z 0.012760 -0.031380 1.667590 
# 
# From -- ./inp_files/356230.got.cif
#   From: 2010.05.17/outbox.cif.g08.bks.cpg/sg2_179_cif.got.tgz:356230.got - 2010.06.03 11:33:40.
