data_PCOD9031501
_publ_section_title
;
Structure prediction by ZEFSAII (Michael W. Deem and Ramdas Pophale) SiO2 
 PCOD9031501
Probable space group: P -1
;
_chemical_formula_sum "Si O2"
_cell_formula_units_Z 14
_cell_length_a 19.075871
_cell_length_b 9.209806
_cell_length_c 12.249492
_cell_angle_alpha 111.687115
_cell_angle_beta 151.448949
_cell_angle_gamma 48.292587
_cell_volume 613.009673
_symmetry_space_group_name_H-M "P -1"
_symmetry_group_IT_number 2
_symmetry_cell_setting 'triclinic'
loop_
_space_group_symop_operation_xyz
x,y,z
-x,-y,-z
loop_
_atom_site_type_symbol
_atom_site_label
_atom_site_fract_x
_atom_site_fract_y
_atom_site_fract_z
Si Si1 0.726744 0.891390 0.731655
Si Si2 0.762844 0.218652 0.808970
Si Si3 0.382125 0.568356 0.738230
Si Si4 0.909363 0.942053 0.441670
Si Si5 0.304053 0.534797 0.015950
Si Si6 0.898233 0.515145 0.690457
Si Si7 0.167028 0.325953 0.782703
O O1 0.782738 0.756152 0.658226
O O2 0.500000 0.000000 0.500000
O O3 0.712222 0.086689 0.746203
O O4 0.923605 0.696836 0.035506
O O5 0.500000 0.500000 0.500000
O O6 0.823160 0.294473 0.005744
O O7 0.000000 0.000000 0.000000
O O8 0.516178 0.484125 0.785164
O O9 0.270812 0.490244 0.566755
O O10 0.213392 0.853665 0.580385
O O11 0.500000 0.500000 0.000000
O O12 0.760413 0.916207 0.190981
O O13 0.000000 0.000000 0.500000
O O14 0.135286 0.680217 0.723344
O O15 0.357902 0.307215 0.040401
O O16 0.025810 0.454951 0.737180
O O17 0.000000 0.500000 0.500000
#
# Coordination Sequence:
#
# PCOD9031501 Si02
#       7
#     2   2   2   2   2   2   2
#     4  11  27  47  78 108 143 205 263 321 389 460
#     4  12  30  51  76 111 155 199 258 319 395 459
#     4  12  23  41  71 109 140 188 244 305 383 454
#     4  11  21  41  68  99 139 186 237 301 365 453
#     4  11  25  43  69  99 142 188 241 305 378 444
#     4  11  24  45  75 105 153 190 259 320 380 467
#     4  10  22  43  67 101 143 189 240 309 382 452
#
# _framework density 22.838141
#
# number of rings (size 3 to 8) (size 9 to 14) (size 15 to 20)
#    0.000    0.857    2.857    3.429   10.000    1.714 
#    0.000    0.000    0.000    0.000    0.000    0.000 
#    0.000    0.000    0.000    0.000    0.000    0.000 
#
# Total GULP energy -77992.681252 kJ/mol
# GULP energy per Si atom -5570.905804 kJ/mol
# Density = 2.278616 g / cm^3
# Si number density = 22.838141 Si / 1000 Ang^3
#
#
#
# Elastic Constant Matrix: (Units=GPa)
#
#
# Indices 1 2 3 4 5 6 
#
# 1 106.0104 38.3573 21.7631 7.9667 7.0371 4.8334
# 2 38.3573 130.3023 22.6518 18.1286 -5.2621 25.5371
# 3 21.7631 22.6518 54.9985 11.6667 3.0704 12.3083
# 4 7.9667 18.1286 11.6667 40.2367 -0.3413 7.9597
# 5 7.0371 -5.2621 3.0704 -0.3413 27.5738 8.6463
# 6 4.8334 25.5371 12.3083 7.9597 8.6463 48.9398
#
#
#
# Elastic Compliance Matrix: (Units=1/GPa)
#
#
# Indices 1 2 3 4 5 6 
#
# 1 0.011521 -0.003353 -0.003398 -0.000252 -0.003893 0.002195
# 2 -0.003353 0.010482 -0.001555 -0.002550 0.004612 -0.005147
# 3 -0.003398 -0.001555 0.021911 -0.004290 -0.000818 -0.003521
# 4 -0.000252 -0.002550 -0.004290 0.027756 0.001113 -0.002276
# 5 -0.003893 0.004612 -0.000818 0.001113 0.041151 -0.009267
# 6 0.002195 -0.005147 -0.003521 -0.002276 -0.009267 0.025795
#
#
# Mechanical properties :
#
#
# Convention : Reuss Voigt Hill
#
# Bulk Modulus (GPa) = 36.62778 50.76175 43.69476
# Shear Modulus (GPa) = 30.42677 37.25266 33.83971
#
# Velocity S-wave (km/s) = 3.65400 4.04314 3.85349
# Velocity P-wave (km/s) = 5.82023 6.63860 6.24284
#
# Compressibility (1/GPa) = 0.02730168
#
# Stress axis : x y z
#
# Youngs Moduli (GPa) = 86.79591 95.40517 45.63869
#
# Poissons Ratio (x) = 0.31991 0.15510
# Poissons Ratio (y) = 0.29104 0.07095
# Poissons Ratio (z) = 0.29497 0.14832
#
# Static dielectric constant tensor:
#      x y z
#    x 2.014010 -0.054350 0.221330 
#    y -0.054350 1.891890 -0.046240 
#    z 0.221330 -0.046240 2.331100 
# 
# From -- ./inp_files/428273.got.cif
#   From: 2010.05.17/outbox.cif.g08.bks.cpg/sg2_215_cif.got.tgz:428273.got - 2010.06.03 11:33:40.
