data_PCOD9031101
_publ_section_title
;
Structure prediction by ZEFSAII (Michael W. Deem and Ramdas Pophale) SiO2 
 PCOD9031101
Probable space group: P -1
;
_chemical_formula_sum "Si O2"
_cell_formula_units_Z 14
_cell_length_a 7.183358
_cell_length_b 11.072099
_cell_length_c 8.461512
_cell_angle_alpha 109.769255
_cell_angle_beta 95.169828
_cell_angle_gamma 121.364109
_cell_volume 510.253778
_symmetry_space_group_name_H-M "P -1"
_symmetry_group_IT_number 2
_symmetry_cell_setting 'triclinic'
loop_
_space_group_symop_operation_xyz
x,y,z
-x,-y,-z
loop_
_atom_site_type_symbol
_atom_site_label
_atom_site_fract_x
_atom_site_fract_y
_atom_site_fract_z
Si Si1 0.327325 0.334334 0.057244
Si Si2 0.835556 0.452396 0.116724
Si Si3 0.955396 0.692511 0.483749
Si Si4 0.507031 0.193846 0.219421
Si Si5 0.354006 0.545776 0.411036
Si Si6 0.560996 0.987221 0.320804
Si Si7 0.203576 0.164508 0.670646
O O1 0.319666 0.214280 0.134051
O O2 0.303726 0.460238 0.200183
O O3 0.405089 0.566267 0.936912
O O4 0.156507 0.223483 0.854258
O O5 0.714226 0.292298 0.147700
O O6 0.989808 0.607762 0.306578
O O7 0.000000 0.500000 0.000000
O O8 0.176410 0.862629 0.620568
O O9 0.884910 0.578984 0.572526
O O10 0.763580 0.715759 0.409309
O O11 0.572253 0.287477 0.434604
O O12 0.434794 0.021584 0.192610
O O13 0.500000 0.500000 0.500000
O O14 0.500000 0.000000 0.500000
O O15 0.584915 0.843033 0.267471
O O16 0.000000 0.000000 0.500000
#
# Coordination Sequence:
#
# PCOD9031101 Si02
#       7
#     2   2   2   2   2   2   2
#     4   9  20  40  68 101 130 177 221 280 345 396
#     4   9  20  38  65 105 137 162 217 293 353 397
#     4  10  22  43  64  96 139 171 233 274 348 398
#     4   8  20  40  65 102 133 169 229 274 353 397
#     4   9  17  39  69  99 130 168 216 294 347 397
#     4  11  25  40  66  92 137 194 223 271 329 405
#     4  10  24  44  61  92 135 184 232 263 323 414
#
# _framework density 27.437327
#
# number of rings (size 3 to 8) (size 9 to 14) (size 15 to 20)
#    0.857    1.714    1.429    0.000    6.000    3.429 
#    5.143    2.857    0.000    0.000    0.000    0.000 
#    0.000    0.000    0.000    0.000    0.000    0.000 
#
# Total GULP energy -78006.077253 kJ/mol
# GULP energy per Si atom -5571.862661 kJ/mol
# Density = 2.737488 g / cm^3
# Si number density = 27.437327 Si / 1000 Ang^3
#
#
#
# Elastic Constant Matrix: (Units=GPa)
#
#
# Indices 1 2 3 4 5 6 
#
# 1 69.7120 25.9587 37.0073 -16.9919 -17.8916 -21.5460
# 2 25.9587 116.7121 47.0578 -22.6446 -8.5979 -33.9913
# 3 37.0073 47.0578 194.5690 -0.6902 -28.8171 -4.1766
# 4 -16.9919 -22.6446 -0.6902 52.7974 0.4871 5.9870
# 5 -17.8916 -8.5979 -28.8171 0.4871 60.7535 -11.6365
# 6 -21.5460 -33.9913 -4.1766 5.9870 -11.6365 34.0433
#
#
#
# Elastic Compliance Matrix: (Units=1/GPa)
#
#
# Indices 1 2 3 4 5 6 
#
# 1 0.026871 0.005025 -0.004127 0.007930 0.011190 0.023948
# 2 0.005025 0.016370 -0.003594 0.006271 0.005870 0.019988
# 3 -0.004127 -0.003594 0.006771 -0.002245 0.000592 -0.004773
# 4 0.007930 0.006271 -0.002245 0.023198 0.003529 0.008131
# 5 0.011190 0.005870 0.000592 0.003529 0.024839 0.020885
# 6 0.023948 0.019988 -0.004773 0.008131 0.020885 0.069612
#
#
# Mechanical properties :
#
#
# Convention : Reuss Voigt Hill
#
# Bulk Modulus (GPa) = 22.41159 66.78232 44.59695
# Shear Modulus (GPa) = 26.60630 47.58344 37.09487
#
# Velocity S-wave (km/s) = 3.11740 4.16896 3.68092
# Velocity P-wave (km/s) = 4.59821 6.89684 5.86131
#
# Compressibility (1/GPa) = 0.04461978
#
# Stress axis : x y z
#
# Youngs Moduli (GPa) = 37.21509 61.08747 147.68966
#
# Poissons Ratio (x) = -0.30696 0.60946
# Poissons Ratio (y) = -0.18700 0.53084
# Poissons Ratio (z) = 0.15357 0.21957
#
# Static dielectric constant tensor:
#      x y z
#    x 2.577740 -0.024780 0.004790 
#    y -0.024780 2.162770 -0.038720 
#    z 0.004790 -0.038720 2.143650 
# 
# From -- ./inp_files/172323.got.cif
#   From: 2010.05.17/outbox.cif.g08.bks.cpg/sg2_87_cif.got.tgz:172323.got - 2010.06.03 11:33:40.
