data_PCOD9031137
_publ_section_title
;
Structure prediction by ZEFSAII (Michael W. Deem and Ramdas Pophale) SiO2 
 PCOD9031137
Probable space group: P -1
;
_chemical_formula_sum "Si O2"
_cell_formula_units_Z 16
_cell_length_a 5.285095
_cell_length_b 12.309515
_cell_length_c 14.123206
_cell_angle_alpha 93.279528
_cell_angle_beta 122.836478
_cell_angle_gamma 111.001573
_cell_volume 682.659157
_symmetry_space_group_name_H-M "P -1"
_symmetry_group_IT_number 2
_symmetry_cell_setting 'triclinic'
loop_
_space_group_symop_operation_xyz
x,y,z
-x,-y,-z
loop_
_atom_site_type_symbol
_atom_site_label
_atom_site_fract_x
_atom_site_fract_y
_atom_site_fract_z
Si Si1 0.598026 0.399959 0.179303
Si Si2 0.048772 0.846757 0.559551
Si Si3 0.533768 0.798879 0.165255
Si Si4 0.631707 0.984705 0.812409
Si Si5 0.126902 0.967467 0.391294
Si Si6 0.622111 0.845403 0.976249
Si Si7 0.850335 0.471582 0.862959
Si Si8 0.890047 0.577245 0.552486
O O1 0.352724 0.266175 0.078402
O O2 0.385394 0.460689 0.188312
O O3 0.848117 0.483833 0.150326
O O4 0.852694 0.388571 0.305409
O O5 0.938560 0.887231 0.442655
O O6 0.925845 0.703881 0.524618
O O7 0.445882 0.910616 0.676865
O O8 0.907484 0.908028 0.612017
O O9 0.422198 0.895862 0.187722
O O10 0.376845 0.674671 0.186050
O O11 0.943103 0.872291 0.265387
O O12 0.438692 0.784574 0.034268
O O13 0.467768 0.899345 0.868218
O O14 0.033277 0.037479 0.912944
O O15 0.500000 0.000000 0.500000
O O16 0.000000 0.500000 0.000000
O O17 0.500000 0.500000 0.500000
O O18 0.000000 0.500000 0.500000
#
# Coordination Sequence:
#
# PCOD9031137 Si02
#       8
#     2   2   2   2   2   2   2   2
#     4  12  27  48  73 106 143 195 241 303 357 433
#     4  10  23  45  67 100 138 181 240 297 357 425
#     4  11  24  39  67  99 138 183 232 292 350 432
#     4  10  22  43  65 102 134 179 231 290 362 420
#     4  10  23  42  68 100 134 184 236 296 360 419
#     4  11  22  41  69 100 139 178 235 285 364 425
#     4  12  26  46  72 105 147 190 242 291 364 431
#     4  12  29  51  75 106 143 196 249 303 362 430
#
# _framework density 23.437757999999999
#
# number of rings (size 3 to 8) (size 9 to 14) (size 15 to 20)
#    0.000    1.000    2.500    3.000    7.000    0.000 
#    0.000    0.000    0.000    0.000    0.000    0.000 
#    0.000    0.000    0.000    0.000    0.000    0.000 
#
# Total GULP energy -89364.455584 kJ/mol
# GULP energy per Si atom -5585.278474 kJ/mol
# Density = 2.338441 g / cm^3
# Si number density = 23.437758 Si / 1000 Ang^3
#
#
#
# Elastic Constant Matrix: (Units=GPa)
#
#
# Indices 1 2 3 4 5 6 
#
# 1 65.4317 21.3087 7.4752 9.6179 5.4587 -7.8066
# 2 21.3087 148.8385 17.1221 13.6212 -2.4727 -23.8843
# 3 7.4752 17.1221 95.1710 -4.8069 -7.9107 2.9659
# 4 9.6179 13.6212 -4.8069 42.1968 0.1681 -0.2477
# 5 5.4587 -2.4727 -7.9107 0.1681 36.5161 -1.3113
# 6 -7.8066 -23.8843 2.9659 -0.2477 -1.3113 25.1266
#
#
#
# Elastic Compliance Matrix: (Units=1/GPa)
#
#
# Indices 1 2 3 4 5 6 
#
# 1 0.017164 -0.001326 -0.001658 -0.003638 -0.002851 0.004083
# 2 -0.001326 0.008657 -0.001780 -0.002651 0.000700 0.008038
# 3 -0.001658 -0.001780 0.011380 0.002219 0.002460 -0.003400
# 4 -0.003638 -0.002651 0.002219 0.025612 0.000597 -0.003628
# 5 -0.002851 0.000700 0.002460 0.000597 0.028424 0.000978
# 6 0.004083 0.008038 -0.003400 -0.003628 0.000978 0.049124
#
#
# Mechanical properties :
#
#
# Convention : Reuss Voigt Hill
#
# Bulk Modulus (GPa) = 36.13295 44.58369 40.35832
# Shear Modulus (GPa) = 31.42411 38.33692 34.88052
#
# Velocity S-wave (km/s) = 3.66559 4.04875 3.86193
# Velocity P-wave (km/s) = 5.77628 6.39688 6.09448
#
# Compressibility (1/GPa) = 0.02767557
#
# Stress axis : x y z
#
# Youngs Moduli (GPa) = 58.26135 115.50991 87.87125
#
# Poissons Ratio (x) = 0.15314 0.14566
# Poissons Ratio (y) = 0.07724 0.15637
# Poissons Ratio (z) = 0.09658 0.20556
#
# Static dielectric constant tensor:
#      x y z
#    x 2.022430 0.087850 0.017300 
#    y 0.087850 1.879710 -0.015890 
#    z 0.017300 -0.015890 1.959360 
# 
# From -- ./inp_files/68669.got.cif
#   From: 2010.05.17/outbox.cif.g08.bks.cpg/sg2_35_cif.got.tgz:68669.got - 2010.06.03 11:33:40.
