data_PCOD9031532
_publ_section_title
;
Structure prediction by ZEFSAII (Michael W. Deem and Ramdas Pophale) SiO2 
 PCOD9031532
Probable space group: P -1
;
_chemical_formula_sum "Si O2"
_cell_formula_units_Z 14
_cell_length_a 15.105314
_cell_length_b 15.721892
_cell_length_c 6.554988
_cell_angle_alpha 60.814944
_cell_angle_beta 95.626416
_cell_angle_gamma 144.672651
_cell_volume 632.303270
_symmetry_space_group_name_H-M "P -1"
_symmetry_group_IT_number 2
_symmetry_cell_setting 'triclinic'
loop_
_space_group_symop_operation_xyz
x,y,z
-x,-y,-z
loop_
_atom_site_type_symbol
_atom_site_label
_atom_site_fract_x
_atom_site_fract_y
_atom_site_fract_z
Si Si1 0.358787 0.321717 0.507847
Si Si2 0.790124 0.479898 0.590622
Si Si3 0.686999 0.233023 0.178872
Si Si4 0.900602 0.751548 0.585802
Si Si5 0.402144 0.594583 0.741535
Si Si6 0.798672 0.001329 0.341568
Si Si7 0.999553 0.397755 0.854958
O O1 0.500000 0.500000 0.500000
O O2 0.202040 0.251764 0.515436
O O3 0.510472 0.428612 0.250743
O O4 0.240945 0.105160 0.740800
O O5 0.914326 0.679376 0.507578
O O6 0.675230 0.430092 0.452549
O O7 0.922657 0.530836 0.441782
O O8 0.659428 0.294420 0.938460
O O9 0.820671 0.401725 0.195705
O O10 0.500000 0.000000 0.500000
O O11 0.822489 0.289455 0.019580
O O12 0.096437 0.959430 0.505877
O O13 0.752778 0.567031 0.934362
O O14 0.592116 0.835920 0.564732
O O15 0.927308 0.217630 0.077096
#
# Coordination Sequence:
#
# PCOD9031532 Si02
#       7
#     2   2   2   2   2   2   2
#     4  10  22  43  67 107 141 189 243 288 339 417
#     4  12  23  46  74 101 146 183 234 295 351 429
#     4  11  27  49  76 101 140 182 233 294 366 419
#     4  12  21  46  68 100 146 191 237 288 347 411
#     4  10  24  42  67 101 143 184 238 287 347 408
#     4  10  23  42  70  97 143 185 231 289 347 408
#     4  11  25  49  67 111 140 177 239 293 351 432
#
# _framework density 22.141275
#
# number of rings (size 3 to 8) (size 9 to 14) (size 15 to 20)
#    0.857    0.286    4.286    1.286    4.000    0.571 
#   10.286    1.429    0.000    0.000    0.000    0.000 
#    0.000    0.000    0.000    0.000    0.000    0.000 
#
# Total GULP energy -78014.959684 kJ/mol
# GULP energy per Si atom -5572.497120 kJ/mol
# Density = 2.209088 g / cm^3
# Si number density = 22.141275 Si / 1000 Ang^3
#
#
#
# Elastic Constant Matrix: (Units=GPa)
#
#
# Indices 1 2 3 4 5 6 
#
# 1 69.1498 29.8293 16.8230 3.3745 -0.0987 -30.7456
# 2 29.8293 112.1530 23.9014 -20.4725 -5.9124 -15.5014
# 3 16.8230 23.9014 69.2819 -3.7062 -11.5675 -15.5440
# 4 3.3745 -20.4725 -3.7062 27.4731 -5.2087 -3.8968
# 5 -0.0987 -5.9124 -11.5675 -5.2087 33.8287 1.4144
# 6 -30.7456 -15.5014 -15.5440 -3.8968 1.4144 38.1354
#
#
#
# Elastic Compliance Matrix: (Units=1/GPa)
#
#
# Indices 1 2 3 4 5 6 
#
# 1 0.024715 -0.005041 -0.001173 -0.005053 -0.002698 0.016982
# 2 -0.005041 0.013007 -0.001804 0.010896 0.003257 0.001480
# 3 -0.001173 -0.001804 0.017784 0.003142 0.006009 0.005668
# 4 -0.005053 0.010896 0.003142 0.048367 0.010152 0.006202
# 5 -0.002698 0.003257 0.006009 0.010152 0.033682 0.001386
# 6 0.016982 0.001480 0.005668 0.006202 0.001386 0.043408
#
#
# Mechanical properties :
#
#
# Convention : Reuss Voigt Hill
#
# Bulk Modulus (GPa) = 25.33609 43.52135 34.42872
# Shear Modulus (GPa) = 23.79191 31.88950 27.84071
#
# Velocity S-wave (km/s) = 3.28159 3.79921 3.54985
# Velocity P-wave (km/s) = 5.08195 6.24053 5.69080
#
# Compressibility (1/GPa) = 0.03946939
#
# Stress axis : x y z
#
# Youngs Moduli (GPa) = 40.46200 76.88249 56.22997
#
# Poissons Ratio (x) = 0.38755 0.06595
# Poissons Ratio (y) = 0.20396 0.10146
# Poissons Ratio (z) = 0.04746 0.13873
#
# Static dielectric constant tensor:
#      x y z
#    x 1.915090 -0.004710 0.016790 
#    y -0.004710 1.848000 -0.005980 
#    z 0.016790 -0.005980 1.876500 
# 
# From -- ./inp_files/111383.got.cif
#   From: 2010.05.17/outbox.cif.g08.bks.cpg/sg2_56_cif.got.tgz:111383.got - 2010.06.03 11:33:40.
