data_PCOD9031416
_publ_section_title
;
Structure prediction by ZEFSAII (Michael W. Deem and Ramdas Pophale) SiO2 
 PCOD9031416
Probable space group: P -1
;
_chemical_formula_sum "Si O2"
_cell_formula_units_Z 16
_cell_length_a 10.778379
_cell_length_b 11.519353
_cell_length_c 7.684031
_cell_angle_alpha 59.842535
_cell_angle_beta 125.059427
_cell_angle_gamma 110.689145
_cell_volume 672.411982
_symmetry_space_group_name_H-M "P -1"
_symmetry_group_IT_number 2
_symmetry_cell_setting 'triclinic'
loop_
_space_group_symop_operation_xyz
x,y,z
-x,-y,-z
loop_
_atom_site_type_symbol
_atom_site_label
_atom_site_fract_x
_atom_site_fract_y
_atom_site_fract_z
Si Si1 0.413411 0.262306 0.084910
Si Si2 0.612379 0.032218 0.729337
Si Si3 0.988590 0.516974 0.183418
Si Si4 0.889778 0.799916 0.957581
Si Si5 0.099748 0.911836 0.325387
Si Si6 0.687629 0.556565 0.423495
Si Si7 0.460894 0.710230 0.313913
Si Si8 0.727654 0.297668 0.193935
O O1 0.290973 0.242785 0.154563
O O2 0.593453 0.286665 0.237010
O O3 0.389443 0.116798 0.075715
O O4 0.368047 0.388022 0.843951
O O5 0.775595 0.077392 0.740638
O O6 0.552710 0.146678 0.714838
O O7 0.500000 0.000000 0.500000
O O8 0.837041 0.433458 0.192038
O O9 0.134295 0.456892 0.426818
O O10 0.981364 0.674476 0.085823
O O11 0.000000 0.500000 0.000000
O O12 0.919869 0.932965 0.764715
O O13 0.947269 0.843431 0.165848
O O14 0.169162 0.824607 0.595859
O O15 0.626377 0.665708 0.426642
O O16 0.609789 0.412329 0.530245
O O17 0.357928 0.706555 0.057365
#
# Coordination Sequence:
#
# PCOD9031416 Si02
#       8
#     2   2   2   2   2   2   2   2
#     4  10  23  44  65 106 125 172 225 274 340 393
#     4  11  22  43  70  99 135 174 224 273 334 401
#     4  12  25  44  64  97 136 183 224 266 331 397
#     4  10  24  44  70  95 140 179 218 281 332 395
#     4  10  22  44  71 102 130 172 230 275 339 391
#     4  10  22  43  66  96 132 177 222 268 336 398
#     4  10  23  43  69  95 137 177 214 283 335 393
#     4  11  23  43  67 104 136 167 228 275 337 405
#
# _framework density 23.794934999999999
#
# number of rings (size 3 to 8) (size 9 to 14) (size 15 to 20)
#    0.000    1.500    2.500    1.500    0.000    7.500 
#    2.250    0.625    0.000    0.000    0.000    0.000 
#    0.000    0.000    0.000    0.000    0.000    0.000 
#
# Total GULP energy -89499.476906 kJ/mol
# GULP energy per Si atom -5593.717307 kJ/mol
# Density = 2.374078 g / cm^3
# Si number density = 23.794935 Si / 1000 Ang^3
#
#
#
# Elastic Constant Matrix: (Units=GPa)
#
#
# Indices 1 2 3 4 5 6 
#
# 1 72.7001 51.2496 9.9291 0.2841 26.7806 -1.9890
# 2 51.2496 107.7406 53.1732 -27.2274 14.8341 -17.7890
# 3 9.9291 53.1732 141.5843 -33.7476 20.3546 -13.4020
# 4 0.2841 -27.2274 -33.7476 39.0272 2.7004 6.4675
# 5 26.7806 14.8341 20.3546 2.7004 42.4989 -7.6574
# 6 -1.9890 -17.7890 -13.4020 6.4675 -7.6574 37.1479
#
#
#
# Elastic Compliance Matrix: (Units=1/GPa)
#
#
# Indices 1 2 3 4 5 6 
#
# 1 0.031920 -0.018023 0.004782 -0.006223 -0.017094 -0.007637
# 2 -0.018023 0.023451 -0.005312 0.010136 0.006499 0.007924
# 3 0.004782 -0.005312 0.011241 0.006613 -0.007116 -0.000850
# 4 -0.006223 0.010136 0.006613 0.039002 -0.005443 -0.001006
# 5 -0.017094 0.006499 -0.007116 -0.005443 0.037276 0.008261
# 6 -0.007637 0.007924 -0.000850 -0.001006 0.008261 0.031876
#
#
# Mechanical properties :
#
#
# Convention : Reuss Voigt Hill
#
# Bulk Modulus (GPa) = 33.89216 61.19211 47.54213
# Shear Modulus (GPa) = 22.55212 37.57968 30.06590
#
# Velocity S-wave (km/s) = 3.08193 3.97837 3.55849
# Velocity P-wave (km/s) = 5.19025 6.84657 6.07512
#
# Compressibility (1/GPa) = 0.02950535
#
# Stress axis : x y z
#
# Youngs Moduli (GPa) = 31.32849 42.64168 88.95670
#
# Poissons Ratio (x) = 0.76855 -0.42535
# Poissons Ratio (y) = 0.56465 0.47251
# Poissons Ratio (z) = -0.14980 0.22650
#
# Static dielectric constant tensor:
#      x y z
#    x 2.017560 -0.031930 0.004870 
#    y -0.031930 1.926180 0.002670 
#    z 0.004870 0.002670 1.918240 
# 
# From -- ./inp_files/261830.got.cif
#   From: 2010.05.17/outbox.cif.g08.bks.cpg/sg2_131_cif.got.tgz:261830.got - 2010.06.03 11:33:40.
