data_PCOD9031828
_publ_section_title
;
Structure prediction by ZEFSAII (Michael W. Deem and Ramdas Pophale) SiO2 
 PCOD9031828
Probable space group: P -1
;
_chemical_formula_sum "Si O2"
_cell_formula_units_Z 13
_cell_length_a 9.056353
_cell_length_b 11.846255
_cell_length_c 9.056361
_cell_angle_alpha 60.060526
_cell_angle_beta 49.296602
_cell_angle_gamma 91.878630
_cell_volume 535.006607
_symmetry_space_group_name_H-M "P -1"
_symmetry_group_IT_number 2
_symmetry_cell_setting 'triclinic'
loop_
_space_group_symop_operation_xyz
x,y,z
-x,-y,-z
loop_
_atom_site_type_symbol
_atom_site_label
_atom_site_fract_x
_atom_site_fract_y
_atom_site_fract_z
Si Si1 0.406843 0.319338 0.187887
Si Si2 0.000000 0.500000 0.000000
Si Si3 0.534164 0.819684 0.491461
Si Si4 0.869171 0.180316 0.105204
Si Si5 0.242510 0.320164 0.005368
Si Si6 0.826564 0.319338 0.768167
Si Si7 0.645696 0.320163 0.602183
O O1 0.363861 0.256346 0.422521
O O2 0.211842 0.245357 0.235824
O O3 0.500000 0.500000 0.000000
O O4 0.605318 0.293138 0.019043
O O5 0.183768 0.450276 0.966619
O O6 0.867174 0.450275 0.283215
O O7 0.259949 0.751047 0.757855
O O8 0.520779 0.793401 0.344000
O O9 0.685730 1.000000 0.314270
O O10 0.069199 0.206599 0.066022
O O11 0.935213 0.256346 0.851169
O O12 0.501616 0.379264 0.743085
O O13 0.726538 0.245356 0.721129
O O14 0.000000 0.500000 0.500000
#
# Coordination Sequence:
#
# PCOD9031828 Si02
#       7
#     2   1   2   2   2   2   2
#     4  10  23  39  62  97 131 168 217 272 326 389
#     4  12  22  40  66  94 130 174 206 268 334 382
#     4  10  22  43  68  95 132 178 222 268 327 392
#     4  10  22  43  68  95 132 178 222 268 327 392
#     4  11  24  41  64  97 133 171 216 273 325 391
#     4  10  23  39  62  97 131 168 217 272 326 389
#     4  11  24  41  64  97 133 171 216 273 325 391
#
# _framework density 24.298767000000002
#
# number of rings (size 3 to 8) (size 9 to 14) (size 15 to 20)
#    0.000    1.538    1.538    2.308    6.462    5.538 
#    0.000    0.000    0.000    0.000    0.000    0.000 
#    0.000    0.000    0.000    0.000    0.000    0.000 
#
# Total GULP energy -72463.171541 kJ/mol
# GULP energy per Si atom -5574.090119 kJ/mol
# Density = 2.424346 g / cm^3
# Si number density = 24.298767 Si / 1000 Ang^3
#
#
#
# Elastic Constant Matrix: (Units=GPa)
#
#
# Indices 1 2 3 4 5 6 
#
# 1 185.5342 44.3456 43.6964 12.1628 45.9286 50.0045
# 2 44.3456 62.0812 19.2964 9.4040 -3.0136 9.4431
# 3 43.6964 19.2964 50.3707 8.8776 -1.1875 4.3693
# 4 12.1628 9.4040 8.8776 34.1645 -11.5124 -7.5660
# 5 45.9286 -3.0136 -1.1875 -11.5124 42.6991 15.3339
# 6 50.0045 9.4431 4.3693 -7.5660 15.3339 34.7456
#
#
#
# Elastic Compliance Matrix: (Units=1/GPa)
#
#
# Indices 1 2 3 4 5 6 
#
# 1 0.022136 -0.007359 -0.012365 -0.014526 -0.020546 -0.022398
# 2 -0.007359 0.022287 -0.002058 0.000304 0.009231 0.000784
# 3 -0.012365 -0.002058 0.030176 0.003169 0.011137 0.010335
# 4 -0.014526 0.000304 0.003169 0.045071 0.020234 0.021308
# 5 -0.020546 0.009231 0.011137 0.020234 0.048887 0.008491
# 6 -0.022398 0.000784 0.010335 0.021308 0.008491 0.060394
#
#
# Mechanical properties :
#
#
# Convention : Reuss Voigt Hill
#
# Bulk Modulus (GPa) = 32.22280 56.96252 44.59266
# Shear Modulus (GPa) = 17.67658 35.03168 26.35413
#
# Velocity S-wave (km/s) = 2.70009 3.80110 3.29688
# Velocity P-wave (km/s) = 4.79693 6.53895 5.73448
#
# Compressibility (1/GPa) = 0.03103393
#
# Stress axis : x y z
#
# Youngs Moduli (GPa) = 45.17541 44.86946 33.13940
#
# Poissons Ratio (x) = 0.33019 0.40978
# Poissons Ratio (y) = 0.33244 0.06821
# Poissons Ratio (z) = 0.55861 0.09235
#
# Static dielectric constant tensor:
#      x y z
#    x 2.006240 -0.072650 0.084130 
#    y -0.072650 1.752070 0.162120 
#    z 0.084130 0.162120 1.883030 
# 
# From -- ./inp_files/174711.got.cif
#   From: 2010.05.17/outbox.cif.g08.bks.cpg/sg2_88_cif.got.tgz:174711.got - 2010.06.03 11:33:40.
