data_PCOD9031724
_publ_section_title
;
Structure prediction by ZEFSAII (Michael W. Deem and Ramdas Pophale) SiO2 
 PCOD9031724
Probable space group: P -1
;
_chemical_formula_sum "Si O2"
_cell_formula_units_Z 14
_cell_length_a 11.638830
_cell_length_b 8.987947
_cell_length_c 17.670361
_cell_angle_alpha 112.081348
_cell_angle_beta 148.267292
_cell_angle_gamma 48.258086
_cell_volume 634.402482
_symmetry_space_group_name_H-M "P -1"
_symmetry_group_IT_number 2
_symmetry_cell_setting 'triclinic'
loop_
_space_group_symop_operation_xyz
x,y,z
-x,-y,-z
loop_
_atom_site_type_symbol
_atom_site_label
_atom_site_fract_x
_atom_site_fract_y
_atom_site_fract_z
Si Si1 0.812840 0.977438 0.110803
Si Si2 0.138573 0.696183 0.843951
Si Si3 0.724931 0.705254 0.690540
Si Si4 0.232761 0.488234 0.174642
Si Si5 0.890310 0.767572 0.263753
Si Si6 0.198419 0.601771 0.565059
Si Si7 0.204126 0.229346 0.478671
O O1 0.859596 0.932257 0.219078
O O2 0.014758 0.733061 0.139533
O O3 0.939330 0.077947 0.168842
O O4 0.448947 0.139840 0.917166
O O5 0.020394 0.671500 0.848633
O O6 0.999888 0.669217 0.691352
O O7 0.500000 0.500000 0.000000
O O8 0.627947 0.694058 0.715623
O O9 0.838929 0.490200 0.666886
O O10 0.462928 0.958640 0.560339
O O11 0.510090 0.431492 0.276116
O O12 0.000000 0.500000 0.000000
O O13 0.988567 0.750176 0.401503
O O14 0.312784 0.356349 0.574360
O O15 0.995783 0.711350 0.548313
#
# Coordination Sequence:
#
# PCOD9031724 Si02
#       7
#     2   2   2   2   2   2   2
#     4  10  23  42  71 100 137 181 225 290 332 410
#     4  12  23  43  72 102 136 181 230 283 339 412
#     4  11  24  44  68 102 134 180 233 279 335 417
#     4  11  28  46  68 101 141 182 233 284 348 410
#     4  10  22  43  68 101 137 177 235 272 346 405
#     4  11  25  47  68 100 141 183 226 288 347 411
#     4  11  26  43  71 104 139 179 230 286 346 405
#
# _framework density 22.068010999999998
#
# number of rings (size 3 to 8) (size 9 to 14) (size 15 to 20)
#    0.000    1.143    2.857    1.286    8.000    1.714 
#    0.000    1.429    0.000    0.000    0.000    0.000 
#    0.000    0.000    0.000    0.000    0.000    0.000 
#
# Total GULP energy -78254.506427 kJ/mol
# GULP energy per Si atom -5589.607602 kJ/mol
# Density = 2.201778 g / cm^3
# Si number density = 22.068011 Si / 1000 Ang^3
#
#
#
# Elastic Constant Matrix: (Units=GPa)
#
#
# Indices 1 2 3 4 5 6 
#
# 1 110.5168 22.8033 28.6935 11.9520 14.3266 18.1586
# 2 22.8033 66.2561 19.0588 -2.5828 1.7139 15.0679
# 3 28.6935 19.0588 84.7855 -3.9585 8.4014 1.4429
# 4 11.9520 -2.5828 -3.9585 35.7842 4.7916 8.1457
# 5 14.3266 1.7139 8.4014 4.7916 32.9629 4.5297
# 6 18.1586 15.0679 1.4429 8.1457 4.5297 29.2886
#
#
#
# Elastic Compliance Matrix: (Units=1/GPa)
#
#
# Indices 1 2 3 4 5 6 
#
# 1 0.011844 -0.002070 -0.003291 -0.002957 -0.003110 -0.004812
# 2 -0.002070 0.019078 -0.003408 0.003673 0.001565 -0.009627
# 3 -0.003291 -0.003408 0.013986 0.002089 -0.002664 0.002936
# 4 -0.002957 0.003673 0.002089 0.031760 -0.002880 -0.008547
# 5 -0.003110 0.001565 -0.002664 -0.002880 0.033127 -0.003068
# 6 -0.004812 -0.009627 0.002936 -0.008547 -0.003068 0.044786
#
#
# Mechanical properties :
#
#
# Convention : Reuss Voigt Hill
#
# Bulk Modulus (GPa) = 36.53639 44.74106 40.63872
# Shear Modulus (GPa) = 27.58758 32.34067 29.96412
#
# Velocity S-wave (km/s) = 3.53953 3.83234 3.68884
# Velocity P-wave (km/s) = 5.77032 6.31669 6.04968
#
# Compressibility (1/GPa) = 0.02736997
#
# Stress axis : x y z
#
# Youngs Moduli (GPa) = 84.43386 52.41724 71.50140
#
# Poissons Ratio (x) = 0.10850 0.23530
# Poissons Ratio (y) = 0.17478 0.24365
# Poissons Ratio (z) = 0.27786 0.17862
#
# Static dielectric constant tensor:
#      x y z
#    x 1.832370 0.040800 0.000030 
#    y 0.040800 1.846550 -0.011900 
#    z 0.000030 -0.011900 1.808540 
# 
# From -- ./inp_files/150443.got.cif
#   From: 2010.05.17/outbox.cif.g08.bks.cpg/sg2_76_cif.got.tgz:150443.got - 2010.06.03 11:33:40.
