data_PCOD9031726
_publ_section_title
;
Structure prediction by ZEFSAII (Michael W. Deem and Ramdas Pophale) SiO2 
 PCOD9031726
Probable space group: P -1
;
_chemical_formula_sum "Si O2"
_cell_formula_units_Z 16
_cell_length_a 11.999264
_cell_length_b 10.724619
_cell_length_c 5.154844
_cell_angle_alpha 85.251494
_cell_angle_beta 106.283632
_cell_angle_gamma 76.246598
_cell_volume 610.499908
_symmetry_space_group_name_H-M "P -1"
_symmetry_group_IT_number 2
_symmetry_cell_setting 'triclinic'
loop_
_space_group_symop_operation_xyz
x,y,z
-x,-y,-z
loop_
_atom_site_type_symbol
_atom_site_label
_atom_site_fract_x
_atom_site_fract_y
_atom_site_fract_z
Si Si1 0.741131 0.499853 0.516875
Si Si2 0.996167 0.411213 0.757037
Si Si3 0.564087 0.691321 0.064526
Si Si4 0.004643 0.108751 0.277133
Si Si5 0.589861 0.318006 0.527553
Si Si6 0.830705 0.737824 0.744685
Si Si7 0.786405 0.087832 0.875891
Si Si8 0.612338 0.934579 0.770779
O O1 0.866370 0.386675 0.633343
O O2 0.682863 0.569254 0.200157
O O3 0.642808 0.439712 0.591247
O O4 0.778360 0.619098 0.652696
O O5 0.000000 0.500000 0.500000
O O6 0.000000 0.500000 0.000000
O O7 0.107829 0.291315 0.925232
O O8 0.495719 0.702817 0.292564
O O9 0.479441 0.662702 0.790660
O O10 0.588250 0.826805 0.968409
O O11 0.063861 0.225726 0.359401
O O12 0.104880 0.026811 0.152708
O O13 0.000000 0.000000 0.500000
O O14 0.866093 0.159174 0.087024
O O15 0.703440 0.190237 0.608212
O O16 0.713256 0.856539 0.650503
O O17 0.685131 0.025871 0.944500
O O18 0.500000 0.000000 0.500000
#
# Coordination Sequence:
#
# PCOD9031726 Si02
#       8
#     2   2   2   2   2   2   2   2
#     4  11  25  46  73 106 145 193 244 305 366 443
#     4  10  22  43  68 101 138 180 237 293 358 422
#     4  12  27  46  72 107 149 195 247 300 367 436
#     4  10  23  44  73 102 148 189 248 305 370 431
#     4  12  27  47  72 106 152 195 244 301 370 440
#     4  10  23  45  72 110 143 193 245 302 370 440
#     4  10  24  45  68 108 142 194 245 305 370 436
#     4  11  23  45  74 106 148 193 251 304 367 438
#
# _framework density 26.208033
#
# number of rings (size 3 to 8) (size 9 to 14) (size 15 to 20)
#    0.000    1.250    1.250    3.000    3.500    4.500 
#   11.250    0.000    0.000    0.000    0.000    0.000 
#    0.000    0.000    0.000    0.000    0.000    0.000 
#
# Total GULP energy -89425.804499 kJ/mol
# GULP energy per Si atom -5589.112781 kJ/mol
# Density = 2.614838 g / cm^3
# Si number density = 26.208033 Si / 1000 Ang^3
#
#
#
# Elastic Constant Matrix: (Units=GPa)
#
#
# Indices 1 2 3 4 5 6 
#
# 1 153.0674 45.8322 64.9152 -10.7431 38.4263 45.8635
# 2 45.8322 94.6759 26.4330 -17.4665 14.5545 40.0692
# 3 64.9152 26.4330 168.0619 -18.8605 40.2555 13.6021
# 4 -10.7431 -17.4665 -18.8605 40.1697 -1.5667 -2.1602
# 5 38.4263 14.5545 40.2555 -1.5667 61.2543 -13.9843
# 6 45.8635 40.0692 13.6021 -2.1602 -13.9843 62.6992
#
#
#
# Elastic Compliance Matrix: (Units=1/GPa)
#
#
# Indices 1 2 3 4 5 6 
#
# 1 0.013339 0.001300 -0.001590 0.002308 -0.010424 -0.012489
# 2 0.001300 0.018834 0.000765 0.007744 -0.008995 -0.014893
# 3 -0.001590 0.000765 0.008186 0.003445 -0.004952 -0.002087
# 4 0.002308 0.007744 0.003445 0.029819 -0.006576 -0.007824
# 5 -0.010424 -0.008995 -0.004952 -0.006576 0.033016 0.021585
# 6 -0.012489 -0.014893 -0.002087 -0.007824 0.021585 0.039600
#
#
# Mechanical properties :
#
#
# Convention : Reuss Voigt Hill
#
# Bulk Modulus (GPa) = 24.20819 76.68513 50.44666
# Shear Modulus (GPa) = 32.13090 51.39962 41.76526
#
# Velocity S-wave (km/s) = 3.50522 4.43337 3.99633
# Velocity P-wave (km/s) = 5.06350 7.45185 6.37060
#
# Compressibility (1/GPa) = 0.04130833
#
# Stress axis : x y z
#
# Youngs Moduli (GPa) = 74.96890 53.09567 122.16157
#
# Poissons Ratio (x) = -0.06905 0.19426
# Poissons Ratio (y) = -0.09750 -0.09340
# Poissons Ratio (z) = 0.11921 -0.04059
#
# Static dielectric constant tensor:
#      x y z
#    x 2.185330 -0.101970 -0.031460 
#    y -0.101970 2.332280 0.026680 
#    z -0.031460 0.026680 2.031630 
# 
# From -- ./inp_files/69333.got.cif
#   From: 2010.05.17/outbox.cif.g08.bks.cpg/sg2_35_cif.got.tgz:69333.got - 2010.06.03 11:33:40.
