data_PCOD9031206
_publ_section_title
;
Structure prediction by ZEFSAII (Michael W. Deem and Ramdas Pophale) SiO2 
 PCOD9031206
Probable space group: P -1
;
_chemical_formula_sum "Si O2"
_cell_formula_units_Z 16
_cell_length_a 13.543159
_cell_length_b 8.952076
_cell_length_c 21.394455
_cell_angle_alpha 64.862721
_cell_angle_beta 19.590220
_cell_angle_gamma 74.701580
_cell_volume 703.417164
_symmetry_space_group_name_H-M "P -1"
_symmetry_group_IT_number 2
_symmetry_cell_setting 'triclinic'
loop_
_space_group_symop_operation_xyz
x,y,z
-x,-y,-z
loop_
_atom_site_type_symbol
_atom_site_label
_atom_site_fract_x
_atom_site_fract_y
_atom_site_fract_z
Si Si1 0.223952 0.295193 0.694074
Si Si2 0.199893 0.124478 0.091897
Si Si3 0.361326 0.925100 0.488890
Si Si4 0.684073 0.115054 0.704829
Si Si5 0.894677 0.250089 0.765938
Si Si6 0.263238 0.924605 0.874966
Si Si7 0.766971 0.784406 0.773633
Si Si8 0.205742 0.491463 0.296005
O O1 0.500000 0.500000 0.500000
O O2 0.400941 0.166873 0.624029
O O3 0.110962 0.282702 0.692323
O O4 0.932120 0.240608 0.929725
O O5 0.823780 0.082348 0.334132
O O6 0.184738 0.953627 0.174695
O O7 0.353542 0.085799 0.944202
O O8 0.456840 0.338101 0.912444
O O9 0.044716 0.808341 0.654186
O O10 0.577073 0.096081 0.282391
O O11 0.965761 0.320968 0.512399
O O12 0.560375 0.072013 0.714609
O O13 0.812739 0.970987 0.677561
O O14 0.015691 0.410748 0.614473
O O15 0.568672 0.260698 0.982071
O O16 0.000000 0.000000 0.000000
O O17 0.719929 0.625740 0.780999
#
# Coordination Sequence:
#
# PCOD9031206 Si02
#       8
#     2   2   2   2   2   2   2   2
#     4  11  24  43  69  99 129 173 225 277 333 396
#     4  11  25  43  65 100 138 180 214 276 343 394
#     4  11  24  42  69  98 130 175 224 270 332 391
#     4  11  24  43  67 100 140 176 215 280 342 389
#     4  11  24  43  68  94 143 174 219 274 345 394
#     4  10  22  43  65  94 129 175 218 268 330 392
#     4  11  22  40  70 100 131 173 227 281 324 393
#     4  12  23  38  69 102 134 175 230 273 327 398
#
# _framework density 22.746103999999999
#
# number of rings (size 3 to 8) (size 9 to 14) (size 15 to 20)
#    0.000    1.000    5.000    2.250    5.250    0.500 
#    0.000    0.000    0.000    1.500    0.000    0.000 
#    0.000    0.000    0.000    0.000    0.000    0.000 
#
# Total GULP energy -89163.077735 kJ/mol
# GULP energy per Si atom -5572.692358 kJ/mol
# Density = 2.269433 g / cm^3
# Si number density = 22.746104 Si / 1000 Ang^3
#
#
#
# Elastic Constant Matrix: (Units=GPa)
#
#
# Indices 1 2 3 4 5 6 
#
# 1 89.1958 20.1573 24.7768 -4.5764 -13.6175 -12.2110
# 2 20.1573 81.9210 47.5850 -24.0400 8.1735 -4.7977
# 3 24.7768 47.5850 111.1518 -4.5673 9.9019 5.5998
# 4 -4.5764 -24.0400 -4.5673 52.8174 -1.2403 4.2907
# 5 -13.6175 8.1735 9.9019 -1.2403 44.3166 4.3955
# 6 -12.2110 -4.7977 5.5998 4.2907 4.3955 33.1865
#
#
#
# Elastic Compliance Matrix: (Units=1/GPa)
#
#
# Indices 1 2 3 4 5 6 
#
# 1 0.013829 -0.001985 -0.002905 -0.000225 0.004793 0.004686
# 2 -0.001985 0.019892 -0.007653 0.007935 -0.002620 0.002758
# 3 -0.002905 -0.007653 0.013206 -0.002332 -0.002118 -0.003822
# 4 -0.000225 0.007935 -0.002332 0.022432 -0.000244 -0.001410
# 5 0.004793 -0.002620 -0.002118 -0.000244 0.025142 -0.001556
# 6 0.004686 0.002758 -0.003822 -0.001410 -0.001556 0.033289
#
#
# Mechanical properties :
#
#
# Convention : Reuss Voigt Hill
#
# Bulk Modulus (GPa) = 45.78619 51.92298 48.85459
# Shear Modulus (GPa) = 31.21968 38.71408 34.96688
#
# Velocity S-wave (km/s) = 3.70878 4.13002 3.92506
# Velocity P-wave (km/s) = 6.20589 6.75422 6.48585
#
# Compressibility (1/GPa) = 0.02184065
#
# Stress axis : x y z
#
# Youngs Moduli (GPa) = 72.31398 50.27157 75.72352
#
# Poissons Ratio (x) = 0.09978 0.21998
# Poissons Ratio (y) = 0.14354 0.57951
# Poissons Ratio (z) = 0.21008 0.38473
#
# Static dielectric constant tensor:
#      x y z
#    x 1.921960 0.023740 0.094010 
#    y 0.023740 1.849420 0.011980 
#    z 0.094010 0.011980 1.962170 
# 
# From -- ./inp_files/611635.got.cif
#   From: 2010.05.17/outbox.cif.g08.bks.cpg/sg2_306_cif.got.tgz:611635.got - 2010.06.03 11:33:40.
