data_PCOD9031152
_publ_section_title
;
Structure prediction by ZEFSAII (Michael W. Deem and Ramdas Pophale) SiO2 
 PCOD9031152
Probable space group: P -1
;
_chemical_formula_sum "Si O2"
_cell_formula_units_Z 14
_cell_length_a 15.264228
_cell_length_b 7.912478
_cell_length_c 10.863708
_cell_angle_alpha 44.276569
_cell_angle_beta 48.598676
_cell_angle_gamma 68.402157
_cell_volume 673.026609
_symmetry_space_group_name_H-M "P -1"
_symmetry_group_IT_number 2
_symmetry_cell_setting 'triclinic'
loop_
_space_group_symop_operation_xyz
x,y,z
-x,-y,-z
loop_
_atom_site_type_symbol
_atom_site_label
_atom_site_fract_x
_atom_site_fract_y
_atom_site_fract_z
Si Si1 0.955530 0.824481 0.296867
Si Si2 0.720603 0.466756 0.610066
Si Si3 0.093286 0.221251 0.357818
Si Si4 0.615354 0.912056 0.391814
Si Si5 0.420870 0.979183 0.902201
Si Si6 0.134167 0.762028 0.958851
Si Si7 0.668822 0.978397 0.775960
O O1 0.849447 0.629556 0.432283
O O2 0.957765 0.746531 0.476010
O O3 0.074001 0.832169 0.104940
O O4 0.921018 0.093328 0.172398
O O5 0.635028 0.653815 0.561586
O O6 0.720516 0.269055 0.603796
O O7 0.665195 0.291128 0.865989
O O8 0.107394 0.467903 0.135266
O O9 0.223339 0.152325 0.288324
O O10 0.000000 0.000000 0.500000
O O11 0.500000 0.000000 0.500000
O O12 0.607401 0.894158 0.261103
O O13 0.727674 0.119026 0.221351
O O14 0.558392 0.952840 0.798824
O O15 0.389970 0.109412 0.989682
#
# Coordination Sequence:
#
# PCOD9031152 Si02
#       7
#     2   2   2   2   2   2   2
#     4  10  22  43  65  87 124 161 201 257 306 352
#     4   9  20  42  62  89 121 166 197 250 309 356
#     4  12  25  39  66  94 120 160 207 248 307 371
#     4  11  24  36  67  95 116 164 213 243 300 362
#     4   9  21  41  59  87 131 158 196 254 300 361
#     4  10  24  42  62  93 122 158 209 253 300 356
#     4   9  22  41  59  90 125 164 193 247 315 349
#
# _framework density 20.801555
#
# number of rings (size 3 to 8) (size 9 to 14) (size 15 to 20)
#    0.857    1.143    0.000    2.143    8.000    1.714 
#    2.571    0.000    0.000    0.000    0.000    0.000 
#    0.000    0.000    0.000    0.000    0.000    0.000 
#
# Total GULP energy -78170.697138 kJ/mol
# GULP energy per Si atom -5583.621224 kJ/mol
# Density = 2.075421 g / cm^3
# Si number density = 20.801555 Si / 1000 Ang^3
#
#
#
# Elastic Constant Matrix: (Units=GPa)
#
#
# Indices 1 2 3 4 5 6 
#
# 1 18.1580 0.3096 6.6041 3.4924 -3.7014 -12.4217
# 2 0.3096 45.3065 16.7945 -9.6662 -7.7531 -18.7923
# 3 6.6041 16.7945 55.3633 -7.9558 -12.9535 -8.3566
# 4 3.4924 -9.6662 -7.9558 32.9332 -0.3104 -4.7759
# 5 -3.7014 -7.7531 -12.9535 -0.3104 30.1890 8.0394
# 6 -12.4217 -18.7923 -8.3566 -4.7759 8.0394 26.0728
#
#
#
# Elastic Compliance Matrix: (Units=1/GPa)
#
#
# Indices 1 2 3 4 5 6 
#
# 1 0.109637 0.036858 -0.012211 0.007397 -0.002787 0.077100
# 2 0.036858 0.051685 -0.009505 0.016951 -0.000788 0.055115
# 3 -0.012211 -0.009505 0.023729 0.003304 0.008132 -0.006965
# 4 0.007397 0.016951 0.003304 0.038793 0.000774 0.023668
# 5 -0.002787 -0.000788 0.008132 0.000774 0.039058 -0.011191
# 6 0.077100 0.055115 -0.006965 0.023668 -0.011191 0.120365
#
#
# Mechanical properties :
#
#
# Convention : Reuss Voigt Hill
#
# Bulk Modulus (GPa) = 4.64392 18.47161 11.55777
# Shear Modulus (GPa) = 11.77133 24.18029 17.97581
#
# Velocity S-wave (km/s) = 2.38142 3.41314 2.94284
# Velocity P-wave (km/s) = 3.13032 4.94286 4.13707
#
# Compressibility (1/GPa) = 0.21533513
#
# Stress axis : x y z
#
# Youngs Moduli (GPa) = 9.12101 19.34781 42.14332
#
# Poissons Ratio (x) = -0.71312 0.51460
# Poissons Ratio (y) = -0.33618 0.40058
# Poissons Ratio (z) = 0.11137 0.18390
#
# Static dielectric constant tensor:
#      x y z
#    x 1.722630 -0.003740 0.006880 
#    y -0.003740 1.758290 0.003290 
#    z 0.006880 0.003290 1.734800 
# 
# From -- ./inp_files/446588.got.cif
#   From: 2010.05.17/outbox.cif.g08.bks.cpg/sg2_224_cif.got.tgz:446588.got - 2010.06.03 11:33:40.
