data_PCOD9031353
_publ_section_title
;
Structure prediction by ZEFSAII (Michael W. Deem and Ramdas Pophale) SiO2 
 PCOD9031353
Probable space group: P -1
;
_chemical_formula_sum "Si O2"
_cell_formula_units_Z 12
_cell_length_a 10.700385
_cell_length_b 13.153379
_cell_length_c 8.210053
_cell_angle_alpha 66.705867
_cell_angle_beta 111.765323
_cell_angle_gamma 56.152325
_cell_volume 557.224400
_symmetry_space_group_name_H-M "P -1"
_symmetry_group_IT_number 2
_symmetry_cell_setting 'triclinic'
loop_
_space_group_symop_operation_xyz
x,y,z
-x,-y,-z
loop_
_atom_site_type_symbol
_atom_site_label
_atom_site_fract_x
_atom_site_fract_y
_atom_site_fract_z
Si Si1 0.986484 0.369882 0.895016
Si Si2 0.931169 0.995301 0.296469
Si Si3 0.702454 0.624812 0.921148
Si Si4 0.662310 0.450823 0.242825
Si Si5 0.507953 0.687511 0.281404
Si Si6 0.224189 0.969679 0.274944
O O1 0.848337 0.469711 0.939223
O O2 0.779163 0.530658 0.559326
O O3 0.172840 0.343545 0.001930
O O4 0.122606 0.161037 0.072156
O O5 0.100495 0.778920 0.478441
O O6 0.005834 0.042374 0.180249
O O7 0.000000 0.000000 0.500000
O O8 0.660198 0.143083 0.045390
O O9 0.430780 0.828484 0.602359
O O10 0.717428 0.531503 0.138359
O O11 0.535696 0.549182 0.294261
O O12 0.500000 0.500000 0.000000
O O13 0.357157 0.820546 0.283397
#
# Coordination Sequence:
#
# PCOD9031353 Si02
#       6
#     2   2   2   2   2   2
#     4  10  23  42  66  91 125 163 205 258 304 368
#     4  12  23  39  62  92 125 164 207 250 311 364
#     4  10  22  43  66  92 121 166 210 247 311 368
#     4  12  23  42  63  90 127 163 206 259 307 367
#     4  11  25  40  61  96 125 164 206 252 319 360
#     4  11  22  40  64  94 126 160 209 257 302 371
#
# _framework density 21.535309000000002
#
# number of rings (size 3 to 8) (size 9 to 14) (size 15 to 20)
#    0.000    1.000    3.333    3.000    0.000    2.000 
#    0.000    1.667    0.000    0.000    0.000    0.000 
#    0.000    0.000    0.000    0.000    0.000    0.000 
#
# Total GULP energy -66970.123622 kJ/mol
# GULP energy per Si atom -5580.843635 kJ/mol
# Density = 2.148629 g / cm^3
# Si number density = 21.535309 Si / 1000 Ang^3
#
#
#
# Elastic Constant Matrix: (Units=GPa)
#
#
# Indices 1 2 3 4 5 6 
#
# 1 87.7535 44.2391 36.1805 -10.0201 -1.9953 11.6844
# 2 44.2391 150.6016 70.2180 -14.0156 -2.6010 -0.8422
# 3 36.1805 70.2180 140.1693 -14.9500 17.3154 16.8449
# 4 -10.0201 -14.0156 -14.9500 48.7324 3.7964 0.3771
# 5 -1.9953 -2.6010 17.3154 3.7964 27.6688 -0.8297
# 6 11.6844 -0.8422 16.8449 0.3771 -0.8297 19.5676
#
#
#
# Elastic Compliance Matrix: (Units=1/GPa)
#
#
# Indices 1 2 3 4 5 6 
#
# 1 0.015043 -0.003914 -0.000813 0.001726 0.000736 -0.008453
# 2 -0.003914 0.010648 -0.005855 0.000039 0.004619 0.008031
# 3 -0.000813 -0.005855 0.013181 0.003031 -0.009621 -0.011580
# 4 0.001726 0.000039 0.003031 0.022235 -0.004948 -0.004277
# 5 0.000736 0.004619 -0.009621 -0.004948 0.043628 0.009987
# 6 -0.008453 0.008031 -0.011580 -0.004277 0.009987 0.066972
#
#
# Mechanical properties :
#
#
# Convention : Reuss Voigt Hill
#
# Bulk Modulus (GPa) = 56.47370 75.53327 66.00349
# Shear Modulus (GPa) = 25.15404 34.38622 29.77013
#
# Velocity S-wave (km/s) = 3.42136 4.00025 3.72208
# Velocity P-wave (km/s) = 6.47212 7.51574 7.01337
#
# Compressibility (1/GPa) = 0.01770736
#
# Stress axis : x y z
#
# Youngs Moduli (GPa) = 66.47506 93.91326 75.86758
#
# Poissons Ratio (x) = 0.36754 0.06170
# Poissons Ratio (y) = 0.26016 0.44424
# Poissons Ratio (z) = 0.05407 0.54991
#
# Static dielectric constant tensor:
#      x y z
#    x 1.757490 -0.037450 -0.003570 
#    y -0.037450 1.849940 0.014970 
#    z -0.003570 0.014970 1.811630 
# 
# From -- ./inp_files/21099.got.cif
#   From: 2010.05.17/outbox.cif.g08.bks.cpg/sg2_11_cif.got.tgz:21099.got - 2010.06.03 11:33:40.
