data_PCOD9031257
_publ_section_title
;
Structure prediction by ZEFSAII (Michael W. Deem and Ramdas Pophale) SiO2 
 PCOD9031257
Probable space group: P -1
;
_chemical_formula_sum "Si O2"
_cell_formula_units_Z 12
_cell_length_a 11.782949
_cell_length_b 8.350569
_cell_length_c 8.056940
_cell_angle_alpha 57.839072
_cell_angle_beta 56.948437
_cell_angle_gamma 56.378816
_cell_volume 522.325444
_symmetry_space_group_name_H-M "P -1"
_symmetry_group_IT_number 2
_symmetry_cell_setting 'triclinic'
loop_
_space_group_symop_operation_xyz
x,y,z
-x,-y,-z
loop_
_atom_site_type_symbol
_atom_site_label
_atom_site_fract_x
_atom_site_fract_y
_atom_site_fract_z
Si Si1 0.259425 0.090221 0.896041
Si Si2 0.015180 0.851023 0.722309
Si Si3 0.778181 0.585631 0.770240
Si Si4 0.743864 0.231063 0.183364
Si Si5 0.884788 0.497402 0.391869
Si Si6 0.440558 0.964977 0.385616
O O1 0.180445 0.266305 0.728999
O O2 0.277896 0.881034 0.904120
O O3 0.415033 0.102040 0.804509
O O4 0.145425 0.133556 0.110773
O O5 0.095380 0.886575 0.802046
O O6 0.121314 0.631318 0.692527
O O7 0.000000 0.000000 0.500000
O O8 0.798413 0.473569 0.635529
O O9 0.672352 0.818804 0.706438
O O10 0.942637 0.572896 0.676726
O O11 0.731169 0.454992 0.014414
O O12 0.635327 0.195997 0.426059
O O13 0.500000 0.000000 0.500000
#
# Coordination Sequence:
#
# PCOD9031257 Si02
#       6
#     2   2   2   2   2   2
#     4  11  23  44  68  93 135 168 214 272 320 382
#     4  12  25  41  66 100 130 169 223 267 319 382
#     4  11  22  41  72  95 129 173 216 265 323 384
#     4  11  23  42  69  98 126 173 221 260 319 393
#     4  11  23  41  68  98 130 168 217 271 321 377
#     4  10  22  43  65  97 133 167 215 265 326 382
#
# _framework density 22.974183
#
# number of rings (size 3 to 8) (size 9 to 14) (size 15 to 20)
#    0.000    1.000    5.000    3.000    2.333    2.667 
#    3.000    4.167    0.000    0.000    0.000    0.000 
#    0.000    0.000    0.000    0.000    0.000    0.000 
#
# Total GULP energy -67063.641784 kJ/mol
# GULP energy per Si atom -5588.636815 kJ/mol
# Density = 2.292189 g / cm^3
# Si number density = 22.974183 Si / 1000 Ang^3
#
#
#
# Elastic Constant Matrix: (Units=GPa)
#
#
# Indices 1 2 3 4 5 6 
#
# 1 52.9905 26.1930 47.8139 -1.5279 -8.3499 -22.2808
# 2 26.1930 34.9574 51.0197 -1.8231 -1.2406 -20.6342
# 3 47.8139 51.0197 203.7259 -9.8389 -21.0414 -24.5724
# 4 -1.5279 -1.8231 -9.8389 44.2365 -9.5497 6.7116
# 5 -8.3499 -1.2406 -21.0414 -9.5497 28.2899 5.5987
# 6 -22.2808 -20.6342 -24.5724 6.7116 5.5987 43.5149
#
#
#
# Elastic Compliance Matrix: (Units=1/GPa)
#
#
# Indices 1 2 3 4 5 6 
#
# 1 0.033257 -0.018329 -0.001735 0.000456 0.006602 0.006438
# 2 -0.018329 0.075042 -0.014303 -0.008357 -0.019927 0.021976
# 3 -0.001735 -0.014303 0.009420 0.003754 0.007916 -0.003948
# 4 0.000456 -0.008357 0.003754 0.027095 0.013188 -0.007486
# 5 0.006602 -0.019927 0.007916 0.013188 0.048722 -0.009902
# 6 0.006438 0.021976 -0.003948 -0.007486 -0.009902 0.036896
#
#
# Mechanical properties :
#
#
# Convention : Reuss Voigt Hill
#
# Bulk Modulus (GPa) = 20.41355 60.19188 40.30271
# Shear Modulus (GPa) = 15.84818 34.31807 25.08313
#
# Velocity S-wave (km/s) = 2.62930 3.86912 3.30782
# Velocity P-wave (km/s) = 4.25704 6.79829 5.67182
#
# Compressibility (1/GPa) = 0.04898707
#
# Stress axis : x y z
#
# Youngs Moduli (GPa) = 30.06904 13.32578 106.15534
#
# Poissons Ratio (x) = 0.24425 0.18416
# Poissons Ratio (y) = 0.55113 1.51829
# Poissons Ratio (z) = 0.05216 0.19059
#
# Static dielectric constant tensor:
#      x y z
#    x 1.886530 0.031460 -0.009180 
#    y 0.031460 1.866160 0.029390 
#    z -0.009180 0.029390 1.886860 
# 
# From -- ./inp_files/151101.got.cif
#   From: 2010.05.17/outbox.cif.g08.bks.cpg/sg2_76_cif.got.tgz:151101.got - 2010.06.03 11:33:40.
