data_PCOD9031192
_publ_section_title
;
Structure prediction by ZEFSAII (Michael W. Deem and Ramdas Pophale) SiO2 
 PCOD9031192
Probable space group: P -1
;
_chemical_formula_sum "Si O2"
_cell_formula_units_Z 16
_cell_length_a 11.953579
_cell_length_b 19.960332
_cell_length_c 10.577222
_cell_angle_alpha 59.887078
_cell_angle_beta 35.567480
_cell_angle_gamma 34.519892
_cell_volume 714.958518
_symmetry_space_group_name_H-M "P -1"
_symmetry_group_IT_number 2
_symmetry_cell_setting 'triclinic'
loop_
_space_group_symop_operation_xyz
x,y,z
-x,-y,-z
loop_
_atom_site_type_symbol
_atom_site_label
_atom_site_fract_x
_atom_site_fract_y
_atom_site_fract_z
Si Si1 0.359466 0.605120 0.428819
Si Si2 0.949709 0.938995 0.400070
Si Si3 0.147384 0.166756 0.898833
Si Si4 0.095506 0.133714 0.253598
Si Si5 0.156172 0.579786 0.183927
Si Si6 0.619211 0.631742 0.000810
Si Si7 0.892667 0.689362 0.588816
Si Si8 0.848617 0.999497 0.025737
O O1 0.500000 0.500000 0.500000
O O2 0.634366 0.579072 0.166499
O O3 0.029776 0.753845 0.652294
O O4 0.233648 0.614408 0.401111
O O5 0.019517 0.901137 0.521686
O O6 0.223341 0.793963 0.209846
O O7 0.011506 0.004294 0.226237
O O8 0.558550 0.042641 0.641968
O O9 0.991141 0.188542 0.155013
O O10 0.999105 0.299233 0.872136
O O11 0.070733 0.118306 0.925963
O O12 0.500000 0.000000 0.000000
O O13 0.922108 0.647885 0.458953
O O14 0.500000 0.500000 0.000000
O O15 0.239058 0.472992 0.137116
O O16 0.826266 0.641321 0.790975
O O17 0.561437 0.854354 0.738872
O O18 0.000000 0.000000 0.000000
#
# Coordination Sequence:
#
# PCOD9031192 Si02
#       8
#     2   2   2   2   2   2   2   2
#     4  11  22  41  65  92 126 170 218 258 319 385
#     4   9  21  42  67  93 124 167 212 262 317 383
#     4  11  24  41  64  94 128 165 210 267 320 372
#     4   9  19  38  65  90 124 161 208 264 315 375
#     4  12  25  40  64  92 131 173 209 265 325 379
#     4  10  22  43  65  93 126 168 216 258 322 381
#     4  11  24  42  66  91 130 171 211 271 319 377
#     4  11  24  40  67  98 128 167 216 260 319 390
#
# _framework density 22.378919
#
# number of rings (size 3 to 8) (size 9 to 14) (size 15 to 20)
#    0.000    1.500    1.250    4.125    3.500    2.000 
#    2.250    3.750    0.000    0.000    0.000    0.000 
#    0.000    0.000    0.000    0.000    0.000    0.000 
#
# Total GULP energy -89267.203814 kJ/mol
# GULP energy per Si atom -5579.200238 kJ/mol
# Density = 2.232798 g / cm^3
# Si number density = 22.378919 Si / 1000 Ang^3
#
#
#
# Elastic Constant Matrix: (Units=GPa)
#
#
# Indices 1 2 3 4 5 6 
#
# 1 38.0106 11.3807 2.4426 7.8384 9.6726 -2.1586
# 2 11.3807 99.7443 21.5705 -7.1194 3.4108 3.6632
# 3 2.4426 21.5705 92.8113 -6.8471 17.7317 -1.8875
# 4 7.8384 -7.1194 -6.8471 31.7327 1.7746 12.7361
# 5 9.6726 3.4108 17.7317 1.7746 28.4921 -2.1813
# 6 -2.1586 3.6632 -1.8875 12.7361 -2.1813 30.8507
#
#
#
# Elastic Compliance Matrix: (Units=1/GPa)
#
#
# Indices 1 2 3 4 5 6 
#
# 1 0.032932 -0.004773 0.001549 -0.011012 -0.010368 0.006779
# 2 -0.004773 0.011540 -0.002527 0.004632 0.001241 -0.003683
# 3 0.001549 -0.002527 0.013142 0.002546 -0.008595 -0.000446
# 4 -0.011012 0.004632 0.002546 0.043760 -0.002612 -0.019415
# 5 -0.010368 0.001241 -0.008595 -0.002612 0.044195 0.002805
# 6 0.006779 -0.003683 -0.000446 -0.019415 0.002805 0.041512
#
#
# Mechanical properties :
#
#
# Convention : Reuss Voigt Hill
#
# Bulk Modulus (GPa) = 21.68621 33.48375 27.58498
# Shear Modulus (GPa) = 23.36955 31.22658 27.29807
#
# Velocity S-wave (km/s) = 3.23502 3.73950 3.49637
# Velocity P-wave (km/s) = 4.86470 5.79998 5.35281
#
# Compressibility (1/GPa) = 0.04611225
#
# Stress axis : x y z
#
# Youngs Moduli (GPa) = 30.36545 86.65447 76.09301
#
# Poissons Ratio (x) = 0.41360 -0.11785
# Poissons Ratio (y) = 0.14493 0.19227
# Poissons Ratio (z) = -0.04703 0.21895
#
# Static dielectric constant tensor:
#      x y z
#    x 1.855420 -0.008260 0.045510 
#    y -0.008260 1.854660 -0.013570 
#    z 0.045510 -0.013570 1.856610 
# 
# From -- ./inp_files/457681.got.cif
#   From: 2010.05.17/outbox.cif.g08.bks.cpg/sg2_229_cif.got.tgz:457681.got - 2010.06.03 11:33:40.
