data_PCOD9031134
_publ_section_title
;
Structure prediction by ZEFSAII (Michael W. Deem and Ramdas Pophale) SiO2 
 PCOD9031134
Probable space group: P -1
;
_chemical_formula_sum "Si O2"
_cell_formula_units_Z 12
_cell_length_a 14.001942
_cell_length_b 5.096184
_cell_length_c 9.160979
_cell_angle_alpha 82.804231
_cell_angle_beta 108.355096
_cell_angle_gamma 124.903895
_cell_volume 507.560047
_symmetry_space_group_name_H-M "P -1"
_symmetry_group_IT_number 2
_symmetry_cell_setting 'triclinic'
loop_
_space_group_symop_operation_xyz
x,y,z
-x,-y,-z
loop_
_atom_site_type_symbol
_atom_site_label
_atom_site_fract_x
_atom_site_fract_y
_atom_site_fract_z
Si Si1 0.616198 0.601762 0.645549
Si Si2 0.308797 0.820232 0.799299
Si Si3 0.957030 0.704279 0.391607
Si Si4 0.864672 0.089214 0.795514
Si Si5 0.458371 0.545265 0.823051
Si Si6 0.239941 0.585907 0.113648
O O1 0.500000 0.500000 0.500000
O O2 0.575370 0.677330 0.770296
O O3 0.653683 0.357889 0.725923
O O4 0.746632 0.912676 0.640872
O O5 0.186721 0.535214 0.684478
O O6 0.412925 0.774109 0.799881
O O7 0.350055 0.178629 0.754387
O O8 0.288863 0.754666 0.969275
O O9 0.000000 0.500000 0.500000
O O10 0.019933 0.800148 0.255561
O O11 0.000000 0.000000 0.500000
O O12 0.850184 0.337415 0.860085
O O13 0.165463 0.199314 0.091359
O O14 0.500000 0.500000 0.000000
#
# Coordination Sequence:
#
# PCOD9031134 Si02
#       6
#     2   2   2   2   2   2
#     4  10  25  40  67  99 138 181 223 284 344 405
#     4  12  26  42  74 102 136 189 227 286 350 405
#     4  12  28  48  69  99 138 182 239 287 343 419
#     4  10  24  44  66  95 136 174 230 285 338 408
#     4  12  24  44  71 105 146 177 233 284 345 424
#     4  10  22  43  65 102 129 174 229 277 352 406
#
# _framework density 23.642524000000002
#
# number of rings (size 3 to 8) (size 9 to 14) (size 15 to 20)
#    1.000    0.000    1.667    4.500    7.000    2.000 
#    0.000    0.000    0.000    0.000    0.000    0.000 
#    0.000    0.000    0.000    0.000    0.000    0.000 
#
# Total GULP energy -67038.879282 kJ/mol
# GULP energy per Si atom -5586.573274 kJ/mol
# Density = 2.358871 g / cm^3
# Si number density = 23.642524 Si / 1000 Ang^3
#
#
#
# Elastic Constant Matrix: (Units=GPa)
#
#
# Indices 1 2 3 4 5 6 
#
# 1 116.5907 24.9980 5.1024 3.7035 -16.4961 -16.6185
# 2 24.9980 73.7278 4.8799 6.5727 -7.5814 -16.8462
# 3 5.1024 4.8799 54.5361 10.6573 11.1055 -8.7177
# 4 3.7035 6.5727 10.6573 35.6160 6.3397 1.0751
# 5 -16.4961 -7.5814 11.1055 6.3397 31.4501 7.0214
# 6 -16.6185 -16.8462 -8.7177 1.0751 7.0214 53.6877
#
#
#
# Elastic Compliance Matrix: (Units=1/GPa)
#
#
# Indices 1 2 3 4 5 6 
#
# 1 0.010117 -0.002365 -0.001295 -0.001180 0.005088 0.001538
# 2 -0.002365 0.015818 -0.000476 -0.003092 0.002496 0.003889
# 3 -0.001295 -0.000476 0.021860 -0.004940 -0.008456 0.004204
# 4 -0.001180 -0.003092 -0.004940 0.031284 -0.005469 -0.002049
# 5 0.005088 0.002496 -0.008456 -0.005469 0.040081 -0.004147
# 6 0.001538 0.003889 0.004204 -0.002049 -0.004147 0.021589
#
#
# Mechanical properties :
#
#
# Convention : Reuss Voigt Hill
#
# Bulk Modulus (GPa) = 25.30184 34.97947 30.14066
# Shear Modulus (GPa) = 30.82713 38.14239 34.48476
#
# Velocity S-wave (km/s) = 3.61485 4.02094 3.82329
# Velocity P-wave (km/s) = 5.30546 6.03196 5.68034
#
# Compressibility (1/GPa) = 0.03952281
#
# Stress axis : x y z
#
# Youngs Moduli (GPa) = 98.84028 63.22003 45.74658
#
# Poissons Ratio (x) = 0.14951 0.05923
# Poissons Ratio (y) = 0.23374 0.02179
# Poissons Ratio (z) = 0.12797 0.03011
#
# Static dielectric constant tensor:
#      x y z
#    x 1.807800 0.035620 0.053200 
#    y 0.035620 1.964820 0.067170 
#    z 0.053200 0.067170 1.915330 
# 
# From -- ./inp_files/68835.got.cif
#   From: 2010.05.17/outbox.cif.g08.bks.cpg/sg2_35_cif.got.tgz:68835.got - 2010.06.03 11:33:40.
