data_PCOD9031591
_publ_section_title
;
Structure prediction by ZEFSAII (Michael W. Deem and Ramdas Pophale) SiO2 
 PCOD9031591
Probable space group: P -1
;
_chemical_formula_sum "Si O2"
_cell_formula_units_Z 16
_cell_length_a 6.572219
_cell_length_b 22.066754
_cell_length_c 17.768367
_cell_angle_alpha 16.201741
_cell_angle_beta 75.806921
_cell_angle_gamma 76.922366
_cell_volume 696.658695
_symmetry_space_group_name_H-M "P -1"
_symmetry_group_IT_number 2
_symmetry_cell_setting 'triclinic'
loop_
_space_group_symop_operation_xyz
x,y,z
-x,-y,-z
loop_
_atom_site_type_symbol
_atom_site_label
_atom_site_fract_x
_atom_site_fract_y
_atom_site_fract_z
Si Si1 0.551342 0.043346 0.068534
Si Si2 0.706922 0.463530 0.862711
Si Si3 0.962625 0.565911 0.010080
Si Si4 0.490708 0.342596 0.583523
Si Si5 0.130232 0.669021 0.234519
Si Si6 0.094166 0.426431 0.774554
Si Si7 0.328064 0.170181 0.191362
Si Si8 0.638697 0.187316 0.501066
O O1 0.560952 0.834618 0.263792
O O2 0.410949 0.985704 0.222357
O O3 0.459613 0.232474 0.799135
O O4 0.783645 0.119974 0.981845
O O5 0.560630 0.660135 0.661645
O O6 0.826208 0.393442 0.010633
O O7 0.892371 0.526944 0.712266
O O8 0.556704 0.274994 0.064734
O O9 0.832920 0.350546 0.308800
O O10 0.815151 0.770801 0.794098
O O11 0.000000 0.500000 0.000000
O O12 0.343981 0.544493 0.344807
O O13 0.734547 0.408721 0.472939
O O14 0.000000 0.500000 0.500000
O O15 0.002857 0.715319 0.115742
O O16 0.214246 0.300715 0.978918
O O17 0.336620 0.931941 0.438937
#
# Coordination Sequence:
#
# PCOD9031591 Si02
#       8
#     2   2   2   2   2   2   2   2
#     4  11  23  41  61  87 126 168 215 270 319 370
#     4  10  22  43  67  95 128 169 211 257 323 384
#     4  10  24  46  70  99 133 165 202 256 324 391
#     4  11  24  42  58  88 129 168 222 276 318 367
#     4  12  25  40  60  90 122 175 222 270 321 368
#     4  11  21  42  65  86 133 175 218 268 321 374
#     4  10  23  41  67  97 132 171 209 265 316 378
#     4  11  23  41  65  98 129 166 215 265 317 380
#
# _framework density 22.966771000000001
#
# number of rings (size 3 to 8) (size 9 to 14) (size 15 to 20)
#    0.000    1.250    1.250    5.625    1.750    6.000 
#    4.500    3.750    0.000    0.000    0.000    0.000 
#    0.000    0.000    0.000    0.000    0.000    0.000 
#
# Total GULP energy -89511.700888 kJ/mol
# GULP energy per Si atom -5594.481305 kJ/mol
# Density = 2.291450 g / cm^3
# Si number density = 22.966771 Si / 1000 Ang^3
#
#
#
# Elastic Constant Matrix: (Units=GPa)
#
#
# Indices 1 2 3 4 5 6 
#
# 1 134.6581 48.3202 28.3739 -16.1900 -15.0729 29.8546
# 2 48.3202 111.9237 8.2039 -19.4659 -12.2842 13.1613
# 3 28.3739 8.2039 41.8233 -22.6078 -12.8730 1.9806
# 4 -16.1900 -19.4659 -22.6078 44.9455 6.0895 -7.2527
# 5 -15.0729 -12.2842 -12.8730 6.0895 22.6143 -9.6837
# 6 29.8546 13.1613 1.9806 -7.2527 -9.6837 29.9094
#
#
#
# Elastic Compliance Matrix: (Units=1/GPa)
#
#
# Indices 1 2 3 4 5 6 
#
# 1 0.013322 -0.004644 -0.011231 -0.004360 -0.004430 -0.013002
# 2 -0.004644 0.011941 0.005816 0.005986 0.006132 0.002432
# 3 -0.011231 0.005816 0.050141 0.023277 0.026293 0.019489
# 4 -0.004360 0.005986 0.023277 0.035652 0.009025 0.011743
# 5 -0.004430 0.006132 0.026293 0.009025 0.067411 0.023996
# 6 -0.013002 0.002432 0.019489 0.011743 0.023996 0.054668
#
#
# Mechanical properties :
#
#
# Convention : Reuss Voigt Hill
#
# Bulk Modulus (GPa) = 18.08763 50.91123 34.49943
# Shear Modulus (GPa) = 18.40391 33.06099 25.73245
#
# Velocity S-wave (km/s) = 2.83384 3.79821 3.35090
# Velocity P-wave (km/s) = 4.31280 6.43822 5.47955
#
# Compressibility (1/GPa) = 0.05528639
#
# Stress axis : x y z
#
# Youngs Moduli (GPa) = 75.06650 83.74356 19.94361
#
# Poissons Ratio (x) = 0.38887 0.22399
# Poissons Ratio (y) = 0.34858 -0.11599
# Poissons Ratio (z) = 0.84309 -0.48705
#
# Static dielectric constant tensor:
#      x y z
#    x 1.836480 -0.018980 0.010720 
#    y -0.018980 1.885760 0.012240 
#    z 0.010720 0.012240 1.875550 
# 
# From -- ./inp_files/142626.got.cif
#   From: 2010.05.17/outbox.cif.g08.bks.cpg/sg2_72_cif.got.tgz:142626.got - 2010.06.03 11:33:40.
