data_PCOD9031331
_publ_section_title
;
Structure prediction by ZEFSAII (Michael W. Deem and Ramdas Pophale) SiO2 
 PCOD9031331
Probable space group: P -1
;
_chemical_formula_sum "Si O2"
_cell_formula_units_Z 14
_cell_length_a 6.145558
_cell_length_b 9.507557
_cell_length_c 15.176781
_cell_angle_alpha 125.782900
_cell_angle_beta 78.412376
_cell_angle_gamma 74.025908
_cell_volume 612.691096
_symmetry_space_group_name_H-M "P -1"
_symmetry_group_IT_number 2
_symmetry_cell_setting 'triclinic'
loop_
_space_group_symop_operation_xyz
x,y,z
-x,-y,-z
loop_
_atom_site_type_symbol
_atom_site_label
_atom_site_fract_x
_atom_site_fract_y
_atom_site_fract_z
Si Si1 0.808139 0.269573 0.065799
Si Si2 0.484763 0.179385 0.193563
Si Si3 0.451350 0.816327 0.446546
Si Si4 0.303282 0.693514 0.237282
Si Si5 0.325750 0.734450 0.612770
Si Si6 0.989455 0.511995 0.759879
Si Si7 0.201664 0.965980 0.177977
O O1 0.702670 0.170553 0.108569
O O2 0.567256 0.483540 0.136785
O O3 0.003070 0.323306 0.117447
O O4 0.891139 0.138559 0.923796
O O5 0.545625 0.203266 0.297738
O O6 0.231925 0.377869 0.253188
O O7 0.964542 0.180583 0.301347
O O8 0.303163 0.796308 0.367425
O O9 0.316121 0.831969 0.555334
O O10 0.729127 0.616055 0.350308
O O11 0.500000 0.000000 0.500000
O O12 0.080472 0.635479 0.235213
O O13 0.289002 0.829772 0.207323
O O14 0.500000 0.500000 0.500000
O O15 0.579949 0.998705 0.869234
#
# Coordination Sequence:
#
# PCOD9031331 Si02
#       7
#     2   2   2   2   2   2   2
#     4  10  23  44  66  93 127 164 211 260 315 378
#     4  11  24  42  65  92 126 167 211 258 315 374
#     4  11  23  41  64  94 129 164 212 261 308 376
#     4  10  23  42  67  97 125 165 210 258 320 373
#     4  12  26  41  61  94 128 165 213 255 307 377
#     4  10  22  43  66  88 129 172 205 260 316 367
#     4  12  25  41  66  96 127 165 209 263 317 370
#
# _framework density 22.850014000000002
#
# number of rings (size 3 to 8) (size 9 to 14) (size 15 to 20)
#    0.000    1.143    0.000    6.857    0.000   13.143 
#    0.000    0.000    0.000    0.000    0.000    0.000 
#    0.000    0.000    0.000    0.000    0.000    0.000 
#
# Total GULP energy -78423.097170 kJ/mol
# GULP energy per Si atom -5601.649798 kJ/mol
# Density = 2.279801 g / cm^3
# Si number density = 22.850014 Si / 1000 Ang^3
#
#
#
# Elastic Constant Matrix: (Units=GPa)
#
#
# Indices 1 2 3 4 5 6 
#
# 1 93.8925 35.3327 31.0746 -4.7560 13.6395 11.7804
# 2 35.3327 127.5768 39.2792 -12.0917 12.4445 7.0310
# 3 31.0746 39.2792 112.9174 -5.9367 12.4211 -4.4119
# 4 -4.7560 -12.0917 -5.9367 29.5353 -6.0962 4.8846
# 5 13.6395 12.4445 12.4211 -6.0962 37.6856 2.8985
# 6 11.7804 7.0310 -4.4119 4.8846 2.8985 42.1520
#
#
#
# Elastic Compliance Matrix: (Units=1/GPa)
#
#
# Indices 1 2 3 4 5 6 
#
# 1 0.013278 -0.002341 -0.002635 0.000650 -0.002792 -0.003480
# 2 -0.002341 0.009742 -0.002539 0.003170 -0.000902 -0.001542
# 3 -0.002635 -0.002539 0.010770 -0.000107 -0.001962 0.002434
# 4 0.000650 0.003170 -0.000107 0.037200 0.005185 -0.005389
# 5 -0.002792 -0.000902 -0.001962 0.005185 0.029475 -0.001902
# 6 -0.003480 -0.001542 0.002434 -0.005389 -0.001902 0.025963
#
#
# Mechanical properties :
#
#
# Convention : Reuss Voigt Hill
#
# Bulk Modulus (GPa) = 53.30182 60.63997 56.97089
# Shear Modulus (GPa) = 33.84990 37.12126 35.48558
#
# Velocity S-wave (km/s) = 3.85307 4.03496 3.94506
# Velocity P-wave (km/s) = 6.57056 6.95009 6.76299
#
# Compressibility (1/GPa) = 0.01876109
#
# Stress axis : x y z
#
# Youngs Moduli (GPa) = 75.31102 102.65092 92.85357
#
# Poissons Ratio (x) = 0.24027 0.24464
# Poissons Ratio (y) = 0.17627 0.23576
# Poissons Ratio (z) = 0.19842 0.26063
#
# Static dielectric constant tensor:
#      x y z
#    x 1.858730 -0.010290 -0.029330 
#    y -0.010290 1.841340 0.029530 
#    z -0.029330 0.029530 1.831500 
# 
# From -- ./inp_files/480064.got.cif
#   From: 2010.05.17/outbox.cif.g08.bks.cpg/sg2_241_cif.got.tgz:480064.got - 2010.06.03 11:33:40.
