data_PCOD9031051
_publ_section_title
;
Structure prediction by ZEFSAII (Michael W. Deem and Ramdas Pophale) SiO2 
 PCOD9031051
Probable space group: P -1
;
_chemical_formula_sum "Si O2"
_cell_formula_units_Z 12
_cell_length_a 12.933409
_cell_length_b 8.638563
_cell_length_c 5.155592
_cell_angle_alpha 114.413189
_cell_angle_beta 95.483964
_cell_angle_gamma 111.404403
_cell_volume 467.253814
_symmetry_space_group_name_H-M "P -1"
_symmetry_group_IT_number 2
_symmetry_cell_setting 'triclinic'
loop_
_space_group_symop_operation_xyz
x,y,z
-x,-y,-z
loop_
_atom_site_type_symbol
_atom_site_label
_atom_site_fract_x
_atom_site_fract_y
_atom_site_fract_z
Si Si1 0.135660 0.634424 0.170115
Si Si2 0.729468 0.773534 0.839534
Si Si3 0.490705 0.805455 0.743989
Si Si4 0.161545 0.444925 0.557721
Si Si5 0.928477 0.097679 0.414906
Si Si6 0.599990 0.431483 0.945491
O O1 0.172988 0.571980 0.399550
O O2 0.143610 0.841289 0.354419
O O3 0.194296 0.582792 0.909038
O O4 0.000000 0.500000 0.000000
O O5 0.616471 0.803939 0.775710
O O6 0.774095 0.686987 0.558448
O O7 0.696828 0.616326 0.951407
O O8 0.439734 0.738667 0.397049
O O9 0.407235 0.652015 0.825638
O O10 0.500000 0.000000 0.000000
O O11 0.025657 0.290070 0.442426
O O12 0.161924 0.039171 0.906460
O O13 0.000000 0.000000 0.500000
O O14 0.500000 0.500000 0.000000
#
# Coordination Sequence:
#
# PCOD9031051 Si02
#       6
#     2   2   2   2   2   2
#     4  10  22  43  64  89 133 184 229 277 323 384
#     4  11  24  43  70 102 140 186 226 284 352 406
#     4  11  25  48  74 103 135 174 232 294 348 414
#     4  11  24  43  65  96 137 185 230 275 329 403
#     4  11  24  43  68 104 144 185 232 280 334 413
#     4  10  23  46  70  98 133 176 226 284 347 412
#
# _framework density 25.68197
#
# number of rings (size 3 to 8) (size 9 to 14) (size 15 to 20)
#    0.000    1.333    0.000    7.000    0.000   10.667 
#    0.000    8.333    0.000    0.000    0.000    0.000 
#    0.000    0.000    0.000    0.000    0.000    0.000 
#
# Total GULP energy -67228.540155 kJ/mol
# GULP energy per Si atom -5602.378346 kJ/mol
# Density = 2.562352 g / cm^3
# Si number density = 25.681970 Si / 1000 Ang^3
#
#
#
# Elastic Constant Matrix: (Units=GPa)
#
#
# Indices 1 2 3 4 5 6 
#
# 1 122.1901 24.1548 53.6677 12.3400 -23.5494 -9.5080
# 2 24.1548 69.3294 54.3240 19.3925 -4.3086 -7.7929
# 3 53.6677 54.3240 226.1236 20.2647 -13.7375 -15.3780
# 4 12.3400 19.3925 20.2647 59.8683 -8.8383 -3.2316
# 5 -23.5494 -4.3086 -13.7375 -8.8383 60.1305 6.9767
# 6 -9.5080 -7.7929 -15.3780 -3.2316 6.9767 45.1810
#
#
#
# Elastic Compliance Matrix: (Units=1/GPa)
#
#
# Indices 1 2 3 4 5 6 
#
# 1 0.009990 -0.001787 -0.001660 -0.000399 0.003266 0.000696
# 2 -0.001787 0.019436 -0.003783 -0.004719 -0.001040 0.001512
# 3 -0.001660 -0.003783 0.005832 -0.000319 0.000257 0.000921
# 4 -0.000399 -0.004719 -0.000319 0.018745 0.002189 -0.000004
# 5 0.003266 -0.001040 0.000257 0.002189 0.018459 -0.002098
# 6 0.000696 0.001512 0.000921 -0.000004 -0.002098 0.023178
#
#
# Mechanical properties :
#
#
# Convention : Reuss Voigt Hill
#
# Bulk Modulus (GPa) = 48.08130 75.77068 61.92599
# Shear Modulus (GPa) = 42.72345 52.06908 47.39627
#
# Velocity S-wave (km/s) = 4.08310 4.50761 4.30060
# Velocity P-wave (km/s) = 6.40245 7.52721 6.98750
#
# Compressibility (1/GPa) = 0.02079811
#
# Stress axis : x y z
#
# Youngs Moduli (GPa) = 100.09703 51.45191 171.46896
#
# Poissons Ratio (x) = 0.09195 0.28469
# Poissons Ratio (y) = 0.17888 0.64860
# Poissons Ratio (z) = 0.16619 0.19462
#
# Static dielectric constant tensor:
#      x y z
#    x 2.209850 0.021370 0.074960 
#    y 0.021370 2.013230 0.010140 
#    z 0.074960 0.010140 2.132760 
# 
# From -- ./inp_files/59884.got.cif
#   From: 2010.05.17/outbox.cif.g08.bks.cpg/sg2_30_cif.got.tgz:59884.got - 2010.06.03 11:33:40.
