data_PCOD9031992
_publ_section_title
;
Structure prediction by ZEFSAII (Michael W. Deem and Ramdas Pophale) SiO2 
 PCOD9031992
Probable space group: P -1
;
_chemical_formula_sum "Si O2"
_cell_formula_units_Z 14
_cell_length_a 12.545604
_cell_length_b 31.238738
_cell_length_c 5.346667
_cell_angle_alpha 122.023964
_cell_angle_beta 121.275960
_cell_angle_gamma 21.229051
_cell_volume 641.165958
_symmetry_space_group_name_H-M "P -1"
_symmetry_group_IT_number 2
_symmetry_cell_setting 'triclinic'
loop_
_space_group_symop_operation_xyz
x,y,z
-x,-y,-z
loop_
_atom_site_type_symbol
_atom_site_label
_atom_site_fract_x
_atom_site_fract_y
_atom_site_fract_z
Si Si1 0.312744 0.178094 0.869167
Si Si2 0.715937 0.455222 0.958329
Si Si3 0.840029 0.512799 0.578690
Si Si4 0.357652 0.660181 0.847083
Si Si5 0.305037 0.119902 0.201273
Si Si6 0.445399 0.312210 0.584509
Si Si7 0.809936 0.077914 0.259321
O O1 0.437512 0.102837 0.543821
O O2 0.260297 0.165393 0.022103
O O3 0.542740 0.136398 0.101189
O O4 0.006366 0.315809 0.830686
O O5 0.837809 0.463048 0.250211
O O6 0.500000 0.500000 0.000000
O O7 0.505893 0.554166 0.793786
O O8 0.570948 0.598505 0.695759
O O9 0.744840 0.601430 0.619422
O O10 0.181248 0.394144 0.709103
O O11 0.012861 0.779286 0.762121
O O12 0.389605 0.696330 0.181348
O O13 0.500000 0.000000 0.000000
O O14 0.668171 0.185421 0.426239
O O15 0.000000 0.000000 0.500000
O O16 0.000000 0.000000 0.000000
#
# Coordination Sequence:
#
# PCOD9031992 Si02
#       7
#     2   2   2   2   2   2   2
#     4  12  27  50  76 107 146 190 246 308 363 427
#     4  11  22  42  69 107 145 180 241 298 374 424
#     4  10  22  43  69 102 142 187 238 303 367 438
#     4  11  25  40  75 103 143 196 238 297 367 445
#     4  12  29  49  74 105 148 197 243 297 360 442
#     4  10  24  44  67 105 142 188 244 299 369 427
#     4  12  29  49  77 108 146 198 248 303 361 438
#
# _framework density 21.83522
#
# number of rings (size 3 to 8) (size 9 to 14) (size 15 to 20)
#    0.000    0.857    2.857    2.571   10.000    2.286 
#    0.000    0.000    0.000    0.000    0.000    0.000 
#    0.000    0.000    0.000    0.000    0.000    0.000 
#
# Total GULP energy -78147.461571 kJ/mol
# GULP energy per Si atom -5581.961541 kJ/mol
# Density = 2.178552 g / cm^3
# Si number density = 21.835220 Si / 1000 Ang^3
#
#
#
# Elastic Constant Matrix: (Units=GPa)
#
#
# Indices 1 2 3 4 5 6 
#
# 1 109.0579 57.4684 23.7933 17.0138 0.4318 8.2906
# 2 57.4684 145.4204 45.1101 25.0502 5.9090 14.7202
# 3 23.7933 45.1101 107.6501 15.5852 7.6233 21.3468
# 4 17.0138 25.0502 15.5852 34.5425 -5.4092 11.6178
# 5 0.4318 5.9090 7.6233 -5.4092 41.7621 0.5586
# 6 8.2906 14.7202 21.3468 11.6178 0.5586 35.6212
#
#
#
# Elastic Compliance Matrix: (Units=1/GPa)
#
#
# Indices 1 2 3 4 5 6 
#
# 1 0.011838 -0.004070 -0.000570 -0.002630 0.000215 0.000122
# 2 -0.004070 0.010107 -0.002553 -0.004314 -0.001477 -0.000269
# 3 -0.000570 -0.002553 0.011943 -0.001760 -0.001969 -0.005364
# 4 -0.002630 -0.004314 -0.001760 0.038170 0.006024 -0.009094
# 5 0.000215 -0.001477 -0.001969 0.006024 0.025300 -0.000621
# 6 0.000122 -0.000269 -0.005364 -0.009094 -0.000621 0.034346
#
#
# Mechanical properties :
#
#
# Convention : Reuss Voigt Hill
#
# Bulk Modulus (GPa) = 51.27367 68.31910 59.79639
# Shear Modulus (GPa) = 32.76694 38.10226 35.43460
#
# Velocity S-wave (km/s) = 3.87802 4.18184 4.03279
# Velocity P-wave (km/s) = 6.60190 7.39415 7.00923
#
# Compressibility (1/GPa) = 0.01950319
#
# Stress axis : x y z
#
# Youngs Moduli (GPa) = 84.47033 98.93734 83.72835
#
# Poissons Ratio (x) = 0.40265 0.04772
# Poissons Ratio (y) = 0.34377 0.21379
# Poissons Ratio (z) = 0.04814 0.25262
#
# Static dielectric constant tensor:
#      x y z
#    x 1.879980 -0.016540 -0.078450 
#    y -0.016540 1.779130 -0.031410 
#    z -0.078450 -0.031410 1.938460 
# 
# From -- ./inp_files/72117.got.cif
#   From: 2010.05.17/outbox.cif.g08.bks.cpg/sg2_37_cif.got.tgz:72117.got - 2010.06.03 11:33:40.
