data_PCOD9031281
_publ_section_title
;
Structure prediction by ZEFSAII (Michael W. Deem and Ramdas Pophale) SiO2 
 PCOD9031281
Probable space group: P -1
;
_chemical_formula_sum "Si O2"
_cell_formula_units_Z 14
_cell_length_a 22.505649
_cell_length_b 28.269702
_cell_length_c 12.432227
_cell_angle_alpha 26.590889
_cell_angle_beta 154.734590
_cell_angle_gamma 169.481833
_cell_volume 614.962123
_symmetry_space_group_name_H-M "P -1"
_symmetry_group_IT_number 2
_symmetry_cell_setting 'triclinic'
loop_
_space_group_symop_operation_xyz
x,y,z
-x,-y,-z
loop_
_atom_site_type_symbol
_atom_site_label
_atom_site_fract_x
_atom_site_fract_y
_atom_site_fract_z
Si Si1 0.250156 0.732753 0.098213
Si Si2 0.843661 0.292260 0.428533
Si Si3 0.765104 0.958037 0.613507
Si Si4 0.974216 0.672962 0.575802
Si Si5 0.343970 0.295734 0.726254
Si Si6 0.684418 0.486904 0.092385
Si Si7 0.826444 0.828082 0.670728
O O1 0.905524 0.457034 0.157951
O O2 0.505093 0.814054 0.385276
O O3 0.124124 0.682825 0.876810
O O4 0.500000 0.000000 0.000000
O O5 0.951354 0.302242 0.476508
O O6 0.076673 0.435742 0.622522
O O7 0.500000 0.000000 0.500000
O O8 0.812812 0.077345 0.542787
O O9 0.127084 0.202674 0.652544
O O10 0.645660 0.765503 0.860344
O O11 0.567562 0.408376 0.471828
O O12 0.500000 0.500000 0.500000
O O13 0.624943 0.430894 0.982505
O O14 0.080770 0.040646 0.749806
O O15 0.821698 0.698763 0.909928
O O16 0.000000 0.000000 0.500000
#
# Coordination Sequence:
#
# PCOD9031281 Si02
#       7
#     2   2   2   2   2   2   2
#     4   9  21  43  68  91 132 179 226 274 335 406
#     4  11  26  44  68 102 134 179 231 282 338 395
#     4  10  22  43  66 100 132 179 221 273 346 391
#     4  11  23  43  72  96 136 180 226 278 333 409
#     4  12  24  42  65  98 138 174 222 279 332 402
#     4  11  25  45  66  97 142 170 224 278 337 405
#     4  12  25  42  71 105 130 179 227 274 341 399
#
# _framework density 22.765628
#
# number of rings (size 3 to 8) (size 9 to 14) (size 15 to 20)
#    0.000    1.143    2.857    2.571    4.000    2.286 
#    0.000    7.857    0.000    0.000    0.000    0.000 
#    0.000    0.000    0.000    0.000    0.000    0.000 
#
# Total GULP energy -78039.593906 kJ/mol
# GULP energy per Si atom -5574.256708 kJ/mol
# Density = 2.271381 g / cm^3
# Si number density = 22.765628 Si / 1000 Ang^3
#
#
#
# Elastic Constant Matrix: (Units=GPa)
#
#
# Indices 1 2 3 4 5 6 
#
# 1 81.8373 34.8684 26.9328 -12.6723 -17.9396 -22.6685
# 2 34.8684 109.5482 27.1423 -30.4790 -10.2170 -9.8583
# 3 26.9328 27.1423 118.1277 -21.2110 -31.8933 -6.9123
# 4 -12.6723 -30.4790 -21.2110 60.4745 -10.4153 -9.9395
# 5 -17.9396 -10.2170 -31.8933 -10.4153 29.0557 -9.3783
# 6 -22.6685 -9.8583 -6.9123 -9.9395 -9.3783 48.3111
#
#
#
# Elastic Compliance Matrix: (Units=1/GPa)
#
#
# Indices 1 2 3 4 5 6 
#
# 1 0.036910 0.003722 0.018423 0.035008 0.070283 0.041560
# 2 0.003722 0.014760 0.006545 0.017222 0.025420 0.014172
# 3 0.018423 0.006545 0.030850 0.036295 0.072124 0.035862
# 4 0.035008 0.017222 0.036295 0.075408 0.114857 0.062944
# 5 0.070283 0.025420 0.072124 0.114857 0.245765 0.119824
# 6 0.041560 0.014172 0.035862 0.062944 0.119824 0.084434
#
#
# Mechanical properties :
#
#
# Convention : Reuss Voigt Hill
#
# Bulk Modulus (GPa) = 7.14801 54.15559 30.65180
# Shear Modulus (GPa) = 10.47384 42.27291 26.37338
#
# Velocity S-wave (km/s) = 2.14726 4.31382 3.40733
# Velocity P-wave (km/s) = 3.04865 6.97510 5.38267
#
# Compressibility (1/GPa) = 0.13989913
#
# Stress axis : x y z
#
# Youngs Moduli (GPa) = 27.09282 67.75178 32.41531
#
# Poissons Ratio (x) = -0.25218 -0.59719
# Poissons Ratio (y) = -0.10084 -0.21215
# Poissons Ratio (z) = -0.49913 -0.44341
#
# Static dielectric constant tensor:
#      x y z
#    x 1.862170 0.043060 0.009270 
#    y 0.043060 2.086790 0.044920 
#    z 0.009270 0.044920 1.744960 
# 
# From -- ./inp_files/416480.got.cif
#   From: 2010.05.17/outbox.cif.g08.bks.cpg/sg2_209_cif.got.tgz:416480.got - 2010.06.03 11:33:40.
