data_PCOD9031978
_publ_section_title
;
Structure prediction by ZEFSAII (Michael W. Deem and Ramdas Pophale) SiO2 
 PCOD9031978
Probable space group: P -1
;
_chemical_formula_sum "Si O2"
_cell_formula_units_Z 16
_cell_length_a 7.669155
_cell_length_b 11.490037
_cell_length_c 7.224971
_cell_angle_alpha 76.048949
_cell_angle_beta 103.236531
_cell_angle_gamma 105.123948
_cell_volume 587.030018
_symmetry_space_group_name_H-M "P -1"
_symmetry_group_IT_number 2
_symmetry_cell_setting 'triclinic'
loop_
_space_group_symop_operation_xyz
x,y,z
-x,-y,-z
loop_
_atom_site_type_symbol
_atom_site_label
_atom_site_fract_x
_atom_site_fract_y
_atom_site_fract_z
Si Si1 0.108817 0.059361 0.183229
Si Si2 0.827794 0.586538 0.544672
Si Si3 0.795976 0.191801 0.080369
Si Si4 0.492845 0.169935 0.754803
Si Si5 0.975423 0.602739 0.188052
Si Si6 0.530017 0.357380 0.397260
Si Si7 0.691989 0.045634 0.426390
Si Si8 0.628179 0.701239 0.981962
O O1 0.157479 0.966673 0.380543
O O2 0.284929 0.161598 0.124846
O O3 0.972943 0.140036 0.195769
O O4 0.000000 0.000000 0.000000
O O5 0.951819 0.648270 0.378059
O O6 0.678557 0.473240 0.461877
O O7 0.686345 0.651002 0.594254
O O8 0.964914 0.526651 0.725720
O O9 0.702096 0.169147 0.265639
O O10 0.647936 0.119751 0.923462
O O11 0.871762 0.315120 0.937183
O O12 0.573176 0.243283 0.563508
O O13 0.324282 0.062937 0.692180
O O14 0.440664 0.270937 0.842642
O O15 0.783579 0.622178 0.054627
O O16 0.524015 0.362395 0.173977
O O17 0.500000 0.000000 0.500000
#
# Coordination Sequence:
#
# PCOD9031978 Si02
#       8
#     2   2   2   2   2   2   2   2
#     4  11  23  44  67 102 143 181 231 284 350 426
#     4  10  22  46  72 100 139 189 234 299 359 416
#     4  11  24  41  68 102 142 182 231 288 350 421
#     4  12  23  46  68 104 144 183 238 292 345 428
#     4  10  22  43  69 101 142 177 233 294 357 416
#     4  11  23  44  74 101 137 189 240 291 356 416
#     4  12  25  45  74 104 140 193 233 286 356 425
#     4  11  24  43  70 105 140 188 233 294 350 422
#
# _framework density 27.255849999999999
#
# number of rings (size 3 to 8) (size 9 to 14) (size 15 to 20)
#    0.000    1.000    3.750    3.000    0.000    1.000 
#    0.000    8.750    0.000    0.000    0.000    0.000 
#    0.000    0.000    0.000    0.000    0.000    0.000 
#
# Total GULP energy -89531.111875 kJ/mol
# GULP energy per Si atom -5595.694492 kJ/mol
# Density = 2.719381 g / cm^3
# Si number density = 27.255850 Si / 1000 Ang^3
#
#
#
# Elastic Constant Matrix: (Units=GPa)
#
#
# Indices 1 2 3 4 5 6 
#
# 1 126.2705 12.8451 49.1412 -10.3175 7.9697 -9.7638
# 2 12.8451 62.8023 57.0158 -14.1286 7.9390 16.8566
# 3 49.1412 57.0158 209.7748 -27.8910 15.2291 5.7704
# 4 -10.3175 -14.1286 -27.8910 56.3171 4.8204 -0.1097
# 5 7.9697 7.9390 15.2291 4.8204 60.6995 -9.6330
# 6 -9.7638 16.8566 5.7704 -0.1097 -9.6330 35.5261
#
#
#
# Elastic Compliance Matrix: (Units=1/GPa)
#
#
# Indices 1 2 3 4 5 6 
#
# 1 0.009038 -0.000837 -0.001896 0.000525 -0.000143 0.003152
# 2 -0.000837 0.026161 -0.005735 0.003906 -0.004221 -0.012844
# 3 -0.001896 -0.005735 0.007037 0.001767 -0.000771 0.000853
# 4 0.000525 0.003906 0.001767 0.019963 -0.003046 -0.002760
# 5 -0.000143 -0.004221 -0.000771 -0.003046 0.018612 0.007126
# 6 0.003152 -0.012844 0.000853 -0.002760 0.007126 0.036894
#
#
# Mechanical properties :
#
#
# Convention : Reuss Voigt Hill
#
# Bulk Modulus (GPa) = 39.52636 70.76131 55.14384
# Shear Modulus (GPa) = 34.94664 49.16491 42.05577
#
# Velocity S-wave (km/s) = 3.58463 4.25176 3.93237
# Velocity P-wave (km/s) = 5.62727 7.07966 6.39483
#
# Compressibility (1/GPa) = 0.02529957
#
# Stress axis : x y z
#
# Youngs Moduli (GPa) = 110.64028 38.22541 142.09602
#
# Poissons Ratio (x) = 0.03199 0.26946
# Poissons Ratio (y) = 0.09259 0.81496
# Poissons Ratio (z) = 0.20981 0.21923
#
# Static dielectric constant tensor:
#      x y z
#    x 2.230230 -0.063730 -0.113540 
#    y -0.063730 2.183520 0.051970 
#    z -0.113540 0.051970 2.177880 
# 
# From -- ./inp_files/38139.got.cif
#   From: 2010.05.17/outbox.cif.g08.bks.cpg/sg2_20_cif.got.tgz:38139.got - 2010.06.03 11:33:40.
