data_PCOD9031338
_publ_section_title
;
Structure prediction by ZEFSAII (Michael W. Deem and Ramdas Pophale) SiO2 
 PCOD9031338
Probable space group: P -1
;
_chemical_formula_sum "Si O2"
_cell_formula_units_Z 16
_cell_length_a 14.092006
_cell_length_b 14.984837
_cell_length_c 11.553065
_cell_angle_alpha 152.159343
_cell_angle_beta 138.821538
_cell_angle_gamma 42.558777
_cell_volume 729.850618
_symmetry_space_group_name_H-M "P -1"
_symmetry_group_IT_number 2
_symmetry_cell_setting 'triclinic'
loop_
_space_group_symop_operation_xyz
x,y,z
-x,-y,-z
loop_
_atom_site_type_symbol
_atom_site_label
_atom_site_fract_x
_atom_site_fract_y
_atom_site_fract_z
Si Si1 0.932747 0.006405 0.593685
Si Si2 0.211119 0.310555 0.032629
Si Si3 0.447113 0.796486 0.829937
Si Si4 0.286507 0.658853 0.747954
Si Si5 0.665227 0.962870 0.663088
Si Si6 0.188363 0.725279 0.394000
Si Si7 0.043822 0.128638 0.290444
Si Si8 0.679258 0.779318 0.722265
O O1 0.922614 0.002768 0.715576
O O2 0.101092 0.909183 0.601479
O O3 0.872728 0.216783 0.722779
O O4 0.848516 0.852171 0.280008
O O5 0.381889 0.287955 0.127884
O O6 0.148578 0.532856 0.187860
O O7 0.205106 0.281707 0.132926
O O8 0.366594 0.712931 0.767284
O O9 0.357555 0.736405 0.571160
O O10 0.426832 0.028710 0.097942
O O11 0.355909 0.431371 0.575201
O O12 0.105327 0.704032 0.627379
O O13 0.314656 0.815190 0.046851
O O14 0.500000 0.000000 0.500000
O O15 0.796917 0.834675 0.557830
O O16 0.697961 0.863458 0.707196
O O17 0.000000 0.000000 0.000000
#
# Coordination Sequence:
#
# PCOD9031338 Si02
#       8
#     2   2   2   2   2   2   2   2
#     4  11  24  40  64  95 132 167 204 265 326 369
#     4  12  24  38  66  98 132 165 209 258 322 389
#     4  11  22  39  61  96 131 168 206 252 312 392
#     4  10  22  43  66  90 127 169 215 256 317 377
#     4  10  25  43  67  96 126 164 222 270 305 370
#     4  11  23  40  63  96 135 164 210 257 322 390
#     4  10  22  45  68  88 127 172 213 263 311 372
#     4  11  23  40  68  91 131 172 207 259 324 376
#
# _framework density 21.922294000000001
#
# number of rings (size 3 to 8) (size 9 to 14) (size 15 to 20)
#    0.000    1.250    3.750    1.125    3.500    1.000 
#    0.000    2.500    0.000    0.000    0.000    0.000 
#    0.000    0.000    0.000    0.000    0.000    0.000 
#
# Total GULP energy -89179.209622 kJ/mol
# GULP energy per Si atom -5573.700601 kJ/mol
# Density = 2.187240 g / cm^3
# Si number density = 21.922294 Si / 1000 Ang^3
#
#
#
# Elastic Constant Matrix: (Units=GPa)
#
#
# Indices 1 2 3 4 5 6 
#
# 1 107.1973 58.1428 27.2833 -11.9422 1.5795 5.4645
# 2 58.1428 110.1577 49.4701 11.0346 6.8723 14.8396
# 3 27.2833 49.4701 91.8067 10.0460 10.8439 0.2435
# 4 -11.9422 11.0346 10.0460 45.9006 3.2442 3.8454
# 5 1.5795 6.8723 10.8439 3.2442 30.5377 -15.3468
# 6 5.4645 14.8396 0.2435 3.8454 -15.3468 50.2949
#
#
#
# Elastic Compliance Matrix: (Units=1/GPa)
#
#
# Indices 1 2 3 4 5 6 
#
# 1 0.014459 -0.008042 -0.000716 0.005719 0.001055 0.000690
# 2 -0.008042 0.017354 -0.006085 -0.004285 -0.003340 -0.004909
# 3 -0.000716 -0.006085 0.014966 -0.001851 -0.003231 0.000956
# 4 0.005719 -0.004285 -0.001851 0.025039 -0.002325 -0.001972
# 5 0.001055 -0.003340 -0.003231 -0.002325 0.041779 0.013813
# 6 0.000690 -0.004909 0.000956 -0.001972 0.013813 0.025617
#
#
# Mechanical properties :
#
#
# Convention : Reuss Voigt Hill
#
# Bulk Modulus (GPa) = 58.50217 64.32823 61.41520
# Shear Modulus (GPa) = 28.63728 36.96433 32.80080
#
# Velocity S-wave (km/s) = 3.61821 4.11073 3.87231
# Velocity P-wave (km/s) = 6.64826 7.20682 6.93317
#
# Compressibility (1/GPa) = 0.01709338
#
# Stress axis : x y z
#
# Youngs Moduli (GPa) = 69.16041 57.62336 66.81991
#
# Poissons Ratio (x) = 0.46340 0.04784
# Poissons Ratio (y) = 0.55618 0.40659
# Poissons Ratio (z) = 0.04951 0.35063
#
# Static dielectric constant tensor:
#      x y z
#    x 1.856350 0.012980 0.035450 
#    y 0.012980 1.872020 -0.030580 
#    z 0.035450 -0.030580 1.816100 
# 
# From -- ./inp_files/272929.got.cif
#   From: 2010.05.17/outbox.cif.g08.bks.cpg/sg2_137_cif.got.tgz:272929.got - 2010.06.03 11:33:40.
