data_PCOD9031758
_publ_section_title
;
Structure prediction by ZEFSAII (Michael W. Deem and Ramdas Pophale) SiO2 
 PCOD9031758
Probable space group: P -1
;
_chemical_formula_sum "Si O2"
_cell_formula_units_Z 12
_cell_length_a 7.061240
_cell_length_b 11.720744
_cell_length_c 8.883534
_cell_angle_alpha 54.152262
_cell_angle_beta 53.685931
_cell_angle_gamma 76.840223
_cell_volume 472.154707
_symmetry_space_group_name_H-M "P -1"
_symmetry_group_IT_number 2
_symmetry_cell_setting 'triclinic'
loop_
_space_group_symop_operation_xyz
x,y,z
-x,-y,-z
loop_
_atom_site_type_symbol
_atom_site_label
_atom_site_fract_x
_atom_site_fract_y
_atom_site_fract_z
Si Si1 0.682990 0.153948 0.156896
Si Si2 0.487051 0.664570 0.405061
Si Si3 0.095458 0.674103 0.800452
Si Si4 0.144582 0.166116 0.473303
Si Si5 0.904646 0.336951 0.655074
Si Si6 0.738675 0.961619 0.994279
O O1 0.844696 0.217481 0.172163
O O2 0.402061 0.124238 0.354590
O O3 0.748224 0.287438 0.911140
O O4 0.749075 0.033183 0.102870
O O5 0.500000 0.500000 0.500000
O O6 0.362931 0.679461 0.608819
O O7 0.281967 0.693979 0.366417
O O8 0.704445 0.791377 0.167395
O O9 0.932857 0.746565 0.702485
O O10 0.000000 0.500000 0.000000
O O11 0.125421 0.265905 0.551324
O O12 0.944112 0.032075 0.726094
O O13 0.000000 0.500000 0.500000
O O14 0.500000 0.000000 0.000000
#
# Coordination Sequence:
#
# PCOD9031758 Si02
#       6
#     2   2   2   2   2   2
#     4  11  24  44  79 107 146 199 250 306 377 441
#     4  11  25  47  72 100 152 191 238 318 373 435
#     4  11  25  44  71 117 150 186 257 310 360 454
#     4  10  24  46  75 104 148 199 244 306 380 433
#     4  10  22  43  68 103 148 191 245 303 369 452
#     4  11  22  52  72 105 152 197 250 308 372 459
#
# _framework density 25.415402
#
# number of rings (size 3 to 8) (size 9 to 14) (size 15 to 20)
#    0.000    1.333    5.000    2.000    4.667    2.667 
#    3.000    0.833    7.333    0.000    0.000    0.000 
#    0.000    0.000    0.000    0.000    0.000    0.000 
#
# Total GULP energy -67021.966523 kJ/mol
# GULP energy per Si atom -5585.163877 kJ/mol
# Density = 2.535756 g / cm^3
# Si number density = 25.415402 Si / 1000 Ang^3
#
#
#
# Elastic Constant Matrix: (Units=GPa)
#
#
# Indices 1 2 3 4 5 6 
#
# 1 130.0967 57.2033 73.3687 9.6431 -6.1696 -2.9640
# 2 57.2033 158.2013 89.0292 -26.1329 -21.3271 -3.2170
# 3 73.3687 89.0292 201.5411 -15.0558 -43.1445 -8.5338
# 4 9.6431 -26.1329 -15.0558 63.5529 -2.6455 -5.4476
# 5 -6.1696 -21.3271 -43.1445 -2.6455 47.2182 4.8436
# 6 -2.9640 -3.2170 -8.5338 -5.4476 4.8436 42.0090
#
#
#
# Elastic Compliance Matrix: (Units=1/GPa)
#
#
# Indices 1 2 3 4 5 6 
#
# 1 0.011353 -0.003107 -0.003860 -0.004095 -0.003642 -0.000332
# 2 -0.003107 0.009754 -0.002445 0.004012 0.001957 0.000326
# 3 -0.003860 -0.002445 0.009077 0.002085 0.006712 0.000881
# 4 -0.004095 0.004012 0.002085 0.018874 0.003991 0.002429
# 5 -0.003642 0.001957 0.006712 0.003991 0.028093 -0.001465
# 6 -0.000332 0.000326 0.000881 0.002429 -0.001465 0.024469
#
#
# Mechanical properties :
#
#
# Convention : Reuss Voigt Hill
#
# Bulk Modulus (GPa) = 88.03486 103.22683 95.63085
# Shear Modulus (GPa) = 40.24789 48.57189 44.40989
#
# Velocity S-wave (km/s) = 3.98377 4.37638 4.18468
# Velocity P-wave (km/s) = 7.47490 8.13885 7.81393
#
# Compressibility (1/GPa) = 0.01135914
#
# Stress axis : x y z
#
# Youngs Moduli (GPa) = 88.08397 102.52523 110.16854
#
# Poissons Ratio (x) = 0.31853 0.42526
# Poissons Ratio (y) = 0.27367 0.26939
# Poissons Ratio (z) = 0.34001 0.25070
#
# Static dielectric constant tensor:
#      x y z
#    x 2.107920 -0.022010 0.019240 
#    y -0.022010 2.136530 0.014530 
#    z 0.019240 0.014530 2.000240 
# 
# From -- ./inp_files/160959.got.cif
#   From: 2010.05.17/outbox.cif.g08.bks.cpg/sg2_81_cif.got.tgz:160959.got - 2010.06.03 11:33:40.
