data_PCOD9031339
_publ_section_title
;
Structure prediction by ZEFSAII (Michael W. Deem and Ramdas Pophale) SiO2 
 PCOD9031339
Probable space group: P -1
;
_chemical_formula_sum "Si O2"
_cell_formula_units_Z 15
_cell_length_a 12.542819
_cell_length_b 6.704793
_cell_length_c 9.447345
_cell_angle_alpha 91.969222
_cell_angle_beta 70.239883
_cell_angle_gamma 89.168031
_cell_volume 746.980565
_symmetry_space_group_name_H-M "P -1"
_symmetry_group_IT_number 2
_symmetry_cell_setting 'triclinic'
loop_
_space_group_symop_operation_xyz
x,y,z
-x,-y,-z
loop_
_atom_site_type_symbol
_atom_site_label
_atom_site_fract_x
_atom_site_fract_y
_atom_site_fract_z
Si Si1 0.000000 0.000000 0.000000
Si Si2 0.196094 0.220643 0.085888
Si Si3 0.055183 0.293231 0.423894
Si Si4 0.889091 0.979697 0.353268
Si Si5 0.484874 0.790645 0.322329
Si Si6 0.646754 0.457078 0.114635
Si Si7 0.651874 0.137211 0.341288
Si Si8 0.383904 0.895611 0.090178
O O1 0.901324 0.866799 0.969225
O O2 0.040849 0.069154 0.821547
O O3 0.143090 0.309192 0.256242
O O4 0.281556 0.038676 0.087513
O O5 0.261264 0.389382 0.975817
O O6 0.112082 0.193389 0.534142
O O7 0.000000 0.500000 0.500000
O O8 0.955315 0.155624 0.406556
O O9 0.764362 0.046885 0.360493
O O10 0.544057 0.591957 0.227534
O O11 0.428714 0.766198 0.499568
O O12 0.390040 0.865088 0.254805
O O13 0.579383 0.961141 0.299115
O O14 0.685478 0.300996 0.214967
O O15 0.616190 0.316177 0.993895
O O16 0.500000 0.000000 0.000000
#
# Coordination Sequence:
#
# PCOD9031339 Si02
#       8
#     1   2   2   2   2   2   2   2
#     4  10  22  44  68  94 130 170 218 272 332 382
#     4  11  25  43  70  98 133 176 220 279 333 392
#     4  10  24  44  65  95 126 168 221 274 327 392
#     4  10  22  43  66  90 129 168 217 269 330 394
#     4  11  24  41  63  95 136 177 218 273 326 399
#     4  12  23  41  67 100 130 175 228 269 326 403
#     4  11  24  42  63  94 137 176 215 273 339 388
#     4  12  23  43  66  94 135 175 221 275 332 386
#
# _framework density 20.080843999999999
#
# number of rings (size 3 to 8) (size 9 to 14) (size 15 to 20)
#    0.000    1.067    2.667    3.200    0.000    7.467 
#    0.000    4.667    0.000    0.000    0.000    0.000 
#    0.000    0.000    0.000    0.000    0.000    0.000 
#
# Total GULP energy -83602.561944 kJ/mol
# GULP energy per Si atom -5573.504130 kJ/mol
# Density = 2.003514 g / cm^3
# Si number density = 20.080844 Si / 1000 Ang^3
#
#
#
# Elastic Constant Matrix: (Units=GPa)
#
#
# Indices 1 2 3 4 5 6 
#
# 1 69.9357 45.4414 54.7323 -10.1517 14.7346 5.2162
# 2 45.4414 90.0673 58.2483 -3.3510 6.8920 -11.8676
# 3 54.7323 58.2483 138.0172 -1.2177 21.8892 -3.8733
# 4 -10.1517 -3.3510 -1.2177 33.0048 -5.7615 0.1230
# 5 14.7346 6.8920 21.8892 -5.7615 34.1316 -3.8920
# 6 5.2162 -11.8676 -3.8733 0.1230 -3.8920 21.4914
#
#
#
# Elastic Compliance Matrix: (Units=1/GPa)
#
#
# Indices 1 2 3 4 5 6 
#
# 1 0.031974 -0.013697 -0.006068 0.006886 -0.008026 -0.017911
# 2 -0.013697 0.022620 -0.004618 -0.001108 0.005952 0.016067
# 3 -0.006068 -0.004618 0.012345 -0.002717 -0.004790 0.000296
# 4 0.006886 -0.001108 -0.002717 0.032964 0.004309 -0.002181
# 5 -0.008026 0.005952 -0.004790 0.004309 0.036612 0.010977
# 6 -0.017911 0.016067 0.000296 -0.002181 0.010977 0.061804
#
#
# Mechanical properties :
#
#
# Convention : Reuss Voigt Hill
#
# Bulk Modulus (GPa) = 55.02587 68.31824 61.67206
# Shear Modulus (GPa) = 19.75179 27.03212 23.39196
#
# Velocity S-wave (km/s) = 3.13966 3.67299 3.41675
# Velocity P-wave (km/s) = 6.37220 7.21687 6.80765
#
# Compressibility (1/GPa) = 0.01817327
#
# Stress axis : x y z
#
# Youngs Moduli (GPa) = 31.27553 44.20846 81.00741
#
# Poissons Ratio (x) = 0.60553 0.49155
# Poissons Ratio (y) = 0.42838 0.37406
# Poissons Ratio (z) = 0.18978 0.20414
#
# Static dielectric constant tensor:
#      x y z
#    x 1.694440 -0.014340 -0.007150 
#    y -0.014340 1.691080 -0.004090 
#    z -0.007150 -0.004090 1.722670 
# 
# From -- ./inp_files/109672.got.cif
#   From: 2010.05.17/outbox.cif.g08.bks.cpg/sg2_55_cif.got.tgz:109672.got - 2010.06.03 11:33:40.
