data_PCOD9031238
_publ_section_title
;
Structure prediction by ZEFSAII (Michael W. Deem and Ramdas Pophale) SiO2 
 PCOD9031238
Probable space group: P -1
;
_chemical_formula_sum "Si O2"
_cell_formula_units_Z 12
_cell_length_a 5.312773
_cell_length_b 12.010931
_cell_length_c 12.426651
_cell_angle_alpha 38.714680
_cell_angle_beta 77.600302
_cell_angle_gamma 68.530142
_cell_volume 458.104948
_symmetry_space_group_name_H-M "P -1"
_symmetry_group_IT_number 2
_symmetry_cell_setting 'triclinic'
loop_
_space_group_symop_operation_xyz
x,y,z
-x,-y,-z
loop_
_atom_site_type_symbol
_atom_site_label
_atom_site_fract_x
_atom_site_fract_y
_atom_site_fract_z
Si Si1 0.737793 0.666927 0.870112
Si Si2 0.560023 0.781002 0.185177
Si Si3 0.701751 0.038013 0.544625
Si Si4 0.237733 0.376060 0.352591
Si Si5 0.029032 0.189557 0.700580
Si Si6 0.334936 0.737724 0.027622
O O1 0.772033 0.661403 0.744010
O O2 0.734620 0.874358 0.752032
O O3 0.466131 0.660309 0.958698
O O4 0.000000 0.500000 0.000000
O O5 0.793029 0.733555 0.289472
O O6 0.575783 0.701580 0.122038
O O7 0.284965 0.758170 0.277541
O O8 0.500000 0.000000 0.000000
O O9 0.551707 0.245276 0.447303
O O10 0.500000 0.000000 0.500000
O O11 0.000000 0.000000 0.500000
O O12 0.067247 0.282280 0.514053
O O13 0.183028 0.598086 0.192018
O O14 0.159228 0.958723 0.867021
#
# Coordination Sequence:
#
# PCOD9031238 Si02
#       6
#     2   2   2   2   2   2
#     4  11  24  43  69 110 147 191 240 295 363 441
#     4  10  24  47  74 106 141 192 244 298 366 424
#     4  10  22  43  65  95 144 183 231 288 341 423
#     4  11  25  45  71 111 144 192 244 295 368 434
#     4  11  25  48  74 105 145 189 243 306 358 426
#     4  11  23  44  71 103 147 191 239 300 360 433
#
# _framework density 26.194870999999999
#
# number of rings (size 3 to 8) (size 9 to 14) (size 15 to 20)
#    0.000    1.333    1.667    3.500    0.000   10.667 
#    0.000    0.000    0.000    0.000    0.000    0.000 
#    0.000    0.000    0.000    0.000    0.000    0.000 
#
# Total GULP energy -67052.405129 kJ/mol
# GULP energy per Si atom -5587.700427 kJ/mol
# Density = 2.613525 g / cm^3
# Si number density = 26.194871 Si / 1000 Ang^3
#
#
#
# Elastic Constant Matrix: (Units=GPa)
#
#
# Indices 1 2 3 4 5 6 
#
# 1 151.2149 32.9778 51.0736 20.3640 -19.8613 -11.1040
# 2 32.9778 100.4345 56.2518 20.3405 -3.5712 -2.0287
# 3 51.0736 56.2518 194.6391 3.1971 -25.1767 -4.4244
# 4 20.3640 20.3405 3.1971 54.8589 -3.9567 -6.3862
# 5 -19.8613 -3.5712 -25.1767 -3.9567 41.4355 12.1777
# 6 -11.1040 -2.0287 -4.4244 -6.3862 12.1777 40.1348
#
#
#
# Elastic Compliance Matrix: (Units=1/GPa)
#
#
# Indices 1 2 3 4 5 6 
#
# 1 0.008037 -0.001349 -0.001347 -0.002120 0.002442 0.000928
# 2 -0.001349 0.013273 -0.003687 -0.004377 -0.002113 -0.000164
# 3 -0.001347 -0.003687 0.006984 0.001648 0.003621 -0.000626
# 4 -0.002120 -0.004377 0.001648 0.020889 0.000889 0.002428
# 5 0.002442 -0.002113 0.003621 0.000889 0.029733 -0.007912
# 6 0.000928 -0.000164 -0.000626 0.002428 -0.007912 0.027883
#
#
# Mechanical properties :
#
#
# Convention : Reuss Voigt Hill
#
# Bulk Modulus (GPa) = 64.40546 80.76608 72.58577
# Shear Modulus (GPa) = 40.08311 47.68486 43.88399
#
# Velocity S-wave (km/s) = 3.91601 4.27123 4.09747
# Velocity P-wave (km/s) = 6.71470 7.43130 7.08207
#
# Compressibility (1/GPa) = 0.01552663
#
# Stress axis : x y z
#
# Youngs Moduli (GPa) = 124.42676 75.34180 143.18742
#
# Poissons Ratio (x) = 0.10167 0.19288
# Poissons Ratio (y) = 0.16791 0.52793
# Poissons Ratio (z) = 0.16761 0.27778
#
# Static dielectric constant tensor:
#      x y z
#    x 2.111790 0.074750 -0.069070 
#    y 0.074750 2.202070 -0.112210 
#    z -0.069070 -0.112210 2.183510 
# 
# From -- ./inp_files/361023.got.cif
#   From: 2010.05.17/outbox.cif.g08.bks.cpg/sg2_181_cif.got.tgz:361023.got - 2010.06.03 11:33:40.
