data_PCOD9031367
_publ_section_title
;
Structure prediction by ZEFSAII (Michael W. Deem and Ramdas Pophale) SiO2 
 PCOD9031367
Probable space group: P -1
;
_chemical_formula_sum "Si O2"
_cell_formula_units_Z 13
_cell_length_a 6.845618
_cell_length_b 14.362121
_cell_length_c 8.826961
_cell_angle_alpha 94.424673
_cell_angle_beta 128.709719
_cell_angle_gamma 109.143159
_cell_volume 591.010702
_symmetry_space_group_name_H-M "P -1"
_symmetry_group_IT_number 2
_symmetry_cell_setting 'triclinic'
loop_
_space_group_symop_operation_xyz
x,y,z
-x,-y,-z
loop_
_atom_site_type_symbol
_atom_site_label
_atom_site_fract_x
_atom_site_fract_y
_atom_site_fract_z
Si Si1 0.737172 0.822060 0.339105
Si Si2 0.201960 0.396649 0.114862
Si Si3 0.336439 0.982990 0.574381
Si Si4 0.500000 0.000000 0.000000
Si Si5 0.201385 0.765230 0.856107
Si Si6 0.649831 0.373644 0.673512
Si Si7 0.268718 0.617613 0.637576
O O1 0.609361 0.719663 0.371808
O O2 0.048932 0.869020 0.423930
O O3 0.746605 0.922217 0.445544
O O4 0.504570 0.796744 0.090261
O O5 0.335795 0.513771 0.269218
O O6 0.453581 0.383734 0.157125
O O7 0.046114 0.309103 0.158876
O O8 0.946746 0.383811 0.881163
O O9 0.500000 0.000000 0.500000
O O10 0.510436 0.996574 0.815338
O O11 0.226801 0.878678 0.849911
O O12 0.194608 0.698322 0.698681
O O13 0.648341 0.353850 0.493012
O O14 0.000000 0.500000 0.500000
#
# Coordination Sequence:
#
# PCOD9031367 Si02
#       7
#     2   2   2   1   2   2   2
#     4   9  22  43  61  92 133 165 226 281 326 411
#     4  10  23  45  64  93 142 172 222 289 335 408
#     4  10  22  43  66  93 130 178 222 280 341 400
#     4  10  24  42  70  98 134 174 228 282 338 408
#     4  10  23  45  62  98 133 172 228 284 336 403
#     4  10  22  43  68  95 133 185 217 281 356 388
#     4  12  25  40  67 104 133 177 232 275 341 419
#
# _framework density 21.996216
#
# number of rings (size 3 to 8) (size 9 to 14) (size 15 to 20)
#    0.000    1.846    1.538    0.462    4.308    4.308 
#    0.000    3.077    0.000    0.000    0.000    0.000 
#    0.000    0.000    0.000    0.000    0.000    0.000 
#
# Total GULP energy -72426.855802 kJ/mol
# GULP energy per Si atom -5571.296600 kJ/mol
# Density = 2.194615 g / cm^3
# Si number density = 21.996216 Si / 1000 Ang^3
#
#
#
# Elastic Constant Matrix: (Units=GPa)
#
#
# Indices 1 2 3 4 5 6 
#
# 1 84.6719 -0.1068 47.8636 6.5822 13.9633 19.4751
# 2 -0.1068 67.2426 25.8385 27.8412 9.1847 20.3804
# 3 47.8636 25.8385 88.2433 8.9230 0.2692 19.0541
# 4 6.5822 27.8412 8.9230 43.6689 8.9216 1.7351
# 5 13.9633 9.1847 0.2692 8.9216 31.1447 0.1746
# 6 19.4751 20.3804 19.0541 1.7351 0.1746 35.1029
#
#
#
# Elastic Compliance Matrix: (Units=1/GPa)
#
#
# Indices 1 2 3 4 5 6 
#
# 1 0.026596 0.015247 -0.014854 -0.007204 -0.014144 -0.015118
# 2 0.015247 0.035675 -0.012057 -0.019353 -0.011587 -0.021613
# 3 -0.014854 -0.012057 0.021857 0.003494 0.009008 0.003160
# 4 -0.007204 -0.019353 0.003494 0.035416 -0.001303 0.011592
# 5 -0.014144 -0.011587 0.009008 -0.001303 0.042108 0.009540
# 6 -0.015118 -0.021613 0.003160 0.011592 0.009540 0.047088
#
#
# Mechanical properties :
#
#
# Convention : Reuss Voigt Hill
#
# Bulk Modulus (GPa) = 16.44764 43.03874 29.74319
# Shear Modulus (GPa) = 19.81500 33.08747 26.45123
#
# Velocity S-wave (km/s) = 3.00465 3.88265 3.47152
# Velocity P-wave (km/s) = 4.41938 6.30150 5.44242
#
# Compressibility (1/GPa) = 0.06079898
#
# Stress axis : x y z
#
# Youngs Moduli (GPa) = 37.59947 28.03100 45.75268
#
# Poissons Ratio (x) = -0.42738 0.67962
# Poissons Ratio (y) = -0.57327 0.55163
# Poissons Ratio (z) = 0.55851 0.33797
#
# Static dielectric constant tensor:
#      x y z
#    x 1.749690 -0.039300 0.058880 
#    y -0.039300 1.825930 -0.043670 
#    z 0.058880 -0.043670 1.867980 
# 
# From -- ./inp_files/26373.got.cif
#   From: 2010.05.17/outbox.cif.g08.bks.cpg/sg2_14_cif.got.tgz:26373.got - 2010.06.03 11:33:40.
