data_PCOD9031049
_publ_section_title
;
Structure prediction by ZEFSAII (Michael W. Deem and Ramdas Pophale) SiO2 
 PCOD9031049
Probable space group: P -1
;
_chemical_formula_sum "Si O2"
_cell_formula_units_Z 14
_cell_length_a 23.614905
_cell_length_b 14.242898
_cell_length_c 6.554722
_cell_angle_alpha 60.899355
_cell_angle_beta 114.801295
_cell_angle_gamma 160.703581
_cell_volume 630.571464
_symmetry_space_group_name_H-M "P -1"
_symmetry_group_IT_number 2
_symmetry_cell_setting 'triclinic'
loop_
_space_group_symop_operation_xyz
x,y,z
-x,-y,-z
loop_
_atom_site_type_symbol
_atom_site_label
_atom_site_fract_x
_atom_site_fract_y
_atom_site_fract_z
Si Si1 0.703907 0.869713 0.591087
Si Si2 0.600786 0.331532 0.240751
Si Si3 0.999088 0.692999 0.756832
Si Si4 0.996218 0.385824 0.747715
Si Si5 0.449158 0.597169 0.272212
Si Si6 0.270226 0.695736 0.582002
Si Si7 0.848524 0.840430 0.393931
O O1 0.596890 0.803298 0.439489
O O2 0.588882 0.578172 0.710351
O O3 0.853343 0.096878 0.406500
O O4 0.801960 0.033256 0.779768
O O5 0.692711 0.370333 0.260281
O O6 0.738611 0.626153 0.258522
O O7 0.450596 0.048740 0.463982
O O8 0.518715 0.264464 0.999578
O O9 0.828904 0.448914 0.630538
O O10 0.064477 0.902892 0.756451
O O11 0.974569 0.561286 0.024803
O O12 0.141709 0.540402 0.715549
O O13 0.000000 0.500000 0.500000
O O14 0.282157 0.363965 0.395643
O O15 0.000000 0.000000 0.500000
#
# Coordination Sequence:
#
# PCOD9031049 Si02
#       7
#     2   2   2   2   2   2   2
#     4   9  22  43  60  98 121 160 212 249 307 364
#     4  11  24  41  65  90 129 164 200 259 306 365
#     4  10  22  43  64  89 129 159 203 264 296 366
#     4  11  25  39  67  90 123 167 207 249 307 367
#     4  10  23  40  68  89 128 161 201 261 307 359
#     4  10  25  42  59  97 126 161 209 246 312 370
#     4  11  23  40  65  95 118 162 211 245 310 372
#
# _framework density 22.202082000000001
#
# number of rings (size 3 to 8) (size 9 to 14) (size 15 to 20)
#    0.000    1.714    1.429    0.857    8.000    1.714 
#    0.000    7.143    0.000    0.000    0.000    0.000 
#    0.000    0.000    0.000    0.000    0.000    0.000 
#
# Total GULP energy -78291.592348 kJ/mol
# GULP energy per Si atom -5592.256596 kJ/mol
# Density = 2.215155 g / cm^3
# Si number density = 22.202082 Si / 1000 Ang^3
#
#
#
# Elastic Constant Matrix: (Units=GPa)
#
#
# Indices 1 2 3 4 5 6 
#
# 1 85.5413 32.2401 20.9595 10.2573 12.0031 -5.3648
# 2 32.2401 70.1574 -3.4119 15.8000 10.1082 8.1854
# 3 20.9595 -3.4119 90.4828 13.7349 23.3946 -2.5598
# 4 10.2573 15.8000 13.7349 26.7051 4.3656 8.3673
# 5 12.0031 10.1082 23.3946 4.3656 17.7739 3.1423
# 6 -5.3648 8.1854 -2.5598 8.3673 3.1423 22.8384
#
#
#
# Elastic Compliance Matrix: (Units=1/GPa)
#
#
# Indices 1 2 3 4 5 6 
#
# 1 0.016467 -0.007350 -0.002274 -0.002481 -0.004717 0.007805
# 2 -0.007350 0.023346 0.008481 -0.011917 -0.016096 -0.002562
# 3 -0.002274 0.008481 0.021925 -0.012898 -0.030353 0.007785
# 4 -0.002481 -0.011917 -0.012898 0.055965 0.015283 -0.020364
# 5 -0.004717 -0.016096 -0.030353 0.015283 0.108199 -0.019227
# 6 0.007805 -0.002562 0.007785 -0.020364 -0.019227 0.057517
#
#
# Mechanical properties :
#
#
# Convention : Reuss Voigt Hill
#
# Bulk Modulus (GPa) = 16.82087 38.41742 27.61914
# Shear Modulus (GPa) = 16.36547 26.55641 21.46094
#
# Velocity S-wave (km/s) = 2.71793 3.46225 3.11242
# Velocity P-wave (km/s) = 4.17639 5.77269 5.03817
#
# Compressibility (1/GPa) = 0.05944997
#
# Stress axis : x y z
#
# Youngs Moduli (GPa) = 60.72883 42.83455 45.61103
#
# Poissons Ratio (x) = 0.31483 0.10374
# Poissons Ratio (y) = 0.44636 -0.38683
# Poissons Ratio (z) = 0.13813 -0.36328
#
# Static dielectric constant tensor:
#      x y z
#    x 1.819410 -0.053500 0.002020 
#    y -0.053500 1.851790 0.001210 
#    z 0.002020 0.001210 1.794150 
# 
# From -- ./inp_files/65799.got.cif
#   From: 2010.05.17/outbox.cif.g08.bks.cpg/sg2_33_cif.got.tgz:65799.got - 2010.06.03 11:33:40.
