data_PCOD9031612
_publ_section_title
;
Structure prediction by ZEFSAII (Michael W. Deem and Ramdas Pophale) SiO2 
 PCOD9031612
Probable space group: P -1
;
_chemical_formula_sum "Si O2"
_cell_formula_units_Z 16
_cell_length_a 11.257917
_cell_length_b 11.960108
_cell_length_c 11.360295
_cell_angle_alpha 130.789233
_cell_angle_beta 80.374088
_cell_angle_gamma 60.706410
_cell_volume 682.302300
_symmetry_space_group_name_H-M "P -1"
_symmetry_group_IT_number 2
_symmetry_cell_setting 'triclinic'
loop_
_space_group_symop_operation_xyz
x,y,z
-x,-y,-z
loop_
_atom_site_type_symbol
_atom_site_label
_atom_site_fract_x
_atom_site_fract_y
_atom_site_fract_z
Si Si1 0.704554 0.789217 0.982705
Si Si2 0.687857 0.104694 0.617458
Si Si3 0.885870 0.103759 0.425057
Si Si4 0.245437 0.548668 0.895992
Si Si5 0.471720 0.493835 0.637078
Si Si6 0.057838 0.252749 0.466992
Si Si7 0.364096 0.928302 0.005752
Si Si8 0.279250 0.207832 0.737772
O O1 0.924631 0.516693 0.718561
O O2 0.646527 0.001428 0.077677
O O3 0.542683 0.836585 0.982592
O O4 0.701752 0.796129 0.128606
O O5 0.747573 0.978540 0.644902
O O6 0.784077 0.890382 0.363807
O O7 0.451706 0.358526 0.808450
O O8 0.807466 0.136426 0.590507
O O9 0.921112 0.241513 0.493935
O O10 0.693589 0.243447 0.476262
O O11 0.081073 0.825148 0.156975
O O12 0.321757 0.515745 0.728860
O O13 0.170275 0.455305 0.866807
O O14 0.500000 0.500000 0.500000
O O15 0.395956 0.722352 0.863453
O O16 0.151851 0.179659 0.273409
O O17 0.500000 0.000000 0.500000
#
# Coordination Sequence:
#
# PCOD9031612 Si02
#       8
#     2   2   2   2   2   2   2   2
#     4  11  25  43  70  95 135 177 220 277 327 391
#     4  10  24  40  67  99 135 171 216 275 331 385
#     4  11  23  42  65  98 130 172 220 268 333 390
#     4  10  22  43  67  96 130 167 220 268 331 389
#     4  11  25  45  67  96 133 174 220 275 328 389
#     4  12  23  44  65 101 134 174 227 268 326 402
#     4  11  24  45  68  95 133 180 222 270 331 391
#     4  10  22  44  67  99 131 170 220 272 333 389
#
# _framework density 23.450013999999999
#
# number of rings (size 3 to 8) (size 9 to 14) (size 15 to 20)
#    0.000    1.250    2.500    3.000    5.250    3.000 
#    0.000    0.000    0.000    0.000    0.000    0.000 
#    0.000    0.000    0.000    0.000    0.000    0.000 
#
# Total GULP energy -89472.052324 kJ/mol
# GULP energy per Si atom -5592.003270 kJ/mol
# Density = 2.339664 g / cm^3
# Si number density = 23.450014 Si / 1000 Ang^3
#
#
#
# Elastic Constant Matrix: (Units=GPa)
#
#
# Indices 1 2 3 4 5 6 
#
# 1 39.3801 21.1224 8.6908 3.0582 -0.1629 7.0951
# 2 21.1224 131.0112 33.5282 -16.4464 3.5789 23.9899
# 3 8.6908 33.5282 120.3347 0.7256 -11.0691 1.0435
# 4 3.0582 -16.4464 0.7256 37.8562 -1.9498 3.1327
# 5 -0.1629 3.5789 -11.0691 -1.9498 28.5361 0.0860
# 6 7.0951 23.9899 1.0435 3.1327 0.0860 19.1641
#
#
#
# Elastic Compliance Matrix: (Units=1/GPa)
#
#
# Indices 1 2 3 4 5 6 
#
# 1 0.028915 -0.003941 -0.000917 -0.003602 0.000073 -0.005133
# 2 -0.003941 0.013035 -0.003480 0.007232 -0.002465 -0.015839
# 3 -0.000917 -0.003480 0.009691 -0.001782 0.004055 0.004441
# 4 -0.003602 0.007232 -0.001782 0.030960 0.000535 -0.012685
# 5 0.000073 -0.002465 0.004055 0.000535 0.036955 0.002585
# 6 -0.005133 -0.015839 0.004441 -0.012685 0.002585 0.075729
#
#
# Mechanical properties :
#
#
# Convention : Reuss Voigt Hill
#
# Bulk Modulus (GPa) = 28.60140 46.37876 37.49008
# Shear Modulus (GPa) = 22.35974 32.27027 27.31500
#
# Velocity S-wave (km/s) = 3.09124 3.71365 3.41665
# Velocity P-wave (km/s) = 4.99642 6.18133 5.62019
#
# Compressibility (1/GPa) = 0.03496332
#
# Stress axis : x y z
#
# Youngs Moduli (GPa) = 34.58430 76.71922 103.18533
#
# Poissons Ratio (x) = 0.30238 0.09464
# Poissons Ratio (y) = 0.13631 0.35910
# Poissons Ratio (z) = 0.03172 0.26699
#
# Static dielectric constant tensor:
#      x y z
#    x 1.944960 0.009800 -0.002580 
#    y 0.009800 1.935960 -0.012980 
#    z -0.002580 -0.012980 1.858150 
# 
# From -- ./inp_files/428919.got.cif
#   From: 2010.05.17/outbox.cif.g08.bks.cpg/sg2_215_cif.got.tgz:428919.got - 2010.06.03 11:33:40.
