data_PCOD9031107
_publ_section_title
;
Structure prediction by ZEFSAII (Michael W. Deem and Ramdas Pophale) SiO2 
 PCOD9031107
Probable space group: P -1
;
_chemical_formula_sum "Si O2"
_cell_formula_units_Z 13
_cell_length_a 8.208536
_cell_length_b 12.633345
_cell_length_c 9.458141
_cell_angle_alpha 116.717685
_cell_angle_beta 127.784433
_cell_angle_gamma 43.176889
_cell_volume 530.401296
_symmetry_space_group_name_H-M "P -1"
_symmetry_group_IT_number 2
_symmetry_cell_setting 'triclinic'
loop_
_space_group_symop_operation_xyz
x,y,z
-x,-y,-z
loop_
_atom_site_type_symbol
_atom_site_label
_atom_site_fract_x
_atom_site_fract_y
_atom_site_fract_z
Si Si1 0.773467 0.865859 0.988887
Si Si2 0.608960 0.678481 0.724475
Si Si3 0.963104 0.011055 0.322098
Si Si4 0.281123 0.326704 0.543211
Si Si5 0.000000 0.500000 0.000000
Si Si6 0.890424 0.867326 0.740236
Si Si7 0.500146 0.639175 0.041415
O O1 0.816616 0.707224 0.916556
O O2 0.742284 0.919817 0.843635
O O3 0.500000 0.000000 0.000000
O O4 0.975042 0.874578 0.184417
O O5 0.331995 0.816114 0.732581
O O6 0.590860 0.695786 0.557690
O O7 0.794857 0.505917 0.775064
O O8 0.157550 0.015723 0.331258
O O9 0.000000 0.000000 0.500000
O O10 0.189167 0.224817 0.431338
O O11 0.000000 0.500000 0.500000
O O12 0.445797 0.308951 0.754783
O O13 0.263205 0.410416 0.969629
O O14 0.200073 0.767001 0.896234
O O15 0.500000 0.500000 0.000000
#
# Coordination Sequence:
#
# PCOD9031107 Si02
#       7
#     2   2   2   2   1   2   2
#     4   9  21  44  68  91 136 181 231 288 344 414
#     4  10  22  43  64  97 136 177 229 289 342 416
#     4  11  24  43  64  99 135 181 239 282 341 419
#     4  11  22  43  66 101 142 175 229 290 347 430
#     4  12  22  42  72 102 136 180 238 282 354 426
#     4  11  23  44  69  99 139 186 233 286 361 413
#     4  12  24  43  70 101 143 186 224 287 361 423
#
# _framework density 24.509741000000002
#
# number of rings (size 3 to 8) (size 9 to 14) (size 15 to 20)
#    0.000    1.231    4.615    1.385    2.154    1.231 
#    5.538    6.154    0.000    0.000    0.000    0.000 
#    0.000    0.000    0.000    0.000    0.000    0.000 
#
# Total GULP energy -72439.837593 kJ/mol
# GULP energy per Si atom -5572.295199 kJ/mol
# Density = 2.445396 g / cm^3
# Si number density = 24.509741 Si / 1000 Ang^3
#
#
#
# Elastic Constant Matrix: (Units=GPa)
#
#
# Indices 1 2 3 4 5 6 
#
# 1 151.5633 42.5475 73.1718 20.6726 -29.0889 -12.7048
# 2 42.5475 66.7416 31.7521 4.3216 -1.5907 -25.1273
# 3 73.1718 31.7521 203.0821 18.7227 -8.7399 15.7459
# 4 20.6726 4.3216 18.7227 48.3986 -1.9330 3.6777
# 5 -29.0889 -1.5907 -8.7399 -1.9330 38.3040 -3.4723
# 6 -12.7048 -25.1273 15.7459 3.6777 -3.4723 39.9218
#
#
#
# Elastic Compliance Matrix: (Units=1/GPa)
#
#
# Indices 1 2 3 4 5 6 
#
# 1 0.011544 -0.004283 -0.003091 -0.003276 0.008008 0.003196
# 2 -0.004283 0.025515 -0.003733 -0.000289 -0.001604 0.016056
# 3 -0.003091 -0.003733 0.007101 -0.000681 -0.001478 -0.006200
# 4 -0.003276 -0.000289 -0.000681 0.022520 -0.001808 -0.003187
# 5 0.008008 -0.001604 -0.001478 -0.001808 0.032154 0.005085
# 6 0.003196 0.016056 -0.006200 -0.003187 0.005085 0.039353
#
#
# Mechanical properties :
#
#
# Convention : Reuss Voigt Hill
#
# Bulk Modulus (GPa) = 45.56599 79.59220 62.57909
# Shear Modulus (GPa) = 29.81196 43.58593 36.69894
#
# Velocity S-wave (km/s) = 3.49138 4.22158 3.87372
# Velocity P-wave (km/s) = 5.90629 7.50376 6.75244
#
# Compressibility (1/GPa) = 0.02194619
#
# Stress axis : x y z
#
# Youngs Moduli (GPa) = 86.62503 39.19270 140.81601
#
# Poissons Ratio (x) = 0.16785 0.43525
# Poissons Ratio (y) = 0.37099 0.52574
# Poissons Ratio (z) = 0.26775 0.14633
#
# Static dielectric constant tensor:
#      x y z
#    x 2.269400 -0.172380 0.411200 
#    y -0.172380 1.564180 0.044910 
#    z 0.411200 0.044910 2.287230 
# 
# From -- ./inp_files/181998.got.cif
#   From: 2010.05.17/outbox.cif.g08.bks.cpg/sg2_91_cif.got.tgz:181998.got - 2010.06.03 11:33:40.
