data_PCOD9031921
_publ_section_title
;
Structure prediction by ZEFSAII (Michael W. Deem and Ramdas Pophale) SiO2 
 PCOD9031921
Probable space group: P -1
;
_chemical_formula_sum "Si O2"
_cell_formula_units_Z 16
_cell_length_a 20.557125
_cell_length_b 12.340707
_cell_length_c 8.255987
_cell_angle_alpha 143.515297
_cell_angle_beta 132.877305
_cell_angle_gamma 31.586264
_cell_volume 652.240584
_symmetry_space_group_name_H-M "P -1"
_symmetry_group_IT_number 2
_symmetry_cell_setting 'triclinic'
loop_
_space_group_symop_operation_xyz
x,y,z
-x,-y,-z
loop_
_atom_site_type_symbol
_atom_site_label
_atom_site_fract_x
_atom_site_fract_y
_atom_site_fract_z
Si Si1 0.270499 0.829902 0.180181
Si Si2 0.749805 0.643347 0.716402
Si Si3 0.878401 0.230595 0.973608
Si Si4 0.022000 0.130841 0.573291
Si Si5 0.480757 0.607474 0.773839
Si Si6 0.224049 0.019524 0.973163
Si Si7 0.509585 0.990670 0.200170
Si Si8 0.773798 0.727993 0.240982
O O1 0.206242 0.085452 0.481914
O O2 0.232357 0.685172 0.003344
O O3 0.418040 0.623083 0.211216
O O4 0.223448 0.935836 0.048215
O O5 0.882733 0.370038 0.567661
O O6 0.615235 0.738053 0.610964
O O7 0.764171 0.693325 0.990488
O O8 0.741094 0.819415 0.785144
O O9 0.884164 0.088044 0.659274
O O10 0.867521 0.450779 0.151928
O O11 0.000000 0.000000 0.000000
O O12 0.094528 0.182344 0.855427
O O13 0.000000 0.000000 0.500000
O O14 0.500000 0.500000 0.500000
O O15 0.340666 0.762304 0.771146
O O16 0.501281 0.795547 0.016318
O O17 0.646303 0.877755 0.307749
O O18 0.500000 0.000000 0.000000
#
# Coordination Sequence:
#
# PCOD9031921 Si02
#       8
#     2   2   2   2   2   2   2   2
#     4  12  26  45  70 103 145 186 227 292 355 414
#     4  10  22  43  68  99 134 180 240 281 349 412
#     4  12  27  47  71 104 141 183 237 290 352 424
#     4  12  24  44  69  97 139 184 233 292 347 416
#     4  11  21  42  73 101 141 183 235 288 349 415
#     4  11  26  43  68 103 140 184 234 288 347 423
#     4   9  19  38  68 102 131 168 229 288 335 414
#     4  11  23  45  73 102 139 180 238 289 350 417
#
# _framework density 24.530826999999999
#
# number of rings (size 3 to 8) (size 9 to 14) (size 15 to 20)
#    0.000    1.000    2.500    5.250    1.750    1.500 
#    0.000    3.750    0.000    0.000    0.000    0.000 
#    0.000    0.000    0.000    0.000    0.000    0.000 
#
# Total GULP energy -89389.936687 kJ/mol
# GULP energy per Si atom -5586.871043 kJ/mol
# Density = 2.447499 g / cm^3
# Si number density = 24.530827 Si / 1000 Ang^3
#
#
#
# Elastic Constant Matrix: (Units=GPa)
#
#
# Indices 1 2 3 4 5 6 
#
# 1 87.2929 10.6729 2.0413 6.0100 7.6169 9.4257
# 2 10.6729 119.8415 8.7255 16.0552 -0.7647 0.8854
# 3 2.0413 8.7255 32.5121 6.6574 5.1848 8.0344
# 4 6.0100 16.0552 6.6574 33.8272 4.3862 3.3473
# 5 7.6169 -0.7647 5.1848 4.3862 27.7955 5.2356
# 6 9.4257 0.8854 8.0344 3.3473 5.2356 47.2754
#
#
#
# Elastic Compliance Matrix: (Units=1/GPa)
#
#
# Indices 1 2 3 4 5 6 
#
# 1 0.012124 -0.000968 0.000740 -0.001256 -0.002890 -0.002116
# 2 -0.000968 0.009112 -0.001907 -0.004008 0.001415 0.000473
# 3 0.000740 -0.001907 0.034244 -0.004827 -0.004931 -0.005044
# 4 -0.001256 -0.004008 -0.004827 0.033227 -0.003964 -0.000768
# 5 -0.002890 0.001415 -0.004931 -0.003964 0.038850 -0.002634
# 6 -0.002116 0.000473 -0.005044 -0.000768 -0.002634 0.022769
#
#
# Mechanical properties :
#
#
# Convention : Reuss Voigt Hill
#
# Bulk Modulus (GPa) = 19.52757 31.39176 25.45967
# Shear Modulus (GPa) = 29.12632 36.32673 32.72653
#
# Velocity S-wave (km/s) = 3.44951 3.85237 3.65649
# Velocity P-wave (km/s) = 4.88295 5.71072 5.31298
#
# Compressibility (1/GPa) = 0.05120964
#
# Stress axis : x y z
#
# Youngs Moduli (GPa) = 82.48184 109.74732 29.20198
#
# Poissons Ratio (x) = 0.10625 -0.02160
# Poissons Ratio (y) = 0.07985 0.05568
# Poissons Ratio (z) = -0.06100 0.20924
#
# Static dielectric constant tensor:
#      x y z
#    x 1.623350 0.319680 0.137270 
#    y 0.319680 1.610090 -0.187590 
#    z 0.137270 -0.187590 1.922060 
# 
# From -- ./inp_files/260238.got.cif
#   From: 2010.05.17/outbox.cif.g08.bks.cpg/sg2_131_cif.got.tgz:260238.got - 2010.06.03 11:33:40.
