data_PCOD9031595
_publ_section_title
;
Structure prediction by ZEFSAII (Michael W. Deem and Ramdas Pophale) SiO2 
 PCOD9031595
Probable space group: P -1
;
_chemical_formula_sum "Si O2"
_cell_formula_units_Z 16
_cell_length_a 13.626973
_cell_length_b 9.151522
_cell_length_c 12.956142
_cell_angle_alpha 53.709363
_cell_angle_beta 40.810065
_cell_angle_gamma 48.018182
_cell_volume 772.676342
_symmetry_space_group_name_H-M "P -1"
_symmetry_group_IT_number 2
_symmetry_cell_setting 'triclinic'
loop_
_space_group_symop_operation_xyz
x,y,z
-x,-y,-z
loop_
_atom_site_type_symbol
_atom_site_label
_atom_site_fract_x
_atom_site_fract_y
_atom_site_fract_z
Si Si1 0.325529 0.191772 0.071199
Si Si2 0.156166 0.795489 0.974172
Si Si3 0.849810 0.486959 0.064734
Si Si4 0.333369 0.985399 0.604144
Si Si5 0.670315 0.516147 0.868879
Si Si6 0.039086 0.781798 0.599023
Si Si7 0.150070 0.430126 0.490114
Si Si8 0.327610 0.690840 0.569938
O O1 0.337799 0.317489 0.109234
O O2 0.142123 0.190121 0.224795
O O3 0.300885 0.309910 0.933439
O O4 0.500000 0.000000 0.000000
O O5 0.102532 0.636252 0.027071
O O6 0.290156 0.851862 0.780701
O O7 0.210173 0.698129 0.084645
O O8 0.000000 0.000000 0.000000
O O9 0.779351 0.363373 0.239706
O O10 0.000000 0.500000 0.000000
O O11 0.354154 0.872976 0.524466
O O12 0.500000 0.000000 0.500000
O O13 0.200395 0.214069 0.593453
O O14 0.710888 0.569162 0.700363
O O15 0.500000 0.500000 0.000000
O O16 0.096730 0.602965 0.545529
O O17 0.204460 0.735044 0.553907
O O18 0.000000 0.000000 0.500000
O O19 0.000000 0.500000 0.500000
O O20 0.500000 0.500000 0.500000
#
# Coordination Sequence:
#
# PCOD9031595 Si02
#       8
#     2   2   2   2   2   2   2   2
#     4  11  26  45  69 101 137 181 232 286 346 414
#     4  10  23  41  66  95 130 170 220 275 336 401
#     4  10  22  43  67  95 132 172 223 275 338 405
#     4  11  24  43  68 103 135 178 228 280 343 414
#     4  11  25  44  67 101 138 180 228 282 346 410
#     4  12  27  45  69 103 141 182 233 289 352 413
#     4  12  24  44  72  97 141 183 234 286 344 417
#     4  11  25  43  70 104 138 181 226 283 349 414
#
# _framework density 20.707246000000001
#
# number of rings (size 3 to 8) (size 9 to 14) (size 15 to 20)
#    0.000    1.000    2.500    3.000    5.250    4.000 
#    0.000    0.000    0.000    0.000    0.000    0.000 
#    0.000    0.000    0.000    0.000    0.000    0.000 
#
# Total GULP energy -89118.875942 kJ/mol
# GULP energy per Si atom -5569.929746 kJ/mol
# Density = 2.066012 g / cm^3
# Si number density = 20.707246 Si / 1000 Ang^3
#
#
#
# Elastic Constant Matrix: (Units=GPa)
#
#
# Indices 1 2 3 4 5 6 
#
# 1 158.6765 63.7025 14.6976 4.5382 -15.9518 -5.2775
# 2 63.7025 151.9579 1.2935 -1.0530 7.6507 -8.0044
# 3 14.6976 1.2935 36.9810 -0.2067 -7.2092 11.4098
# 4 4.5382 -1.0530 -0.2067 33.7538 -7.0594 0.8762
# 5 -15.9518 7.6507 -7.2092 -7.0594 39.4366 -5.7365
# 6 -5.2775 -8.0044 11.4098 0.8762 -5.7365 38.2421
#
#
#
# Elastic Compliance Matrix: (Units=1/GPa)
#
#
# Indices 1 2 3 4 5 6 
#
# 1 0.008505 -0.003631 -0.003116 -0.000540 0.003758 0.001920
# 2 -0.003631 0.008282 0.000381 0.000128 -0.002883 0.000683
# 3 -0.003116 0.000381 0.031830 0.001581 0.003404 -0.009373
# 4 -0.000540 0.000128 0.001581 0.030876 0.005515 -0.000400
# 5 0.003758 -0.002883 0.003404 0.005515 0.029511 0.003200
# 6 0.001920 0.000683 -0.009373 -0.000400 0.003200 0.029843
#
#
# Mechanical properties :
#
#
# Convention : Reuss Voigt Hill
#
# Bulk Modulus (GPa) = 27.86613 56.33360 42.09986
# Shear Modulus (GPa) = 30.57337 40.14797 35.36067
#
# Velocity S-wave (km/s) = 3.84664 4.40800 4.13685
# Velocity P-wave (km/s) = 5.76327 7.29185 6.57215
#
# Compressibility (1/GPa) = 0.03588586
#
# Stress axis : x y z
#
# Youngs Moduli (GPa) = 117.57146 120.74853 31.41670
#
# Poissons Ratio (x) = 0.43842 0.09790
# Poissons Ratio (y) = 0.42689 -0.01198
# Poissons Ratio (z) = 0.36636 -0.04603
#
# Static dielectric constant tensor:
#      x y z
#    x 1.823150 -0.015580 -0.073740 
#    y -0.015580 1.745290 -0.095430 
#    z -0.073740 -0.095430 1.604670 
# 
# From -- ./inp_files/419097.got.cif
#   From: 2010.05.17/outbox.cif.g08.bks.cpg/sg2_210_cif.got.tgz:419097.got - 2010.06.03 11:33:40.
