data_PCOD9031078
_publ_section_title
;
Structure prediction by ZEFSAII (Michael W. Deem and Ramdas Pophale) SiO2 
 PCOD9031078
Probable space group: P -1
;
_chemical_formula_sum "Si O2"
_cell_formula_units_Z 16
_cell_length_a 12.151341
_cell_length_b 8.986354
_cell_length_c 22.632218
_cell_angle_alpha 29.648640
_cell_angle_beta 34.990083
_cell_angle_gamma 44.156217
_cell_volume 700.910792
_symmetry_space_group_name_H-M "P -1"
_symmetry_group_IT_number 2
_symmetry_cell_setting 'triclinic'
loop_
_space_group_symop_operation_xyz
x,y,z
-x,-y,-z
loop_
_atom_site_type_symbol
_atom_site_label
_atom_site_fract_x
_atom_site_fract_y
_atom_site_fract_z
Si Si1 0.883243 0.655295 0.049717
Si Si2 0.925330 0.062123 0.410577
Si Si3 0.650230 0.120878 0.709147
Si Si4 0.043108 0.647018 0.107481
Si Si5 0.420779 0.141821 0.284265
Si Si6 0.378203 0.841165 0.690965
Si Si7 0.755340 0.779899 0.476373
Si Si8 0.661361 0.252696 0.961310
O O1 0.682840 0.482293 0.194036
O O2 0.006172 0.563512 0.084860
O O3 0.822079 0.007260 0.952475
O O4 0.000000 0.500000 0.000000
O O5 0.905853 0.417092 0.281791
O O6 0.769173 0.950204 0.564010
O O7 0.921055 0.863464 0.420289
O O8 0.142552 0.018294 0.351554
O O9 0.698430 0.443936 0.602369
O O10 0.537981 0.094700 0.705110
O O11 0.527206 0.930121 0.875210
O O12 0.245033 0.628467 0.059510
O O13 0.000000 0.000000 0.000000
O O14 0.589033 0.146465 0.257954
O O15 0.385333 0.472118 0.156980
O O16 0.579305 0.919943 0.544598
O O17 0.226536 0.063612 0.649249
#
# Coordination Sequence:
#
# PCOD9031078 Si02
#       8
#     2   2   2   2   2   2   2   2
#     4  11  24  44  69  99 132 177 228 279 336 408
#     4  11  23  45  70 100 135 182 229 283 331 406
#     4  12  24  42  72  99 137 184 225 276 348 405
#     4  10  23  44  73  96 135 179 225 278 344 400
#     4  11  26  42  68 102 142 177 229 279 339 406
#     4  10  22  43  64  94 133 175 220 283 334 395
#     4  10  22  44  69  92 133 178 228 278 338 400
#     4  11  25  46  67 100 141 181 222 284 344 406
#
# _framework density 22.827441
#
# number of rings (size 3 to 8) (size 9 to 14) (size 15 to 20)
#    0.000    1.250    3.750    1.125    1.750    2.000 
#    6.750    0.000    0.000    0.000    0.000    0.000 
#    0.000    0.000    0.000    0.000    0.000    0.000 
#
# Total GULP energy -89204.972483 kJ/mol
# GULP energy per Si atom -5575.310780 kJ/mol
# Density = 2.277548 g / cm^3
# Si number density = 22.827441 Si / 1000 Ang^3
#
#
#
# Elastic Constant Matrix: (Units=GPa)
#
#
# Indices 1 2 3 4 5 6 
#
# 1 141.5342 10.3784 48.5739 -13.2908 13.3131 27.4788
# 2 10.3784 61.7053 35.2282 -7.5007 5.9759 7.4437
# 3 48.5739 35.2282 147.4306 -21.2422 10.6533 9.4844
# 4 -13.2908 -7.5007 -21.2422 32.3137 5.2429 -9.9221
# 5 13.3131 5.9759 10.6533 5.2429 33.6479 -3.2547
# 6 27.4788 7.4437 9.4844 -9.9221 -3.2547 20.4326
#
#
#
# Elastic Compliance Matrix: (Units=1/GPa)
#
#
# Indices 1 2 3 4 5 6 
#
# 1 0.011494 0.002142 -0.002987 -0.000806 -0.005414 -0.016105
# 2 0.002142 0.019899 -0.004566 0.000555 -0.003830 -0.008350
# 3 -0.002987 -0.004566 0.009498 0.005306 -0.001492 0.003611
# 4 -0.000806 0.000555 0.005306 0.040474 -0.006112 0.017099
# 5 -0.005414 -0.003830 -0.001492 -0.006112 0.035127 0.011996
# 6 -0.016105 -0.008350 0.003611 0.017099 0.011996 0.082180
#
#
# Mechanical properties :
#
#
# Convention : Reuss Voigt Hill
#
# Bulk Modulus (GPa) = 33.25984 59.89235 46.57610
# Shear Modulus (GPa) = 22.77709 34.37816 28.57762
#
# Velocity S-wave (km/s) = 3.16222 3.88493 3.54206
# Velocity P-wave (km/s) = 5.28531 6.81304 6.09722
#
# Compressibility (1/GPa) = 0.03006629
#
# Stress axis : x y z
#
# Youngs Moduli (GPa) = 87.00127 50.25491 105.28260
#
# Poissons Ratio (x) = -0.10762 0.31453
# Poissons Ratio (y) = -0.18632 0.48076
# Poissons Ratio (z) = 0.25992 0.22948
#
# Static dielectric constant tensor:
#      x y z
#    x 1.982020 -0.052700 -0.061110 
#    y -0.052700 1.898340 0.031770 
#    z -0.061110 0.031770 1.910580 
# 
# From -- ./inp_files/500329.got.cif
#   From: 2010.05.17/outbox.cif.g08.bks.cpg/sg2_251_cif.got.tgz:500329.got - 2010.06.03 11:33:40.
