data_PCOD9031259
_publ_section_title
;
Structure prediction by ZEFSAII (Michael W. Deem and Ramdas Pophale) SiO2 
 PCOD9031259
Probable space group: P -1
;
_chemical_formula_sum "Si O2"
_cell_formula_units_Z 16
_cell_length_a 8.937124
_cell_length_b 8.278113
_cell_length_c 14.710837
_cell_angle_alpha 92.497318
_cell_angle_beta 66.095078
_cell_angle_gamma 48.188704
_cell_volume 658.330925
_symmetry_space_group_name_H-M "P -1"
_symmetry_group_IT_number 2
_symmetry_cell_setting 'triclinic'
loop_
_space_group_symop_operation_xyz
x,y,z
-x,-y,-z
loop_
_atom_site_type_symbol
_atom_site_label
_atom_site_fract_x
_atom_site_fract_y
_atom_site_fract_z
Si Si1 0.863609 0.957186 0.422330
Si Si2 0.366603 0.329926 0.019223
Si Si3 0.346531 0.467451 0.595143
Si Si4 0.084068 0.278855 0.420492
Si Si5 0.735700 0.247525 0.035127
Si Si6 0.462878 0.101478 0.809375
Si Si7 0.438799 0.605566 0.275684
Si Si8 0.898964 0.663428 0.252763
O O1 0.805577 0.909790 0.530290
O O2 0.887192 0.820800 0.328018
O O3 0.143158 0.813616 0.363932
O O4 0.613286 0.244201 0.477238
O O5 0.628088 0.194872 0.991113
O O6 0.174348 0.421540 0.145825
O O7 0.262752 0.576502 0.008011
O O8 0.394813 0.170528 0.932733
O O9 0.409395 0.524566 0.671181
O O10 0.237487 0.381741 0.663448
O O11 0.137265 0.648555 0.574805
O O12 0.000000 0.500000 0.500000
O O13 0.288624 0.167752 0.292208
O O14 0.543469 0.405635 0.169989
O O15 0.000000 0.000000 0.000000
O O16 0.506282 0.256945 0.773676
O O17 0.247616 0.194603 0.801084
#
# Coordination Sequence:
#
# PCOD9031259 Si02
#       8
#     2   2   2   2   2   2   2   2
#     4  12  22  44  65  92 133 169 219 263 322 382
#     4  10  22  43  67  94 128 173 216 258 322 387
#     4  11  24  40  64  91 132 170 213 268 321 374
#     4  12  24  41  64  96 129 170 214 266 324 377
#     4  10  22  43  65  97 134 166 208 271 322 376
#     4  10  23  42  68  91 132 170 213 267 322 376
#     4  10  22  43  66  94 129 171 213 265 321 381
#     4  11  20  42  67  91 127 175 209 264 320 383
#
# _framework density 24.303887
#
# number of rings (size 3 to 8) (size 9 to 14) (size 15 to 20)
#    0.000    1.250    5.000    1.875    1.750    0.500 
#    6.750    0.625    0.000    0.000    0.000    0.000 
#    0.000    0.000    0.000    0.000    0.000    0.000 
#
# Total GULP energy -89536.413485 kJ/mol
# GULP energy per Si atom -5596.025843 kJ/mol
# Density = 2.424857 g / cm^3
# Si number density = 24.303887 Si / 1000 Ang^3
#
#
#
# Elastic Constant Matrix: (Units=GPa)
#
#
# Indices 1 2 3 4 5 6 
#
# 1 119.1127 19.5590 37.2711 -4.8871 11.0833 -28.1682
# 2 19.5590 73.5218 15.7715 -1.1711 -1.7985 -31.6149
# 3 37.2711 15.7715 138.0787 1.7542 14.2165 -4.6492
# 4 -4.8871 -1.1711 1.7542 27.6677 -7.3223 -2.1581
# 5 11.0833 -1.7985 14.2165 -7.3223 54.9891 1.6796
# 6 -28.1682 -31.6149 -4.6492 -2.1581 1.6796 36.6042
#
#
#
# Elastic Compliance Matrix: (Units=1/GPa)
#
#
# Indices 1 2 3 4 5 6 
#
# 1 0.011762 0.002134 -0.002938 0.002797 -0.001497 0.010754
# 2 0.002134 0.022742 -0.002586 0.003358 0.000784 0.021117
# 3 -0.002938 -0.002586 0.008426 -0.001914 -0.001820 -0.003453
# 4 0.002797 0.003358 -0.001914 0.038757 0.004992 0.006866
# 5 -0.001497 0.000784 -0.001820 0.004992 0.019688 -0.001315
# 6 0.010754 0.021117 -0.003453 0.006866 -0.001315 0.053860
#
#
# Mechanical properties :
#
#
# Convention : Reuss Voigt Hill
#
# Bulk Modulus (GPa) = 27.66311 52.87960 40.27136
# Shear Modulus (GPa) = 28.72480 41.05963 34.89222
#
# Velocity S-wave (km/s) = 3.44161 4.11472 3.79313
# Velocity P-wave (km/s) = 5.21534 6.66179 5.98244
#
# Compressibility (1/GPa) = 0.03614922
#
# Stress axis : x y z
#
# Youngs Moduli (GPa) = 85.02285 43.97183 118.67993
#
# Poissons Ratio (x) = -0.09381 0.34865
# Poissons Ratio (y) = -0.18140 0.30689
# Poissons Ratio (z) = 0.24977 0.11371
#
# Static dielectric constant tensor:
#      x y z
#    x 1.898190 0.038890 -0.011790 
#    y 0.038890 2.037680 -0.015290 
#    z -0.011790 -0.015290 1.907490 
# 
# From -- ./inp_files/495176.got.cif
#   From: 2010.05.17/outbox.cif.g08.bks.cpg/sg2_248_cif.got.tgz:495176.got - 2010.06.03 11:33:40.
