data_PCOD9031526
_publ_section_title
;
Structure prediction by ZEFSAII (Michael W. Deem and Ramdas Pophale) SiO2 
 PCOD9031526
Probable space group: P -1
;
_chemical_formula_sum "Si O2"
_cell_formula_units_Z 14
_cell_length_a 17.448357
_cell_length_b 8.085834
_cell_length_c 17.860479
_cell_angle_alpha 36.215984
_cell_angle_beta 155.696946
_cell_angle_gamma 144.405681
_cell_volume 580.474203
_symmetry_space_group_name_H-M "P -1"
_symmetry_group_IT_number 2
_symmetry_cell_setting 'triclinic'
loop_
_space_group_symop_operation_xyz
x,y,z
-x,-y,-z
loop_
_atom_site_type_symbol
_atom_site_label
_atom_site_fract_x
_atom_site_fract_y
_atom_site_fract_z
Si Si1 0.686255 0.279156 0.648970
Si Si2 0.916507 0.073145 0.054457
Si Si3 0.284518 0.896618 0.472277
Si Si4 0.054692 0.318715 0.890185
Si Si5 0.732925 0.091992 0.045470
Si Si6 0.655076 0.903481 0.375692
Si Si7 0.063522 0.319044 0.555900
O O1 0.832235 0.326066 0.691665
O O2 0.614111 0.560226 0.481228
O O3 0.494909 0.992999 0.584435
O O4 0.822966 0.268812 0.847001
O O5 0.851684 0.103113 0.069523
O O6 0.148386 0.099856 0.253668
O O7 0.840685 0.747378 0.067008
O O8 0.148149 0.556415 0.480530
O O9 0.340518 0.964099 0.585615
O O10 0.183767 0.602579 0.946197
O O11 0.000000 0.000000 0.000000
O O12 0.772343 0.825948 0.222154
O O13 0.511842 0.040366 0.843459
O O14 0.863819 0.046843 0.468081
O O15 0.000000 0.500000 0.500000
#
# Coordination Sequence:
#
# PCOD9031526 Si02
#       7
#     2   2   2   2   2   2   2
#     4  11  23  41  64 104 140 172 236 284 343 413
#     4  11  24  43  70 101 142 180 227 289 348 401
#     4  11  23  39  68 104 133 181 235 275 345 413
#     4  10  25  44  66 107 141 177 230 287 351 406
#     4  12  23  45  74  96 148 179 227 295 337 412
#     4  11  23  38  70 107 131 185 232 275 356 407
#     4  10  22  43  67 106 136 183 239 276 343 418
#
# _framework density 24.118213000000001
#
# number of rings (size 3 to 8) (size 9 to 14) (size 15 to 20)
#    0.000    1.143    5.714    0.429    4.000    6.857 
#    2.571    0.714    0.000    4.286    0.000    0.000 
#    0.000    0.000    0.000    0.000    0.000    0.000 
#
# Total GULP energy -78169.808332 kJ/mol
# GULP energy per Si atom -5583.557738 kJ/mol
# Density = 2.406332 g / cm^3
# Si number density = 24.118213 Si / 1000 Ang^3
#
#
#
# Elastic Constant Matrix: (Units=GPa)
#
#
# Indices 1 2 3 4 5 6 
#
# 1 97.4535 36.7000 12.7794 -1.8245 -10.1680 -2.8449
# 2 36.7000 77.4887 44.4646 -8.5417 -14.5583 2.5685
# 3 12.7794 44.4646 192.8036 1.1400 -11.2295 17.8792
# 4 -1.8245 -8.5417 1.1400 39.8971 3.4838 9.7929
# 5 -10.1680 -14.5583 -11.2295 3.4838 21.3213 -7.2513
# 6 -2.8449 2.5685 17.8792 9.7929 -7.2513 39.3397
#
#
#
# Elastic Compliance Matrix: (Units=1/GPa)
#
#
# Indices 1 2 3 4 5 6 
#
# 1 0.012823 -0.006010 0.000544 -0.001500 0.003238 0.002043
# 2 -0.006010 0.019820 -0.003771 0.003157 0.008421 0.000751
# 3 0.000544 -0.003771 0.006260 -0.000386 0.000221 -0.002423
# 4 -0.001500 0.003157 -0.000386 0.028268 -0.006212 -0.008321
# 5 0.003238 0.008421 0.000221 -0.006212 0.059437 0.012086
# 6 0.002043 0.000751 -0.002423 -0.008321 0.012086 0.030918
#
#
# Mechanical properties :
#
#
# Convention : Reuss Voigt Hill
#
# Bulk Modulus (GPa) = 48.94725 61.73710 55.34218
# Shear Modulus (GPa) = 27.35096 38.36508 32.85802
#
# Velocity S-wave (km/s) = 3.37120 3.99270 3.69504
# Velocity P-wave (km/s) = 5.95753 6.84900 6.41876
#
# Compressibility (1/GPa) = 0.02043016
#
# Stress axis : x y z
#
# Youngs Moduli (GPa) = 77.98721 50.45322 159.74598
#
# Poissons Ratio (x) = 0.30323 -0.08693
# Poissons Ratio (y) = 0.46871 0.60232
# Poissons Ratio (z) = -0.04244 0.19023
#
# Static dielectric constant tensor:
#      x y z
#    x 2.056710 -0.091460 -0.053440 
#    y -0.091460 2.034020 0.047760 
#    z -0.053440 0.047760 1.949420 
# 
# From -- ./inp_files/601271.got.cif
#   From: 2010.05.17/outbox.cif.g08.bks.cpg/sg2_301_cif.got.tgz:601271.got - 2010.06.03 11:33:40.
