data_PCOD9031817
_publ_section_title
;
Structure prediction by ZEFSAII (Michael W. Deem and Ramdas Pophale) SiO2 
 PCOD9031817
Probable space group: P -1
;
_chemical_formula_sum "Si O2"
_cell_formula_units_Z 16
_cell_length_a 23.373526
_cell_length_b 14.591440
_cell_length_c 20.365092
_cell_angle_alpha 19.073630
_cell_angle_beta 160.529693
_cell_angle_gamma 158.783149
_cell_volume 700.426211
_symmetry_space_group_name_H-M "P -1"
_symmetry_group_IT_number 2
_symmetry_cell_setting 'triclinic'
loop_
_space_group_symop_operation_xyz
x,y,z
-x,-y,-z
loop_
_atom_site_type_symbol
_atom_site_label
_atom_site_fract_x
_atom_site_fract_y
_atom_site_fract_z
Si Si1 0.077042 0.745222 0.282368
Si Si2 0.249922 0.092067 0.354980
Si Si3 0.856179 0.132644 0.227662
Si Si4 0.480051 0.688689 0.123451
Si Si5 0.943760 0.142609 0.173100
Si Si6 0.347059 0.741986 0.468399
Si Si7 0.105539 0.843324 0.029841
Si Si8 0.757422 0.121017 0.367915
O O1 0.231592 0.884191 0.411914
O O2 0.168177 0.629165 0.399287
O O3 0.905012 0.456943 0.315886
O O4 0.000000 0.000000 0.000000
O O5 0.325377 0.031139 0.548300
O O6 0.353087 0.437465 0.207744
O O7 0.031445 0.011681 0.187132
O O8 0.834309 0.035626 0.193624
O O9 0.962422 0.491641 0.106734
O O10 0.656844 0.961375 0.160213
O O11 0.000000 0.000000 0.500000
O O12 0.565252 0.486747 0.308983
O O13 0.374095 0.829026 0.863725
O O14 0.832044 0.038577 0.055439
O O15 0.125828 0.064083 0.412371
O O16 0.000000 0.500000 0.000000
O O17 0.273132 0.866398 0.241411
O O18 0.500000 0.000000 0.500000
#
# Coordination Sequence:
#
# PCOD9031817 Si02
#       8
#     2   2   2   2   2   2   2   2
#     4  12  21  42  72  96 140 184 230 280 342 417
#     4  11  24  44  66  99 137 185 230 282 345 408
#     4  11  23  42  68  96 130 181 230 278 349 413
#     4  12  25  42  66 103 140 175 231 292 340 413
#     4   9  22  46  71  96 133 183 233 288 341 413
#     4  12  22  39  69 100 137 180 225 283 346 403
#     4  10  22  43  68  94 133 185 233 280 346 414
#     4  11  24  44  71 100 139 182 232 283 350 415
#
# _framework density 22.843233999999999
#
# number of rings (size 3 to 8) (size 9 to 14) (size 15 to 20)
#    0.000    1.000    5.000    1.125    1.750    1.500 
#    2.250    3.750    0.000    0.000    0.000    0.000 
#    0.000    0.000    0.000    0.000    0.000    0.000 
#
# Total GULP energy -89385.058265 kJ/mol
# GULP energy per Si atom -5586.566142 kJ/mol
# Density = 2.279124 g / cm^3
# Si number density = 22.843234 Si / 1000 Ang^3
#
#
#
# Elastic Constant Matrix: (Units=GPa)
#
#
# Indices 1 2 3 4 5 6 
#
# 1 117.7218 9.2480 34.2996 8.5547 -25.4921 7.1184
# 2 9.2480 77.8835 13.8451 13.2348 -21.0279 8.8364
# 3 34.2996 13.8451 108.1079 6.1583 -19.3709 6.8605
# 4 8.5547 13.2348 6.1583 37.2024 -14.2064 -1.5850
# 5 -25.4921 -21.0279 -19.3709 -14.2064 44.6047 -1.8046
# 6 7.1184 8.8364 6.8605 -1.5850 -1.8046 19.8847
#
#
#
# Elastic Compliance Matrix: (Units=1/GPa)
#
#
# Indices 1 2 3 4 5 6 
#
# 1 0.010413 0.000981 -0.002293 -0.000531 0.005130 -0.002949
# 2 0.000981 0.015962 -0.000559 -0.003667 0.006393 -0.006963
# 3 -0.002293 -0.000559 0.010735 -0.000010 0.002989 -0.002364
# 4 -0.000531 -0.003667 -0.000010 0.031679 0.008260 0.005098
# 5 0.005130 0.006393 0.002989 0.008260 0.032207 -0.002127
# 6 -0.002949 -0.006963 -0.002364 0.005098 -0.002127 0.055469
#
#
# Mechanical properties :
#
#
# Convention : Reuss Voigt Hill
#
# Bulk Modulus (GPa) = 29.96870 46.49987 38.23429
# Shear Modulus (GPa) = 29.18319 36.75973 32.97146
#
# Velocity S-wave (km/s) = 3.57815 4.01586 3.80331
# Velocity P-wave (km/s) = 5.49715 6.47326 6.00507
#
# Compressibility (1/GPa) = 0.03336814
#
# Stress axis : x y z
#
# Youngs Moduli (GPa) = 96.03075 62.64951 93.15043
#
# Poissons Ratio (x) = -0.06145 0.21359
# Poissons Ratio (y) = -0.09419 0.05208
# Poissons Ratio (z) = 0.22019 0.03503
#
# Static dielectric constant tensor:
#      x y z
#    x 2.050730 -0.127680 0.057310 
#    y -0.127680 1.996660 -0.093810 
#    z 0.057310 -0.093810 1.854370 
# 
# From -- ./inp_files/324755.got.cif
#   From: 2010.05.17/outbox.cif.g08.bks.cpg/sg2_163_cif.got.tgz:324755.got - 2010.06.03 11:33:40.
