data_PCOD9031113
_publ_section_title
;
Structure prediction by ZEFSAII (Michael W. Deem and Ramdas Pophale) SiO2 
 PCOD9031113
Probable space group: P -1
;
_chemical_formula_sum "Si O2"
_cell_formula_units_Z 14
_cell_length_a 19.936982
_cell_length_b 7.871420
_cell_length_c 11.574833
_cell_angle_alpha 116.218865
_cell_angle_beta 33.521065
_cell_angle_gamma 138.041148
_cell_volume 587.461380
_symmetry_space_group_name_H-M "P -1"
_symmetry_group_IT_number 2
_symmetry_cell_setting 'triclinic'
loop_
_space_group_symop_operation_xyz
x,y,z
-x,-y,-z
loop_
_atom_site_type_symbol
_atom_site_label
_atom_site_fract_x
_atom_site_fract_y
_atom_site_fract_z
Si Si1 0.028132 0.257967 0.562209
Si Si2 0.683755 0.066853 0.910538
Si Si3 0.165304 0.085311 0.050408
Si Si4 0.153287 0.778318 0.780510
Si Si5 0.457977 0.921548 0.672053
Si Si6 0.922872 0.746686 0.949972
Si Si7 0.390240 0.637049 0.029097
O O1 0.240531 0.533209 0.307155
O O2 0.891517 0.230874 0.676118
O O3 0.969066 0.197025 0.761777
O O4 0.000000 0.000000 0.500000
O O5 0.633073 0.222223 0.989124
O O6 0.576996 0.829040 0.891576
O O7 0.609610 0.981807 0.123890
O O8 0.060072 0.145745 0.168680
O O9 0.328433 0.370090 0.976934
O O10 0.222700 0.034119 0.840674
O O11 0.051166 0.724045 0.794788
O O12 0.340699 0.895338 0.514827
O O13 0.000000 0.500000 0.000000
O O14 0.500000 0.000000 0.500000
O O15 0.289185 0.569739 0.817605
O O16 0.000000 0.000000 0.000000
#
# Coordination Sequence:
#
# PCOD9031113 Si02
#       7
#     2   2   2   2   2   2   2
#     4  10  23  42  68  95 132 179 226 280 348 409
#     4  11  24  43  69 102 137 174 239 283 345 427
#     4  10  22  43  64  98 140 173 232 286 342 423
#     4  11  24  42  70 101 135 186 235 284 356 414
#     4  12  24  42  71 105 136 186 228 288 350 415
#     4  10  23  43  63  96 143 174 231 286 341 413
#     4  10  23  45  67  99 136 184 225 289 351 404
#
# _framework density 23.831353
#
# number of rings (size 3 to 8) (size 9 to 14) (size 15 to 20)
#    0.000    1.429    2.857    1.286    2.000    4.571 
#   10.286    4.286    0.000    0.000    0.000    0.000 
#    0.000    0.000    0.000    0.000    0.000    0.000 
#
# Total GULP energy -78120.152573 kJ/mol
# GULP energy per Si atom -5580.010898 kJ/mol
# Density = 2.377711 g / cm^3
# Si number density = 23.831353 Si / 1000 Ang^3
#
#
#
# Elastic Constant Matrix: (Units=GPa)
#
#
# Indices 1 2 3 4 5 6 
#
# 1 115.5400 24.1108 18.1259 -17.2094 -0.4823 -8.0966
# 2 24.1108 107.1277 7.2249 -4.6465 -0.5402 19.4236
# 3 18.1259 7.2249 59.3498 -9.5781 -17.3070 -6.4221
# 4 -17.2094 -4.6465 -9.5781 36.4140 10.0733 2.9900
# 5 -0.4823 -0.5402 -17.3070 10.0733 39.1650 4.8113
# 6 -8.0966 19.4236 -6.4221 2.9900 4.8113 32.8595
#
#
#
# Elastic Compliance Matrix: (Units=1/GPa)
#
#
# Indices 1 2 3 4 5 6 
#
# 1 0.010511 -0.002681 -0.002541 0.004377 -0.002606 0.003662
# 2 -0.002681 0.011448 -0.001225 0.000388 0.000438 -0.007766
# 3 -0.002541 -0.001225 0.020774 0.001558 0.008389 0.002788
# 4 0.004377 0.000388 0.001558 0.032100 -0.007425 -0.000680
# 5 -0.002606 0.000438 0.008389 -0.007425 0.031517 -0.003201
# 6 0.003662 -0.007766 0.002788 -0.000680 -0.003201 0.037001
#
#
# Mechanical properties :
#
#
# Convention : Reuss Voigt Hill
#
# Bulk Modulus (GPa) = 33.51426 42.32676 37.92051
# Shear Modulus (GPa) = 30.08598 37.19144 33.63871
#
# Velocity S-wave (km/s) = 3.55696 3.95474 3.76111
# Velocity P-wave (km/s) = 5.56443 6.21714 5.89982
#
# Compressibility (1/GPa) = 0.02983804
#
# Stress axis : x y z
#
# Youngs Moduli (GPa) = 95.13935 87.35190 48.13798
#
# Poissons Ratio (x) = 0.23423 0.12232
# Poissons Ratio (y) = 0.25511 0.05896
# Poissons Ratio (z) = 0.24175 0.10698
#
# Static dielectric constant tensor:
#      x y z
#    x 2.033390 -0.029910 0.010080 
#    y -0.029910 1.989730 0.014270 
#    z 0.010080 0.014270 1.884500 
# 
# From -- ./inp_files/470081.got.cif
#   From: 2010.05.17/outbox.cif.g08.bks.cpg/sg2_236_cif.got.tgz:470081.got - 2010.06.03 11:33:40.
