data_PCOD9031073
_publ_section_title
;
Structure prediction by ZEFSAII (Michael W. Deem and Ramdas Pophale) SiO2 
 PCOD9031073
Probable space group: P -1
;
_chemical_formula_sum "Si O2"
_cell_formula_units_Z 15
_cell_length_a 5.095544
_cell_length_b 19.066975
_cell_length_c 9.459500
_cell_angle_alpha 49.007705
_cell_angle_beta 75.503349
_cell_angle_gamma 90.675937
_cell_volume 651.844128
_symmetry_space_group_name_H-M "P -1"
_symmetry_group_IT_number 2
_symmetry_cell_setting 'triclinic'
loop_
_space_group_symop_operation_xyz
x,y,z
-x,-y,-z
loop_
_atom_site_type_symbol
_atom_site_label
_atom_site_fract_x
_atom_site_fract_y
_atom_site_fract_z
Si Si1 0.008495 0.438231 0.387266
Si Si2 0.140543 0.920462 0.224249
Si Si3 0.136737 0.291711 0.789071
Si Si4 0.570605 0.914170 0.423161
Si Si5 0.592532 0.866184 0.066956
Si Si6 0.369674 0.868541 0.809653
Si Si7 0.387484 0.447765 0.773668
Si Si8 0.000000 0.500000 0.000000
O O1 0.286932 0.522464 0.271272
O O2 0.964410 0.645491 0.400598
O O3 0.722980 0.471526 0.407282
O O4 0.018009 0.428296 0.229292
O O5 0.322838 0.910518 0.351446
O O6 0.282778 0.871804 0.147288
O O7 0.821271 0.881941 0.356200
O O8 0.213715 0.034809 0.032914
O O9 0.331976 0.230293 0.771795
O O10 0.291688 0.354102 0.816314
O O11 0.880589 0.215870 0.994311
O O12 0.463203 0.856853 0.654256
O O13 0.686745 0.025416 0.308023
O O14 0.611160 0.870507 0.889229
O O15 0.204763 0.449580 0.938831
#
# Coordination Sequence:
#
# PCOD9031073 Si02
#       8
#     2   2   2   2   2   2   2   1
#     4  10  23  43  70  98 135 181 220 272 352 412
#     4  10  22  43  64  94 130 193 225 279 344 401
#     4  12  24  40  66 105 138 176 236 289 333 411
#     4  10  22  43  67  89 137 183 239 271 354 396
#     4  10  24  37  67  95 139 173 238 282 337 398
#     4  10  24  39  65  99 133 182 228 295 331 403
#     4  10  23  43  69  97 135 180 218 273 351 418
#     4   8  22  42  74  94 128 186 212 268 350 432
#
# _framework density 23.011634999999998
#
# number of rings (size 3 to 8) (size 9 to 14) (size 15 to 20)
#    0.800    1.067    1.333    1.200    7.467    3.200 
#    0.000    4.000    0.000    0.000    0.000    0.000 
#    0.000    0.000    0.000    0.000    0.000    0.000 
#
# Total GULP energy -83579.261827 kJ/mol
# GULP energy per Si atom -5571.950788 kJ/mol
# Density = 2.295926 g / cm^3
# Si number density = 23.011635 Si / 1000 Ang^3
#
#
#
# Elastic Constant Matrix: (Units=GPa)
#
#
# Indices 1 2 3 4 5 6 
#
# 1 79.3140 21.6925 22.3456 4.9990 -0.1913 -4.2993
# 2 21.6925 86.6604 45.6103 12.1871 5.5008 -4.7519
# 3 22.3456 45.6103 124.1046 25.8490 5.2764 10.4850
# 4 4.9990 12.1871 25.8490 38.3391 4.1544 4.8001
# 5 -0.1913 5.5008 5.2764 4.1544 25.4614 -3.9556
# 6 -4.2993 -4.7519 10.4850 4.8001 -3.9556 30.8206
#
#
#
# Elastic Compliance Matrix: (Units=1/GPa)
#
#
# Indices 1 2 3 4 5 6 
#
# 1 0.013942 -0.002455 -0.001816 -0.000270 0.001430 0.002410
# 2 -0.002455 0.015378 -0.005180 -0.001398 -0.001445 0.003823
# 3 -0.001816 -0.005180 0.011837 -0.005425 -0.001143 -0.004381
# 4 -0.000270 -0.001398 -0.005425 0.031157 -0.004251 -0.003806
# 5 0.001430 -0.001445 -0.001143 -0.004251 0.041516 0.006356
# 6 0.002410 0.003823 -0.004381 -0.003806 0.006356 0.036270
#
#
# Mechanical properties :
#
#
# Convention : Reuss Voigt Hill
#
# Bulk Modulus (GPa) = 44.93362 52.15288 48.54325
# Shear Modulus (GPa) = 28.34117 32.28627 30.31372
#
# Velocity S-wave (km/s) = 3.51323 3.74978 3.63343
# Velocity P-wave (km/s) = 6.00216 6.43900 6.22441
#
# Compressibility (1/GPa) = 0.02225505
#
# Stress axis : x y z
#
# Youngs Moduli (GPa) = 71.72420 65.02792 84.47936
#
# Poissons Ratio (x) = 0.15962 0.15346
# Poissons Ratio (y) = 0.17606 0.43761
# Poissons Ratio (z) = 0.13029 0.33685
#
# Static dielectric constant tensor:
#      x y z
#    x 1.916760 0.007940 0.012440 
#    y 0.007940 1.889000 -0.012860 
#    z 0.012440 -0.012860 1.854720 
# 
# From -- ./inp_files/370617.got.cif
#   From: 2010.05.17/outbox.cif.g08.bks.cpg/sg2_186_cif.got.tgz:370617.got - 2010.06.03 11:33:40.
