data_PCOD9031328
_publ_section_title
;
Structure prediction by ZEFSAII (Michael W. Deem and Ramdas Pophale) SiO2 
 PCOD9031328
Probable space group: P -1
;
_chemical_formula_sum "Si O2"
_cell_formula_units_Z 16
_cell_length_a 23.455779
_cell_length_b 6.771825
_cell_length_c 22.244628
_cell_angle_alpha 78.719975
_cell_angle_beta 168.092126
_cell_angle_gamma 104.570282
_cell_volume 682.631113
_symmetry_space_group_name_H-M "P -1"
_symmetry_group_IT_number 2
_symmetry_cell_setting 'triclinic'
loop_
_space_group_symop_operation_xyz
x,y,z
-x,-y,-z
loop_
_atom_site_type_symbol
_atom_site_label
_atom_site_fract_x
_atom_site_fract_y
_atom_site_fract_z
Si Si1 0.841251 0.062020 0.636330
Si Si2 0.987573 0.410791 0.924835
Si Si3 0.899208 0.962979 0.258938
Si Si4 0.527480 0.275127 0.874028
Si Si5 0.767896 0.178767 0.920606
Si Si6 0.624543 0.689476 0.880796
Si Si7 0.744928 0.556091 0.199829
Si Si8 0.373194 0.126004 0.313397
O O1 0.155739 0.249767 0.952866
O O2 0.640899 0.208797 0.397663
O O3 0.001570 0.881529 0.793647
O O4 0.569800 0.909372 0.404067
O O5 0.658159 0.299145 0.572108
O O6 0.136643 0.586424 0.019394
O O7 0.000000 0.500000 0.000000
O O8 0.160378 0.240741 0.115066
O O9 0.838788 0.809631 0.148179
O O10 0.822052 0.799299 0.244292
O O11 0.220747 0.114361 0.583004
O O12 0.709269 0.121902 0.050943
O O13 0.523123 0.444748 0.807873
O O14 0.654434 0.411460 0.055901
O O15 0.795820 0.042073 0.899053
O O16 0.000000 0.500000 0.500000
O O17 0.500000 0.500000 0.000000
O O18 0.500000 0.000000 0.500000
#
# Coordination Sequence:
#
# PCOD9031328 Si02
#       8
#     2   2   2   2   2   2   2   2
#     4  10  22  43  66  87 126 167 192 268 324 372
#     4  12  25  41  66  94 124 166 208 249 304 372
#     4  11  23  40  65  94 122 164 219 260 304 376
#     4  11  23  40  65  94 122 164 219 260 304 376
#     4  11  24  43  64  92 132 157 208 254 314 374
#     4  10  22  44  64  89 122 160 212 260 324 364
#     4  11  24  40  60  92 136 172 204 258 310 366
#     4  12  25  41  66  94 124 166 208 249 304 372
#
# _framework density 23.438723
#
# number of rings (size 3 to 8) (size 9 to 14) (size 15 to 20)
#    0.000    1.000    1.250    5.250    1.750    7.000 
#    0.000   25.000    0.000    0.000    0.000    0.000 
#    0.000    0.000    0.000    0.000    0.000    0.000 
#
# Total GULP energy -89259.956378 kJ/mol
# GULP energy per Si atom -5578.747274 kJ/mol
# Density = 2.338538 g / cm^3
# Si number density = 23.438723 Si / 1000 Ang^3
#
#
#
# Elastic Constant Matrix: (Units=GPa)
#
#
# Indices 1 2 3 4 5 6 
#
# 1 55.6414 43.0077 20.3875 3.6736 8.6969 17.7625
# 2 43.0077 128.3766 44.2913 13.0253 8.7259 19.7866
# 3 20.3875 44.2913 165.1516 -5.1354 22.2258 1.2414
# 4 3.6736 13.0253 -5.1354 43.2253 0.5810 7.2665
# 5 8.6969 8.7259 22.2258 0.5810 38.0138 2.7806
# 6 17.7625 19.7866 1.2414 7.2665 2.7806 55.1642
#
#
#
# Elastic Compliance Matrix: (Units=1/GPa)
#
#
# Indices 1 2 3 4 5 6 
#
# 1 0.026392 -0.007587 -0.000680 0.000970 -0.003496 -0.005713
# 2 -0.007587 0.011594 -0.002331 -0.002914 0.000578 -0.001308
# 3 -0.000680 -0.002331 0.007298 0.001530 -0.003664 0.000874
# 4 0.000970 -0.002914 0.001530 0.024541 -0.000640 -0.002502
# 5 -0.003496 0.000578 -0.003664 -0.000640 0.029153 -0.000384
# 6 -0.005713 -0.001308 0.000874 -0.002502 -0.000384 0.020766
#
#
# Mechanical properties :
#
#
# Convention : Reuss Voigt Hill
#
# Bulk Modulus (GPa) = 41.51524 62.72695 52.12109
# Shear Modulus (GPa) = 33.56387 43.37953 38.47170
#
# Velocity S-wave (km/s) = 3.78826 4.30672 4.05578
# Velocity P-wave (km/s) = 6.07332 7.17988 6.64966
#
# Compressibility (1/GPa) = 0.02408754
#
# Stress axis : x y z
#
# Youngs Moduli (GPa) = 37.89027 86.25356 137.02065
#
# Poissons Ratio (x) = 0.65444 0.09312
# Poissons Ratio (y) = 0.28749 0.31941
# Poissons Ratio (z) = 0.02575 0.20107
#
# Static dielectric constant tensor:
#      x y z
#    x 1.840650 -0.033400 -0.127860 
#    y -0.033400 1.861740 -0.024210 
#    z -0.127860 -0.024210 1.843840 
# 
# From -- ./inp_files/621060.got.cif
#   From: 2010.05.17/outbox.cif.g08.bks.cpg/sg2_311_cif.got.tgz:621060.got - 2010.06.03 11:33:40.
