data_PCOD9031967
_publ_section_title
;
Structure prediction by ZEFSAII (Michael W. Deem and Ramdas Pophale) SiO2 
 PCOD9031967
Probable space group: P -1
;
_chemical_formula_sum "Si O2"
_cell_formula_units_Z 13
_cell_length_a 9.311672
_cell_length_b 11.668767
_cell_length_c 9.705993
_cell_angle_alpha 133.386291
_cell_angle_beta 113.587312
_cell_angle_gamma 90.372461
_cell_volume 636.636976
_symmetry_space_group_name_H-M "P -1"
_symmetry_group_IT_number 2
_symmetry_cell_setting 'triclinic'
loop_
_space_group_symop_operation_xyz
x,y,z
-x,-y,-z
loop_
_atom_site_type_symbol
_atom_site_label
_atom_site_fract_x
_atom_site_fract_y
_atom_site_fract_z
Si Si1 0.428874 0.096972 0.164826
Si Si2 0.500000 0.500000 0.500000
Si Si3 0.681357 0.488986 0.036676
Si Si4 0.027250 0.829722 0.402496
Si Si5 0.626374 0.150073 0.571282
Si Si6 0.240889 0.503196 0.613792
Si Si7 0.116484 0.787134 0.715464
O O1 0.445713 0.286838 0.290468
O O2 0.533522 0.114551 0.359109
O O3 0.500000 0.000000 0.000000
O O4 0.229993 0.958872 0.984753
O O5 0.396929 0.473768 0.584800
O O6 0.735775 0.451240 0.178357
O O7 0.841892 0.662019 0.185900
O O8 0.500000 0.500000 0.000000
O O9 0.649012 0.332933 0.792476
O O10 0.179895 0.833677 0.364659
O O11 0.093013 0.831776 0.586019
O O12 0.000000 0.000000 0.500000
O O13 0.500000 0.000000 0.500000
O O14 0.205329 0.651684 0.643493
O O15 0.071121 0.324033 0.385901
#
# Coordination Sequence:
#
# PCOD9031967 Si02
#       7
#     2   1   2   2   2   2   2
#     4  12  24  45  71 100 142 175 230 288 340 409
#     4  12  24  38  72 102 128 184 232 268 356 402
#     4  11  24  43  68  99 141 174 232 286 339 414
#     4  11  24  43  67  98 137 184 226 283 345 410
#     4  12  25  43  71 102 137 186 227 279 359 407
#     4  10  22  43  69 101 133 179 232 285 341 411
#     4  10  22  44  69  93 141 178 221 293 340 395
#
# _framework density 20.419799999999999
#
# number of rings (size 3 to 8) (size 9 to 14) (size 15 to 20)
#    0.000    0.923    3.077    3.231    0.000    4.308 
#    0.000    9.231    0.000    0.000    0.000    0.000 
#    0.000    0.000    0.000    0.000    0.000    0.000 
#
# Total GULP energy -72368.307086 kJ/mol
# GULP energy per Si atom -5566.792853 kJ/mol
# Density = 2.037332 g / cm^3
# Si number density = 20.419800 Si / 1000 Ang^3
#
#
#
# Elastic Constant Matrix: (Units=GPa)
#
#
# Indices 1 2 3 4 5 6 
#
# 1 129.4155 62.2099 72.9534 13.4326 0.0797 15.0508
# 2 62.2099 129.8307 81.6737 27.9006 2.0020 1.3826
# 3 72.9534 81.6737 176.8643 22.1856 0.9771 5.4515
# 4 13.4326 27.9006 22.1856 31.2706 1.2016 3.4466
# 5 0.0797 2.0020 0.9771 1.2016 41.6164 4.0190
# 6 15.0508 1.3826 5.4515 3.4466 4.0190 28.6417
#
#
#
# Elastic Compliance Matrix: (Units=1/GPa)
#
#
# Indices 1 2 3 4 5 6 
#
# 1 0.011907 -0.004004 -0.003043 0.001220 0.000760 -0.005738
# 2 -0.004004 0.013716 -0.003751 -0.008188 -0.000640 0.003231
# 3 -0.003043 -0.003751 0.008839 -0.001650 -0.000002 0.000296
# 4 0.001220 -0.008188 -0.001650 0.040466 -0.000278 -0.004762
# 5 0.000760 -0.000640 -0.000002 -0.000278 0.024430 -0.003763
# 6 -0.005738 0.003231 0.000296 -0.004762 -0.003763 0.038818
#
#
# Mechanical properties :
#
#
# Convention : Reuss Voigt Hill
#
# Bulk Modulus (GPa) = 77.72326 96.64273 87.18299
# Shear Modulus (GPa) = 30.47635 34.92396 32.70016
#
# Velocity S-wave (km/s) = 3.86747 4.14006 4.00608
# Velocity P-wave (km/s) = 7.62157 8.38357 8.01163
#
# Compressibility (1/GPa) = 0.01286616
#
# Stress axis : x y z
#
# Youngs Moduli (GPa) = 83.98133 72.90904 113.13206
#
# Poissons Ratio (x) = 0.29194 0.34425
# Poissons Ratio (y) = 0.33627 0.42437
# Poissons Ratio (z) = 0.25555 0.27349
#
# Static dielectric constant tensor:
#      x y z
#    x 1.794920 0.004690 0.046710 
#    y 0.004690 1.717700 -0.004050 
#    z 0.046710 -0.004050 1.695710 
# 
# From -- ./inp_files/157057.got.cif
#   From: 2010.05.17/outbox.cif.g08.bks.cpg/sg2_79_cif.got.tgz:157057.got - 2010.06.03 11:33:40.
