data_PCOD9031053
_publ_section_title
;
Structure prediction by ZEFSAII (Michael W. Deem and Ramdas Pophale) SiO2 
 PCOD9031053
Probable space group: P -1
;
_chemical_formula_sum "Si O2"
_cell_formula_units_Z 15
_cell_length_a 8.709028
_cell_length_b 16.152945
_cell_length_c 16.516416
_cell_angle_alpha 25.467597
_cell_angle_beta 40.450317
_cell_angle_gamma 54.257764
_cell_volume 602.510670
_symmetry_space_group_name_H-M "P -1"
_symmetry_group_IT_number 2
_symmetry_cell_setting 'triclinic'
loop_
_space_group_symop_operation_xyz
x,y,z
-x,-y,-z
loop_
_atom_site_type_symbol
_atom_site_label
_atom_site_fract_x
_atom_site_fract_y
_atom_site_fract_z
Si Si1 0.795260 0.107374 0.261273
Si Si2 0.537173 0.139224 0.707001
Si Si3 0.257894 0.944056 0.842792
Si Si4 0.887422 0.581878 0.772505
Si Si5 0.500000 0.500000 0.500000
Si Si6 0.586690 0.325325 0.784726
Si Si7 0.126316 0.490525 0.343278
Si Si8 0.787974 0.921730 0.587555
O O1 0.851612 0.018073 0.232403
O O2 0.500000 0.000000 0.500000
O O3 0.913598 0.056644 0.338770
O O4 0.846948 0.347539 0.016168
O O5 0.824113 0.276196 0.445491
O O6 0.477047 0.267949 0.688819
O O7 0.328159 0.092994 0.759688
O O8 0.533884 0.916701 0.933496
O O9 0.533076 0.942680 0.705369
O O10 0.094342 0.710735 0.142116
O O11 0.851747 0.594162 0.679282
O O12 0.719758 0.683984 0.798499
O O13 0.465578 0.426634 0.676498
O O14 0.643862 0.449884 0.737633
O O15 0.866742 0.355213 0.610376
O O16 0.000000 0.000000 0.500000
#
# Coordination Sequence:
#
# PCOD9031053 Si02
#       8
#     2   2   2   2   1   2   2   2
#     4   9  22  41  62  92 130 160 207 259 300 370
#     4  11  23  42  64  93 130 160 207 269 309 364
#     4   9  20  43  63  92 131 160 207 260 305 373
#     4  11  22  40  67  93 126 165 210 255 311 374
#     4  12  24  38  66  94 120 166 214 254 316 368
#     4  10  22  43  64  90 130 164 206 265 309 369
#     4   9  20  41  64  88 128 165 201 260 312 361
#     4  11  22  40  66  96 126 167 204 252 319 371
#
# _framework density 24.895824999999999
#
# number of rings (size 3 to 8) (size 9 to 14) (size 15 to 20)
#    0.000    1.867    2.667    0.400    0.000    7.467 
#    0.000    6.000    0.000    0.000    0.000    0.000 
#    0.000    0.000    0.000    0.000    0.000    0.000 
#
# Total GULP energy -83681.170409 kJ/mol
# GULP energy per Si atom -5578.744694 kJ/mol
# Density = 2.483916 g / cm^3
# Si number density = 24.895825 Si / 1000 Ang^3
#
#
#
# Elastic Constant Matrix: (Units=GPa)
#
#
# Indices 1 2 3 4 5 6 
#
# 1 110.8483 27.9352 39.5246 -6.6676 31.8842 31.3813
# 2 27.9352 72.8794 -0.3674 -11.3821 -16.4506 17.5946
# 3 39.5246 -0.3674 149.3178 1.1743 6.0275 -0.7682
# 4 -6.6676 -11.3821 1.1743 33.7810 6.5880 -4.3515
# 5 31.8842 -16.4506 6.0275 6.5880 37.7563 3.6652
# 6 31.3813 17.5946 -0.7682 -4.3515 3.6652 39.9761
#
#
#
# Elastic Compliance Matrix: (Units=1/GPa)
#
#
# Indices 1 2 3 4 5 6 
#
# 1 0.024453 -0.011422 -0.005611 0.004440 -0.024383 -0.011558
# 2 -0.011422 0.023451 0.002266 0.001376 0.019548 -0.002955
# 3 -0.005611 0.002266 0.008037 -0.001076 0.004334 0.003047
# 4 0.004440 0.001376 -0.001076 0.032710 -0.008710 0.000248
# 5 -0.024383 0.019548 0.004334 -0.008710 0.055981 0.004540
# 6 -0.011558 -0.002955 0.003047 0.000248 0.004540 0.035057
#
#
# Mechanical properties :
#
#
# Convention : Reuss Voigt Hill
#
# Bulk Modulus (GPa) = 37.86703 51.91446 44.89075
# Shear Modulus (GPa) = 22.93307 40.03288 31.48298
#
# Velocity S-wave (km/s) = 3.03836 4.01436 3.55996
# Velocity P-wave (km/s) = 5.24900 6.51035 5.91341
#
# Compressibility (1/GPa) = 0.02640820
#
# Stress axis : x y z
#
# Youngs Moduli (GPa) = 40.89486 42.64151 124.42310
#
# Poissons Ratio (x) = 0.48703 0.69813
# Poissons Ratio (y) = 0.46708 -0.28193
# Poissons Ratio (z) = 0.22946 -0.09662
#
# Static dielectric constant tensor:
#      x y z
#    x 2.128130 -0.026810 -0.005750 
#    y -0.026810 1.989620 0.006170 
#    z -0.005750 0.006170 1.946150 
# 
# From -- ./inp_files/55555.got.cif
#   From: 2010.05.17/outbox.cif.g08.bks.cpg/sg2_28_cif.got.tgz:55555.got - 2010.06.03 11:33:40.
