data_PCOD9031231
_publ_section_title
;
Structure prediction by ZEFSAII (Michael W. Deem and Ramdas Pophale) SiO2 
 PCOD9031231
Probable space group: P -1
;
_chemical_formula_sum "Si O2"
_cell_formula_units_Z 16
_cell_length_a 20.675772
_cell_length_b 17.317484
_cell_length_c 7.722839
_cell_angle_alpha 57.412481
_cell_angle_beta 112.204719
_cell_angle_gamma 160.351114
_cell_volume 697.070218
_symmetry_space_group_name_H-M "P -1"
_symmetry_group_IT_number 2
_symmetry_cell_setting 'triclinic'
loop_
_space_group_symop_operation_xyz
x,y,z
-x,-y,-z
loop_
_atom_site_type_symbol
_atom_site_label
_atom_site_fract_x
_atom_site_fract_y
_atom_site_fract_z
Si Si1 0.907947 0.100501 0.857702
Si Si2 0.928921 0.390938 0.254769
Si Si3 0.545068 0.517543 0.261525
Si Si4 0.274390 0.515983 0.961840
Si Si5 0.228857 0.608861 0.337322
Si Si6 0.328078 0.767400 0.852658
Si Si7 0.738905 0.678155 0.616425
Si Si8 0.400468 0.169825 0.312313
O O1 0.029458 0.237449 0.997590
O O2 0.085160 0.351385 0.590692
O O3 0.737230 0.971648 0.825872
O O4 0.756673 0.823963 0.013613
O O5 0.842271 0.380880 0.242852
O O6 0.120565 0.572910 0.317628
O O7 0.737114 0.078812 0.434583
O O8 0.000000 0.500000 0.000000
O O9 0.640316 0.587236 0.444567
O O10 0.377317 0.391718 0.289390
O O11 0.429583 0.295679 0.303956
O O12 0.390851 0.756337 0.822385
O O13 0.371454 0.585007 0.811646
O O14 0.309999 0.487887 0.183960
O O15 0.472064 0.919703 0.273997
O O16 0.234607 0.613272 0.128084
O O17 0.000000 0.000000 0.500000
#
# Coordination Sequence:
#
# PCOD9031231 Si02
#       8
#     2   2   2   2   2   2   2   2
#     4  11  23  43  65 100 134 176 224 274 333 398
#     4   9  20  40  64  95 123 169 220 270 328 388
#     4  11  25  47  71  93 137 178 224 280 327 406
#     4  12  26  41  67 101 137 177 219 279 339 396
#     4   9  21  41  68  94 129 177 227 270 331 395
#     4  10  22  43  65  95 135 173 224 278 326 398
#     4  11  25  46  68  99 131 174 223 275 339 397
#     4  11  25  44  68  99 135 177 228 273 333 398
#
# _framework density 22.953209999999999
#
# number of rings (size 3 to 8) (size 9 to 14) (size 15 to 20)
#    0.000    1.500    2.500    1.125    0.000   11.500 
#    0.000    2.500    0.000    0.000    0.000    0.000 
#    0.000    0.000    0.000    0.000    0.000    0.000 
#
# Total GULP energy -89290.183026 kJ/mol
# GULP energy per Si atom -5580.636439 kJ/mol
# Density = 2.290097 g / cm^3
# Si number density = 22.953210 Si / 1000 Ang^3
#
#
#
# Elastic Constant Matrix: (Units=GPa)
#
#
# Indices 1 2 3 4 5 6 
#
# 1 96.0170 33.8614 35.4209 13.0075 24.7361 10.7437
# 2 33.8614 82.1862 24.7736 17.1889 9.7077 25.4610
# 3 35.4209 24.7736 129.9220 0.9029 23.7614 8.8140
# 4 13.0075 17.1889 0.9029 33.9577 4.9767 7.4416
# 5 24.7361 9.7077 23.7614 4.9767 28.3571 3.3866
# 6 10.7437 25.4610 8.8140 7.4416 3.3866 30.1251
#
#
#
# Elastic Compliance Matrix: (Units=1/GPa)
#
#
# Indices 1 2 3 4 5 6 
#
# 1 0.015426 -0.004303 -0.001492 -0.002234 -0.010376 0.000290
# 2 -0.004303 0.019625 -0.001835 -0.005490 0.001123 -0.013285
# 3 -0.001492 -0.001835 0.009668 0.002326 -0.006510 -0.000589
# 4 -0.002234 -0.005490 0.002326 0.034292 -0.003746 -0.003294
# 5 -0.010376 0.001123 -0.006510 -0.003746 0.050048 -0.000045
# 6 0.000290 -0.013285 -0.000589 -0.003294 -0.000045 0.045311
#
#
# Mechanical properties :
#
#
# Convention : Reuss Voigt Hill
#
# Bulk Modulus (GPa) = 33.94521 55.13746 44.54133
# Shear Modulus (GPa) = 25.06925 32.75927 28.91426
#
# Velocity S-wave (km/s) = 3.30841 3.78195 3.55308
# Velocity P-wave (km/s) = 5.42357 6.56846 6.02328
#
# Compressibility (1/GPa) = 0.02945924
#
# Stress axis : x y z
#
# Youngs Moduli (GPa) = 64.82667 50.95643 103.43649
#
# Poissons Ratio (x) = 0.21926 0.15429
# Poissons Ratio (y) = 0.27895 0.18979
# Poissons Ratio (z) = 0.09670 0.09350
#
# Static dielectric constant tensor:
#      x y z
#    x 1.840200 0.036910 -0.036560 
#    y 0.036910 1.845150 0.007450 
#    z -0.036560 0.007450 1.901230 
# 
# From -- ./inp_files/348348.got.cif
#   From: 2010.05.17/outbox.cif.g08.bks.cpg/sg2_175_cif.got.tgz:348348.got - 2010.06.03 11:33:40.
