data_PCOD9031320
_publ_section_title
;
Structure prediction by ZEFSAII (Michael W. Deem and Ramdas Pophale) SiO2 
 PCOD9031320
Probable space group: P -1
;
_chemical_formula_sum "Si O2"
_cell_formula_units_Z 16
_cell_length_a 8.806309
_cell_length_b 13.638257
_cell_length_c 11.471336
_cell_angle_alpha 132.406840
_cell_angle_beta 42.332328
_cell_angle_gamma 129.708048
_cell_volume 657.223339
_symmetry_space_group_name_H-M "P -1"
_symmetry_group_IT_number 2
_symmetry_cell_setting 'triclinic'
loop_
_space_group_symop_operation_xyz
x,y,z
-x,-y,-z
loop_
_atom_site_type_symbol
_atom_site_label
_atom_site_fract_x
_atom_site_fract_y
_atom_site_fract_z
Si Si1 0.515229 0.383269 0.511892
Si Si2 0.156379 0.903815 0.234452
Si Si3 0.515711 0.168141 0.174411
Si Si4 0.137017 0.158221 0.182714
Si Si5 0.688510 0.906106 0.196800
Si Si6 0.618196 0.880412 0.473683
Si Si7 0.012318 0.606438 0.190093
Si Si8 0.971986 0.584203 0.465379
O O1 0.592699 0.321209 0.302011
O O2 0.517273 0.261127 0.501108
O O3 0.252911 0.385696 0.648267
O O4 0.691627 0.524898 0.559928
O O5 0.897159 0.923518 0.385115
O O6 0.148657 0.767543 0.207218
O O7 0.356955 0.050847 0.257313
O O8 0.251380 0.865699 0.026138
O O9 0.337447 0.160077 0.163425
O O10 0.989659 0.258943 0.392326
O O11 0.270884 0.188687 0.007622
O O12 0.943923 0.012481 0.161525
O O13 0.610025 0.835617 0.306956
O O14 0.510324 0.998668 0.346702
O O15 0.071875 0.574205 0.267026
O O16 0.000000 0.500000 0.000000
O O17 0.000000 0.500000 0.500000
#
# Coordination Sequence:
#
# PCOD9031320 Si02
#       8
#     2   2   2   2   2   2   2   2
#     4  11  25  45  71  97 145 189 245 294 360 431
#     4  10  24  41  71 106 139 181 245 294 360 423
#     4  11  23  44  71 108 139 185 243 299 360 435
#     4  11  24  44  71 102 141 197 236 293 362 448
#     4  10  23  44  68 101 153 182 233 297 381 423
#     4  10  22  43  66 104 141 187 229 302 357 432
#     4  11  25  47  74 105 146 191 243 305 356 429
#     4  12  27  49  73 104 144 198 246 295 364 441
#
# _framework density 24.344843999999998
#
# number of rings (size 3 to 8) (size 9 to 14) (size 15 to 20)
#    0.000    1.250    2.500    1.875    5.250    6.000 
#    4.500    1.250    0.000    0.000    0.000    0.000 
#    0.000    0.000    0.000    0.000    0.000    0.000 
#
# Total GULP energy -89291.568263 kJ/mol
# GULP energy per Si atom -5580.723016 kJ/mol
# Density = 2.428943 g / cm^3
# Si number density = 24.344844 Si / 1000 Ang^3
#
#
#
# Elastic Constant Matrix: (Units=GPa)
#
#
# Indices 1 2 3 4 5 6 
#
# 1 112.9589 25.4167 26.3575 -5.6874 23.3416 -18.8275
# 2 25.4167 85.7409 -6.1475 -9.2797 17.6971 -13.2958
# 3 26.3575 -6.1475 120.4594 -3.3032 14.6016 -6.0312
# 4 -5.6874 -9.2797 -3.3032 34.1081 7.5936 -2.8972
# 5 23.3416 17.6971 14.6016 7.5936 42.4706 -8.9997
# 6 -18.8275 -13.2958 -6.0312 -2.8972 -8.9997 28.0924
#
#
#
# Elastic Compliance Matrix: (Units=1/GPa)
#
#
# Indices 1 2 3 4 5 6 
#
# 1 0.011578 -0.001456 -0.001706 0.002843 -0.004501 0.005555
# 2 -0.001456 0.014971 0.002251 0.005862 -0.006152 0.005226
# 3 -0.001706 0.002251 0.009305 0.002064 -0.003343 0.001061
# 4 0.002843 0.005862 0.002064 0.034208 -0.009653 0.005558
# 5 -0.004501 -0.006152 -0.003343 -0.009653 0.032012 0.002614
# 6 0.005555 0.005226 0.001061 0.005558 0.002614 0.043432
#
#
# Mechanical properties :
#
#
# Convention : Reuss Voigt Hill
#
# Bulk Modulus (GPa) = 29.38536 45.60139 37.49338
# Shear Modulus (GPa) = 31.51157 39.16973 35.34065
#
# Velocity S-wave (km/s) = 3.60166 4.01553 3.81421
# Velocity P-wave (km/s) = 5.42149 6.34597 5.90186
#
# Compressibility (1/GPa) = 0.03403055
#
# Stress axis : x y z
#
# Youngs Moduli (GPa) = 86.37378 66.79651 107.47267
#
# Poissons Ratio (x) = 0.09727 0.18334
# Poissons Ratio (y) = 0.12578 -0.24190
# Poissons Ratio (z) = 0.14735 -0.15035
#
# Static dielectric constant tensor:
#      x y z
#    x 2.023130 -0.053840 0.116470 
#    y -0.053840 1.958150 -0.014180 
#    z 0.116470 -0.014180 1.999280 
# 
# From -- ./inp_files/399536.got.cif
#   From: 2010.05.17/outbox.cif.g08.bks.cpg/sg2_200_cif.got.tgz:399536.got - 2010.06.03 11:33:40.
