data_PCOD9031829
_publ_section_title
;
Structure prediction by ZEFSAII (Michael W. Deem and Ramdas Pophale) SiO2 
 PCOD9031829
Probable space group: P -1
;
_chemical_formula_sum "Si O2"
_cell_formula_units_Z 16
_cell_length_a 16.135281
_cell_length_b 8.898602
_cell_length_c 11.350053
_cell_angle_alpha 82.756691
_cell_angle_beta 29.651763
_cell_angle_gamma 66.536160
_cell_volume 646.904850
_symmetry_space_group_name_H-M "P -1"
_symmetry_group_IT_number 2
_symmetry_cell_setting 'triclinic'
loop_
_space_group_symop_operation_xyz
x,y,z
-x,-y,-z
loop_
_atom_site_type_symbol
_atom_site_label
_atom_site_fract_x
_atom_site_fract_y
_atom_site_fract_z
Si Si1 0.942744 0.608711 0.852617
Si Si2 0.354518 0.693272 0.735843
Si Si3 0.487754 0.747719 0.982736
Si Si4 0.009142 0.717566 0.317368
Si Si5 0.735464 0.649337 0.338453
Si Si6 0.458654 0.964847 0.206731
Si Si7 0.145720 0.686100 0.422183
Si Si8 0.366521 0.981588 0.567468
O O1 0.119007 0.529008 0.743741
O O2 0.964688 0.751076 0.735595
O O3 0.982224 0.459695 0.721218
O O4 0.772803 0.633801 0.152694
O O5 0.500000 0.500000 0.500000
O O6 0.510090 0.701151 0.628702
O O7 0.272105 0.876097 0.738951
O O8 0.178718 0.710887 0.027899
O O9 0.269315 0.778792 0.264230
O O10 0.560357 0.795512 0.007040
O O11 0.468798 0.900445 0.904200
O O12 0.667410 0.531596 0.755425
O O13 0.063803 0.703984 0.389053
O O14 0.781721 0.902080 0.549700
O O15 0.778501 0.799496 0.310962
O O16 0.490128 0.886322 0.305351
O O17 0.500000 0.000000 0.500000
#
# Coordination Sequence:
#
# PCOD9031829 Si02
#       8
#     2   2   2   2   2   2   2   2
#     4  11  22  42  68  99 137 175 225 278 339 389
#     4  11  25  41  64 100 131 174 224 277 337 403
#     4  10  25  44  70  96 132 182 226 270 332 405
#     4  12  25  41  67 101 143 168 226 284 333 392
#     4  10  22  43  68  95 132 181 221 277 333 406
#     4  11  24  47  66  98 140 175 218 282 341 393
#     4  11  25  42  71 102 129 182 226 277 328 405
#     4  10  23  41  67  95 127 178 222 271 334 401
#
# _framework density 24.733159000000001
#
# number of rings (size 3 to 8) (size 9 to 14) (size 15 to 20)
#    0.000    1.250    3.750    0.375    8.750    2.000 
#    4.500    0.000    0.000    0.000    0.000    0.000 
#    0.000    0.000    0.000    0.000    0.000    0.000 
#
# Total GULP energy -89355.402679 kJ/mol
# GULP energy per Si atom -5584.712667 kJ/mol
# Density = 2.467687 g / cm^3
# Si number density = 24.733159 Si / 1000 Ang^3
#
#
#
# Elastic Constant Matrix: (Units=GPa)
#
#
# Indices 1 2 3 4 5 6 
#
# 1 110.3876 30.3248 29.4491 -23.6926 24.4418 -9.4870
# 2 30.3248 71.0606 37.9963 -28.8032 -4.8192 8.7356
# 3 29.4491 37.9963 121.7327 -50.3046 0.3028 1.3696
# 4 -23.6926 -28.8032 -50.3046 53.9888 4.2982 6.8120
# 5 24.4418 -4.8192 0.3028 4.2982 44.2705 -8.7359
# 6 -9.4870 8.7356 1.3696 6.8120 -8.7359 32.9765
#
#
#
# Elastic Compliance Matrix: (Units=1/GPa)
#
#
# Indices 1 2 3 4 5 6 
#
# 1 0.013054 -0.004960 -0.000365 0.003034 -0.007554 0.002457
# 2 -0.004960 0.021881 -0.002090 0.008361 0.002716 -0.008144
# 3 -0.000365 -0.002090 0.014153 0.012478 -0.001974 -0.003240
# 4 0.003034 0.008361 0.012478 0.037933 -0.006802 -0.011498
# 5 -0.007554 0.002716 -0.001974 -0.006802 0.028965 0.006268
# 6 0.002457 -0.008144 -0.003240 -0.011498 0.006268 0.037359
#
#
# Mechanical properties :
#
#
# Convention : Reuss Voigt Hill
#
# Bulk Modulus (GPa) = 29.19010 55.41350 42.30180
# Shear Modulus (GPa) = 27.84044 39.94122 33.89083
#
# Velocity S-wave (km/s) = 3.35868 4.02292 3.70572
# Velocity P-wave (km/s) = 5.18350 6.63564 5.95401
#
# Compressibility (1/GPa) = 0.03425819
#
# Stress axis : x y z
#
# Youngs Moduli (GPa) = 76.60539 45.70163 70.65611
#
# Poissons Ratio (x) = 0.22669 0.02578
# Poissons Ratio (y) = 0.37998 0.14766
# Poissons Ratio (z) = 0.02795 0.09551
#
# Static dielectric constant tensor:
#      x y z
#    x 1.948100 -0.044590 0.001110 
#    y -0.044590 2.067640 0.096590 
#    z 0.001110 0.096590 2.064500 
# 
# From -- ./inp_files/462084.got.cif
#   From: 2010.05.17/outbox.cif.g08.bks.cpg/sg2_232_cif.got.tgz:462084.got - 2010.06.03 11:33:40.
