data_PCOD9031290
_publ_section_title
;
Structure prediction by ZEFSAII (Michael W. Deem and Ramdas Pophale) SiO2 
 PCOD9031290
Probable space group: P -1
;
_chemical_formula_sum "Si O2"
_cell_formula_units_Z 16
_cell_length_a 25.665058
_cell_length_b 7.023338
_cell_length_c 5.285801
_cell_angle_alpha 71.391214
_cell_angle_beta 127.599773
_cell_angle_gamma 91.994299
_cell_volume 699.011306
_symmetry_space_group_name_H-M "P -1"
_symmetry_group_IT_number 2
_symmetry_cell_setting 'triclinic'
loop_
_space_group_symop_operation_xyz
x,y,z
-x,-y,-z
loop_
_atom_site_type_symbol
_atom_site_label
_atom_site_fract_x
_atom_site_fract_y
_atom_site_fract_z
Si Si1 0.542953 0.517945 0.369592
Si Si2 0.838958 0.323625 0.858074
Si Si3 0.628369 0.849785 0.410845
Si Si4 0.646096 0.095664 0.845721
Si Si5 0.776480 0.683632 0.900056
Si Si6 0.125216 0.121541 0.615955
Si Si7 0.791547 0.061377 0.458095
Si Si8 0.990902 0.373449 0.274936
O O1 0.500000 0.500000 0.500000
O O2 0.569970 0.726182 0.328619
O O3 0.606111 0.327079 0.661012
O O4 0.500000 0.500000 0.000000
O O5 0.801059 0.511261 0.835578
O O6 0.804048 0.275072 0.514189
O O7 0.916176 0.337165 0.056974
O O8 0.842428 0.109165 0.103675
O O9 0.700061 0.691051 0.745104
O O10 0.623869 0.015737 0.548513
O O11 0.630045 0.954114 0.093770
O O12 0.726162 0.089314 0.075426
O O13 0.770675 0.909567 0.665954
O O14 0.833973 0.700879 0.269114
O O15 0.052384 0.179404 0.501031
O O16 0.137698 0.078898 0.373702
O O17 0.000000 0.500000 0.500000
O O18 0.000000 0.500000 0.000000
#
# Coordination Sequence:
#
# PCOD9031290 Si02
#       8
#     2   2   2   2   2   2   2   2
#     4  12  28  47  73 110 147 188 241 288 349 439
#     4  11  25  41  69 101 136 189 230 298 356 413
#     4  11  25  45  75 105 142 197 233 294 363 420
#     4  11  25  47  73 105 149 185 242 297 356 424
#     4  10  22  43  66 100 138 177 238 288 354 417
#     4  11  23  43  69  97 138 176 239 289 353 418
#     4  10  24  41  68 102 136 181 234 301 348 420
#     4  12  27  46  69  95 140 190 235 289 354 426
#
# _framework density 22.889472000000001
#
# number of rings (size 3 to 8) (size 9 to 14) (size 15 to 20)
#    0.000    1.000    2.500    2.625    5.250    7.500 
#    0.000    0.000    0.000    0.000    0.000    0.000 
#    0.000    0.000    0.000    0.000    0.000    0.000 
#
# Total GULP energy -89370.321041 kJ/mol
# GULP energy per Si atom -5585.645065 kJ/mol
# Density = 2.283737 g / cm^3
# Si number density = 22.889472 Si / 1000 Ang^3
#
#
#
# Elastic Constant Matrix: (Units=GPa)
#
#
# Indices 1 2 3 4 5 6 
#
# 1 113.2199 32.3510 16.8115 12.4829 -7.9333 5.4715
# 2 32.3510 118.8794 13.6673 22.6201 5.8377 2.5043
# 3 16.8115 13.6673 53.1961 12.8483 -4.2197 7.4919
# 4 12.4829 22.6201 12.8483 42.0667 -4.0364 5.8793
# 5 -7.9333 5.8377 -4.2197 -4.0364 27.1400 3.8365
# 6 5.4715 2.5043 7.4919 5.8793 3.8365 41.9529
#
#
#
# Elastic Compliance Matrix: (Units=1/GPa)
#
#
# Indices 1 2 3 4 5 6 
#
# 1 0.010212 -0.002579 -0.002021 -0.000566 0.003288 -0.001038
# 2 -0.002579 0.010369 -0.001100 -0.004999 -0.004038 0.000984
# 3 -0.002021 -0.001100 0.021504 -0.004680 0.002732 -0.003105
# 4 -0.000566 -0.004999 -0.004680 0.028996 0.004962 -0.003309
# 5 0.003288 -0.004038 0.002732 0.004962 0.040557 -0.005080
# 6 -0.001038 0.000984 -0.003105 -0.003309 -0.005080 0.025396
#
#
# Mechanical properties :
#
#
# Convention : Reuss Voigt Hill
#
# Bulk Modulus (GPa) = 32.58921 45.66168 39.12544
# Shear Modulus (GPa) = 31.51339 37.06295 34.28817
#
# Velocity S-wave (km/s) = 3.71450 4.02831 3.87458
# Velocity P-wave (km/s) = 5.71535 6.45201 6.09482
#
# Compressibility (1/GPa) = 0.03068500
#
# Stress axis : x y z
#
# Youngs Moduli (GPa) = 97.92153 96.44183 46.50233
#
# Poissons Ratio (x) = 0.24869 0.09399
# Poissons Ratio (y) = 0.25251 0.05117
# Poissons Ratio (z) = 0.19791 0.10613
#
# Static dielectric constant tensor:
#      x y z
#    x 2.235270 -0.211660 -0.096770 
#    y -0.211660 1.921340 0.024470 
#    z -0.096770 0.024470 2.058100 
# 
# From -- ./inp_files/10806.got.cif
#   From: 2010.05.17/outbox.cif.g08.bks.cpg/sg2_6_cif.got.tgz:10806.got - 2010.06.03 11:33:40.
