data_PCOD9031336
_publ_section_title
;
Structure prediction by ZEFSAII (Michael W. Deem and Ramdas Pophale) SiO2 
 PCOD9031336
Probable space group: P -1
;
_chemical_formula_sum "Si O2"
_cell_formula_units_Z 16
_cell_length_a 8.617026
_cell_length_b 16.897553
_cell_length_c 14.151096
_cell_angle_alpha 24.279116
_cell_angle_beta 117.540727
_cell_angle_gamma 129.979592
_cell_volume 597.434411
_symmetry_space_group_name_H-M "P -1"
_symmetry_group_IT_number 2
_symmetry_cell_setting 'triclinic'
loop_
_space_group_symop_operation_xyz
x,y,z
-x,-y,-z
loop_
_atom_site_type_symbol
_atom_site_label
_atom_site_fract_x
_atom_site_fract_y
_atom_site_fract_z
Si Si1 0.194377 0.483643 0.558738
Si Si2 0.576024 0.279764 0.157452
Si Si3 0.254496 0.324329 0.942210
Si Si4 0.142341 0.855197 0.609676
Si Si5 0.476494 0.005308 0.229589
Si Si6 0.418231 0.647884 0.274234
Si Si7 0.895314 0.055243 0.280631
Si Si8 0.971463 0.211594 0.620179
O O1 0.362286 0.708306 0.292661
O O2 0.000000 0.500000 0.500000
O O3 0.079760 0.250223 0.711427
O O4 0.280636 0.453297 0.711696
O O5 0.492457 0.437784 0.933648
O O6 0.807487 0.336509 0.192222
O O7 0.558097 0.160827 0.179813
O O8 0.379238 0.096086 0.375712
O O9 0.082268 0.275506 0.027021
O O10 0.133037 0.045913 0.174871
O O11 0.095862 0.872341 0.686866
O O12 0.954703 0.866537 0.498659
O O13 0.653306 0.970999 0.278889
O O14 0.232631 0.778850 0.436999
O O15 0.444364 0.142350 0.989580
O O16 0.500000 0.500000 0.500000
O O17 0.183060 0.450445 0.371632
#
# Coordination Sequence:
#
# PCOD9031336 Si02
#       8
#     2   2   2   2   2   2   2   2
#     4  10  21  36  51  76 115 144 174 225 261 303
#     4   8  15  26  52  77 107 135 173 221 262 319
#     4  10  17  32  53  77 108 144 183 216 259 317
#     4   8  14  28  45  83 109 128 171 223 272 313
#     4  10  18  34  53  81 107 142 182 216 260 317
#     4  10  21  34  54  76 106 144 187 219 251 313
#     4   9  17  27  51  80 108 131 178 224 260 325
#     4   9  22  36  53  74 109 152 173 222 263 302
#
# _framework density 26.781184
#
# number of rings (size 3 to 8) (size 9 to 14) (size 15 to 20)
#    0.750    2.000    0.000    2.625    1.750    0.000 
#    2.250    1.250    0.000    0.000    0.000  110.250 
#    0.000    0.000    0.000    0.000    0.000    0.000 
#
# Total GULP energy -89082.544895 kJ/mol
# GULP energy per Si atom -5567.659056 kJ/mol
# Density = 2.672023 g / cm^3
# Si number density = 26.781184 Si / 1000 Ang^3
#
#
#
# Elastic Constant Matrix: (Units=GPa)
#
#
# Indices 1 2 3 4 5 6 
#
# 1 166.7161 46.8761 40.8918 6.5172 -19.8173 24.7575
# 2 46.8761 26.9324 60.6267 15.7671 6.7694 6.6724
# 3 40.8918 60.6267 78.5024 21.9630 -28.6970 -10.1745
# 4 6.5172 15.7671 21.9630 44.3814 -2.4980 -7.6946
# 5 -19.8173 6.7694 -28.6970 -2.4980 37.9947 10.5660
# 6 24.7575 6.6724 -10.1745 -7.6946 10.5660 59.3335
#
#
#
# Elastic Compliance Matrix: (Units=1/GPa)
#
#
# Indices 1 2 3 4 5 6 
#
# 1 0.007562 0.002350 -0.006518 0.000501 -0.000127 -0.004450
# 2 0.002350 -0.018378 0.021311 -0.003097 0.020186 0.000744
# 3 -0.006518 0.021311 -0.001916 -0.006038 -0.009281 0.000864
# 4 0.000501 -0.003097 -0.006038 0.026925 -0.002840 0.003101
# 5 -0.000127 0.020186 -0.009281 -0.002840 0.017488 -0.007291
# 6 -0.004450 0.000744 0.000864 0.003101 -0.007291 0.020476
#
#
# Mechanical properties :
#
#
# Convention : Reuss Voigt Hill
#
# Bulk Modulus (GPa) = 46.39245 63.21556 54.80401
# Shear Modulus (GPa) = 199.57623 36.59235 118.08429
#
# Velocity S-wave (km/s) = 8.64192 3.70042 6.64740
# Velocity P-wave (km/s) = 10.81376 6.47404 8.91209
#
# Compressibility (1/GPa) = 0.02155523
#
# Stress axis : x y z
#
# Youngs Moduli (GPa) = 132.23854 -54.41181 -521.86716
#
# Poissons Ratio (x) = 0.12789 -3.40131
# Poissons Ratio (y) = -0.31081 11.12153
# Poissons Ratio (z) = 0.86187 1.15957
#
# Static dielectric constant tensor:
#      x y z
#    x 2.231290 0.042770 0.065150 
#    y 0.042770 2.141280 -0.005270 
#    z 0.065150 -0.005270 2.132860 
# 
# From -- ./inp_files/563111.got.cif
#   From: 2010.05.17/outbox.cif.g08.bks.cpg/sg2_282_cif.got.tgz:563111.got - 2010.06.03 11:33:40.
