data_PCOD9031374
_publ_section_title
;
Structure prediction by ZEFSAII (Michael W. Deem and Ramdas Pophale) SiO2 
 PCOD9031374
Probable space group: P -1
;
_chemical_formula_sum "Si O2"
_cell_formula_units_Z 14
_cell_length_a 5.249194
_cell_length_b 16.226837
_cell_length_c 9.756649
_cell_angle_alpha 64.504744
_cell_angle_beta 63.745348
_cell_angle_gamma 58.609656
_cell_volume 614.130914
_symmetry_space_group_name_H-M "P -1"
_symmetry_group_IT_number 2
_symmetry_cell_setting 'triclinic'
loop_
_space_group_symop_operation_xyz
x,y,z
-x,-y,-z
loop_
_atom_site_type_symbol
_atom_site_label
_atom_site_fract_x
_atom_site_fract_y
_atom_site_fract_z
Si Si1 0.323512 0.755634 0.059149
Si Si2 0.867870 0.830671 0.879040
Si Si3 0.129387 0.222329 0.602103
Si Si4 0.349655 0.987161 0.400470
Si Si5 0.894030 0.288123 0.340892
Si Si6 0.251991 0.422471 0.397415
Si Si7 0.740545 0.585483 0.911616
O O1 0.615949 0.783581 0.003643
O O2 0.443368 0.646671 0.033261
O O3 0.066771 0.833110 0.961947
O O4 0.136253 0.755679 0.239315
O O5 0.137442 0.762294 0.756305
O O6 0.679022 0.930994 0.767091
O O7 0.432303 0.122789 0.628324
O O8 0.204315 0.319483 0.496125
O O9 0.998318 0.210628 0.493348
O O10 0.500000 0.000000 0.500000
O O11 0.000000 0.000000 0.500000
O O12 0.605502 0.386377 0.388526
O O13 0.154611 0.325725 0.211436
O O14 0.270295 0.453558 0.211893
O O15 0.000000 0.500000 0.500000
O O16 0.000000 0.500000 0.000000
#
# Coordination Sequence:
#
# PCOD9031374 Si02
#       7
#     2   2   2   2   2   2   2
#     4  11  26  44  69 102 147 179 227 295 352 412
#     4  11  23  46  69 101 140 184 229 285 353 413
#     4  11  27  43  68 105 137 183 235 294 346 422
#     4  12  25  43  78 105 137 186 238 285 350 422
#     4  10  22  43  66  93 137 178 235 281 345 417
#     4  11  25  42  69  97 138 185 237 290 343 422
#     4  10  24  41  63  94 134 183 230 285 347 410
#
# _framework density 22.796443
#
# number of rings (size 3 to 8) (size 9 to 14) (size 15 to 20)
#    0.000    1.143    2.857    1.714    8.000    4.000 
#    0.000    0.000    0.000    0.000    0.000    0.000 
#    0.000    0.000    0.000    0.000    0.000    0.000 
#
# Total GULP energy -78162.460654 kJ/mol
# GULP energy per Si atom -5583.032904 kJ/mol
# Density = 2.274456 g / cm^3
# Si number density = 22.796443 Si / 1000 Ang^3
#
#
#
# Elastic Constant Matrix: (Units=GPa)
#
#
# Indices 1 2 3 4 5 6 
#
# 1 77.6178 12.0868 16.9205 6.9376 -5.2946 -17.6792
# 2 12.0868 125.7908 42.1543 11.5882 -9.3202 -23.1633
# 3 16.9205 42.1543 114.8160 13.1765 -6.8628 -15.9017
# 4 6.9376 11.5882 13.1765 33.4042 -17.7598 -4.2921
# 5 -5.2946 -9.3202 -6.8628 -17.7598 33.1802 -4.3479
# 6 -17.6792 -23.1633 -15.9017 -4.2921 -4.3479 34.2759
#
#
#
# Elastic Compliance Matrix: (Units=1/GPa)
#
#
# Indices 1 2 3 4 5 6 
#
# 1 0.015122 0.000690 -0.001140 -0.000074 0.003401 0.008159
# 2 0.000690 0.010233 -0.002775 -0.000073 0.003208 0.006382
# 3 -0.001140 -0.002775 0.010491 -0.002633 0.000072 0.002084
# 4 -0.000074 -0.000073 -0.002633 0.044981 0.024473 0.007428
# 5 0.003401 0.003208 0.000072 0.024473 0.046387 0.012904
# 6 0.008159 0.006382 0.002084 0.007428 0.012904 0.041230
#
#
# Mechanical properties :
#
#
# Convention : Reuss Voigt Hill
#
# Bulk Modulus (GPa) = 34.01718 51.17197 42.59458
# Shear Modulus (GPa) = 27.07205 36.64292 31.85748
#
# Velocity S-wave (km/s) = 3.44983 4.01358 3.74234
# Velocity P-wave (km/s) = 5.55185 6.63133 6.11545
#
# Compressibility (1/GPa) = 0.02939691
#
# Stress axis : x y z
#
# Youngs Moduli (GPa) = 66.12993 97.72531 95.31642
#
# Poissons Ratio (x) = -0.06746 0.10868
# Poissons Ratio (y) = -0.04565 0.26447
# Poissons Ratio (z) = 0.07540 0.27116
#
# Static dielectric constant tensor:
#      x y z
#    x 1.954270 0.026680 0.006480 
#    y 0.026680 1.871160 -0.001970 
#    z 0.006480 -0.001970 1.854830 
# 
# From -- ./inp_files/27179.got.cif
#   From: 2010.05.17/outbox.cif.g08.bks.cpg/sg2_14_cif.got.tgz:27179.got - 2010.06.03 11:33:40.
