data_PCOD9031174
_publ_section_title
;
Structure prediction by ZEFSAII (Michael W. Deem and Ramdas Pophale) SiO2 
 PCOD9031174
Probable space group: P -1
;
_chemical_formula_sum "Si O2"
_cell_formula_units_Z 14
_cell_length_a 7.110520
_cell_length_b 14.469960
_cell_length_c 4.912070
_cell_angle_alpha 101.229902
_cell_angle_beta 80.467691
_cell_angle_gamma 94.661924
_cell_volume 488.248135
_symmetry_space_group_name_H-M "P -1"
_symmetry_group_IT_number 2
_symmetry_cell_setting 'triclinic'
loop_
_space_group_symop_operation_xyz
x,y,z
-x,-y,-z
loop_
_atom_site_type_symbol
_atom_site_label
_atom_site_fract_x
_atom_site_fract_y
_atom_site_fract_z
Si Si1 0.233786 0.274447 0.612213
Si Si2 0.229804 0.834387 0.749325
Si Si3 0.904616 0.352853 0.103565
Si Si4 0.610420 0.064965 0.749290
Si Si5 0.563817 0.376977 0.784226
Si Si6 0.241198 0.449296 0.293970
Si Si7 0.103585 0.071973 0.298380
O O1 0.453471 0.280677 0.662942
O O2 0.239656 0.361172 0.446808
O O3 0.179918 0.170661 0.463269
O O4 0.069584 0.298286 0.876199
O O5 0.272377 0.868995 0.456179
O O6 0.038056 0.894329 0.882799
O O7 0.169316 0.724072 0.703083
O O8 0.388867 0.858943 0.954423
O O9 0.732738 0.368851 0.952200
O O10 0.024702 0.445651 0.232013
O O11 0.500000 0.000000 0.500000
O O12 0.709134 0.982762 0.853638
O O13 0.660001 0.450314 0.583055
O O14 0.383038 0.422778 0.000156
O O15 0.000000 0.000000 0.500000
#
# Coordination Sequence:
#
# PCOD9031174 Si02
#       7
#     2   2   2   2   2   2   2
#     4  11  23  42  66  98 132 180 229 284 348 416
#     4  11  23  44  65  97 136 182 229 281 346 423
#     4  11  23  40  67  96 136 175 232 278 350 418
#     4  11  25  42  67 100 137 178 233 289 346 411
#     4  10  24  41  67  97 134 176 225 294 343 420
#     4  10  22  44  64  97 135 174 228 284 356 413
#     4  10  22  43  65  91 133 176 223 278 342 407
#
# _framework density 28.673943000000001
#
# number of rings (size 3 to 8) (size 9 to 14) (size 15 to 20)
#    0.000    1.429    1.429    3.429    2.000    4.000 
#    0.000    0.000    0.000    0.000    0.000    0.000 
#    0.000    0.000    0.000    0.000    0.000    0.000 
#
# Total GULP energy -78263.277340 kJ/mol
# GULP energy per Si atom -5590.234096 kJ/mol
# Density = 2.860868 g / cm^3
# Si number density = 28.673943 Si / 1000 Ang^3
#
#
#
# Elastic Constant Matrix: (Units=GPa)
#
#
# Indices 1 2 3 4 5 6 
#
# 1 161.8525 57.5182 21.4642 5.5632 41.6379 39.3078
# 2 57.5182 208.0176 47.1077 0.0337 25.6079 42.9492
# 3 21.4642 47.1077 103.6198 4.5113 18.2774 23.2619
# 4 5.5632 0.0337 4.5113 66.3263 7.7516 9.0074
# 5 41.6379 25.6079 18.2774 7.7516 50.8144 1.3443
# 6 39.3078 42.9492 23.2619 9.0074 1.3443 65.0048
#
#
#
# Elastic Compliance Matrix: (Units=1/GPa)
#
#
# Indices 1 2 3 4 5 6 
#
# 1 0.009693 -0.000761 0.000961 0.000810 -0.007879 -0.005652
# 2 -0.000761 0.006298 -0.001678 0.000839 -0.001991 -0.003176
# 3 0.000961 -0.001678 0.011739 0.000088 -0.004083 -0.003601
# 4 0.000810 0.000839 0.000088 0.015840 -0.003450 -0.003199
# 5 -0.007879 -0.001991 -0.004083 -0.003450 0.028937 0.007420
# 6 -0.005652 -0.003176 -0.003601 -0.003199 0.007420 0.022478
#
#
# Mechanical properties :
#
#
# Convention : Reuss Voigt Hill
#
# Bulk Modulus (GPa) = 40.36338 80.63002 60.49670
# Shear Modulus (GPa) = 47.08083 59.58908 53.33496
#
# Velocity S-wave (km/s) = 4.05648 4.56363 4.31751
# Velocity P-wave (km/s) = 6.00394 7.47995 6.78222
#
# Compressibility (1/GPa) = 0.02477493
#
# Stress axis : x y z
#
# Youngs Moduli (GPa) = 103.16535 158.77065 85.18452
#
# Poissons Ratio (x) = 0.12086 -0.08190
# Poissons Ratio (y) = 0.07853 0.14296
# Poissons Ratio (z) = -0.09919 0.26645
#
# Static dielectric constant tensor:
#      x y z
#    x 2.518540 -0.063730 -0.133130 
#    y -0.063730 2.289870 0.157910 
#    z -0.133130 0.157910 2.305130 
# 
# From -- ./inp_files/38761.got.cif
#   From: 2010.05.17/outbox.cif.g08.bks.cpg/sg2_20_cif.got.tgz:38761.got - 2010.06.03 11:33:40.
