data_PCOD9031598
_publ_section_title
;
Structure prediction by ZEFSAII (Michael W. Deem and Ramdas Pophale) SiO2 
 PCOD9031598
Probable space group: P -1
;
_chemical_formula_sum "Si O2"
_cell_formula_units_Z 16
_cell_length_a 17.736936
_cell_length_b 11.752093
_cell_length_c 8.847167
_cell_angle_alpha 125.269343
_cell_angle_beta 50.463172
_cell_angle_gamma 149.710035
_cell_volume 715.518177
_symmetry_space_group_name_H-M "P -1"
_symmetry_group_IT_number 2
_symmetry_cell_setting 'triclinic'
loop_
_space_group_symop_operation_xyz
x,y,z
-x,-y,-z
loop_
_atom_site_type_symbol
_atom_site_label
_atom_site_fract_x
_atom_site_fract_y
_atom_site_fract_z
Si Si1 0.466812 0.235307 0.422874
Si Si2 0.135903 0.743360 0.436710
Si Si3 0.117467 0.733111 0.112922
Si Si4 0.340534 0.137711 0.938914
Si Si5 0.139608 0.136897 0.048760
Si Si6 0.596706 0.248312 0.530066
Si Si7 0.536304 0.457292 0.199403
Si Si8 0.062471 0.272066 0.470542
O O1 0.601866 0.300352 0.387339
O O2 0.491143 0.293093 0.258545
O O3 0.455021 0.379645 0.612923
O O4 0.308779 0.967122 0.452200
O O5 0.157677 0.719307 0.216548
O O6 0.000000 0.500000 0.500000
O O7 0.054316 0.802317 0.567397
O O8 0.032411 0.786509 0.303813
O O9 0.263192 0.924393 0.965313
O O10 0.000000 0.500000 0.000000
O O11 0.208648 0.061998 0.944403
O O12 0.408402 0.313957 0.118361
O O13 0.489299 0.248167 0.741821
O O14 0.098052 0.158446 0.281104
O O15 0.293703 0.384870 0.969778
O O16 0.000000 0.000000 0.000000
O O17 0.774488 0.456795 0.526073
O O18 0.500000 0.000000 0.500000
#
# Coordination Sequence:
#
# PCOD9031598 Si02
#       8
#     2   2   2   2   2   2   2   2
#     4  11  23  41  71 103 135 185 230 287 349 414
#     4  10  22  43  67  95 134 182 230 280 339 411
#     4  10  24  42  67  98 132 183 234 280 340 413
#     4  12  24  45  71  98 140 184 229 285 358 415
#     4  12  25  41  70 106 140 178 231 293 348 425
#     4  12  24  42  69  99 136 184 235 280 345 418
#     4  11  22  44  69 102 141 179 230 285 357 420
#     4  10  23  41  63 100 135 171 232 277 347 403
#
# _framework density 22.361415000000001
#
# number of rings (size 3 to 8) (size 9 to 14) (size 15 to 20)
#    0.750    0.250    3.750    3.375    1.750    1.500 
#    0.000    1.875    0.000    0.000    0.000    0.000 
#    0.000    0.000    0.000    0.000    0.000    0.000 
#
# Total GULP energy -89229.764581 kJ/mol
# GULP energy per Si atom -5576.860286 kJ/mol
# Density = 2.231052 g / cm^3
# Si number density = 22.361415 Si / 1000 Ang^3
#
#
#
# Elastic Constant Matrix: (Units=GPa)
#
#
# Indices 1 2 3 4 5 6 
#
# 1 68.0637 4.4401 15.6903 -2.1064 18.7347 8.5934
# 2 4.4401 80.7973 -2.7611 -0.2346 22.2933 5.0808
# 3 15.6903 -2.7611 54.6532 5.0068 11.8888 -3.3201
# 4 -2.1064 -0.2346 5.0068 38.4717 1.6404 10.0111
# 5 18.7347 22.2933 11.8888 1.6404 28.4109 -3.0531
# 6 8.5934 5.0808 -3.3201 10.0111 -3.0531 43.1913
#
#
#
# Elastic Compliance Matrix: (Units=1/GPa)
#
#
# Indices 1 2 3 4 5 6 
#
# 1 0.020575 0.003666 -0.002988 0.004003 -0.016159 -0.006825
# 2 0.003666 0.017576 0.003373 0.001744 -0.018175 -0.004227
# 3 -0.002988 0.003373 0.021769 -0.003075 -0.009402 0.001919
# 4 0.004003 0.001744 -0.003075 0.029018 -0.005293 -0.008338
# 5 -0.016159 -0.018175 -0.009402 -0.005293 0.065482 0.010486
# 6 -0.006825 -0.004227 0.001919 -0.008338 0.010486 0.027829
#
#
# Mechanical properties :
#
#
# Convention : Reuss Voigt Hill
#
# Bulk Modulus (GPa) = 14.70106 26.47252 20.58679
# Shear Modulus (GPa) = 25.40382 34.42444 29.91413
#
# Velocity S-wave (km/s) = 3.37420 3.92785 3.66150
# Velocity P-wave (km/s) = 4.66571 5.69516 5.20594
#
# Compressibility (1/GPa) = 0.06802231
#
# Stress axis : x y z
#
# Youngs Moduli (GPa) = 48.60287 56.89514 45.93731
#
# Poissons Ratio (x) = -0.20860 0.13725
# Poissons Ratio (y) = -0.17820 -0.15493
# Poissons Ratio (z) = 0.14522 -0.19188
#
# Static dielectric constant tensor:
#      x y z
#    x 1.847810 -0.027020 0.003950 
#    y -0.027020 1.805640 0.019710 
#    z 0.003950 0.019710 1.887630 
# 
# From -- ./inp_files/332321.got.cif
#   From: 2010.05.17/outbox.cif.g08.bks.cpg/sg2_167_cif.got.tgz:332321.got - 2010.06.03 11:33:40.
