data_PCOD9031537
_publ_section_title
;
Structure prediction by ZEFSAII (Michael W. Deem and Ramdas Pophale) SiO2 
 PCOD9031537
Probable space group: P -1
;
_chemical_formula_sum "Si O2"
_cell_formula_units_Z 16
_cell_length_a 13.168692
_cell_length_b 9.217809
_cell_length_c 5.020429
_cell_angle_alpha 99.166159
_cell_angle_beta 83.642675
_cell_angle_gamma 106.839837
_cell_volume 574.484935
_symmetry_space_group_name_H-M "P -1"
_symmetry_group_IT_number 2
_symmetry_cell_setting 'triclinic'
loop_
_space_group_symop_operation_xyz
x,y,z
-x,-y,-z
loop_
_atom_site_type_symbol
_atom_site_label
_atom_site_fract_x
_atom_site_fract_y
_atom_site_fract_z
Si Si1 0.132727 0.866218 0.231196
Si Si2 0.669140 0.715382 0.450593
Si Si3 0.056394 0.365070 0.503903
Si Si4 0.183648 0.193133 0.072346
Si Si5 0.572610 0.421333 0.129853
Si Si6 0.324204 0.876220 0.546999
Si Si7 0.780582 0.391108 0.145291
Si Si8 0.468878 0.132678 0.819285
O O1 0.227931 0.916126 0.434516
O O2 0.024025 0.784458 0.388885
O O3 0.130802 0.012367 0.095808
O O4 0.158175 0.724246 0.026836
O O5 0.717353 0.760762 0.736912
O O6 0.613328 0.533489 0.398536
O O7 0.579267 0.783704 0.373137
O O8 0.764867 0.772276 0.223187
O O9 0.109033 0.298590 0.221995
O O10 0.143765 0.455914 0.713795
O O11 0.000000 0.500000 0.500000
O O12 0.689301 0.418565 0.987263
O O13 0.500000 0.500000 0.000000
O O14 0.504804 0.245405 0.089021
O O15 0.281746 0.706823 0.619260
O O16 0.424257 0.897292 0.331687
O O17 0.371732 0.980630 0.820715
#
# Coordination Sequence:
#
# PCOD9031537 Si02
#       8
#     2   2   2   2   2   2   2   2
#     4  12  26  49  75 113 155 200 260 328 396 466
#     4  11  25  47  76 109 156 204 258 316 391 463
#     4  12  28  50  81 112 147 207 266 333 400 464
#     4  12  28  50  80 113 157 204 261 328 397 472
#     4  10  23  42  68 107 150 202 254 312 380 458
#     4  11  23  42  73 106 155 194 263 304 396 458
#     4  12  25  46  79 109 152 206 261 330 386 474
#     4  10  22  43  67 109 151 201 247 311 381 470
#
# _framework density 27.851033999999999
#
# number of rings (size 3 to 8) (size 9 to 14) (size 15 to 20)
#    0.000    0.750    5.000    1.500    3.500    3.500 
#    0.000    6.250    0.000    0.000    0.000    0.000 
#    0.000    0.000    0.000    0.000    0.000    0.000 
#
# Total GULP energy -89697.871199 kJ/mol
# GULP energy per Si atom -5606.116950 kJ/mol
# Density = 2.778764 g / cm^3
# Si number density = 27.851034 Si / 1000 Ang^3
#
#
#
# Elastic Constant Matrix: (Units=GPa)
#
#
# Indices 1 2 3 4 5 6 
#
# 1 144.5426 62.0054 37.3579 -3.4888 -4.0726 4.5984
# 2 62.0054 153.6377 47.8766 12.2229 -1.9841 4.8353
# 3 37.3579 47.8766 85.1110 -3.9085 -10.1688 3.8269
# 4 -3.4888 12.2229 -3.9085 36.4634 0.4626 0.7798
# 5 -4.0726 -1.9841 -10.1688 0.4626 43.9786 1.5722
# 6 4.5984 4.8353 3.8269 0.7798 1.5722 63.8115
#
#
#
# Elastic Compliance Matrix: (Units=1/GPa)
#
#
# Indices 1 2 3 4 5 6 
#
# 1 0.008803 -0.003035 -0.002044 0.001644 0.000199 -0.000307
# 2 -0.003035 0.009340 -0.004184 -0.003856 -0.000780 -0.000172
# 3 -0.002044 -0.004184 0.015540 0.002845 0.003206 -0.000581
# 4 0.001644 -0.003856 0.002845 0.029183 0.000342 -0.000362
# 5 0.000199 -0.000780 0.003206 0.000342 0.023485 -0.000730
# 6 -0.000307 -0.000172 -0.000581 -0.000362 -0.000730 0.015764
#
#
# Mechanical properties :
#
#
# Convention : Reuss Voigt Hill
#
# Bulk Modulus (GPa) = 65.97439 75.30791 70.64115
# Shear Modulus (GPa) = 39.77940 44.58746 42.18343
#
# Velocity S-wave (km/s) = 3.78337 4.00550 3.89602
# Velocity P-wave (km/s) = 6.54408 6.96350 6.75704
#
# Compressibility (1/GPa) = 0.01515740
#
# Stress axis : x y z
#
# Youngs Moduli (GPa) = 113.59128 107.07187 64.34975
#
# Poissons Ratio (x) = 0.32492 0.13153
# Poissons Ratio (y) = 0.34470 0.26926
# Poissons Ratio (z) = 0.23218 0.44802
#
# Static dielectric constant tensor:
#      x y z
#    x 2.205880 -0.072170 -0.059520 
#    y -0.072170 2.210740 0.036740 
#    z -0.059520 0.036740 2.164480 
# 
# From -- ./inp_files/90758.got.cif
#   From: 2010.05.17/outbox.cif.g08.bks.cpg/sg2_46_cif.got.tgz:90758.got - 2010.06.03 11:33:40.
