data_PCOD9031615
_publ_section_title
;
Structure prediction by ZEFSAII (Michael W. Deem and Ramdas Pophale) SiO2 
 PCOD9031615
Probable space group: P -1
;
_chemical_formula_sum "Si O2"
_cell_formula_units_Z 16
_cell_length_a 6.768615
_cell_length_b 20.921099
_cell_length_c 5.971238
_cell_angle_alpha 52.121134
_cell_angle_beta 70.223456
_cell_angle_gamma 86.389142
_cell_volume 616.006724
_symmetry_space_group_name_H-M "P -1"
_symmetry_group_IT_number 2
_symmetry_cell_setting 'triclinic'
loop_
_space_group_symop_operation_xyz
x,y,z
-x,-y,-z
loop_
_atom_site_type_symbol
_atom_site_label
_atom_site_fract_x
_atom_site_fract_y
_atom_site_fract_z
Si Si1 0.687174 0.495470 0.119250
Si Si2 0.540710 0.628142 0.145315
Si Si3 0.505601 0.875350 0.722389
Si Si4 0.321518 0.005983 0.237895
Si Si5 0.966568 0.886050 0.427502
Si Si6 0.129314 0.771310 0.295886
Si Si7 0.119301 0.274035 0.905511
Si Si8 0.827687 0.366111 0.064335
O O1 0.713002 0.582753 0.049546
O O2 0.600818 0.433151 0.490013
O O3 0.848937 0.453720 0.996567
O O4 0.500000 0.500000 0.000000
O O5 0.661886 0.699979 0.102153
O O6 0.391295 0.648287 0.961720
O O7 0.367287 0.939865 0.545819
O O8 0.716495 0.878655 0.482571
O O9 0.621655 0.906815 0.846137
O O10 0.328791 0.793743 0.003851
O O11 0.089010 0.973500 0.288239
O O12 0.500000 0.000000 0.000000
O O13 0.098951 0.856040 0.240701
O O14 0.978608 0.814622 0.759441
O O15 0.175160 0.705125 0.598104
O O16 0.910274 0.736699 0.322692
O O17 0.998876 0.348443 0.855349
#
# Coordination Sequence:
#
# PCOD9031615 Si02
#       8
#     2   2   2   2   2   2   2   2
#     4   9  20  41  68  96 130 174 231 270 335 405
#     4  10  22  43  67  96 133 178 221 280 335 402
#     4  11  25  44  71  94 137 180 221 287 335 399
#     4  11  23  46  69  98 136 174 231 281 333 406
#     4  11  25  43  67 102 132 181 227 274 346 401
#     4  11  24  46  65 104 140 176 232 278 336 417
#     4  11  25  42  64 100 137 171 227 276 333 412
#     4  10  23  42  67  96 134 173 222 283 334 396
#
# _framework density 25.973744
#
# number of rings (size 3 to 8) (size 9 to 14) (size 15 to 20)
#    0.000    1.500    2.500    1.125    3.500    6.000 
#    0.000    8.750    0.000    0.000    0.000    0.000 
#    0.000    0.000    0.000    0.000    0.000    0.000 
#
# Total GULP energy -89467.263272 kJ/mol
# GULP energy per Si atom -5591.703955 kJ/mol
# Density = 2.591463 g / cm^3
# Si number density = 25.973744 Si / 1000 Ang^3
#
#
#
# Elastic Constant Matrix: (Units=GPa)
#
#
# Indices 1 2 3 4 5 6 
#
# 1 109.0375 28.2360 6.8507 4.8730 16.9915 11.6581
# 2 28.2360 97.2745 -0.3884 12.4822 9.4224 13.1512
# 3 6.8507 -0.3884 73.6718 2.5339 15.7285 19.0998
# 4 4.8730 12.4822 2.5339 19.0731 4.3292 -6.9783
# 5 16.9915 9.4224 15.7285 4.3292 39.4772 8.6710
# 6 11.6581 13.1512 19.0998 -6.9783 8.6710 61.9209
#
#
#
# Elastic Compliance Matrix: (Units=1/GPa)
#
#
# Indices 1 2 3 4 5 6 
#
# 1 0.010518 -0.002477 0.000083 -0.000622 -0.003673 -0.001036
# 2 -0.002477 0.012757 0.001752 -0.009100 -0.000869 -0.003687
# 3 0.000083 0.001752 0.016168 -0.003958 -0.005347 -0.005072
# 4 -0.000622 -0.009100 -0.003958 0.064466 -0.005537 0.011311
# 5 -0.003673 -0.000869 -0.005347 -0.005537 0.030374 -0.002352
# 6 -0.001036 -0.003687 -0.005072 0.011311 -0.002352 0.020296
#
#
# Mechanical properties :
#
#
# Convention : Reuss Voigt Hill
#
# Bulk Modulus (GPa) = 26.20644 38.82003 32.51324
# Shear Modulus (GPa) = 29.65904 40.44659 35.05281
#
# Velocity S-wave (km/s) = 3.38285 3.95043 3.67760
# Velocity P-wave (km/s) = 5.03683 5.98216 5.52973
#
# Compressibility (1/GPa) = 0.03815856
#
# Stress axis : x y z
#
# Youngs Moduli (GPa) = 95.07160 78.39060 61.85073
#
# Poissons Ratio (x) = 0.19419 -0.00513
# Poissons Ratio (y) = 0.23551 -0.10836
# Poissons Ratio (z) = -0.00789 -0.13734
#
# Static dielectric constant tensor:
#      x y z
#    x 2.083020 -0.009920 -0.030200 
#    y -0.009920 2.085030 -0.006890 
#    z -0.030200 -0.006890 1.999460 
# 
# From -- ./inp_files/12737.got.cif
#   From: 2010.05.17/outbox.cif.g08.bks.cpg/sg2_7_cif.got.tgz:12737.got - 2010.06.03 11:33:40.
