data_PCOD9031649
_publ_section_title
;
Structure prediction by ZEFSAII (Michael W. Deem and Ramdas Pophale) SiO2 
 PCOD9031649
Probable space group: P -1
;
_chemical_formula_sum "Si O2"
_cell_formula_units_Z 16
_cell_length_a 9.729872
_cell_length_b 13.752127
_cell_length_c 18.707046
_cell_angle_alpha 21.385367
_cell_angle_beta 129.866994
_cell_angle_gamma 132.014792
_cell_volume 676.677409
_symmetry_space_group_name_H-M "P -1"
_symmetry_group_IT_number 2
_symmetry_cell_setting 'triclinic'
loop_
_space_group_symop_operation_xyz
x,y,z
-x,-y,-z
loop_
_atom_site_type_symbol
_atom_site_label
_atom_site_fract_x
_atom_site_fract_y
_atom_site_fract_z
Si Si1 0.850697 0.709484 0.145846
Si Si2 0.455333 0.608804 0.151465
Si Si3 0.669286 0.851239 0.677154
Si Si4 0.465792 0.780870 0.385574
Si Si5 0.325228 0.247173 0.091396
Si Si6 0.034924 0.262753 0.493175
Si Si7 0.188816 0.204833 0.446058
Si Si8 0.612605 0.822483 0.254696
O O1 0.676038 0.679311 0.161732
O O2 0.961122 0.488208 0.355762
O O3 0.782678 0.647918 0.081878
O O4 0.000000 0.000000 0.000000
O O5 0.388430 0.468268 0.147848
O O6 0.326057 0.366321 0.321596
O O7 0.402208 0.879478 0.977665
O O8 0.736002 0.860632 0.775241
O O9 0.500000 0.000000 0.500000
O O10 0.851759 0.023126 0.580095
O O11 0.674534 0.943414 0.365666
O O12 0.464608 0.768984 0.307743
O O13 0.425013 0.455846 0.614329
O O14 0.349850 0.967475 0.253651
O O15 0.500000 0.500000 0.000000
O O16 0.132038 0.384522 0.367639
O O17 0.184594 0.155974 0.660666
O O18 0.000000 0.000000 0.500000
#
# Coordination Sequence:
#
# PCOD9031649 Si02
#       8
#     2   2   2   2   2   2   2   2
#     4  12  27  48  75 107 152 193 253 304 376 453
#     4  12  24  47  73 106 145 197 249 305 375 454
#     4  12  23  44  73 109 150 189 246 318 384 434
#     4  10  22  43  67  97 144 191 241 294 377 437
#     4  12  23  42  74 110 143 194 250 307 374 448
#     4  11  25  46  69 103 143 193 242 313 372 439
#     4  11  25  42  72 101 144 187 244 301 380 434
#     4  10  23  45  69  97 146 197 240 302 372 451
#
# _framework density 23.644943999999999
#
# number of rings (size 3 to 8) (size 9 to 14) (size 15 to 20)
#    0.000    0.750    5.000    1.500    5.250    2.000 
#    2.250    1.250    0.000    0.000    0.000    0.000 
#    0.000    0.000    0.000    0.000    0.000    0.000 
#
# Total GULP energy -89110.276236 kJ/mol
# GULP energy per Si atom -5569.392265 kJ/mol
# Density = 2.359113 g / cm^3
# Si number density = 23.644944 Si / 1000 Ang^3
#
#
#
# Elastic Constant Matrix: (Units=GPa)
#
#
# Indices 1 2 3 4 5 6 
#
# 1 130.6186 34.5094 30.3666 6.2998 -7.7601 14.3435
# 2 34.5094 105.9961 12.2074 -12.8402 -5.3155 8.3366
# 3 30.3666 12.2074 69.7498 -14.3616 16.2512 -3.2592
# 4 6.2998 -12.8402 -14.3616 38.2860 -0.6454 -1.5009
# 5 -7.7601 -5.3155 16.2512 -0.6454 42.8010 -1.3460
# 6 14.3435 8.3366 -3.2592 -1.5009 -1.3460 31.7391
#
#
#
# Elastic Compliance Matrix: (Units=1/GPa)
#
#
# Indices 1 2 3 4 5 6 
#
# 1 0.010958 -0.002883 -0.006495 -0.005335 0.003859 -0.004950
# 2 -0.002883 0.011035 -0.000109 0.004096 0.000908 -0.001375
# 3 -0.006495 -0.000109 0.021404 0.009114 -0.009017 0.005210
# 4 -0.005335 0.004096 0.009114 0.031876 -0.003324 0.003638
# 5 0.003859 0.000908 -0.009017 -0.003324 0.027490 -0.001899
# 6 -0.004950 -0.001375 0.005210 0.003638 -0.001899 0.034732
#
#
# Mechanical properties :
#
#
# Convention : Reuss Voigt Hill
#
# Bulk Modulus (GPa) = 40.94231 51.17014 46.05623
# Shear Modulus (GPa) = 30.37496 37.85062 34.11279
#
# Velocity S-wave (km/s) = 3.58806 4.00533 3.80242
# Velocity P-wave (km/s) = 5.87525 6.56340 6.22884
#
# Compressibility (1/GPa) = 0.02442461
#
# Stress axis : x y z
#
# Youngs Moduli (GPa) = 91.26021 90.61891 46.71926
#
# Poissons Ratio (x) = 0.26125 0.30344
# Poissons Ratio (y) = 0.26310 0.00507
# Poissons Ratio (z) = 0.59273 0.00983
#
# Static dielectric constant tensor:
#      x y z
#    x 2.041960 -0.085020 -0.104400 
#    y -0.085020 2.006520 0.039910 
#    z -0.104400 0.039910 2.030940 
# 
# From -- ./inp_files/590437.got.cif
#   From: 2010.05.17/outbox.cif.g08.bks.cpg/sg2_296_cif.got.tgz:590437.got - 2010.06.03 11:33:40.
