data_PCOD9031822
_publ_section_title
;
Structure prediction by ZEFSAII (Michael W. Deem and Ramdas Pophale) SiO2 
 PCOD9031822
Probable space group: P -1
;
_chemical_formula_sum "Si O2"
_cell_formula_units_Z 14
_cell_length_a 27.013448
_cell_length_b 5.454667
_cell_length_c 5.118547
_cell_angle_alpha 93.950745
_cell_angle_beta 55.870984
_cell_angle_gamma 118.880333
_cell_volume 524.998222
_symmetry_space_group_name_H-M "P -1"
_symmetry_group_IT_number 2
_symmetry_cell_setting 'triclinic'
loop_
_space_group_symop_operation_xyz
x,y,z
-x,-y,-z
loop_
_atom_site_type_symbol
_atom_site_label
_atom_site_fract_x
_atom_site_fract_y
_atom_site_fract_z
Si Si1 0.448800 0.890735 0.396076
Si Si2 0.778083 0.888027 0.988453
Si Si3 0.087957 0.916770 0.146632
Si Si4 0.289198 0.040113 0.323174
Si Si5 0.046807 0.266860 0.683116
Si Si6 0.583183 0.691367 0.696460
Si Si7 0.180653 0.427321 0.522138
O O1 0.404273 0.541988 0.497654
O O2 0.500000 0.000000 0.500000
O O3 0.405018 0.044187 0.499108
O O4 0.500000 0.000000 0.000000
O O5 0.860257 0.139608 0.839465
O O6 0.738226 0.949354 0.882169
O O7 0.785937 0.632186 0.831896
O O8 0.735911 0.818600 0.376684
O O9 0.071006 0.126252 0.379101
O O10 0.138067 0.123659 0.780417
O O11 0.010946 0.667142 0.247991
O O12 0.370811 0.185491 0.167915
O O13 0.243790 0.698504 0.503501
O O14 0.118994 0.487225 0.637739
O O15 0.000000 0.000000 0.000000
O O16 0.500000 0.500000 0.000000
#
# Coordination Sequence:
#
# PCOD9031822 Si02
#       7
#     2   2   2   2   2   2   2
#     4  10  22  43  74 103 143 180 231 292 363 429
#     4  11  25  44  65 100 139 181 234 292 357 429
#     4   9  17  38  68  93 138 184 233 290 358 419
#     4  12  28  43  70 102 139 184 242 290 370 435
#     4   8  16  32  66  99 129 187 229 288 361 418
#     4  10  25  49  74 110 145 192 243 307 367 445
#     4  10  22  43  68  94 143 185 234 295 363 426
#
# _framework density 26.666758000000002
#
# number of rings (size 3 to 8) (size 9 to 14) (size 15 to 20)
#    0.000    2.000    1.429    0.429    6.000    4.571 
#    2.571    1.429    0.000    0.000    0.000    0.000 
#    0.000    0.000    0.000    0.000    0.000    0.000 
#
# Total GULP energy -78304.368461 kJ/mol
# GULP energy per Si atom -5593.169176 kJ/mol
# Density = 2.660606 g / cm^3
# Si number density = 26.666758 Si / 1000 Ang^3
#
#
#
# Elastic Constant Matrix: (Units=GPa)
#
#
# Indices 1 2 3 4 5 6 
#
# 1 210.6449 58.7370 24.0010 -11.9709 11.6357 23.5033
# 2 58.7370 121.1448 8.9369 -0.1809 -7.5764 9.8669
# 3 24.0010 8.9369 85.7891 9.8037 3.8268 9.0087
# 4 -11.9709 -0.1809 9.8037 30.6621 9.4467 -2.1501
# 5 11.6357 -7.5764 3.8268 9.4467 47.7835 -11.1873
# 6 23.5033 9.8669 9.0087 -2.1501 -11.1873 64.6306
#
#
#
# Elastic Compliance Matrix: (Units=1/GPa)
#
#
# Indices 1 2 3 4 5 6 
#
# 1 0.006380 -0.003001 -0.001549 0.003790 -0.003138 -0.002063
# 2 -0.003001 0.009882 -0.000091 -0.001911 0.002682 -0.000004
# 3 -0.001549 -0.000091 0.012791 -0.004779 -0.000038 -0.001371
# 4 0.003790 -0.001911 -0.004779 0.038198 -0.008542 -0.000628
# 5 -0.003138 0.002682 -0.000038 -0.008542 0.024925 0.004767
# 6 -0.002063 -0.000004 -0.001371 -0.000628 0.004767 0.017219
#
#
# Mechanical properties :
#
#
# Convention : Reuss Voigt Hill
#
# Bulk Modulus (GPa) = 50.57899 66.76985 58.67442
# Shear Modulus (GPa) = 39.91524 50.34216 45.12870
#
# Velocity S-wave (km/s) = 3.87307 4.34962 4.11825
# Velocity P-wave (km/s) = 6.24573 7.09356 6.68310
#
# Compressibility (1/GPa) = 0.01977105
#
# Stress axis : x y z
#
# Youngs Moduli (GPa) = 156.74942 101.19715 78.17959
#
# Poissons Ratio (x) = 0.30374 0.12107
# Poissons Ratio (y) = 0.47048 0.00708
# Poissons Ratio (z) = 0.24275 0.00916
#
# Static dielectric constant tensor:
#      x y z
#    x 2.216970 -0.040740 0.006710 
#    y -0.040740 2.174810 -0.029450 
#    z 0.006710 -0.029450 2.124240 
# 
# From -- ./inp_files/12801.got.cif
#   From: 2010.05.17/outbox.cif.g08.bks.cpg/sg2_7_cif.got.tgz:12801.got - 2010.06.03 11:33:40.
