data_PCOD9031824
_publ_section_title
;
Structure prediction by ZEFSAII (Michael W. Deem and Ramdas Pophale) SiO2 
 PCOD9031824
Probable space group: P -1
;
_chemical_formula_sum "Si O2"
_cell_formula_units_Z 14
_cell_length_a 7.069612
_cell_length_b 13.971951
_cell_length_c 11.854815
_cell_angle_alpha 30.308104
_cell_angle_beta 104.742516
_cell_angle_gamma 116.730832
_cell_volume 503.969784
_symmetry_space_group_name_H-M "P -1"
_symmetry_group_IT_number 2
_symmetry_cell_setting 'triclinic'
loop_
_space_group_symop_operation_xyz
x,y,z
-x,-y,-z
loop_
_atom_site_type_symbol
_atom_site_label
_atom_site_fract_x
_atom_site_fract_y
_atom_site_fract_z
Si Si1 0.718713 0.587141 0.648698
Si Si2 0.254238 0.476294 0.962066
Si Si3 0.046739 0.876124 0.034758
Si Si4 0.540375 0.904487 0.260756
Si Si5 0.088198 0.016149 0.337436
Si Si6 0.423068 0.814589 0.819052
Si Si7 0.889025 0.422591 0.405980
O O1 0.574337 0.693884 0.474395
O O2 0.876931 0.560088 0.610023
O O3 0.570110 0.359248 0.915247
O O4 0.895968 0.772539 0.570297
O O5 0.099550 0.218237 0.202106
O O6 0.500000 0.500000 0.000000
O O7 0.247353 0.647962 0.873860
O O8 0.216900 0.549592 0.757470
O O9 0.956500 0.934705 0.847219
O O10 0.924692 0.621235 0.286065
O O11 0.300571 0.949009 0.961652
O O12 0.000000 0.000000 0.000000
O O13 0.277617 0.805005 0.333731
O O14 0.626326 0.031151 0.264342
O O15 0.338982 0.050050 0.342081
#
# Coordination Sequence:
#
# PCOD9031824 Si02
#       7
#     2   2   2   2   2   2   2
#     4  11  22  39  63  93 124 168 211 253 309 371
#     4   9  20  38  62  94 129 169 211 253 303 372
#     4  10  22  43  68  95 124 160 213 264 314 379
#     4  11  23  41  67  92 127 167 209 258 314 372
#     4   9  20  41  62  90 130 164 206 267 308 365
#     4  11  21  41  63  90 132 170 208 252 312 368
#     4  11  22  43  64  90 133 165 203 266 312 361
#
# _framework density 27.779440000000001
#
# number of rings (size 3 to 8) (size 9 to 14) (size 15 to 20)
#    0.000    1.714    2.857    2.571    0.000    2.286 
#    2.571    3.571    0.000    0.000    0.000    0.000 
#    0.000    0.000    0.000    0.000    0.000    0.000 
#
# Total GULP energy -78419.728455 kJ/mol
# GULP energy per Si atom -5601.409175 kJ/mol
# Density = 2.771621 g / cm^3
# Si number density = 27.779440 Si / 1000 Ang^3
#
#
#
# Elastic Constant Matrix: (Units=GPa)
#
#
# Indices 1 2 3 4 5 6 
#
# 1 112.9627 28.5661 11.4781 -14.6997 -8.0020 -4.7711
# 2 28.5661 190.0383 12.3149 -21.3020 3.3200 -41.6944
# 3 11.4781 12.3149 90.0919 -30.0193 -1.3310 -12.8528
# 4 -14.6997 -21.3020 -30.0193 54.6493 6.6382 1.3713
# 5 -8.0020 3.3200 -1.3310 6.6382 48.0701 -4.2534
# 6 -4.7711 -41.6944 -12.8528 1.3713 -4.2534 46.7753
#
#
#
# Elastic Compliance Matrix: (Units=1/GPa)
#
#
# Indices 1 2 3 4 5 6 
#
# 1 0.009532 -0.001297 -0.000515 0.001609 0.001418 -0.000244
# 2 -0.001297 0.007123 0.001065 0.002915 -0.000517 0.006377
# 3 -0.000515 0.001065 0.014367 0.008112 -0.000478 0.004563
# 4 0.001609 0.002915 0.008112 0.024556 -0.002744 0.004023
# 5 0.001418 -0.000517 -0.000478 -0.002744 0.021582 0.001596
# 6 -0.000244 0.006377 0.004563 0.004023 0.001596 0.028320
#
#
# Mechanical properties :
#
#
# Convention : Reuss Voigt Hill
#
# Bulk Modulus (GPa) = 33.86545 55.31233 44.58889
# Shear Modulus (GPa) = 42.80226 52.61453 47.70839
#
# Velocity S-wave (km/s) = 3.92955 4.35674 4.14865
# Velocity P-wave (km/s) = 5.72763 6.72776 6.24774
#
# Compressibility (1/GPa) = 0.02952862
#
# Stress axis : x y z
#
# Youngs Moduli (GPa) = 104.90456 140.38846 69.60528
#
# Poissons Ratio (x) = 0.18214 0.03582
# Poissons Ratio (y) = 0.13610 -0.07415
# Poissons Ratio (z) = 0.05399 -0.14955
#
# Static dielectric constant tensor:
#      x y z
#    x 2.224880 0.076400 0.020800 
#    y 0.076400 2.175570 0.058100 
#    z 0.020800 0.058100 2.134880 
# 
# From -- ./inp_files/376919.got.cif
#   From: 2010.05.17/outbox.cif.g08.bks.cpg/sg2_189_cif.got.tgz:376919.got - 2010.06.03 11:33:40.
