data_PCOD9031451
_publ_section_title
;
Structure prediction by ZEFSAII (Michael W. Deem and Ramdas Pophale) SiO2 
 PCOD9031451
Probable space group: P -1
;
_chemical_formula_sum "Si O2"
_cell_formula_units_Z 14
_cell_length_a 13.932502
_cell_length_b 19.000486
_cell_length_c 6.583889
_cell_angle_alpha 101.618010
_cell_angle_beta 96.858679
_cell_angle_gamma 20.618682
_cell_volume 589.012931
_symmetry_space_group_name_H-M "P -1"
_symmetry_group_IT_number 2
_symmetry_cell_setting 'triclinic'
loop_
_space_group_symop_operation_xyz
x,y,z
-x,-y,-z
loop_
_atom_site_type_symbol
_atom_site_label
_atom_site_fract_x
_atom_site_fract_y
_atom_site_fract_z
Si Si1 0.713115 0.662655 0.091466
Si Si2 0.574309 0.869927 0.523203
Si Si3 0.729020 0.412973 0.435370
Si Si4 0.146182 0.524525 0.629485
Si Si5 0.607091 0.373456 0.136143
Si Si6 0.842547 0.163148 0.705035
Si Si7 0.366962 0.894280 0.737018
O O1 0.586307 0.806184 0.304531
O O2 0.790197 0.535542 0.154640
O O3 0.497095 0.802809 0.939135
O O4 0.000000 0.500000 0.000000
O O5 0.379363 0.966472 0.693618
O O6 0.879529 0.664108 0.579892
O O7 0.500000 0.000000 0.500000
O O8 0.908453 0.355392 0.378383
O O9 0.810505 0.279100 0.280477
O O10 0.640337 0.476110 0.685500
O O11 0.435909 0.629156 0.372152
O O12 0.415096 0.307270 0.451497
O O13 0.500000 0.500000 0.000000
O O14 0.745793 0.214197 0.942965
O O15 0.000000 0.000000 0.500000
O O16 0.063428 0.073076 0.742080
#
# Coordination Sequence:
#
# PCOD9031451 Si02
#       7
#     2   2   2   2   2   2   2
#     4  11  21  44  69  92 129 176 221 270 334 406
#     4  11  25  42  65 101 135 168 221 282 336 396
#     4  10  22  43  66  97 139 176 220 275 337 404
#     4  11  22  42  70  98 133 176 224 275 336 407
#     4   9  22  42  64  93 137 180 218 274 334 397
#     4  11  23  42  64 102 131 173 229 273 332 396
#     4  11  23  43  67  97 134 176 221 279 334 403
#
# _framework density 23.76858
#
# number of rings (size 3 to 8) (size 9 to 14) (size 15 to 20)
#    0.000    1.429    4.286    0.857    0.000   10.286 
#    2.571    0.000    0.000    0.000    0.000    0.000 
#    0.000    0.000    0.000    0.000    0.000    0.000 
#
# Total GULP energy -78191.577986 kJ/mol
# GULP energy per Si atom -5585.112713 kJ/mol
# Density = 2.371448 g / cm^3
# Si number density = 23.768580 Si / 1000 Ang^3
#
#
#
# Elastic Constant Matrix: (Units=GPa)
#
#
# Indices 1 2 3 4 5 6 
#
# 1 115.8906 3.7855 45.6899 -13.3933 -9.9928 -14.1327
# 2 3.7855 68.8561 24.7407 -14.4954 7.2425 -20.0762
# 3 45.6899 24.7407 171.5740 -3.5763 -9.5120 0.3258
# 4 -13.3933 -14.4954 -3.5763 31.8399 4.3497 7.6211
# 5 -9.9928 7.2425 -9.5120 4.3497 29.4818 -4.7487
# 6 -14.1327 -20.0762 0.3258 7.6211 -4.7487 46.3059
#
#
#
# Elastic Compliance Matrix: (Units=1/GPa)
#
#
# Indices 1 2 3 4 5 6 
#
# 1 0.010872 0.002232 -0.003019 0.004025 0.002192 0.003870
# 2 0.002232 0.020324 -0.003662 0.008732 -0.005495 0.007518
# 3 -0.003019 -0.003662 0.007244 -0.001937 0.002174 -0.002018
# 4 0.004025 0.008732 -0.001937 0.038357 -0.007394 -0.002044
# 5 0.002192 -0.005495 0.002174 -0.007394 0.038356 0.003422
# 6 0.003870 0.007518 -0.002018 -0.002044 0.003422 0.026737
#
#
# Mechanical properties :
#
#
# Convention : Reuss Voigt Hill
#
# Bulk Modulus (GPa) = 33.84922 56.08365 44.96643
# Shear Modulus (GPa) = 31.12611 40.33251 35.72931
#
# Velocity S-wave (km/s) = 3.62269 4.12379 3.88134
# Velocity P-wave (km/s) = 5.63654 6.80596 6.24867
#
# Compressibility (1/GPa) = 0.02954278
#
# Stress axis : x y z
#
# Youngs Moduli (GPa) = 91.97758 49.20214 138.03748
#
# Poissons Ratio (x) = -0.10982 0.41674
# Poissons Ratio (y) = -0.20529 0.50550
# Poissons Ratio (z) = 0.27768 0.18018
#
# Static dielectric constant tensor:
#      x y z
#    x 2.166440 0.167660 0.120130 
#    y 0.167660 1.993470 0.124530 
#    z 0.120130 0.124530 2.048270 
# 
# From -- ./inp_files/100638.got.cif
#   From: 2010.05.17/outbox.cif.g08.bks.cpg/sg2_51_cif.got.tgz:100638.got - 2010.06.03 11:33:40.
