data_PCOD9031329
_publ_section_title
;
Structure prediction by ZEFSAII (Michael W. Deem and Ramdas Pophale) SiO2 
 PCOD9031329
Probable space group: P -1
;
_chemical_formula_sum "Si O2"
_cell_formula_units_Z 16
_cell_length_a 9.424364
_cell_length_b 21.895271
_cell_length_c 13.235912
_cell_angle_alpha 35.399869
_cell_angle_beta 151.852547
_cell_angle_gamma 134.455079
_cell_volume 744.671289
_symmetry_space_group_name_H-M "P -1"
_symmetry_group_IT_number 2
_symmetry_cell_setting 'triclinic'
loop_
_space_group_symop_operation_xyz
x,y,z
-x,-y,-z
loop_
_atom_site_type_symbol
_atom_site_label
_atom_site_fract_x
_atom_site_fract_y
_atom_site_fract_z
Si Si1 0.094327 0.310333 0.569101
Si Si2 0.652108 0.201063 0.754585
Si Si3 0.819237 0.403121 0.475647
Si Si4 0.231828 0.130717 0.757775
Si Si5 0.355945 0.575558 0.218970
Si Si6 0.221589 0.028690 0.362110
Si Si7 0.238459 0.503052 0.018672
Si Si8 0.324492 0.048152 0.624278
O O1 0.068768 0.198638 0.652301
O O2 0.451125 0.324253 0.786702
O O3 0.963221 0.340191 0.555970
O O4 0.939067 0.394681 0.278591
O O5 0.749330 0.316935 0.632717
O O6 0.460631 0.194188 0.747344
O O7 0.413421 0.156559 0.585385
O O8 0.960992 0.123310 0.049169
O O9 0.000000 0.500000 0.500000
O O10 0.499557 0.459286 0.169427
O O11 0.975301 0.074160 0.611678
O O12 0.441931 0.037761 0.063746
O O13 0.500000 0.500000 0.500000
O O14 0.001358 0.585106 0.001128
O O15 0.373531 0.528534 0.179494
O O16 0.367310 0.057124 0.520517
O O17 0.500000 0.000000 0.500000
O O18 0.000000 0.000000 0.500000
#
# Coordination Sequence:
#
# PCOD9031329 Si02
#       8
#     2   2   2   2   2   2   2   2
#     4  11  25  42  66  99 133 178 231 285 346 395
#     4  11  26  45  69 104 137 184 236 275 343 417
#     4  12  27  47  66  97 146 186 230 297 342 400
#     4  11  25  43  72 105 140 174 232 286 331 432
#     4   9  20  39  65  92 122 169 234 280 332 396
#     4  11  25  45  73 106 142 174 221 287 351 415
#     4  10  22  43  66  87 132 182 232 279 340 404
#     4  11  21  47  74 102 139 180 221 278 353 419
#
# _framework density 21.485992
#
# number of rings (size 3 to 8) (size 9 to 14) (size 15 to 20)
#    0.000    1.250    3.750    1.125    8.750    4.000 
#    2.250    0.000    0.000    0.000    0.000    0.000 
#    0.000    0.000    0.000    0.000    0.000    0.000 
#
# Total GULP energy -89246.613055 kJ/mol
# GULP energy per Si atom -5577.913316 kJ/mol
# Density = 2.143709 g / cm^3
# Si number density = 21.485992 Si / 1000 Ang^3
#
#
#
# Elastic Constant Matrix: (Units=GPa)
#
#
# Indices 1 2 3 4 5 6 
#
# 1 99.1116 35.7388 35.1584 6.6156 4.7933 -4.4899
# 2 35.7388 107.5410 31.3952 -4.6001 -0.3932 0.7175
# 3 35.1584 31.3952 35.0839 10.8601 -6.5924 5.8056
# 4 6.6156 -4.6001 10.8601 26.9806 -2.1280 -5.2775
# 5 4.7933 -0.3932 -6.5924 -2.1280 36.1403 3.6386
# 6 -4.4899 0.7175 5.8056 -5.2775 3.6386 31.5952
#
#
#
# Elastic Compliance Matrix: (Units=1/GPa)
#
#
# Indices 1 2 3 4 5 6 
#
# 1 0.018901 0.001293 -0.025231 0.006966 -0.007625 0.009334
# 2 0.001293 0.015086 -0.019847 0.011088 -0.003554 0.005749
# 3 -0.025231 -0.019847 0.092016 -0.038247 0.020563 -0.028799
# 4 0.006966 0.011088 -0.038247 0.055623 -0.006295 0.017782
# 5 -0.007625 -0.003554 0.020563 -0.006295 0.032993 -0.009632
# 6 0.009334 0.005749 -0.028799 0.017782 -0.009632 0.042218
#
#
# Mechanical properties :
#
#
# Convention : Reuss Voigt Hill
#
# Bulk Modulus (GPa) = 26.01963 49.59126 37.80545
# Shear Modulus (GPa) = 13.99709 28.23950 21.11830
#
# Velocity S-wave (km/s) = 2.55512 3.62929 3.13850
# Velocity P-wave (km/s) = 4.56522 6.37912 5.54682
#
# Compressibility (1/GPa) = 0.03843252
#
# Stress axis : x y z
#
# Youngs Moduli (GPa) = 52.90865 66.28590 10.86765
#
# Poissons Ratio (x) = -0.08568 0.27420
# Poissons Ratio (y) = -0.06839 0.21569
# Poissons Ratio (z) = 1.33494 1.31556
#
# Static dielectric constant tensor:
#      x y z
#    x 1.847100 -0.005720 0.008290 
#    y -0.005720 1.822240 -0.008900 
#    z 0.008290 -0.008900 1.777690 
# 
# From -- ./inp_files/38869.got.cif
#   From: 2010.05.17/outbox.cif.g08.bks.cpg/sg2_20_cif.got.tgz:38869.got - 2010.06.03 11:33:40.
