data_PCOD9031407
_publ_section_title
;
Structure prediction by ZEFSAII (Michael W. Deem and Ramdas Pophale) SiO2 
 PCOD9031407
Probable space group: P -1
;
_chemical_formula_sum "Si O2"
_cell_formula_units_Z 16
_cell_length_a 8.382770
_cell_length_b 23.415118
_cell_length_c 5.391511
_cell_angle_alpha 62.003710
_cell_angle_beta 131.189843
_cell_angle_gamma 125.526743
_cell_volume 641.594555
_symmetry_space_group_name_H-M "P -1"
_symmetry_group_IT_number 2
_symmetry_cell_setting 'triclinic'
loop_
_space_group_symop_operation_xyz
x,y,z
-x,-y,-z
loop_
_atom_site_type_symbol
_atom_site_label
_atom_site_fract_x
_atom_site_fract_y
_atom_site_fract_z
Si Si1 0.476862 0.953403 0.830700
Si Si2 0.203123 0.294393 0.693586
Si Si3 0.191335 0.080635 0.045521
Si Si4 0.745983 0.450671 0.228642
Si Si5 0.323209 0.421867 0.245187
Si Si6 0.404392 0.200593 0.370912
Si Si7 0.000545 0.170837 0.411339
Si Si8 0.126812 0.676559 0.321946
O O1 0.250614 0.883617 0.802112
O O2 0.500000 0.000000 0.500000
O O3 0.665187 0.921980 0.041517
O O4 0.500000 0.000000 0.000000
O O5 0.047552 0.246768 0.408638
O O6 0.024642 0.296910 0.709187
O O7 0.362770 0.254682 0.023196
O O8 0.344715 0.374255 0.587994
O O9 0.045997 0.127152 0.773485
O O10 0.375424 0.127636 0.347923
O O11 0.000000 0.000000 0.000000
O O12 0.694188 0.503405 0.877621
O O13 0.779062 0.379131 0.345999
O O14 0.000000 0.500000 0.500000
O O15 0.533290 0.431959 0.247970
O O16 0.067383 0.372759 0.970350
O O17 0.643818 0.251650 0.646401
O O18 0.189140 0.180678 0.376430
#
# Coordination Sequence:
#
# PCOD9031407 Si02
#       8
#     2   2   2   2   2   2   2   2
#     4  12  27  45  73 105 141 183 237 301 372 440
#     4  11  24  41  64  97 135 174 233 284 353 418
#     4  11  24  45  69  99 133 178 232 287 359 428
#     4   9  20  40  68  97 132 181 227 279 355 419
#     4  10  22  43  66  95 137 177 228 288 347 423
#     4  11  26  43  68  97 136 182 236 286 358 428
#     4  11  25  44  68  94 136 181 228 292 354 433
#     4  11  22  41  66  96 135 176 231 285 351 423
#
# _framework density 24.937867000000001
#
# number of rings (size 3 to 8) (size 9 to 14) (size 15 to 20)
#    0.000    1.250    1.250    3.750    3.500    7.500 
#    0.000    8.750    0.000    0.000    0.000    0.000 
#    0.000    0.000    0.000    0.000    0.000    0.000 
#
# Total GULP energy -89247.712298 kJ/mol
# GULP energy per Si atom -5577.982019 kJ/mol
# Density = 2.488111 g / cm^3
# Si number density = 24.937867 Si / 1000 Ang^3
#
#
#
# Elastic Constant Matrix: (Units=GPa)
#
#
# Indices 1 2 3 4 5 6 
#
# 1 73.4534 57.3720 -0.1612 25.1537 -3.4218 7.0068
# 2 57.3720 231.2314 47.9431 24.7094 8.8709 8.1181
# 3 -0.1612 47.9431 73.0198 -6.8955 9.8203 2.4413
# 4 25.1537 24.7094 -6.8955 53.6883 1.9845 10.0259
# 5 -3.4218 8.8709 9.8203 1.9845 31.1908 2.3606
# 6 7.0068 8.1181 2.4413 10.0259 2.3606 61.4962
#
#
#
# Elastic Compliance Matrix: (Units=1/GPa)
#
#
# Indices 1 2 3 4 5 6 
#
# 1 0.019895 -0.004737 0.002078 -0.006861 0.003368 -0.000735
# 2 -0.004737 0.006575 -0.004330 -0.001346 -0.000948 0.000100
# 3 0.002078 -0.004330 0.017471 0.003564 -0.004209 -0.000778
# 4 -0.006861 -0.001346 0.003564 0.023565 -0.002771 -0.002918
# 5 0.003368 -0.000948 -0.004209 -0.002771 0.034274 -0.000955
# 6 -0.000735 0.000100 -0.000778 -0.002918 -0.000955 0.016875
#
#
# Mechanical properties :
#
#
# Convention : Reuss Voigt Hill
#
# Bulk Modulus (GPa) = 33.37514 65.33469 49.35492
# Shear Modulus (GPa) = 35.05780 47.44510 41.25145
#
# Velocity S-wave (km/s) = 3.75348 4.36653 4.07156
# Velocity P-wave (km/s) = 5.67425 7.18874 6.47592
#
# Compressibility (1/GPa) = 0.02996242
#
# Stress axis : x y z
#
# Youngs Moduli (GPa) = 50.26264 152.10003 57.23692
#
# Poissons Ratio (x) = 0.72057 -0.11894
# Poissons Ratio (y) = 0.23812 0.24784
# Poissons Ratio (z) = -0.10445 0.65861
#
# Static dielectric constant tensor:
#      x y z
#    x 1.843000 -0.008880 -0.023930 
#    y -0.008880 2.039540 -0.013080 
#    z -0.023930 -0.013080 2.285630 
# 
# From -- ./inp_files/55393.got.cif
#   From: 2010.05.17/outbox.cif.g08.bks.cpg/sg2_28_cif.got.tgz:55393.got - 2010.06.03 11:33:40.
