data_PCOD9031500
_publ_section_title
;
Structure prediction by ZEFSAII (Michael W. Deem and Ramdas Pophale) SiO2 
 PCOD9031500
Probable space group: P -1
;
_chemical_formula_sum "Si O2"
_cell_formula_units_Z 16
_cell_length_a 10.163719
_cell_length_b 9.461529
_cell_length_c 11.246822
_cell_angle_alpha 49.722068
_cell_angle_beta 50.963609
_cell_angle_gamma 63.888073
_cell_volume 639.923167
_symmetry_space_group_name_H-M "P -1"
_symmetry_group_IT_number 2
_symmetry_cell_setting 'triclinic'
loop_
_space_group_symop_operation_xyz
x,y,z
-x,-y,-z
loop_
_atom_site_type_symbol
_atom_site_label
_atom_site_fract_x
_atom_site_fract_y
_atom_site_fract_z
Si Si1 0.641606 0.977787 0.534225
Si Si2 0.713619 0.542351 0.158130
Si Si3 0.953720 0.792637 0.168307
Si Si4 0.019942 0.428372 0.202233
Si Si5 0.760063 0.203322 0.825786
Si Si6 0.398526 0.143632 0.767738
Si Si7 0.998429 0.888986 0.440239
Si Si8 0.448779 0.431423 0.196036
O O1 0.567703 0.098053 0.621978
O O2 0.843763 0.988159 0.398011
O O3 0.633241 0.758430 0.680730
O O4 0.500000 0.000000 0.500000
O O5 0.840123 0.429200 0.236717
O O6 0.601175 0.410501 0.215735
O O7 0.610214 0.701002 0.208039
O O8 0.834395 0.632992 0.941238
O O9 0.033726 0.645486 0.108342
O O10 0.053777 0.753249 0.253149
O O11 0.751911 0.786177 0.276651
O O12 0.000000 0.000000 0.000000
O O13 0.023628 0.317982 0.383203
O O14 0.662277 0.399796 0.775112
O O15 0.816102 0.108920 0.723350
O O16 0.662514 0.051954 0.038707
O O17 0.000000 0.000000 0.500000
O O18 0.500000 0.500000 0.000000
#
# Coordination Sequence:
#
# PCOD9031500 Si02
#       8
#     2   2   2   2   2   2   2   2
#     4  12  28  47  72 105 149 182 237 297 360 417
#     4  10  23  41  73 100 137 184 238 291 357 417
#     4   9  19  37  67 100 133 173 232 286 350 411
#     4  10  22  43  67 101 142 182 238 293 351 429
#     4  11  23  41  71  99 139 184 236 285 350 424
#     4  10  22  43  71 104 134 184 236 287 345 429
#     4  12  28  45  68 102 146 190 232 294 358 419
#     4  12  25  44  72 106 137 187 235 299 351 420
#
# _framework density 25.003003
#
# number of rings (size 3 to 8) (size 9 to 14) (size 15 to 20)
#    0.000    1.250    1.250    3.750    5.250    5.500 
#    0.000    1.250    0.000    0.000    0.000    0.000 
#    0.000    0.000    0.000    0.000    0.000    0.000 
#
# Total GULP energy -89448.476126 kJ/mol
# GULP energy per Si atom -5590.529758 kJ/mol
# Density = 2.494609 g / cm^3
# Si number density = 25.003003 Si / 1000 Ang^3
#
#
#
# Elastic Constant Matrix: (Units=GPa)
#
#
# Indices 1 2 3 4 5 6 
#
# 1 71.9127 3.5947 -6.9095 10.3286 7.7783 -3.9533
# 2 3.5947 118.8770 20.6055 25.8080 -13.1878 3.0914
# 3 -6.9095 20.6055 58.0631 18.5373 1.0456 -17.9258
# 4 10.3286 25.8080 18.5373 50.6441 -5.3363 -3.8064
# 5 7.7783 -13.1878 1.0456 -5.3363 22.8088 -0.5977
# 6 -3.9533 3.0914 -17.9258 -3.8064 -0.5977 37.6693
#
#
#
# Elastic Compliance Matrix: (Units=1/GPa)
#
#
# Indices 1 2 3 4 5 6 
#
# 1 0.016237 -0.001229 0.005283 -0.005143 -0.007597 0.003679
# 2 -0.001229 0.010577 -0.003898 -0.003329 0.005854 -0.003096
# 3 0.005283 -0.003898 0.025784 -0.008336 -0.006868 0.012193
# 4 -0.005143 -0.003329 -0.008336 0.026091 0.006276 -0.001497
# 5 -0.007597 0.005854 -0.006868 0.006276 0.051520 -0.003094
# 6 0.003679 -0.003096 0.012193 -0.001497 -0.003094 0.032789
#
#
# Mechanical properties :
#
#
# Convention : Reuss Voigt Hill
#
# Bulk Modulus (GPa) = 18.89986 31.49270 25.19628
# Shear Modulus (GPa) = 27.72795 37.66191 32.69493
#
# Velocity S-wave (km/s) = 3.33376 3.88531 3.62005
# Velocity P-wave (km/s) = 4.73223 5.72280 5.25093
#
# Compressibility (1/GPa) = 0.05291043
#
# Stress axis : x y z
#
# Youngs Moduli (GPa) = 61.58657 94.54091 38.78364
#
# Poissons Ratio (x) = 0.11615 -0.20488
# Poissons Ratio (y) = 0.07566 0.15119
# Poissons Ratio (z) = -0.32534 0.36855
#
# Static dielectric constant tensor:
#      x y z
#    x 2.856850 0.348360 -0.575680 
#    y 0.348360 1.926630 0.157030 
#    z -0.575680 0.157030 1.715880 
# 
# From -- ./inp_files/416438.got.cif
#   From: 2010.05.17/outbox.cif.g08.bks.cpg/sg2_209_cif.got.tgz:416438.got - 2010.06.03 11:33:40.
