data_PCOD9031095
_publ_section_title
;
Structure prediction by ZEFSAII (Michael W. Deem and Ramdas Pophale) SiO2 
 PCOD9031095
Probable space group: P -1
;
_chemical_formula_sum "Si O2"
_cell_formula_units_Z 16
_cell_length_a 20.517181
_cell_length_b 20.704154
_cell_length_c 8.515797
_cell_angle_alpha 128.807465
_cell_angle_beta 41.256447
_cell_angle_gamma 160.210716
_cell_volume 753.064545
_symmetry_space_group_name_H-M "P -1"
_symmetry_group_IT_number 2
_symmetry_cell_setting 'triclinic'
loop_
_space_group_symop_operation_xyz
x,y,z
-x,-y,-z
loop_
_atom_site_type_symbol
_atom_site_label
_atom_site_fract_x
_atom_site_fract_y
_atom_site_fract_z
Si Si1 0.384495 0.616835 0.787645
Si Si2 0.632006 0.583864 0.561053
Si Si3 0.921387 0.491156 0.977458
Si Si4 0.960232 0.248712 0.209887
Si Si5 0.949739 0.018352 0.381687
Si Si6 0.664955 0.156815 0.793316
Si Si7 0.116722 0.202297 0.022177
Si Si8 0.669354 0.068842 0.197546
O O1 0.310639 0.469774 0.628363
O O2 0.322855 0.640483 0.806140
O O3 0.668356 0.825524 0.637242
O O4 0.195827 0.479237 0.066641
O O5 0.500000 0.500000 0.500000
O O6 0.860465 0.811808 0.563562
O O7 0.408736 0.424430 0.841406
O O8 0.890353 0.390605 0.765502
O O9 0.125920 0.714029 0.910569
O O10 0.000000 0.500000 0.000000
O O11 0.782346 0.167586 0.514466
O O12 0.795389 0.100539 0.130489
O O13 0.041975 0.230827 0.124048
O O14 0.011674 0.113252 0.251251
O O15 0.958439 0.930003 0.163918
O O16 0.490198 0.079263 0.884059
O O17 0.500000 0.000000 0.000000
O O18 0.500000 0.000000 0.500000
#
# Coordination Sequence:
#
# PCOD9031095 Si02
#       8
#     2   2   2   2   2   2   2   2
#     4  10  24  41  64 100 134 175 227 270 341 401
#     4  11  22  45  69  97 141 176 220 282 335 402
#     4  11  23  41  64  95 135 168 227 278 323 398
#     4  10  22  43  64  96 138 164 227 278 330 401
#     4  10  24  42  73  95 137 177 222 279 336 410
#     4  11  23  41  69  92 128 182 224 274 341 388
#     4  10  22  44  65 103 131 172 227 274 341 400
#     4   9  21  40  61  89 128 167 214 277 325 391
#
# _framework density 21.246518999999999
#
# number of rings (size 3 to 8) (size 9 to 14) (size 15 to 20)
#    0.000    1.750    2.500    0.375    1.750    9.500 
#    2.250    3.750    0.000    0.000    0.000    0.000 
#    0.000    0.000    0.000    0.000    0.000    0.000 
#
# Total GULP energy -89090.930689 kJ/mol
# GULP energy per Si atom -5568.183168 kJ/mol
# Density = 2.119816 g / cm^3
# Si number density = 21.246519 Si / 1000 Ang^3
#
#
#
# Elastic Constant Matrix: (Units=GPa)
#
#
# Indices 1 2 3 4 5 6 
#
# 1 116.8141 28.7890 40.2493 9.4152 -10.6058 2.2161
# 2 28.7890 101.5331 21.4628 -2.1001 1.4177 31.1834
# 3 40.2493 21.4628 97.5473 -20.1949 -4.1726 8.0061
# 4 9.4152 -2.1001 -20.1949 28.7955 -6.8060 -0.8962
# 5 -10.6058 1.4177 -4.1726 -6.8060 30.4425 2.8210
# 6 2.2161 31.1834 8.0061 -0.8962 2.8210 32.1782
#
#
#
# Elastic Compliance Matrix: (Units=1/GPa)
#
#
# Indices 1 2 3 4 5 6 
#
# 1 0.012297 -0.003509 -0.006250 -0.008210 0.001407 0.003756
# 2 -0.003509 0.015444 -0.000482 0.001401 -0.000348 -0.014535
# 3 -0.006250 -0.000482 0.016269 0.014156 0.003524 -0.003065
# 4 -0.008210 0.001401 0.014156 0.049805 0.010506 -0.003848
# 5 0.001407 -0.000348 0.003524 0.010506 0.036516 -0.003545
# 6 0.003756 -0.014535 -0.003065 -0.003848 -0.003545 0.045870
#
#
# Mechanical properties :
#
#
# Convention : Reuss Voigt Hill
#
# Bulk Modulus (GPa) = 42.50134 55.21077 48.85605
# Shear Modulus (GPa) = 24.44688 33.30947 28.87818
#
# Velocity S-wave (km/s) = 3.39577 3.96379 3.69073
# Velocity P-wave (km/s) = 5.95167 6.85500 6.41925
#
# Compressibility (1/GPa) = 0.02352867
#
# Stress axis : x y z
#
# Youngs Moduli (GPa) = 81.32085 64.75107 61.46620
#
# Poissons Ratio (x) = 0.22719 0.38415
# Poissons Ratio (y) = 0.28533 0.02964
# Poissons Ratio (z) = 0.50823 0.03122
#
# Static dielectric constant tensor:
#      x y z
#    x 1.829930 0.023550 -0.000310 
#    y 0.023550 1.781980 -0.020340 
#    z -0.000310 -0.020340 1.788590 
# 
# From -- ./inp_files/349541.got.cif
#   From: 2010.05.17/outbox.cif.g08.bks.cpg/sg2_175_cif.got.tgz:349541.got - 2010.06.03 11:33:40.
