data_PCOD9031566
_publ_section_title
;
Structure prediction by ZEFSAII (Michael W. Deem and Ramdas Pophale) SiO2 
 PCOD9031566
Probable space group: P -1
;
_chemical_formula_sum "Si O2"
_cell_formula_units_Z 16
_cell_length_a 24.895451
_cell_length_b 14.751271
_cell_length_c 9.685385
_cell_angle_alpha 131.548043
_cell_angle_beta 148.071599
_cell_angle_gamma 26.543224
_cell_volume 768.116941
_symmetry_space_group_name_H-M "P -1"
_symmetry_group_IT_number 2
_symmetry_cell_setting 'triclinic'
loop_
_space_group_symop_operation_xyz
x,y,z
-x,-y,-z
loop_
_atom_site_type_symbol
_atom_site_label
_atom_site_fract_x
_atom_site_fract_y
_atom_site_fract_z
Si Si1 0.281999 0.276050 0.462765
Si Si2 0.012301 0.658453 0.673917
Si Si3 0.486203 0.438122 0.763957
Si Si4 0.986422 0.744276 0.386473
Si Si5 0.590256 0.097455 0.787868
Si Si6 0.283921 0.194963 0.701889
Si Si7 0.112774 0.807680 0.163505
Si Si8 0.115170 0.879337 0.770786
O O1 0.093152 0.545442 0.314446
O O2 0.451709 0.195528 0.707692
O O3 0.266766 0.247928 0.558522
O O4 0.328190 0.108695 0.307826
O O5 0.966674 0.713773 0.467825
O O6 0.167210 0.398836 0.755305
O O7 0.824408 0.820802 0.515041
O O8 0.114090 0.674978 0.966478
O O9 0.482494 0.298731 0.655965
O O10 0.315299 0.642488 0.496742
O O11 0.500000 0.500000 0.000000
O O12 0.678057 0.279554 0.949914
O O13 0.104321 0.749371 0.658385
O O14 0.776952 0.980691 0.121472
O O15 0.500000 0.000000 0.000000
O O16 0.990329 0.933850 0.160897
O O17 0.000000 0.000000 0.000000
O O18 0.000000 0.000000 0.500000
#
# Coordination Sequence:
#
# PCOD9031566 Si02
#       8
#     2   2   2   2   2   2   2   2
#     4  10  24  39  62 101 128 180 223 283 337 407
#     4  10  24  42  66  99 131 179 223 284 343 410
#     4  12  26  45  72 103 138 187 231 288 348 419
#     4  11  21  44  66  94 137 176 224 283 347 401
#     4  11  23  41  65  98 135 172 231 281 338 410
#     4  10  22  43  67  93 134 177 226 277 345 410
#     4  12  27  48  70 104 142 179 234 294 346 414
#     4  12  24  44  72 102 135 183 230 281 351 411
#
# _framework density 20.830162000000001
#
# number of rings (size 3 to 8) (size 9 to 14) (size 15 to 20)
#    0.000    1.000    3.750    1.875    3.500    0.500 
#    9.000    0.000    0.000    0.000    0.000    0.000 
#    0.000    0.000    0.000    0.000    0.000    0.000 
#
# Total GULP energy -89225.878774 kJ/mol
# GULP energy per Si atom -5576.617423 kJ/mol
# Density = 2.078275 g / cm^3
# Si number density = 20.830162 Si / 1000 Ang^3
#
#
#
# Elastic Constant Matrix: (Units=GPa)
#
#
# Indices 1 2 3 4 5 6 
#
# 1 104.1742 15.4688 29.7448 -19.5150 20.3147 -15.5778
# 2 15.4688 67.0768 28.1326 -10.0694 3.9185 -13.0331
# 3 29.7448 28.1326 96.0714 -24.6398 6.1766 -11.4461
# 4 -19.5150 -10.0694 -24.6398 40.2259 -1.2225 8.3867
# 5 20.3147 3.9185 6.1766 -1.2225 37.0296 -3.1016
# 6 -15.5778 -13.0331 -11.4461 8.3867 -3.1016 37.3059
#
#
#
# Elastic Compliance Matrix: (Units=1/GPa)
#
#
# Indices 1 2 3 4 5 6 
#
# 1 0.012649 -0.000532 -0.001981 0.003959 -0.006163 0.003086
# 2 -0.000532 0.017844 -0.004340 0.000596 -0.000475 0.004507
# 3 -0.001981 -0.004340 0.014035 0.006434 -0.000543 0.000471
# 4 0.003959 0.000596 0.006434 0.031515 -0.002558 -0.003462
# 5 -0.006163 -0.000475 -0.000543 -0.002558 0.030460 0.000201
# 6 0.003086 0.004507 0.000471 -0.003462 0.000201 0.030608
#
#
# Mechanical properties :
#
#
# Convention : Reuss Voigt Hill
#
# Bulk Modulus (GPa) = 32.44585 46.00166 39.22375
# Shear Modulus (GPa) = 31.03839 35.84402 33.44120
#
# Velocity S-wave (km/s) = 3.86433 4.15272 4.01112
# Velocity P-wave (km/s) = 5.95994 6.71756 6.35006
#
# Compressibility (1/GPa) = 0.03082058
#
# Stress axis : x y z
#
# Youngs Moduli (GPa) = 79.05785 56.04054 71.25295
#
# Poissons Ratio (x) = 0.02983 0.14116
# Poissons Ratio (y) = 0.04208 0.30925
# Poissons Ratio (z) = 0.15662 0.24323
#
# Static dielectric constant tensor:
#      x y z
#    x 1.785120 0.079200 -0.008240 
#    y 0.079200 1.821920 -0.000940 
#    z -0.008240 -0.000940 1.750850 
# 
# From -- ./inp_files/354605.got.cif
#   From: 2010.05.17/outbox.cif.g08.bks.cpg/sg2_178_cif.got.tgz:354605.got - 2010.06.03 11:33:40.
