data_PCOD9031366
_publ_section_title
;
Structure prediction by ZEFSAII (Michael W. Deem and Ramdas Pophale) SiO2 
 PCOD9031366
Probable space group: P -1
;
_chemical_formula_sum "Si O2"
_cell_formula_units_Z 14
_cell_length_a 8.924409
_cell_length_b 7.369161
_cell_length_c 13.893389
_cell_angle_alpha 39.089739
_cell_angle_beta 102.017589
_cell_angle_gamma 91.803001
_cell_volume 550.808224
_symmetry_space_group_name_H-M "P -1"
_symmetry_group_IT_number 2
_symmetry_cell_setting 'triclinic'
loop_
_space_group_symop_operation_xyz
x,y,z
-x,-y,-z
loop_
_atom_site_type_symbol
_atom_site_label
_atom_site_fract_x
_atom_site_fract_y
_atom_site_fract_z
Si Si1 0.769359 0.699957 0.173941
Si Si2 0.333216 0.639459 0.871564
Si Si3 0.196813 0.289862 0.280613
Si Si4 0.093741 0.809158 0.940941
Si Si5 0.109344 0.585106 0.337596
Si Si6 0.719277 0.374332 0.472008
Si Si7 0.498045 0.011787 0.378501
O O1 0.714745 0.596241 0.109811
O O2 0.665587 0.608147 0.283961
O O3 0.940898 0.524346 0.307689
O O4 0.796337 0.029617 0.043030
O O5 0.193046 0.758218 0.877793
O O6 0.364501 0.901708 0.697799
O O7 0.500000 0.500000 0.000000
O O8 0.216094 0.424061 0.332569
O O9 0.347932 0.282627 0.236370
O O10 0.186244 0.948114 0.422680
O O11 0.067571 0.520301 0.110459
O O12 0.933905 0.056856 0.812010
O O13 0.178681 0.503659 0.484992
O O14 0.572198 0.267415 0.544089
O O15 0.500000 0.000000 0.500000
#
# Coordination Sequence:
#
# PCOD9031366 Si02
#       7
#     2   2   2   2   2   2   2
#     4  10  25  41  66  97 132 166 217 282 315 388
#     4  12  22  45  66  94 134 175 217 264 331 391
#     4  10  22  43  67  92 132 174 214 277 315 392
#     4  10  25  41  66  99 131 169 218 273 324 387
#     4  10  24  42  66  99 129 165 227 262 341 373
#     4  10  22  43  68  91 131 175 215 270 323 392
#     4  10  22  43  66  93 128 172 222 260 322 385
#
# _framework density 25.417195
#
# number of rings (size 3 to 8) (size 9 to 14) (size 15 to 20)
#    1.714    0.000    2.857    0.857    2.000    6.286 
#    2.571    1.429    0.000    0.000    0.000    0.000 
#    0.000    0.000    0.000    0.000    0.000    0.000 
#
# Total GULP energy -78090.601453 kJ/mol
# GULP energy per Si atom -5577.900104 kJ/mol
# Density = 2.535934 g / cm^3
# Si number density = 25.417195 Si / 1000 Ang^3
#
#
#
# Elastic Constant Matrix: (Units=GPa)
#
#
# Indices 1 2 3 4 5 6 
#
# 1 69.5796 61.1509 17.2826 6.3955 -12.4946 12.7930
# 2 61.1509 141.8294 28.7374 25.4442 11.8771 -9.1181
# 3 17.2826 28.7374 82.6531 1.8499 -7.0594 -3.8183
# 4 6.3955 25.4442 1.8499 47.3280 3.9241 5.6564
# 5 -12.4946 11.8771 -7.0594 3.9241 31.7810 4.9252
# 6 12.7930 -9.1181 -3.8183 5.6564 4.9252 40.6733
#
#
#
# Elastic Compliance Matrix: (Units=1/GPa)
#
#
# Indices 1 2 3 4 5 6 
#
# 1 0.046131 -0.025610 0.000548 0.007957 0.030725 -0.025027
# 2 -0.025610 0.023303 -0.003563 -0.009188 -0.021033 0.016769
# 3 0.000548 -0.003563 0.013568 0.000983 0.004498 -0.000379
# 4 0.007957 -0.009188 0.000983 0.025575 0.004960 -0.008627
# 5 0.030725 -0.021033 0.004498 0.004960 0.055096 -0.021318
# 6 -0.025027 0.016769 -0.000379 -0.008627 -0.021318 0.039963
#
#
# Mechanical properties :
#
#
# Convention : Reuss Voigt Hill
#
# Bulk Modulus (GPa) = 38.83269 56.48932 47.66101
# Shear Modulus (GPa) = 18.55503 36.41588 27.48545
#
# Velocity S-wave (km/s) = 2.70482 3.78924 3.29199
# Velocity P-wave (km/s) = 5.00660 6.43565 5.76557
#
# Compressibility (1/GPa) = 0.02575150
#
# Stress axis : x y z
#
# Youngs Moduli (GPa) = 21.67723 42.91376 73.70522
#
# Poissons Ratio (x) = 1.09904 -0.04042
# Poissons Ratio (y) = 0.55516 0.26261
# Poissons Ratio (z) = -0.01189 0.15290
#
# Static dielectric constant tensor:
#      x y z
#    x 2.166270 -0.031710 0.076090 
#    y -0.031710 2.012020 0.023480 
#    z 0.076090 0.023480 2.039750 
# 
# From -- ./inp_files/408975.got.cif
#   From: 2010.05.17/outbox.cif.g08.bks.cpg/sg2_205_cif.got.tgz:408975.got - 2010.06.03 11:33:40.
