data_PCOD9031352
_publ_section_title
;
Structure prediction by ZEFSAII (Michael W. Deem and Ramdas Pophale) SiO2 
 PCOD9031352
Probable space group: P -1
;
_chemical_formula_sum "Si O2"
_cell_formula_units_Z 12
_cell_length_a 11.801336
_cell_length_b 10.220470
_cell_length_c 6.961421
_cell_angle_alpha 106.009570
_cell_angle_beta 126.075283
_cell_angle_gamma 61.197430
_cell_volume 594.649125
_symmetry_space_group_name_H-M "P -1"
_symmetry_group_IT_number 2
_symmetry_cell_setting 'triclinic'
loop_
_space_group_symop_operation_xyz
x,y,z
-x,-y,-z
loop_
_atom_site_type_symbol
_atom_site_label
_atom_site_fract_x
_atom_site_fract_y
_atom_site_fract_z
Si Si1 0.776864 0.201086 0.844863
Si Si2 0.260253 0.214908 0.913712
Si Si3 0.476940 0.151678 0.428915
Si Si4 0.944129 0.955364 0.228909
Si Si5 0.142971 0.547139 0.850565
Si Si6 0.205249 0.328626 0.498474
O O1 0.625335 0.185473 0.615957
O O2 0.907460 0.140030 0.788225
O O3 0.757132 0.366451 0.947818
O O4 0.842302 0.098012 0.056347
O O5 0.157097 0.136220 0.861813
O O6 0.179834 0.394168 0.939204
O O7 0.264006 0.209012 0.683432
O O8 0.423197 0.150388 0.156362
O O9 0.331058 0.278727 0.440784
O O10 0.500000 0.000000 0.500000
O O11 0.000000 0.000000 0.500000
O O12 0.176899 0.485123 0.639690
O O13 0.962609 0.654153 0.727259
#
# Coordination Sequence:
#
# PCOD9031352 Si02
#       6
#     2   2   2   2   2   2
#     4  11  25  41  59  96 130 157 212 262 305 372
#     4  10  22  43  66  92 120 170 207 254 314 367
#     4  12  25  40  62  94 137 167 194 262 322 372
#     4  11  24  40  66  91 123 168 213 255 305 371
#     4   9  21  45  67  92 122 164 218 261 296 370
#     4   9  22  42  67  92 125 162 216 253 310 370
#
# _framework density 20.179967000000001
#
# number of rings (size 3 to 8) (size 9 to 14) (size 15 to 20)
#    1.000    0.667    1.667    2.000    4.667    6.000 
#    0.000    0.000    0.000    0.000    0.000    0.000 
#    0.000    0.000    0.000    0.000    0.000    0.000 
#
# Total GULP energy -67008.313705 kJ/mol
# GULP energy per Si atom -5584.026142 kJ/mol
# Density = 2.013404 g / cm^3
# Si number density = 20.179967 Si / 1000 Ang^3
#
#
#
# Elastic Constant Matrix: (Units=GPa)
#
#
# Indices 1 2 3 4 5 6 
#
# 1 48.7560 15.8561 22.7050 19.1487 11.2774 11.8680
# 2 15.8561 77.0509 23.3158 19.5952 8.6629 24.3408
# 3 22.7050 23.3158 116.9059 0.8162 18.1624 16.7626
# 4 19.1487 19.5952 0.8162 25.7984 9.6530 9.8788
# 5 11.2774 8.6629 18.1624 9.6530 39.0244 5.4309
# 6 11.8680 24.3408 16.7626 9.8788 5.4309 34.9592
#
#
#
# Elastic Compliance Matrix: (Units=1/GPa)
#
#
# Indices 1 2 3 4 5 6 
#
# 1 0.033310 0.002349 -0.006263 -0.025000 -0.000663 -0.002773
# 2 0.002349 0.019691 -0.003100 -0.013381 0.001010 -0.009397
# 3 -0.006263 -0.003100 0.011532 0.009676 -0.004813 -0.003232
# 4 -0.025000 -0.013381 0.009676 0.073821 -0.011752 -0.005871
# 5 -0.000663 0.001010 -0.004813 -0.011752 0.030686 0.000383
# 6 -0.002773 -0.009397 -0.003232 -0.005871 0.000383 0.039238
#
#
# Mechanical properties :
#
#
# Convention : Reuss Voigt Hill
#
# Bulk Modulus (GPa) = 19.79964 40.71852 30.25908
# Shear Modulus (GPa) = 20.90831 32.01213 26.46022
#
# Velocity S-wave (km/s) = 3.22233 3.98720 3.62500
# Velocity P-wave (km/s) = 4.86594 6.43572 5.70508
#
# Compressibility (1/GPa) = 0.05050597
#
# Stress axis : x y z
#
# Youngs Moduli (GPa) = 30.02130 50.78452 86.71561
#
# Poissons Ratio (x) = -0.11928 0.54306
# Poissons Ratio (y) = -0.07051 0.26878
# Poissons Ratio (z) = 0.18801 0.15741
#
# Static dielectric constant tensor:
#      x y z
#    x 1.670530 -0.027600 -0.018630 
#    y -0.027600 1.734410 0.007800 
#    z -0.018630 0.007800 1.736240 
# 
# From -- ./inp_files/60831.got.cif
#   From: 2010.05.17/outbox.cif.g08.bks.cpg/sg2_31_cif.got.tgz:60831.got - 2010.06.03 11:33:40.
