data_PCOD9031960
_publ_section_title
;
Structure prediction by ZEFSAII (Michael W. Deem and Ramdas Pophale) SiO2 
 PCOD9031960
Probable space group: P -1
;
_chemical_formula_sum "Si O2"
_cell_formula_units_Z 14
_cell_length_a 6.232030
_cell_length_b 17.209931
_cell_length_c 8.007621
_cell_angle_alpha 64.786758
_cell_angle_beta 117.949556
_cell_angle_gamma 130.097217
_cell_volume 570.470558
_symmetry_space_group_name_H-M "P -1"
_symmetry_group_IT_number 2
_symmetry_cell_setting 'triclinic'
loop_
_space_group_symop_operation_xyz
x,y,z
-x,-y,-z
loop_
_atom_site_type_symbol
_atom_site_label
_atom_site_fract_x
_atom_site_fract_y
_atom_site_fract_z
Si Si1 0.823377 0.528277 0.787582
Si Si2 0.701395 0.348311 0.691778
Si Si3 0.298767 0.999539 0.076444
Si Si4 0.284682 0.377280 0.898434
Si Si5 0.605382 0.297652 0.313503
Si Si6 0.894989 0.786799 0.295745
Si Si7 0.373778 0.881938 0.616612
O O1 0.710195 0.449067 0.662302
O O2 0.537830 0.492937 0.825682
O O3 0.072014 0.639973 0.711469
O O4 0.000000 0.500000 0.000000
O O5 0.657010 0.334011 0.490422
O O6 0.431122 0.243477 0.769994
O O7 0.997421 0.368984 0.856972
O O8 0.150218 0.884437 0.200827
O O9 0.537714 0.099338 0.177329
O O10 0.500000 0.000000 0.000000
O O11 0.000000 0.000000 0.000000
O O12 0.168148 0.309075 0.748767
O O13 0.411952 0.327718 0.110082
O O14 0.491315 0.177117 0.365198
O O15 0.035581 0.812926 0.506940
O O16 0.500000 0.000000 0.500000
#
# Coordination Sequence:
#
# PCOD9031960 Si02
#       7
#     2   2   2   2   2   2   2
#     4   9  22  43  63 106 147 185 249 302 372 452
#     4  11  23  43  71 101 146 191 239 306 374 455
#     4  11  26  46  74 109 144 191 256 311 379 454
#     4  10  22  43  69 100 147 186 238 308 371 447
#     4  11  22  43  71 105 141 195 250 299 381 448
#     4  10  23  45  64 102 143 186 238 312 365 445
#     4  10  23  46  71 101 144 191 241 312 369 445
#
# _framework density 24.541145
#
# number of rings (size 3 to 8) (size 9 to 14) (size 15 to 20)
#    0.000    1.714    1.429    1.286    2.000    5.143 
#   10.286    3.571    0.000    0.000    0.000    0.000 
#    0.000    0.000    0.000    0.000    0.000    0.000 
#
# Total GULP energy -77974.177434 kJ/mol
# GULP energy per Si atom -5569.584102 kJ/mol
# Density = 2.448529 g / cm^3
# Si number density = 24.541145 Si / 1000 Ang^3
#
#
#
# Elastic Constant Matrix: (Units=GPa)
#
#
# Indices 1 2 3 4 5 6 
#
# 1 147.9379 55.9715 64.3325 10.7653 9.8436 17.3065
# 2 55.9715 114.0714 53.0913 7.8503 5.7768 3.5256
# 3 64.3325 53.0913 103.2135 17.6466 8.6702 -2.0900
# 4 10.7653 7.8503 17.6466 45.9322 -2.3192 -5.0305
# 5 9.8436 5.7768 8.6702 -2.3192 35.0704 7.4812
# 6 17.3065 3.5256 -2.0900 -5.0305 7.4812 56.7496
#
#
#
# Elastic Compliance Matrix: (Units=1/GPa)
#
#
# Indices 1 2 3 4 5 6 
#
# 1 0.010386 -0.002568 -0.005096 -0.000412 -0.000586 -0.003155
# 2 -0.002568 0.012215 -0.004732 0.000316 -0.000076 -0.000112
# 3 -0.005096 -0.004732 0.016270 -0.004113 -0.002602 0.002426
# 4 -0.000412 0.000316 -0.004113 0.023701 0.002273 0.001756
# 5 -0.000586 -0.000076 -0.002602 0.002273 0.030274 -0.003702
# 6 -0.003155 -0.000112 0.002426 0.001756 -0.003702 0.019323
#
#
# Mechanical properties :
#
#
# Convention : Reuss Voigt Hill
#
# Bulk Modulus (GPa) = 71.03803 79.11258 75.07530
# Shear Modulus (GPa) = 35.29703 40.33894 37.81798
#
# Velocity S-wave (km/s) = 3.79658 4.05869 3.92982
# Velocity P-wave (km/s) = 6.94464 7.36686 7.15886
#
# Compressibility (1/GPa) = 0.01407697
#
# Stress axis : x y z
#
# Youngs Moduli (GPa) = 96.28758 81.86900 61.46221
#
# Poissons Ratio (x) = 0.21027 0.31323
# Poissons Ratio (y) = 0.24731 0.29084
# Poissons Ratio (z) = 0.49071 0.38741
#
# Static dielectric constant tensor:
#      x y z
#    x 2.695450 0.439320 -0.349750 
#    y 0.439320 2.294370 -0.300090 
#    z -0.349750 -0.300090 2.313890 
# 
# From -- ./inp_files/138910.got.cif
#   From: 2010.05.17/outbox.cif.g08.bks.cpg/sg2_70_cif.got.tgz:138910.got - 2010.06.03 11:33:40.
