data_PCOD9031080
_publ_section_title
;
Structure prediction by ZEFSAII (Michael W. Deem and Ramdas Pophale) SiO2 
 PCOD9031080
Probable space group: P -1
;
_chemical_formula_sum "Si O2"
_cell_formula_units_Z 14
_cell_length_a 7.956914
_cell_length_b 11.000227
_cell_length_c 8.955341
_cell_angle_alpha 66.936005
_cell_angle_beta 130.125338
_cell_angle_gamma 107.177933
_cell_volume 550.421792
_symmetry_space_group_name_H-M "P -1"
_symmetry_group_IT_number 2
_symmetry_cell_setting 'triclinic'
loop_
_space_group_symop_operation_xyz
x,y,z
-x,-y,-z
loop_
_atom_site_type_symbol
_atom_site_label
_atom_site_fract_x
_atom_site_fract_y
_atom_site_fract_z
Si Si1 0.136487 0.706470 0.218662
Si Si2 0.084338 0.137915 0.411600
Si Si3 0.169459 0.103231 0.132666
Si Si4 0.497520 0.146520 0.856582
Si Si5 0.462325 0.732019 0.658325
Si Si6 0.696154 0.524909 0.721253
Si Si7 0.310063 0.663539 0.908384
O O1 0.289117 0.795419 0.144691
O O2 0.253626 0.738345 0.427205
O O3 0.126815 0.552994 0.236242
O O4 0.899095 0.760056 0.045145
O O5 0.110365 0.096531 0.275133
O O6 0.298636 0.169844 0.620576
O O7 0.911751 0.253618 0.265495
O O8 0.000000 0.000000 0.500000
O O9 0.436197 0.127425 0.284927
O O10 0.000000 0.000000 0.000000
O O11 0.500205 0.238425 0.957758
O O12 0.500000 0.000000 0.000000
O O13 0.646526 0.669039 0.686989
O O14 0.382001 0.637891 0.793735
O O15 0.500000 0.500000 0.500000
O O16 0.704680 0.447001 0.919826
#
# Coordination Sequence:
#
# PCOD9031080 Si02
#       7
#     2   2   2   2   2   2   2
#     4  10  22  43  64  95 129 172 222 271 323 396
#     4  12  24  42  65  95 133 180 214 263 331 398
#     4  12  27  41  64 100 133 171 224 265 328 400
#     4  11  21  39  65  90 131 179 213 258 328 394
#     4  11  25  41  68  96 133 173 215 281 332 373
#     4   9  20  45  71  92 128 176 227 270 326 388
#     4  11  24  41  67 100 131 168 223 273 327 391
#
# _framework density 25.435037000000001
#
# number of rings (size 3 to 8) (size 9 to 14) (size 15 to 20)
#    0.000    1.143    5.714    0.429    6.000    1.143 
#    0.000    0.000    0.000    6.857    0.000    0.000 
#    0.000    0.000    0.000    0.000    0.000    0.000 
#
# Total GULP energy -78056.717522 kJ/mol
# GULP energy per Si atom -5575.479823 kJ/mol
# Density = 2.537715 g / cm^3
# Si number density = 25.435037 Si / 1000 Ang^3
#
#
#
# Elastic Constant Matrix: (Units=GPa)
#
#
# Indices 1 2 3 4 5 6 
#
# 1 53.5417 -10.4489 54.4505 15.9341 -6.7882 -8.8611
# 2 -10.4489 55.4653 58.8386 17.5522 9.0249 5.4976
# 3 54.4505 58.8386 231.1621 21.3166 -19.0512 3.1207
# 4 15.9341 17.5522 21.3166 55.8689 -0.9429 -0.6020
# 5 -6.7882 9.0249 -19.0512 -0.9429 41.3768 -1.7863
# 6 -8.8611 5.4976 3.1207 -0.6020 -1.7863 29.0322
#
#
#
# Elastic Compliance Matrix: (Units=1/GPa)
#
#
# Indices 1 2 3 4 5 6 
#
# 1 0.058659 0.044190 -0.024153 -0.021467 -0.011150 0.011001
# 2 0.044190 0.064507 -0.026324 -0.023126 -0.019363 0.002431
# 3 -0.024153 -0.026324 0.016727 0.008901 0.009536 -0.003414
# 4 -0.021467 -0.023126 0.008901 0.027972 0.006164 -0.002170
# 5 -0.011150 -0.019363 0.009536 0.006164 0.031149 0.001283
# 6 0.011001 0.002431 -0.003414 -0.002170 0.001283 0.037743
#
#
# Mechanical properties :
#
#
# Convention : Reuss Voigt Hill
#
# Bulk Modulus (GPa) = 7.85432 60.64995 34.25214
# Shear Modulus (GPa) = 17.13672 41.07752 29.10712
#
# Velocity S-wave (km/s) = 2.59847 4.02306 3.38653
# Velocity P-wave (km/s) = 3.47814 6.74365 5.36537
#
# Compressibility (1/GPa) = 0.12731851
#
# Stress axis : x y z
#
# Youngs Moduli (GPa) = 17.04758 15.50213 59.78405
#
# Poissons Ratio (x) = -0.68503 1.44396
# Poissons Ratio (y) = -0.75333 1.57377
# Poissons Ratio (z) = 0.41175 0.40808
#
# Static dielectric constant tensor:
#      x y z
#    x 2.109500 0.044020 0.030940 
#    y 0.044020 2.183710 -0.053250 
#    z 0.030940 -0.053250 1.954330 
# 
# From -- ./inp_files/182073.got.cif
#   From: 2010.05.17/outbox.cif.g08.bks.cpg/sg2_92_cif.got.tgz:182073.got - 2010.06.03 11:33:40.
