data_PCOD9031760
_publ_section_title
;
Structure prediction by ZEFSAII (Michael W. Deem and Ramdas Pophale) SiO2 
 PCOD9031760
Probable space group: P -1
;
_chemical_formula_sum "Si O2"
_cell_formula_units_Z 12
_cell_length_a 6.748230
_cell_length_b 12.147630
_cell_length_c 10.753838
_cell_angle_alpha 130.243099
_cell_angle_beta 113.761897
_cell_angle_gamma 42.846693
_cell_volume 453.327006
_symmetry_space_group_name_H-M "P -1"
_symmetry_group_IT_number 2
_symmetry_cell_setting 'triclinic'
loop_
_space_group_symop_operation_xyz
x,y,z
-x,-y,-z
loop_
_atom_site_type_symbol
_atom_site_label
_atom_site_fract_x
_atom_site_fract_y
_atom_site_fract_z
Si Si1 0.056056 0.521239 0.170596
Si Si2 0.356686 0.128465 0.311933
Si Si3 0.768262 0.443143 0.238361
Si Si4 0.371269 0.702560 0.552180
Si Si5 0.667014 0.179000 0.005825
Si Si6 0.164738 0.062978 0.524449
O O1 0.401533 0.335116 0.147561
O O2 0.872918 0.510518 0.213603
O O3 0.960892 0.728725 0.307314
O O4 0.000000 0.500000 0.000000
O O5 0.531605 0.175080 0.313544
O O6 0.028933 0.304574 0.305981
O O7 0.495627 0.088706 0.456897
O O8 0.428474 0.930205 0.155108
O O9 0.502502 0.616406 0.382718
O O10 0.697319 0.325721 0.062334
O O11 0.500000 0.500000 0.500000
O O12 0.014863 0.862350 0.597047
O O13 0.000000 0.000000 0.000000
O O14 0.000000 0.000000 0.500000
#
# Coordination Sequence:
#
# PCOD9031760 Si02
#       6
#     2   2   2   2   2   2
#     4  12  24  47  72 100 145 181 232 292 346 413
#     4  10  22  43  68 104 138 181 232 289 343 414
#     4  11  25  45  72 101 138 188 233 283 353 408
#     4  11  23  46  73 100 139 187 236 286 346 414
#     4  10  23  45  70 106 135 183 234 286 347 417
#     4  10  22  44  69 104 138 183 229 288 344 411
#
# _framework density 26.470955
#
# number of rings (size 3 to 8) (size 9 to 14) (size 15 to 20)
#    0.000    1.333    3.333    1.500    0.000    3.333 
#    3.000   10.833    0.000    0.000    0.000    0.000 
#    0.000    0.000    0.000    0.000    0.000    0.000 
#
# Total GULP energy -66856.482807 kJ/mol
# GULP energy per Si atom -5571.373567 kJ/mol
# Density = 2.641071 g / cm^3
# Si number density = 26.470955 Si / 1000 Ang^3
#
#
#
# Elastic Constant Matrix: (Units=GPa)
#
#
# Indices 1 2 3 4 5 6 
#
# 1 183.7639 76.0520 86.1902 17.1822 29.6093 10.4506
# 2 76.0520 152.8190 41.8561 3.0984 4.9080 1.6126
# 3 86.1902 41.8561 121.7639 34.6036 32.7853 22.1775
# 4 17.1822 3.0984 34.6036 49.6286 9.4474 4.5677
# 5 29.6093 4.9080 32.7853 9.4474 60.7291 -0.3180
# 6 10.4506 1.6126 22.1775 4.5677 -0.3180 62.6326
#
#
#
# Elastic Compliance Matrix: (Units=1/GPa)
#
#
# Indices 1 2 3 4 5 6 
#
# 1 0.009506 -0.003173 -0.005605 0.001067 -0.001516 0.000395
# 2 -0.003173 0.008476 -0.001596 0.001320 0.001522 0.000788
# 3 -0.005605 -0.001596 0.017447 -0.008707 -0.005227 -0.004593
# 4 0.001067 0.001320 -0.008707 0.025660 0.000087 0.001000
# 5 -0.001516 0.001522 -0.005227 0.000087 0.019902 0.002159
# 6 0.000395 0.000788 -0.004593 0.001000 0.002159 0.017444
#
#
# Mechanical properties :
#
#
# Convention : Reuss Voigt Hill
#
# Bulk Modulus (GPa) = 68.11631 96.28262 82.19946
# Shear Modulus (GPa) = 40.29751 51.54795 45.92273
#
# Velocity S-wave (km/s) = 3.90594 4.41766 4.16965
# Velocity P-wave (km/s) = 6.79192 7.90397 7.36895
#
# Compressibility (1/GPa) = 0.01468077
#
# Stress axis : x y z
#
# Youngs Moduli (GPa) = 105.19986 117.98275 57.31582
#
# Poissons Ratio (x) = 0.37431 0.32126
# Poissons Ratio (y) = 0.33375 0.09150
# Poissons Ratio (z) = 0.58965 0.18835
#
# Static dielectric constant tensor:
#      x y z
#    x 2.163090 -0.078680 0.050280 
#    y -0.078680 2.391430 -0.237300 
#    z 0.050280 -0.237300 2.188110 
# 
# From -- ./inp_files/365466.got.cif
#   From: 2010.05.17/outbox.cif.g08.bks.cpg/sg2_183_cif.got.tgz:365466.got - 2010.06.03 11:33:40.
