data_PCOD9031841
_publ_section_title
;
Structure prediction by ZEFSAII (Michael W. Deem and Ramdas Pophale) SiO2 
 PCOD9031841
Probable space group: P -1
;
_chemical_formula_sum "Si O2"
_cell_formula_units_Z 12
_cell_length_a 13.903182
_cell_length_b 12.438431
_cell_length_c 8.131659
_cell_angle_alpha 106.846104
_cell_angle_beta 53.899074
_cell_angle_gamma 149.294960
_cell_volume 493.606901
_symmetry_space_group_name_H-M "P -1"
_symmetry_group_IT_number 2
_symmetry_cell_setting 'triclinic'
loop_
_space_group_symop_operation_xyz
x,y,z
-x,-y,-z
loop_
_atom_site_type_symbol
_atom_site_label
_atom_site_fract_x
_atom_site_fract_y
_atom_site_fract_z
Si Si1 0.228300 0.293461 0.588357
Si Si2 0.502899 0.138452 0.043031
Si Si3 0.929305 0.392729 0.200336
Si Si4 0.020783 0.863907 0.559743
Si Si5 0.952771 0.092699 0.092358
Si Si6 0.486811 0.153836 0.685915
O O1 0.500000 0.500000 0.500000
O O2 0.186482 0.314276 0.460181
O O3 0.115160 0.072589 0.574076
O O4 0.067529 0.226786 0.860117
O O5 0.271405 0.998086 0.321462
O O6 0.464893 0.146998 0.899251
O O7 0.796986 0.417291 0.919566
O O8 0.500000 0.000000 0.000000
O O9 0.781019 0.365605 0.439137
O O10 0.714709 0.115132 0.279910
O O11 0.000000 0.500000 0.000000
O O12 0.928665 0.760308 0.792576
O O13 0.642100 0.854791 0.292104
O O14 0.000000 0.000000 0.000000
#
# Coordination Sequence:
#
# PCOD9031841 Si02
#       6
#     2   2   2   2   2   2
#     4  10  22  43  68  96 126 174 226 280 343 400
#     4  12  24  43  68 100 141 181 228 282 346 410
#     4  11  24  43  69  98 135 185 230 281 344 404
#     4  10  23  42  67  93 136 172 221 286 335 405
#     4  10  22  44  67  97 135 173 225 286 340 408
#     4  11  24  45  69  99 140 179 232 286 341 409
#
# _framework density 24.310842000000001
#
# number of rings (size 3 to 8) (size 9 to 14) (size 15 to 20)
#    0.000    1.333    3.333    1.500    4.667    0.667 
#    6.000    0.000    0.000    0.000    0.000    0.000 
#    0.000    0.000    0.000    0.000    0.000    0.000 
#
# Total GULP energy -67087.754366 kJ/mol
# GULP energy per Si atom -5590.646197 kJ/mol
# Density = 2.425551 g / cm^3
# Si number density = 24.310842 Si / 1000 Ang^3
#
#
#
# Elastic Constant Matrix: (Units=GPa)
#
#
# Indices 1 2 3 4 5 6 
#
# 1 130.4833 50.6864 46.8444 12.5704 -4.2923 41.4652
# 2 50.6864 122.1314 44.4363 -6.4091 5.5302 42.0220
# 3 46.8444 44.4363 136.8724 30.1926 -9.0467 22.2257
# 4 12.5704 -6.4091 30.1926 40.6707 13.8010 3.3260
# 5 -4.2923 5.5302 -9.0467 13.8010 39.4405 7.0209
# 6 41.4652 42.0220 22.2257 3.3260 7.0209 59.7188
#
#
#
# Elastic Compliance Matrix: (Units=1/GPa)
#
#
# Indices 1 2 3 4 5 6 
#
# 1 0.011481 -0.002824 -0.000861 -0.004221 0.003974 -0.005896
# 2 -0.002824 0.013908 -0.004983 0.009126 -0.005557 -0.005826
# 3 -0.000861 -0.004983 0.012669 -0.012592 0.008070 -0.000858
# 4 -0.004221 0.009126 -0.012592 0.043375 -0.020007 0.001132
# 5 0.003974 -0.005557 0.008070 -0.020007 0.036310 -0.005007
# 6 -0.005896 -0.005826 -0.000858 0.001132 -0.005007 0.025784
#
#
# Mechanical properties :
#
#
# Convention : Reuss Voigt Hill
#
# Bulk Modulus (GPa) = 48.25980 74.82460 61.54220
# Shear Modulus (GPa) = 29.80253 44.46733 37.13493
#
# Velocity S-wave (km/s) = 3.50508 4.28146 3.91257
# Velocity P-wave (km/s) = 6.02287 7.43547 6.76614
#
# Compressibility (1/GPa) = 0.02072118
#
# Stress axis : x y z
#
# Youngs Moduli (GPa) = 87.09936 71.90035 78.93186
#
# Poissons Ratio (x) = 0.20306 0.06799
# Poissons Ratio (y) = 0.24599 0.39332
# Poissons Ratio (z) = 0.07503 0.35828
#
# Static dielectric constant tensor:
#      x y z
#    x 2.013560 -0.025030 -0.004530 
#    y -0.025030 1.970740 -0.068960 
#    z -0.004530 -0.068960 1.982490 
# 
# From -- ./inp_files/315529.got.cif
#   From: 2010.05.17/outbox.cif.g08.bks.cpg/sg2_158_cif.got.tgz:315529.got - 2010.06.03 11:33:40.
