data_PCOD9031503
_publ_section_title
;
Structure prediction by ZEFSAII (Michael W. Deem and Ramdas Pophale) SiO2 
 PCOD9031503
Probable space group: P -1
;
_chemical_formula_sum "Si O2"
_cell_formula_units_Z 16
_cell_length_a 5.167727
_cell_length_b 17.242856
_cell_length_c 8.355835
_cell_angle_alpha 107.443121
_cell_angle_beta 116.317633
_cell_angle_gamma 62.033563
_cell_volume 585.468624
_symmetry_space_group_name_H-M "P -1"
_symmetry_group_IT_number 2
_symmetry_cell_setting 'triclinic'
loop_
_space_group_symop_operation_xyz
x,y,z
-x,-y,-z
loop_
_atom_site_type_symbol
_atom_site_label
_atom_site_fract_x
_atom_site_fract_y
_atom_site_fract_z
Si Si1 0.638731 0.244087 0.079155
Si Si2 0.687406 0.062147 0.601287
Si Si3 0.433677 0.853355 0.696846
Si Si4 0.516710 0.685474 0.462251
Si Si5 0.191387 0.197942 0.743532
Si Si6 0.266334 0.476994 0.797019
Si Si7 0.858575 0.906547 0.058139
Si Si8 0.533761 0.574842 0.712233
O O1 0.713949 0.180075 0.215840
O O2 0.604674 0.341198 0.158683
O O3 0.300459 0.256498 0.926887
O O4 0.882916 0.188744 0.980893
O O5 0.779803 0.085691 0.464633
O O6 0.424158 0.158682 0.637204
O O7 0.939668 0.037527 0.800933
O O8 0.500000 0.000000 0.500000
O O9 0.650360 0.755164 0.621489
O O10 0.601877 0.914227 0.859368
O O11 0.655588 0.623767 0.306390
O O12 0.493409 0.622372 0.559452
O O13 0.161495 0.750279 0.368183
O O14 0.263212 0.111223 0.817307
O O15 0.321342 0.522908 0.676689
O O16 0.909126 0.517833 0.789455
O O17 0.500000 0.500000 0.000000
#
# Coordination Sequence:
#
# PCOD9031503 Si02
#       8
#     2   2   2   2   2   2   2   2
#     4   9  22  40  70  95 135 182 239 287 339 429
#     4  11  25  43  70 105 141 175 228 293 358 431
#     4  10  23  41  69  98 130 184 233 278 358 417
#     4  11  24  43  70  97 135 185 236 294 346 439
#     4  10  22  43  67 102 127 185 232 280 356 423
#     4  12  27  45  67 103 145 190 239 304 370 416
#     4  10  22  44  67  99 137 173 236 284 339 437
#     4  11  26  43  67 103 143 185 241 300 366 419
#
# _framework density 27.328533
#
# number of rings (size 3 to 8) (size 9 to 14) (size 15 to 20)
#    0.000    1.500    1.250    1.875   10.500    2.000 
#    0.000    5.625    0.000    0.000    0.000    0.000 
#    0.000    0.000    0.000    0.000    0.000    0.000 
#
# Total GULP energy -89403.763887 kJ/mol
# GULP energy per Si atom -5587.735243 kJ/mol
# Density = 2.726633 g / cm^3
# Si number density = 27.328533 Si / 1000 Ang^3
#
#
#
# Elastic Constant Matrix: (Units=GPa)
#
#
# Indices 1 2 3 4 5 6 
#
# 1 100.7092 27.4183 26.2018 -6.1317 -1.1613 -7.2735
# 2 27.4183 106.1515 63.3506 4.3762 3.0636 1.8126
# 3 26.2018 63.3506 150.4960 16.2009 12.1135 1.9321
# 4 -6.1317 4.3762 16.2009 27.3205 -2.8635 4.7741
# 5 -1.1613 3.0636 12.1135 -2.8635 45.4205 -5.1318
# 6 -7.2735 1.8126 1.9321 4.7741 -5.1318 52.1113
#
#
#
# Elastic Compliance Matrix: (Units=1/GPa)
#
#
# Indices 1 2 3 4 5 6 
#
# 1 0.011279 -0.002199 -0.001553 0.003675 0.001252 0.001495
# 2 -0.002199 0.013073 -0.005217 0.000654 0.000428 -0.000586
# 3 -0.001553 -0.005217 0.009942 -0.005666 -0.002714 -0.000152
# 4 0.003675 0.000654 -0.005666 0.041565 0.003873 -0.002726
# 5 0.001252 0.000428 -0.002714 0.003873 0.023235 0.002194
# 6 0.001495 -0.000586 -0.000152 -0.002726 0.002194 0.019890
#
#
# Mechanical properties :
#
#
# Convention : Reuss Voigt Hill
#
# Bulk Modulus (GPa) = 61.15035 65.69980 63.42507
# Shear Modulus (GPa) = 35.11853 40.99620 38.05737
#
# Velocity S-wave (km/s) = 3.58865 3.87735 3.73579
# Velocity P-wave (km/s) = 6.29252 6.64364 6.47046
#
# Compressibility (1/GPa) = 0.01635314
#
# Stress axis : x y z
#
# Youngs Moduli (GPa) = 88.66333 76.49356 100.58617
#
# Poissons Ratio (x) = 0.16823 0.15625
# Poissons Ratio (y) = 0.19500 0.52480
# Poissons Ratio (z) = 0.13773 0.39910
#
# Static dielectric constant tensor:
#      x y z
#    x 2.139860 0.027040 0.098670 
#    y 0.027040 2.147700 0.086000 
#    z 0.098670 0.086000 2.274170 
# 
# From -- ./inp_files/52695.got.cif
#   From: 2010.05.17/outbox.cif.g08.bks.cpg/sg2_27_cif.got.tgz:52695.got - 2010.06.03 11:33:40.
