data_PCOD9031541
_publ_section_title
;
Structure prediction by ZEFSAII (Michael W. Deem and Ramdas Pophale) SiO2 
 PCOD9031541
Probable space group: P -1
;
_chemical_formula_sum "Si O2"
_cell_formula_units_Z 16
_cell_length_a 11.950221
_cell_length_b 16.735876
_cell_length_c 15.114727
_cell_angle_alpha 45.053493
_cell_angle_beta 60.341665
_cell_angle_gamma 22.467772
_cell_volume 663.650528
_symmetry_space_group_name_H-M "P -1"
_symmetry_group_IT_number 2
_symmetry_cell_setting 'triclinic'
loop_
_space_group_symop_operation_xyz
x,y,z
-x,-y,-z
loop_
_atom_site_type_symbol
_atom_site_label
_atom_site_fract_x
_atom_site_fract_y
_atom_site_fract_z
Si Si1 0.128830 0.100602 0.675970
Si Si2 0.737723 0.697081 0.665703
Si Si3 0.425010 0.152242 0.041794
Si Si4 0.481612 0.352687 0.865110
Si Si5 0.421087 0.928017 0.148371
Si Si6 0.035723 0.591627 0.368283
Si Si7 0.718317 0.264098 0.018065
Si Si8 0.626741 0.511727 0.395960
O O1 0.543681 0.800064 0.744269
O O2 0.126969 0.978090 0.811338
O O3 0.876318 0.387473 0.609899
O O4 0.991497 0.228442 0.529983
O O5 0.732765 0.617268 0.646225
O O6 0.146679 0.404225 0.748403
O O7 0.500000 0.000000 0.500000
O O8 0.248265 0.174558 0.075264
O O9 0.274761 0.401908 0.912902
O O10 0.655402 0.982967 0.993660
O O11 0.658239 0.941475 0.201963
O O12 0.343915 0.521199 0.695841
O O13 0.476042 0.429122 0.898062
O O14 0.917362 0.974592 0.975232
O O15 0.383801 0.824812 0.261553
O O16 0.000000 0.500000 0.500000
O O17 0.500000 0.500000 0.000000
O O18 0.500000 0.500000 0.500000
#
# Coordination Sequence:
#
# PCOD9031541 Si02
#       8
#     2   2   2   2   2   2   2   2
#     4  12  23  41  64  93 128 167 215 264 320 383
#     4  11  21  37  62  94 127 162 207 268 320 377
#     4   9  18  36  61  91 119 168 213 255 318 376
#     4  10  22  43  67  89 131 170 213 266 319 383
#     4   9  19  35  62  90 128 168 208 261 319 375
#     4  11  21  37  65  92 127 167 212 260 322 387
#     4  11  25  41  65  96 124 170 219 264 321 385
#     4  11  21  40  66  93 129 174 210 261 323 384
#
# _framework density 24.109075000000001
#
# number of rings (size 3 to 8) (size 9 to 14) (size 15 to 20)
#    0.000    1.500    5.000    0.750    3.500    0.000 
#    0.000    2.500    2.750    0.000    0.000    0.000 
#    0.000    0.000    0.000    0.000    0.000    0.000 
#
# Total GULP energy -89195.675328 kJ/mol
# GULP energy per Si atom -5574.729708 kJ/mol
# Density = 2.405420 g / cm^3
# Si number density = 24.109075 Si / 1000 Ang^3
#
#
#
# Elastic Constant Matrix: (Units=GPa)
#
#
# Indices 1 2 3 4 5 6 
#
# 1 119.3126 56.6846 48.9859 5.7782 -18.8537 34.3154
# 2 56.6846 130.1985 25.6461 5.7047 -4.2576 34.9059
# 3 48.9859 25.6461 152.4344 31.8251 -9.1583 13.4430
# 4 5.7782 5.7047 31.8251 22.7866 5.5614 10.1813
# 5 -18.8537 -4.2576 -9.1583 5.5614 62.1743 13.9966
# 6 34.3154 34.9059 13.4430 10.1813 13.9966 38.7576
#
#
#
# Elastic Compliance Matrix: (Units=1/GPa)
#
#
# Indices 1 2 3 4 5 6 
#
# 1 0.016739 -0.002183 -0.005003 0.008699 0.006998 -0.015931
# 2 -0.002183 0.011205 -0.000785 0.002511 0.001838 -0.009209
# 3 -0.005003 -0.000785 0.011385 -0.016992 0.000385 0.005512
# 4 0.008699 0.002511 -0.016992 0.075568 -0.001162 -0.023502
# 5 0.006998 0.001838 0.000385 -0.001162 0.022011 -0.015628
# 6 -0.015931 -0.009209 0.005512 -0.023502 -0.015628 0.058107
#
#
# Mechanical properties :
#
#
# Convention : Reuss Voigt Hill
#
# Bulk Modulus (GPa) = 42.76091 73.84207 58.30149
# Shear Modulus (GPa) = 22.85696 42.78561 32.82129
#
# Velocity S-wave (km/s) = 3.08241 4.21725 3.69367
# Velocity P-wave (km/s) = 5.51754 7.37621 6.51351
#
# Compressibility (1/GPa) = 0.02338585
#
# Stress axis : x y z
#
# Youngs Moduli (GPa) = 59.74011 89.24630 87.83785
#
# Poissons Ratio (x) = 0.19487 0.43943
# Poissons Ratio (y) = 0.13044 0.06897
# Poissons Ratio (z) = 0.29886 0.07008
#
# Static dielectric constant tensor:
#      x y z
#    x 1.988720 0.034010 0.068140 
#    y 0.034010 1.925180 -0.067790 
#    z 0.068140 -0.067790 1.875240 
# 
# From -- ./inp_files/521553.got.cif
#   From: 2010.05.17/outbox.cif.g08.bks.cpg/sg2_261_cif.got.tgz:521553.got - 2010.06.03 11:33:40.
