data_PCOD9031402
_publ_section_title
;
Structure prediction by ZEFSAII (Michael W. Deem and Ramdas Pophale) SiO2 
 PCOD9031402
Probable space group: P -1
;
_chemical_formula_sum "Si O2"
_cell_formula_units_Z 15
_cell_length_a 8.623155
_cell_length_b 11.516650
_cell_length_c 11.417386
_cell_angle_alpha 139.714827
_cell_angle_beta 54.897785
_cell_angle_gamma 114.275180
_cell_volume 598.992404
_symmetry_space_group_name_H-M "P -1"
_symmetry_group_IT_number 2
_symmetry_cell_setting 'triclinic'
loop_
_space_group_symop_operation_xyz
x,y,z
-x,-y,-z
loop_
_atom_site_type_symbol
_atom_site_label
_atom_site_fract_x
_atom_site_fract_y
_atom_site_fract_z
Si Si1 0.795394 0.632074 0.315856
Si Si2 0.500000 0.500000 0.000000
Si Si3 0.447489 0.209749 0.663724
Si Si4 0.810235 0.304794 0.886248
Si Si5 0.077313 0.750993 0.675032
Si Si6 0.729056 0.580661 0.571547
Si Si7 0.516849 0.119492 0.971769
Si Si8 0.217053 0.122625 0.905692
O O1 0.660282 0.749348 0.377227
O O2 0.710985 0.606347 0.460673
O O3 0.000428 0.717015 0.287756
O O4 0.839018 0.437822 0.085885
O O5 0.593101 0.358516 0.746335
O O6 0.637510 0.395466 0.957233
O O7 0.306331 0.256064 0.875332
O O8 0.500000 0.000000 0.500000
O O9 0.729002 0.125782 0.837387
O O10 0.247343 0.621935 0.549664
O O11 0.930145 0.662648 0.584431
O O12 0.145817 0.939311 0.742376
O O13 0.952905 0.790143 0.877495
O O14 0.565541 0.687795 0.796686
O O15 0.380227 0.068529 0.886678
O O16 0.500000 0.000000 0.000000
#
# Coordination Sequence:
#
# PCOD9031402 Si02
#       8
#     2   1   2   2   2   2   2   2
#     4  10  25  41  70 104 136 177 234 289 344 416
#     4  10  22  44  68  94 142 178 230 284 342 418
#     4  11  25  44  70 101 135 185 233 284 355 417
#     4  10  23  43  68 100 136 188 218 284 356 412
#     4   9  22  42  69  95 135 177 225 286 351 406
#     4  10  23  42  68 103 131 177 234 286 341 422
#     4  11  25  42  66  96 137 182 223 284 351 405
#     4  10  22  43  66  95 133 182 225 284 347 422
#
# _framework density 25.042055000000001
#
# number of rings (size 3 to 8) (size 9 to 14) (size 15 to 20)
#    0.000    1.867    1.333    0.000    9.333    6.933 
#    0.000    2.000    0.000    0.000    0.000    0.000 
#    0.000    0.000    0.000    0.000    0.000    0.000 
#
# Total GULP energy -83755.571450 kJ/mol
# GULP energy per Si atom -5583.704763 kJ/mol
# Density = 2.498506 g / cm^3
# Si number density = 25.042055 Si / 1000 Ang^3
#
#
#
# Elastic Constant Matrix: (Units=GPa)
#
#
# Indices 1 2 3 4 5 6 
#
# 1 72.0587 28.3837 18.3603 -13.8155 8.4886 -13.7133
# 2 28.3837 97.1017 -4.8200 -32.3074 -1.8299 -14.0919
# 3 18.3603 -4.8200 71.3844 -0.3192 3.8523 -11.9517
# 4 -13.8155 -32.3074 -0.3192 39.2273 -5.7401 -3.3087
# 5 8.4886 -1.8299 3.8523 -5.7401 27.8799 -10.5913
# 6 -13.7133 -14.0919 -11.9517 -3.3087 -10.5913 42.9000
#
#
#
# Elastic Compliance Matrix: (Units=1/GPa)
#
#
# Indices 1 2 3 4 5 6 
#
# 1 0.018081 -0.004479 -0.004346 0.002277 -0.003847 0.002324
# 2 -0.004479 0.018474 0.003502 0.015702 0.008737 0.008980
# 3 -0.004346 0.003502 0.016090 0.002122 0.001590 0.004800
# 4 0.002277 0.015702 0.002122 0.042365 0.013759 0.013141
# 5 -0.003847 0.008737 0.001590 0.013759 0.045707 0.014429
# 6 0.002324 0.008980 0.004800 0.013141 0.014429 0.032915
#
#
# Mechanical properties :
#
#
# Convention : Reuss Voigt Hill
#
# Bulk Modulus (GPa) = 23.81037 36.04365 29.92701
# Shear Modulus (GPa) = 25.21703 35.24282 30.22993
#
# Velocity S-wave (km/s) = 3.17675 3.75553 3.47820
# Velocity P-wave (km/s) = 4.79421 5.76453 5.30162
#
# Compressibility (1/GPa) = 0.04199851
#
# Stress axis : x y z
#
# Youngs Moduli (GPa) = 55.30663 54.13139 62.14956
#
# Poissons Ratio (x) = 0.24243 0.27011
# Poissons Ratio (y) = 0.24770 -0.21762
# Poissons Ratio (z) = 0.24037 -0.18954
#
# Static dielectric constant tensor:
#      x y z
#    x 1.817220 -0.066570 -0.091630 
#    y -0.066570 1.875710 -0.062020 
#    z -0.091630 -0.062020 1.978900 
# 
# From -- ./inp_files/391516.got.cif
#   From: 2010.05.17/outbox.cif.g08.bks.cpg/sg2_196_cif.got.tgz:391516.got - 2010.06.03 11:33:40.
