data_PCOD9031316
_publ_section_title
;
Structure prediction by ZEFSAII (Michael W. Deem and Ramdas Pophale) SiO2 
 PCOD9031316
Probable space group: P -1
;
_chemical_formula_sum "Si O2"
_cell_formula_units_Z 16
_cell_length_a 14.135880
_cell_length_b 17.113357
_cell_length_c 9.236469
_cell_angle_alpha 78.810115
_cell_angle_beta 53.605378
_cell_angle_gamma 32.726018
_cell_volume 693.358271
_symmetry_space_group_name_H-M "P -1"
_symmetry_group_IT_number 2
_symmetry_cell_setting 'triclinic'
loop_
_space_group_symop_operation_xyz
x,y,z
-x,-y,-z
loop_
_atom_site_type_symbol
_atom_site_label
_atom_site_fract_x
_atom_site_fract_y
_atom_site_fract_z
Si Si1 0.315566 0.987631 0.465027
Si Si2 0.289052 0.580627 0.267361
Si Si3 0.860040 0.825267 0.169413
Si Si4 0.682401 0.169503 0.657038
Si Si5 0.511764 0.448040 0.654851
Si Si6 0.274162 0.158896 0.016268
Si Si7 0.173224 0.493037 0.487347
Si Si8 0.037994 0.549222 0.259422
O O1 0.260806 0.933607 0.476600
O O2 0.607104 0.836582 0.172702
O O3 0.039513 0.213959 0.577661
O O4 0.329969 0.000593 0.615313
O O5 0.257333 0.654172 0.412225
O O6 0.408520 0.416698 0.250988
O O7 0.500000 0.500000 0.000000
O O8 0.906193 0.707710 0.236371
O O9 0.757131 0.882632 0.074849
O O10 0.186028 0.660280 0.941802
O O11 0.567055 0.321093 0.631447
O O12 0.396108 0.322206 0.966337
O O13 0.000000 0.000000 0.500000
O O14 0.500000 0.500000 0.500000
O O15 0.975046 0.364803 0.298874
O O16 0.500000 0.000000 0.000000
O O17 0.021301 0.576235 0.437399
O O18 0.141834 0.422341 0.603670
#
# Coordination Sequence:
#
# PCOD9031316 Si02
#       8
#     2   2   2   2   2   2   2   2
#     4  12  23  42  69 104 140 183 228 288 357 409
#     4  12  21  41  72  97 137 189 232 272 348 429
#     4  11  24  44  70  98 143 186 230 285 355 428
#     4  11  23  41  73 108 141 184 232 288 348 411
#     4  11  24  43  68 100 138 184 239 280 338 422
#     4  12  24  42  70 101 135 177 235 295 357 403
#     4  11  22  39  67 102 136 180 234 284 337 424
#     4  10  22  43  66 103 140 183 232 282 349 423
#
# _framework density 23.076091999999999
#
# number of rings (size 3 to 8) (size 9 to 14) (size 15 to 20)
#    0.000    0.750    6.250    1.875    0.000    0.500 
#    2.250    0.625    0.000    0.000    0.000    0.000 
#    0.000    0.000    0.000    0.000    0.000    0.000 
#
# Total GULP energy -89142.575415 kJ/mol
# GULP energy per Si atom -5571.410963 kJ/mol
# Density = 2.302357 g / cm^3
# Si number density = 23.076092 Si / 1000 Ang^3
#
#
#
# Elastic Constant Matrix: (Units=GPa)
#
#
# Indices 1 2 3 4 5 6 
#
# 1 155.7273 39.3463 51.2184 -11.8428 23.4663 10.9358
# 2 39.3463 71.6145 48.2551 -19.7151 8.1943 6.7342
# 3 51.2184 48.2551 112.7413 -16.6297 6.1869 8.0899
# 4 -11.8428 -19.7151 -16.6297 31.9320 -2.7970 -7.1910
# 5 23.4663 8.1943 6.1869 -2.7970 53.7990 -15.3124
# 6 10.9358 6.7342 8.0899 -7.1910 -15.3124 47.6384
#
#
#
# Elastic Compliance Matrix: (Units=1/GPa)
#
#
# Indices 1 2 3 4 5 6 
#
# 1 0.008593 -0.002503 -0.002528 -0.000573 -0.003818 -0.002503
# 2 -0.002503 0.022930 -0.007212 0.009269 -0.001212 -0.000432
# 3 -0.002528 -0.007212 0.013311 0.001557 0.000693 -0.000203
# 4 -0.000573 0.009269 0.001557 0.038981 0.002146 0.005131
# 5 -0.003818 -0.001212 0.000693 0.002146 0.022924 0.008623
# 6 -0.002503 -0.000432 -0.000203 0.005131 0.008623 0.025208
#
#
# Mechanical properties :
#
#
# Convention : Reuss Voigt Hill
#
# Bulk Modulus (GPa) = 49.14625 68.63584 58.89105
# Shear Modulus (GPa) = 30.63420 40.09144 35.36282
#
# Velocity S-wave (km/s) = 3.64748 4.17268 3.91889
# Velocity P-wave (km/s) = 6.25160 7.28168 6.78622
#
# Compressibility (1/GPa) = 0.02034743
#
# Stress axis : x y z
#
# Youngs Moduli (GPa) = 116.37467 43.61100 75.12406
#
# Poissons Ratio (x) = 0.10918 0.18989
# Poissons Ratio (y) = 0.29134 0.54182
# Poissons Ratio (z) = 0.29415 0.31454
#
# Static dielectric constant tensor:
#      x y z
#    x 1.761600 0.014290 -0.431620 
#    y 0.014290 1.926920 0.100310 
#    z -0.431620 0.100310 0.938570 
# 
# From -- ./inp_files/318044.got.cif
#   From: 2010.05.17/outbox.cif.g08.bks.cpg/sg2_160_cif.got.tgz:318044.got - 2010.06.03 11:33:40.
