data_PCOD9031027
_publ_section_title
;
Structure prediction by ZEFSAII (Michael W. Deem and Ramdas Pophale) SiO2 
 PCOD9031027
Probable space group: P -1
;
_chemical_formula_sum "Si O2"
_cell_formula_units_Z 16
_cell_length_a 15.421836
_cell_length_b 5.939571
_cell_length_c 11.892207
_cell_angle_alpha 93.608274
_cell_angle_beta 44.695215
_cell_angle_gamma 72.106575
_cell_volume 661.554242
_symmetry_space_group_name_H-M "P -1"
_symmetry_group_IT_number 2
_symmetry_cell_setting 'triclinic'
loop_
_space_group_symop_operation_xyz
x,y,z
-x,-y,-z
loop_
_atom_site_type_symbol
_atom_site_label
_atom_site_fract_x
_atom_site_fract_y
_atom_site_fract_z
Si Si1 0.764382 0.140622 0.896924
Si Si2 0.537767 0.782116 0.864968
Si Si3 0.384919 0.803579 0.618179
Si Si4 0.842992 0.345674 0.634753
Si Si5 0.030412 0.420188 0.294234
Si Si6 0.049068 0.756716 0.111874
Si Si7 0.602714 0.851426 0.561219
Si Si8 0.156247 0.694736 0.781448
O O1 0.842750 0.116238 0.702251
O O2 0.814889 0.291340 0.939230
O O3 0.831754 0.850759 0.874201
O O4 0.597262 0.253891 0.037822
O O5 0.675701 0.527537 0.774151
O O6 0.585212 0.862965 0.709789
O O7 0.500000 0.000000 0.000000
O O8 0.500000 0.500000 0.500000
O O9 0.450437 0.916482 0.649743
O O10 0.236753 0.823231 0.778610
O O11 0.368695 0.936901 0.516815
O O12 0.912175 0.462530 0.659699
O O13 0.917307 0.349364 0.449771
O O14 0.976606 0.626152 0.248740
O O15 0.951439 0.068093 0.190827
O O16 0.087043 0.633020 0.949141
O O17 0.724784 0.563851 0.398483
#
# Coordination Sequence:
#
# PCOD9031027 Si02
#       8
#     2   2   2   2   2   2   2   2
#     4  11  23  44  66  98 134 181 220 280 339 398
#     4  12  25  45  67 101 135 176 227 281 331 399
#     4   9  20  42  65  98 130 174 218 274 332 403
#     4  10  23  44  64  97 133 175 228 267 340 396
#     4  10  22  43  68  96 134 179 219 280 330 405
#     4  10  24  40  69 100 135 172 226 281 338 390
#     4  10  23  42  68  96 134 180 220 270 347 396
#     4  10  22  43  64 101 130 173 226 279 329 407
#
# _framework density 24.185471
#
# number of rings (size 3 to 8) (size 9 to 14) (size 15 to 20)
#    0.000    1.750    1.250    1.500    3.500    4.000 
#    9.000    2.500    0.000    0.000    0.000    0.000 
#    0.000    0.000    0.000    0.000    0.000    0.000 
#
# Total GULP energy -89398.831928 kJ/mol
# GULP energy per Si atom -5587.426996 kJ/mol
# Density = 2.413042 g / cm^3
# Si number density = 24.185471 Si / 1000 Ang^3
#
#
#
# Elastic Constant Matrix: (Units=GPa)
#
#
# Indices 1 2 3 4 5 6 
#
# 1 100.0331 30.0166 52.1756 -6.7608 -11.0478 -16.9444
# 2 30.0166 118.2814 59.3595 -26.9312 4.1739 -30.3798
# 3 52.1756 59.3595 128.9846 -17.4456 14.6194 -16.7866
# 4 -6.7608 -26.9312 -17.4456 30.9908 -10.9426 5.2851
# 5 -11.0478 4.1739 14.6194 -10.9426 50.4668 -5.3794
# 6 -16.9444 -30.3798 -16.7866 5.2851 -5.3794 32.3079
#
#
#
# Elastic Compliance Matrix: (Units=1/GPa)
#
#
# Indices 1 2 3 4 5 6 
#
# 1 0.014663 0.001143 -0.006066 0.001797 0.005935 0.006307
# 2 0.001143 0.016251 -0.005390 0.010729 0.004073 0.012004
# 3 -0.006066 -0.005390 0.012929 -0.000056 -0.004889 -0.002336
# 4 0.001797 0.010729 -0.000056 0.044478 0.009736 0.005347
# 5 0.005935 0.004073 -0.004889 0.009736 0.025049 0.006981
# 6 0.006307 0.012004 -0.002336 0.005347 0.006981 0.044621
#
#
# Mechanical properties :
#
#
# Convention : Reuss Voigt Hill
#
# Bulk Modulus (GPa) = 43.06951 70.04473 56.55712
# Shear Modulus (GPa) = 26.83039 36.46960 31.65000
#
# Velocity S-wave (km/s) = 3.33432 3.88740 3.62143
# Velocity P-wave (km/s) = 5.71579 7.01238 6.39702
#
# Compressibility (1/GPa) = 0.02321828
#
# Stress axis : x y z
#
# Youngs Moduli (GPa) = 68.19924 61.53329 77.34323
#
# Poissons Ratio (x) = -0.07033 0.46916
# Poissons Ratio (y) = -0.07795 0.41685
# Poissons Ratio (z) = 0.41370 0.33164
#
# Static dielectric constant tensor:
#      x y z
#    x 1.968970 -0.010660 0.022050 
#    y -0.010660 1.961660 -0.034640 
#    z 0.022050 -0.034640 1.988550 
# 
# From -- ./inp_files/441884.got.cif
#   From: 2010.05.17/outbox.cif.g08.bks.cpg/sg2_221_cif.got.tgz:441884.got - 2010.06.03 11:33:40.
