data_PCOD9031389
_publ_section_title
;
Structure prediction by ZEFSAII (Michael W. Deem and Ramdas Pophale) SiO2 
 PCOD9031389
Probable space group: P -1
;
_chemical_formula_sum "Si O2"
_cell_formula_units_Z 14
_cell_length_a 7.597623
_cell_length_b 9.777475
_cell_length_c 18.854747
_cell_angle_alpha 124.272675
_cell_angle_beta 32.824113
_cell_angle_gamma 110.190856
_cell_volume 601.212715
_symmetry_space_group_name_H-M "P -1"
_symmetry_group_IT_number 2
_symmetry_cell_setting 'triclinic'
loop_
_space_group_symop_operation_xyz
x,y,z
-x,-y,-z
loop_
_atom_site_type_symbol
_atom_site_label
_atom_site_fract_x
_atom_site_fract_y
_atom_site_fract_z
Si Si1 0.535847 0.034264 0.296438
Si Si2 0.820036 0.677057 0.150315
Si Si3 0.818376 0.947029 0.975756
Si Si4 0.452081 0.585504 0.379263
Si Si5 0.252079 0.148885 0.577538
Si Si6 0.321765 0.240717 0.290624
Si Si7 0.374557 0.702087 0.081272
O O1 0.327692 0.092734 0.455237
O O2 0.339323 0.125185 0.321031
O O3 0.658364 0.827764 0.194552
O O4 0.893814 0.081920 0.189208
O O5 0.534907 0.655177 0.295261
O O6 0.113111 0.723313 0.110430
O O7 0.000000 0.500000 0.000000
O O8 0.675007 0.785376 0.988143
O O9 0.496449 0.118000 0.130907
O O10 0.000000 0.000000 0.000000
O O11 0.669124 0.668167 0.382179
O O12 0.515651 0.382269 0.286521
O O13 0.069047 0.659043 0.557737
O O14 0.868683 0.186972 0.743609
O O15 0.500000 0.000000 0.500000
O O16 0.500000 0.500000 0.000000
#
# Coordination Sequence:
#
# PCOD9031389 Si02
#       7
#     2   2   2   2   2   2   2
#     4  11  24  42  71 100 134 183 231 282 350 411
#     4  11  25  43  66 101 140 178 233 290 340 414
#     4  10  24  44  69  99 139 177 227 287 344 409
#     4  10  22  43  66  94 140 181 225 285 350 409
#     4  11  22  46  67  97 142 179 227 290 340 412
#     4  10  23  41  68  98 134 184 227 283 351 412
#     4  11  26  44  73  99 137 187 230 281 352 409
#
# _framework density 23.286266999999999
#
# number of rings (size 3 to 8) (size 9 to 14) (size 15 to 20)
#    0.000    1.429    2.857    1.714   12.000    2.857 
#    5.143    0.000    0.000    0.000    0.000    0.000 
#    0.000    0.000    0.000    0.000    0.000    0.000 
#
# Total GULP energy -78307.975101 kJ/mol
# GULP energy per Si atom -5593.426793 kJ/mol
# Density = 2.323327 g / cm^3
# Si number density = 23.286267 Si / 1000 Ang^3
#
#
#
# Elastic Constant Matrix: (Units=GPa)
#
#
# Indices 1 2 3 4 5 6 
#
# 1 52.9573 21.8389 -8.5457 -0.5705 -5.8409 7.8157
# 2 21.8389 136.9831 10.1247 22.6480 -2.0174 19.0935
# 3 -8.5457 10.1247 108.4981 -5.0793 4.0899 6.5988
# 4 -0.5705 22.6480 -5.0793 34.5997 -3.1538 -3.7248
# 5 -5.8409 -2.0174 4.0899 -3.1538 24.2112 -0.1139
# 6 7.8157 19.0935 6.5988 -3.7248 -0.1139 36.6782
#
#
#
# Elastic Compliance Matrix: (Units=1/GPa)
#
#
# Indices 1 2 3 4 5 6 
#
# 1 0.021760 -0.003715 0.002193 0.003271 0.004983 -0.002750
# 2 -0.003715 0.009854 -0.001226 -0.007291 -0.000841 -0.004860
# 3 0.002193 -0.001226 0.009719 0.002030 -0.000957 -0.001374
# 4 0.003271 -0.007291 0.002030 0.035111 0.004442 0.006313
# 5 0.004983 -0.000841 -0.000957 0.004442 0.043176 0.000133
# 6 -0.002750 -0.004860 -0.001374 0.006313 0.000133 0.031269
#
#
# Mechanical properties :
#
#
# Convention : Reuss Voigt Hill
#
# Bulk Modulus (GPa) = 27.90550 38.36380 33.13465
# Shear Modulus (GPa) = 29.70355 37.43251 33.56803
#
# Velocity S-wave (km/s) = 3.57540 4.01371 3.80088
# Velocity P-wave (km/s) = 5.39021 6.16364 5.78985
#
# Compressibility (1/GPa) = 0.03583523
#
# Stress axis : x y z
#
# Youngs Moduli (GPa) = 45.95626 101.48498 102.89534
#
# Poissons Ratio (x) = 0.37706 -0.22566
# Poissons Ratio (y) = 0.17074 0.12617
# Poissons Ratio (z) = -0.10079 0.12444
#
# Static dielectric constant tensor:
#      x y z
#    x 1.910460 0.017230 -0.022940 
#    y 0.017230 1.897570 -0.012510 
#    z -0.022940 -0.012510 1.918000 
# 
# From -- ./inp_files/495832.got.cif
#   From: 2010.05.17/outbox.cif.g08.bks.cpg/sg2_248_cif.got.tgz:495832.got - 2010.06.03 11:33:40.
