data_PCOD9031243
_publ_section_title
;
Structure prediction by ZEFSAII (Michael W. Deem and Ramdas Pophale) SiO2 
 PCOD9031243
Probable space group: P -1
;
_chemical_formula_sum "Si O2"
_cell_formula_units_Z 14
_cell_length_a 12.868719
_cell_length_b 8.429062
_cell_length_c 11.798518
_cell_angle_alpha 147.169818
_cell_angle_beta 72.391129
_cell_angle_gamma 106.195356
_cell_volume 660.576981
_symmetry_space_group_name_H-M "P -1"
_symmetry_group_IT_number 2
_symmetry_cell_setting 'triclinic'
loop_
_space_group_symop_operation_xyz
x,y,z
-x,-y,-z
loop_
_atom_site_type_symbol
_atom_site_label
_atom_site_fract_x
_atom_site_fract_y
_atom_site_fract_z
Si Si1 0.889765 0.986667 0.961367
Si Si2 0.402525 0.133853 0.047396
Si Si3 0.709853 0.123050 0.266289
Si Si4 0.828052 0.104033 0.612758
Si Si5 0.618455 0.174882 0.568397
Si Si6 0.964347 0.573614 0.181785
Si Si7 0.789446 0.784750 0.671358
O O1 0.798208 0.940881 0.060739
O O2 0.890125 0.308664 0.098450
O O3 0.884925 0.769574 0.724880
O O4 0.000000 0.000000 0.000000
O O5 0.406759 0.481949 0.231772
O O6 0.301113 0.084720 0.137972
O O7 0.500000 0.000000 0.000000
O O8 0.393054 0.957037 0.826807
O O9 0.682252 0.064713 0.370110
O O10 0.748940 0.462997 0.452659
O O11 0.891014 0.854727 0.375743
O O12 0.813748 0.981228 0.672119
O O13 0.709448 0.154308 0.626586
O O14 0.923194 0.361936 0.745608
O O15 0.500000 0.000000 0.500000
O O16 0.000000 0.500000 0.000000
#
# Coordination Sequence:
#
# PCOD9031243 Si02
#       7
#     2   2   2   2   2   2   2
#     4  11  24  39  68  98 134 177 226 275 339 408
#     4  10  25  45  69  96 130 180 227 277 342 404
#     4  10  24  45  64  96 135 173 227 271 344 403
#     4  11  25  43  66  99 141 175 232 279 343 409
#     4  11  28  45  70 102 136 181 230 290 345 401
#     4  11  24  42  66 100 138 182 220 281 346 401
#     4  10  22  43  65  96 129 180 218 277 338 406
#
# _framework density 21.193594999999998
#
# number of rings (size 3 to 8) (size 9 to 14) (size 15 to 20)
#    0.000    1.429    2.857    0.000   12.000    2.286 
#    0.000    0.000    0.000    0.000    0.000    0.000 
#    0.000    0.000    0.000    0.000    0.000    0.000 
#
# Total GULP energy -78062.050510 kJ/mol
# GULP energy per Si atom -5575.860751 kJ/mol
# Density = 2.114536 g / cm^3
# Si number density = 21.193595 Si / 1000 Ang^3
#
#
#
# Elastic Constant Matrix: (Units=GPa)
#
#
# Indices 1 2 3 4 5 6 
#
# 1 126.9300 39.4974 37.3068 5.4721 23.1128 -19.3162
# 2 39.4974 87.4421 42.2205 -13.3182 7.2364 6.4691
# 3 37.3068 42.2205 110.2424 -7.9158 22.9237 -11.1000
# 4 5.4721 -13.3182 -7.9158 39.0198 2.4929 8.6596
# 5 23.1128 7.2364 22.9237 2.4929 36.1370 -1.2375
# 6 -19.3162 6.4691 -11.1000 8.6596 -1.2375 39.9100
#
#
#
# Elastic Compliance Matrix: (Units=1/GPa)
#
#
# Indices 1 2 3 4 5 6 
#
# 1 0.012479 -0.006537 -0.000048 -0.005400 -0.005993 0.008072
# 2 -0.006537 0.019028 -0.006169 0.008076 0.003398 -0.009611
# 3 -0.000048 -0.006169 0.013375 0.000076 -0.007071 0.004461
# 4 -0.005400 0.008076 0.000076 0.031598 -0.000761 -0.010781
# 5 -0.005993 0.003398 -0.007071 -0.000761 0.035220 -0.004161
# 6 0.008072 -0.009611 0.004461 -0.010781 -0.004161 0.033972
#
#
# Mechanical properties :
#
#
# Convention : Reuss Voigt Hill
#
# Bulk Modulus (GPa) = 51.62098 62.51823 57.06960
# Shear Modulus (GPa) = 28.14704 36.71936 32.43320
#
# Velocity S-wave (km/s) = 3.64825 4.16693 3.91619
# Velocity P-wave (km/s) = 6.49277 7.26042 6.88730
#
# Compressibility (1/GPa) = 0.01937197
#
# Stress axis : x y z
#
# Youngs Moduli (GPa) = 80.13385 52.55537 74.76708
#
# Poissons Ratio (x) = 0.34356 0.00361
# Poissons Ratio (y) = 0.52384 0.46127
# Poissons Ratio (z) = 0.00387 0.32424
#
# Static dielectric constant tensor:
#      x y z
#    x 1.968400 0.006620 0.092390 
#    y 0.006620 1.804320 -0.000050 
#    z 0.092390 -0.000050 1.777010 
# 
# From -- ./inp_files/27200.got.cif
#   From: 2010.05.17/outbox.cif.g08.bks.cpg/sg2_14_cif.got.tgz:27200.got - 2010.06.03 11:33:40.
