data_PCOD9031211
_publ_section_title
;
Structure prediction by ZEFSAII (Michael W. Deem and Ramdas Pophale) SiO2 
 PCOD9031211
Probable space group: P -1
;
_chemical_formula_sum "Si O2"
_cell_formula_units_Z 14
_cell_length_a 9.888379
_cell_length_b 10.899719
_cell_length_c 7.387914
_cell_angle_alpha 55.831653
_cell_angle_beta 82.831658
_cell_angle_gamma 75.190018
_cell_volume 636.766938
_symmetry_space_group_name_H-M "P -1"
_symmetry_group_IT_number 2
_symmetry_cell_setting 'triclinic'
loop_
_space_group_symop_operation_xyz
x,y,z
-x,-y,-z
loop_
_atom_site_type_symbol
_atom_site_label
_atom_site_fract_x
_atom_site_fract_y
_atom_site_fract_z
Si Si1 0.940781 0.858809 0.555107
Si Si2 0.892296 0.286082 0.707408
Si Si3 0.370979 0.075301 0.583299
Si Si4 0.677956 0.517656 0.319383
Si Si5 0.724622 0.038839 0.942595
Si Si6 0.109110 0.289145 0.963401
Si Si7 0.476125 0.718041 0.455982
O O1 0.776941 0.914310 0.493444
O O2 0.017444 0.784780 0.423490
O O3 0.956319 0.735694 0.813470
O O4 0.000000 0.000000 0.500000
O O5 0.768930 0.421449 0.545171
O O6 0.826313 0.146768 0.902145
O O7 0.988600 0.342288 0.791384
O O8 0.365528 0.992982 0.845274
O O9 0.400566 0.239658 0.485827
O O10 0.500000 0.000000 0.500000
O O11 0.781056 0.604092 0.130890
O O12 0.549792 0.637731 0.329821
O O13 0.609035 0.391585 0.340501
O O14 0.632494 0.131737 0.720367
O O15 0.809419 0.877407 0.986409
#
# Coordination Sequence:
#
# PCOD9031211 Si02
#       7
#     2   2   2   2   2   2   2
#     4  12  25  41  69 104 134 169 226 285 332 394
#     4  11  23  44  67  99 136 175 225 277 336 401
#     4  12  25  39  67 106 135 168 226 285 334 395
#     4  10  23  40  68  92 135 183 221 267 334 411
#     4  11  21  40  72  96 128 179 223 279 334 388
#     4  12  22  41  69  97 130 177 223 275 340 391
#     4  10  22  43  65  94 132 179 224 271 336 398
#
# _framework density 21.986066999999998
#
# number of rings (size 3 to 8) (size 9 to 14) (size 15 to 20)
#    0.000    0.857    4.286    3.000    4.000    0.571 
#    0.000    0.714    3.143    0.000    0.000    0.000 
#    0.000    0.000    0.000    0.000    0.000    0.000 
#
# Total GULP energy -78320.843553 kJ/mol
# GULP energy per Si atom -5594.345968 kJ/mol
# Density = 2.193603 g / cm^3
# Si number density = 21.986067 Si / 1000 Ang^3
#
#
#
# Elastic Constant Matrix: (Units=GPa)
#
#
# Indices 1 2 3 4 5 6 
#
# 1 126.6937 18.1769 24.3504 -4.7911 -18.5128 29.2437
# 2 18.1769 24.3408 16.9231 5.1587 -4.6254 6.5724
# 3 24.3504 16.9231 58.4102 -4.8829 -27.6631 15.5633
# 4 -4.7911 5.1587 -4.8829 30.5623 -4.6227 -1.2214
# 5 -18.5128 -4.6254 -27.6631 -4.6227 49.6686 -13.3230
# 6 29.2437 6.5724 15.5633 -1.2214 -13.3230 47.1048
#
#
#
# Elastic Compliance Matrix: (Units=1/GPa)
#
#
# Indices 1 2 3 4 5 6 
#
# 1 0.010399 -0.006874 0.000340 0.003015 0.002404 -0.004851
# 2 -0.006874 0.062953 -0.021513 -0.016754 -0.010455 -0.000800
# 3 0.000340 -0.021513 0.032866 0.011333 0.016661 -0.003062
# 4 0.003015 -0.016754 0.011333 0.039312 0.009661 0.000474
# 5 0.002404 -0.010455 0.016661 0.009661 0.031182 0.003531
# 6 -0.004851 -0.000800 -0.003062 0.000474 0.003531 0.026375
#
#
# Mechanical properties :
#
#
# Convention : Reuss Voigt Hill
#
# Bulk Modulus (GPa) = 19.95054 36.48282 28.21668
# Shear Modulus (GPa) = 18.12327 35.46678 26.79503
#
# Velocity S-wave (km/s) = 2.87419 4.02076 3.49482
# Velocity P-wave (km/s) = 4.48425 6.17940 5.39877
#
# Compressibility (1/GPa) = 0.05012395
#
# Stress axis : x y z
#
# Youngs Moduli (GPa) = 96.16309 15.88474 30.42703
#
# Poissons Ratio (x) = 0.10919 -0.01033
# Poissons Ratio (y) = 0.66102 0.65457
# Poissons Ratio (z) = -0.03266 0.34172
#
# Static dielectric constant tensor:
#      x y z
#    x 1.824090 0.015870 -0.003720 
#    y 0.015870 1.875940 -0.015440 
#    z -0.003720 -0.015440 1.800160 
# 
# From -- ./inp_files/174280.got.cif
#   From: 2010.05.17/outbox.cif.g08.bks.cpg/sg2_88_cif.got.tgz:174280.got - 2010.06.03 11:33:40.
