data_PCOD9031291
_publ_section_title
;
Structure prediction by ZEFSAII (Michael W. Deem and Ramdas Pophale) SiO2 
 PCOD9031291
Probable space group: P -1
;
_chemical_formula_sum "Si O2"
_cell_formula_units_Z 16
_cell_length_a 5.463209
_cell_length_b 6.380854
_cell_length_c 27.617351
_cell_angle_alpha 110.375013
_cell_angle_beta 49.688175
_cell_angle_gamma 107.590670
_cell_volume 684.189690
_symmetry_space_group_name_H-M "P -1"
_symmetry_group_IT_number 2
_symmetry_cell_setting 'triclinic'
loop_
_space_group_symop_operation_xyz
x,y,z
-x,-y,-z
loop_
_atom_site_type_symbol
_atom_site_label
_atom_site_fract_x
_atom_site_fract_y
_atom_site_fract_z
Si Si1 0.142828 0.567981 0.540126
Si Si2 0.600482 0.297429 0.652679
Si Si3 0.147197 0.315168 0.789917
Si Si4 0.291429 0.345472 0.155652
Si Si5 0.885095 0.232557 0.007920
Si Si6 0.043820 0.012261 0.638382
Si Si7 0.209954 0.116782 0.237150
Si Si8 0.865256 0.919814 0.133337
O O1 0.500000 0.500000 0.500000
O O2 0.160324 0.830662 0.572093
O O3 0.000000 0.500000 0.500000
O O4 0.875026 0.445541 0.600268
O O5 0.391942 0.428867 0.727904
O O6 0.347488 0.166188 0.636272
O O7 0.798172 0.146314 0.650498
O O8 0.218097 0.284030 0.834544
O O9 0.828398 0.438445 0.836259
O O10 0.083546 0.061596 0.757493
O O11 0.617810 0.285987 0.085085
O O12 0.242898 0.343009 0.219670
O O13 0.045213 0.135230 0.153472
O O14 0.000000 0.500000 0.000000
O O15 0.894567 0.142000 0.944289
O O16 0.000000 0.000000 0.000000
O O17 0.846474 0.889145 0.698973
O O18 0.525377 0.003990 0.170078
#
# Coordination Sequence:
#
# PCOD9031291 Si02
#       8
#     2   2   2   2   2   2   2   2
#     4  12  28  47  73 110 149 194 249 302 375 469
#     4  11  25  46  74 109 145 200 249 308 387 454
#     4  10  24  41  68 102 136 183 247 309 370 455
#     4  11  25  41  69 101 138 190 240 312 376 447
#     4  12  27  46  70  99 146 199 251 313 393 470
#     4  11  25  46  75 105 152 192 249 315 377 458
#     4  10  22  43  66 100 138 180 240 304 375 441
#     4  11  23  43  69  97 138 181 245 301 378 445
#
# _framework density 23.385325999999999
#
# number of rings (size 3 to 8) (size 9 to 14) (size 15 to 20)
#    0.000    1.000    2.500    2.625    5.250    7.500 
#    0.000    0.000    0.000    0.000    0.000    0.000 
#    0.000    0.000    0.000    0.000    0.000    0.000 
#
# Total GULP energy -89116.368244 kJ/mol
# GULP energy per Si atom -5569.773015 kJ/mol
# Density = 2.333210 g / cm^3
# Si number density = 23.385326 Si / 1000 Ang^3
#
#
#
# Elastic Constant Matrix: (Units=GPa)
#
#
# Indices 1 2 3 4 5 6 
#
# 1 117.3136 33.1966 36.1274 4.3731 3.7952 -3.1196
# 2 33.1966 84.5295 13.0693 -9.7893 1.4571 -3.3794
# 3 36.1274 13.0693 112.9327 -3.7081 6.4811 -0.8208
# 4 4.3731 -9.7893 -3.7081 54.1785 1.8946 -1.5997
# 5 3.7952 1.4571 6.4811 1.8946 46.0272 2.6291
# 6 -3.1196 -3.3794 -0.8208 -1.5997 2.6291 47.9788
#
#
#
# Elastic Compliance Matrix: (Units=1/GPa)
#
#
# Indices 1 2 3 4 5 6 
#
# 1 0.010630 -0.003897 -0.002989 -0.001747 -0.000279 0.000323
# 2 -0.003897 0.013760 -0.000233 0.002818 -0.000244 0.000819
# 3 -0.002989 -0.000233 0.009937 0.000922 -0.001186 0.000055
# 4 -0.001747 0.002818 0.000922 0.019226 -0.000912 0.000792
# 5 -0.000279 -0.000244 -0.001186 -0.000912 0.022035 -0.001293
# 6 0.000323 0.000819 0.000055 0.000792 -0.001293 0.021019
#
#
# Mechanical properties :
#
#
# Convention : Reuss Voigt Hill
#
# Bulk Modulus (GPa) = 49.77927 53.28470 51.53199
# Shear Modulus (GPa) = 42.53799 45.12907 43.83353
#
# Velocity S-wave (km/s) = 4.26960 4.39772 4.33413
# Velocity P-wave (km/s) = 6.75565 6.97292 6.86514
#
# Compressibility (1/GPa) = 0.02008868
#
# Stress axis : x y z
#
# Youngs Moduli (GPa) = 94.07275 72.67424 100.63754
#
# Poissons Ratio (x) = 0.28323 0.30077
# Poissons Ratio (y) = 0.36663 0.02347
# Poissons Ratio (z) = 0.28115 0.01695
#
# Static dielectric constant tensor:
#      x y z
#    x 1.986500 0.025230 -0.000620 
#    y 0.025230 1.953390 -0.035150 
#    z -0.000620 -0.035150 1.888090 
# 
# From -- ./inp_files/10841.got.cif
#   From: 2010.05.17/outbox.cif.g08.bks.cpg/sg2_6_cif.got.tgz:10841.got - 2010.06.03 11:33:40.
