data_PCOD9031655
_publ_section_title
;
Structure prediction by ZEFSAII (Michael W. Deem and Ramdas Pophale) SiO2 
 PCOD9031655
Probable space group: P -1
;
_chemical_formula_sum "Si O2"
_cell_formula_units_Z 15
_cell_length_a 13.428600
_cell_length_b 6.666056
_cell_length_c 9.177091
_cell_angle_alpha 82.130262
_cell_angle_beta 116.396413
_cell_angle_gamma 79.919022
_cell_volume 702.679460
_symmetry_space_group_name_H-M "P -1"
_symmetry_group_IT_number 2
_symmetry_cell_setting 'triclinic'
loop_
_space_group_symop_operation_xyz
x,y,z
-x,-y,-z
loop_
_atom_site_type_symbol
_atom_site_label
_atom_site_fract_x
_atom_site_fract_y
_atom_site_fract_z
Si Si1 0.399196 0.150143 0.614927
Si Si2 0.950830 0.310381 0.545313
Si Si3 0.620892 0.165998 0.609640
Si Si4 0.134442 0.866455 0.755557
Si Si5 0.726433 0.912268 0.980317
Si Si6 0.775257 0.472060 0.653458
Si Si7 0.500000 0.000000 0.000000
Si Si8 0.888055 0.493522 0.020013
O O1 0.502011 0.245005 0.613604
O O2 0.277555 0.307187 0.480401
O O3 0.416190 0.103126 0.799228
O O4 0.407292 0.946782 0.541637
O O5 0.855416 0.262545 0.376179
O O6 0.893264 0.365567 0.658999
O O7 0.000000 0.500000 0.500000
O O8 0.049282 0.093336 0.644001
O O9 0.685575 0.335409 0.590350
O O10 0.704366 0.007303 0.793441
O O11 0.085820 0.718872 0.848021
O O12 0.240190 0.919775 0.904704
O O13 0.828627 0.697930 0.057845
O O14 0.604286 0.891053 0.960307
O O15 0.793990 0.491037 0.834753
O O16 0.000000 0.500000 0.000000
#
# Coordination Sequence:
#
# PCOD9031655 Si02
#       8
#     2   2   2   2   2   2   1   2
#     4  10  23  44  67  98 136 172 222 282 340 401
#     4  11  27  45  65 100 138 183 229 284 339 411
#     4  10  22  43  67  98 133 176 220 280 336 411
#     4  11  25  45  69  96 141 180 229 281 343 409
#     4  11  23  46  68 101 141 175 231 278 343 405
#     4  12  24  41  71  98 132 178 229 274 348 400
#     4  10  26  44  72  98 136 184 222 282 342 410
#     4  12  26  43  71 104 139 180 230 287 335 406
#
# _framework density 21.346858000000001
#
# number of rings (size 3 to 8) (size 9 to 14) (size 15 to 20)
#    0.000    1.067    2.667    2.800    7.467    2.133 
#    0.000    1.333    0.000    0.000    0.000    0.000 
#    0.000    0.000    0.000    0.000    0.000    0.000 
#
# Total GULP energy -83524.179116 kJ/mol
# GULP energy per Si atom -5568.278608 kJ/mol
# Density = 2.129827 g / cm^3
# Si number density = 21.346858 Si / 1000 Ang^3
#
#
#
# Elastic Constant Matrix: (Units=GPa)
#
#
# Indices 1 2 3 4 5 6 
#
# 1 46.9024 24.9650 -17.5450 1.2837 -1.8460 1.1884
# 2 24.9650 77.1757 20.9180 -4.8616 -9.6896 0.7437
# 3 -17.5450 20.9180 115.4304 -1.0987 -15.8060 4.3586
# 4 1.2837 -4.8616 -1.0987 36.5459 -3.5492 4.4931
# 5 -1.8460 -9.6896 -15.8060 -3.5492 29.9662 0.2166
# 6 1.1884 0.7437 4.3586 4.4931 0.2166 22.4638
#
#
#
# Elastic Compliance Matrix: (Units=1/GPa)
#
#
# Indices 1 2 3 4 5 6 
#
# 1 0.030274 -0.011590 0.006983 -0.001972 0.001583 -0.002194
# 2 -0.011590 0.018559 -0.004671 0.003011 0.003178 0.000272
# 3 0.006983 -0.004671 0.011347 0.000265 0.004954 -0.002517
# 4 -0.001972 0.003011 0.000265 0.028999 0.004469 -0.005890
# 5 0.001583 0.003178 0.004954 0.004469 0.037656 -0.002407
# 6 -0.002194 0.000272 -0.002517 -0.005890 -0.002407 0.046313
#
#
# Mechanical properties :
#
#
# Convention : Reuss Voigt Hill
#
# Bulk Modulus (GPa) = 24.02565 32.90940 28.46753
# Shear Modulus (GPa) = 24.32158 31.87321 28.09739
#
# Velocity S-wave (km/s) = 3.37909 3.86827 3.63193
# Velocity P-wave (km/s) = 5.14817 5.94990 5.56350
#
# Compressibility (1/GPa) = 0.04162218
#
# Stress axis : x y z
#
# Youngs Moduli (GPa) = 33.03178 53.88293 88.12849
#
# Poissons Ratio (x) = 0.62451 -0.61537
# Poissons Ratio (y) = 0.38284 0.41168
# Poissons Ratio (z) = -0.23065 0.25170
#
# Static dielectric constant tensor:
#      x y z
#    x 1.784530 0.006420 0.043410 
#    y 0.006420 1.774470 0.015960 
#    z 0.043410 0.015960 1.804840 
# 
# From -- ./inp_files/78648.got.cif
#   From: 2010.05.17/outbox.cif.g08.bks.cpg/sg2_40_cif.got.tgz:78648.got - 2010.06.03 11:33:40.
