data_PCOD9031551
_publ_section_title
;
Structure prediction by ZEFSAII (Michael W. Deem and Ramdas Pophale) SiO2 
 PCOD9031551
Probable space group: P -1
;
_chemical_formula_sum "Si O2"
_cell_formula_units_Z 14
_cell_length_a 7.953025
_cell_length_b 6.471296
_cell_length_c 16.587771
_cell_angle_alpha 127.353899
_cell_angle_beta 85.692492
_cell_angle_gamma 112.396652
_cell_volume 613.119574
_symmetry_space_group_name_H-M "P -1"
_symmetry_group_IT_number 2
_symmetry_cell_setting 'triclinic'
loop_
_space_group_symop_operation_xyz
x,y,z
-x,-y,-z
loop_
_atom_site_type_symbol
_atom_site_label
_atom_site_fract_x
_atom_site_fract_y
_atom_site_fract_z
Si Si1 0.115196 0.823597 0.599496
Si Si2 0.011239 0.729102 0.121194
Si Si3 0.405917 0.558794 0.939332
Si Si4 0.337563 0.080065 0.494469
Si Si5 0.382339 0.127781 0.141065
Si Si6 0.053158 0.751229 0.296234
Si Si7 0.311396 0.630537 0.674534
O O1 0.196922 0.977493 0.549729
O O2 0.265685 0.826643 0.659182
O O3 0.000000 0.500000 0.500000
O O4 0.988682 0.979685 0.667852
O O5 0.066426 0.626781 0.179569
O O6 0.799404 0.690212 0.126313
O O7 0.173305 0.031332 0.158329
O O8 0.000000 0.500000 0.000000
O O9 0.532343 0.623845 0.870137
O O10 0.500000 0.500000 0.000000
O O11 0.380612 0.846047 0.030906
O O12 0.236864 0.892702 0.376515
O O13 0.500000 0.000000 0.500000
O O14 0.368811 0.410739 0.568662
O O15 0.524790 0.212328 0.230769
O O16 0.879888 0.535884 0.305449
#
# Coordination Sequence:
#
# PCOD9031551 Si02
#       7
#     2   2   2   2   2   2   2
#     4  11  21  40  66  91 123 178 218 256 331 395
#     4  10  23  44  64  94 134 169 219 279 322 389
#     4  10  22  43  67  92 129 168 219 275 329 389
#     4  11  25  40  61  97 137 166 214 279 324 388
#     4  10  23  41  65  94 126 173 214 270 336 385
#     4  11  22  43  65  91 135 175 216 276 326 387
#     4  11  22  42  65  92 131 169 224 264 325 409
#
# _framework density 22.834045
#
# number of rings (size 3 to 8) (size 9 to 14) (size 15 to 20)
#    0.000    1.429    4.286    0.857    4.000    2.286 
#    2.571    0.000    0.000    0.000    0.000    0.000 
#    0.000    0.000    0.000    0.000    0.000    0.000 
#
# Total GULP energy -78191.363269 kJ/mol
# GULP energy per Si atom -5585.097376 kJ/mol
# Density = 2.278207 g / cm^3
# Si number density = 22.834045 Si / 1000 Ang^3
#
#
#
# Elastic Constant Matrix: (Units=GPa)
#
#
# Indices 1 2 3 4 5 6 
#
# 1 109.3103 40.4866 39.4370 -10.9124 44.1689 13.0550
# 2 40.4866 64.2104 11.2993 -24.5678 16.3319 6.8778
# 3 39.4370 11.2993 125.5985 -28.1271 36.7614 3.1594
# 4 -10.9124 -24.5678 -28.1271 41.0207 -8.2221 2.4956
# 5 44.1689 16.3319 36.7614 -8.2221 49.9669 -1.6400
# 6 13.0550 6.8778 3.1594 2.4956 -1.6400 42.6088
#
#
#
# Elastic Compliance Matrix: (Units=1/GPa)
#
#
# Indices 1 2 3 4 5 6 
#
# 1 0.018559 -0.009350 -0.002179 -0.004427 -0.012614 -0.004242
# 2 -0.009350 0.028108 0.004938 0.017569 -0.001767 -0.003136
# 3 -0.002179 0.004938 0.012579 0.009632 -0.007420 -0.001912
# 4 -0.004427 0.017569 0.009632 0.040114 -0.002467 -0.004638
# 5 -0.012614 -0.001767 -0.007420 -0.002467 0.037000 0.006269
# 6 -0.004242 -0.003136 -0.001912 -0.004638 0.006269 0.025930
#
#
# Mechanical properties :
#
#
# Convention : Reuss Voigt Hill
#
# Bulk Modulus (GPa) = 21.70926 53.50722 37.60824
# Shear Modulus (GPa) = 26.20195 40.57902 33.39049
#
# Velocity S-wave (km/s) = 3.39114 4.22017 3.82817
# Velocity P-wave (km/s) = 4.98610 6.87244 6.00382
#
# Compressibility (1/GPa) = 0.04606328
#
# Stress axis : x y z
#
# Youngs Moduli (GPa) = 53.88249 35.57766 79.50012
#
# Poissons Ratio (x) = 0.33264 0.17322
# Poissons Ratio (y) = 0.50378 -0.39254
# Poissons Ratio (z) = 0.11740 -0.17567
#
# Static dielectric constant tensor:
#      x y z
#    x 1.879490 -0.013330 -0.063800 
#    y -0.013330 1.850230 0.043290 
#    z -0.063800 0.043290 1.958450 
# 
# From -- ./inp_files/35942.got.cif
#   From: 2010.05.17/outbox.cif.g08.bks.cpg/sg2_18_cif.got.tgz:35942.got - 2010.06.03 11:33:40.
