data_PCOD9031349
_publ_section_title
;
Structure prediction by ZEFSAII (Michael W. Deem and Ramdas Pophale) SiO2 
 PCOD9031349
Probable space group: P -1
;
_chemical_formula_sum "Si O2"
_cell_formula_units_Z 15
_cell_length_a 8.747134
_cell_length_b 15.274479
_cell_length_c 8.198540
_cell_angle_alpha 43.075883
_cell_angle_beta 114.217107
_cell_angle_gamma 125.046488
_cell_volume 612.387119
_symmetry_space_group_name_H-M "P -1"
_symmetry_group_IT_number 2
_symmetry_cell_setting 'triclinic'
loop_
_space_group_symop_operation_xyz
x,y,z
-x,-y,-z
loop_
_atom_site_type_symbol
_atom_site_label
_atom_site_fract_x
_atom_site_fract_y
_atom_site_fract_z
Si Si1 0.541209 0.884575 0.890020
Si Si2 0.915038 0.836920 0.238132
Si Si3 0.548415 0.616107 0.220081
Si Si4 0.846253 0.283036 0.656438
Si Si5 0.860881 0.777941 0.662411
Si Si6 0.212126 0.454376 0.812942
Si Si7 0.500000 0.000000 0.000000
Si Si8 0.720701 0.978290 0.487761
O O1 0.420862 0.979293 0.733058
O O2 0.622718 0.924838 0.051860
O O3 0.654965 0.952976 0.681043
O O4 0.433753 0.712627 0.042192
O O5 0.746769 0.750454 0.160703
O O6 0.837058 0.785629 0.451765
O O7 0.073320 0.783444 0.354720
O O8 0.000000 0.000000 0.000000
O O9 0.500000 0.500000 0.500000
O O10 0.603132 0.548953 0.180166
O O11 0.774944 0.389575 0.399463
O O12 0.675737 0.159705 0.838855
O O13 0.023576 0.364473 0.744267
O O14 0.076968 0.891677 0.627627
O O15 0.735498 0.839236 0.619472
O O16 0.823449 0.625426 0.922788
#
# Coordination Sequence:
#
# PCOD9031349 Si02
#       8
#     2   2   2   2   2   2   1   2
#     4  11  23  40  61  96 129 170 218 275 325 395
#     4  11  25  41  68 100 132 168 228 279 327 395
#     4  11  23  43  64  92 133 176 216 270 336 402
#     4  10  23  41  65 100 130 174 220 273 331 403
#     4  11  22  41  67  94 129 179 219 279 329 399
#     4  10  22  43  66  91 132 178 224 261 338 407
#     4  12  22  36  66  98 128 164 218 276 322 382
#     4  10  23  39  63  93 131 173 219 266 336 395
#
# _framework density 24.494309999999999
#
# number of rings (size 3 to 8) (size 9 to 14) (size 15 to 20)
#    0.000    1.333    1.333    4.000    9.333    2.667 
#    0.000    3.333    0.000    0.000    0.000    0.000 
#    0.000    0.000    0.000    0.000    0.000    0.000 
#
# Total GULP energy -83635.956889 kJ/mol
# GULP energy per Si atom -5575.730459 kJ/mol
# Density = 2.443856 g / cm^3
# Si number density = 24.494310 Si / 1000 Ang^3
#
#
#
# Elastic Constant Matrix: (Units=GPa)
#
#
# Indices 1 2 3 4 5 6 
#
# 1 82.2463 12.9407 46.5252 -5.1579 -4.2090 -25.8445
# 2 12.9407 34.3861 31.5058 -13.7992 7.6099 -20.1023
# 3 46.5252 31.5058 194.2611 -16.2172 -12.0013 -24.6022
# 4 -5.1579 -13.7992 -16.2172 35.9706 -4.1856 -0.1499
# 5 -4.2090 7.6099 -12.0013 -4.1856 38.2379 5.2217
# 6 -25.8445 -20.1023 -24.6022 -0.1499 5.2217 43.9426
#
#
#
# Elastic Compliance Matrix: (Units=1/GPa)
#
#
# Indices 1 2 3 4 5 6 
#
# 1 0.016525 0.003368 -0.003163 0.002169 -0.000919 0.009606
# 2 0.003368 0.061830 -0.006564 0.019529 -0.015753 0.028530
# 3 -0.003163 -0.006564 0.007066 0.000606 0.003421 -0.001312
# 4 0.002169 0.019529 0.000606 0.035804 -0.001012 0.010791
# 5 -0.000919 -0.015753 0.003421 -0.001012 0.031456 -0.009572
# 6 0.009606 0.028530 -0.001312 0.010791 -0.009572 0.041898
#
#
# Mechanical properties :
#
#
# Convention : Reuss Voigt Hill
#
# Bulk Modulus (GPa) = 13.75456 54.75965 34.25710
# Shear Modulus (GPa) = 21.59529 38.29168 29.94348
#
# Velocity S-wave (km/s) = 2.97247 3.95813 3.50017
# Velocity P-wave (km/s) = 4.17234 6.57980 5.50918
#
# Compressibility (1/GPa) = 0.07270318
#
# Stress axis : x y z
#
# Youngs Moduli (GPa) = 60.51263 16.17333 141.52749
#
# Poissons Ratio (x) = -0.05448 0.44769
# Poissons Ratio (y) = -0.20383 0.92902
# Poissons Ratio (z) = 0.19142 0.10617
#
# Static dielectric constant tensor:
#      x y z
#    x 2.235990 -0.039380 0.178570 
#    y -0.039380 1.494230 -0.405800 
#    z 0.178570 -0.405800 1.641070 
# 
# From -- ./inp_files/205329.got.cif
#   From: 2010.05.17/outbox.cif.g08.bks.cpg/sg2_103_cif.got.tgz:205329.got - 2010.06.03 11:33:40.
