data_PCOD9031138
_publ_section_title
;
Structure prediction by ZEFSAII (Michael W. Deem and Ramdas Pophale) SiO2 
 PCOD9031138
Probable space group: P -1
;
_chemical_formula_sum "Si O2"
_cell_formula_units_Z 14
_cell_length_a 21.748825
_cell_length_b 13.785839
_cell_length_c 11.400701
_cell_angle_alpha 36.658645
_cell_angle_beta 150.673974
_cell_angle_gamma 161.121579
_cell_volume 536.090696
_symmetry_space_group_name_H-M "P -1"
_symmetry_group_IT_number 2
_symmetry_cell_setting 'triclinic'
loop_
_space_group_symop_operation_xyz
x,y,z
-x,-y,-z
loop_
_atom_site_type_symbol
_atom_site_label
_atom_site_fract_x
_atom_site_fract_y
_atom_site_fract_z
Si Si1 0.033795 0.628803 0.307139
Si Si2 0.218222 0.295797 0.497588
Si Si3 0.275113 0.888091 0.865007
Si Si4 0.577213 0.199985 0.282526
Si Si5 0.723753 0.753641 0.863424
Si Si6 0.830950 0.903915 0.641225
Si Si7 0.802321 0.439246 0.643541
O O1 0.236839 0.744164 0.471904
O O2 0.000000 0.500000 0.500000
O O3 0.802626 0.352792 0.108354
O O4 0.133935 0.920311 0.202272
O O5 0.469377 0.487312 0.756997
O O6 0.232579 0.499545 0.354904
O O7 0.178032 0.215362 0.373180
O O8 0.000000 0.000000 0.500000
O O9 0.255151 0.012792 0.618524
O O10 0.064955 0.695654 0.793309
O O11 0.502054 0.149201 0.071835
O O12 0.689581 0.419062 0.367571
O O13 0.340503 0.878741 0.262106
O O14 0.694307 0.698325 0.728685
O O15 0.897607 0.805074 0.148189
#
# Coordination Sequence:
#
# PCOD9031138 Si02
#       7
#     2   2   2   2   2   2   2
#     4  11  23  43  70 103 134 174 236 284 351 415
#     4  12  25  46  71 103 137 187 245 287 349 425
#     4  11  23  43  69 106 136 179 237 284 354 423
#     4  10  23  42  70  97 141 179 218 303 350 409
#     4  11  26  49  72  98 151 189 233 295 348 427
#     4  11  26  48  69 104 144 194 232 287 358 423
#     4  10  22  43  65 102 136 175 232 286 358 405
#
# _framework density 26.114985000000001
#
# number of rings (size 3 to 8) (size 9 to 14) (size 15 to 20)
#    0.000    1.143    4.286    0.857    2.000    4.571 
#    2.571    0.000    0.000    0.000    0.000    0.000 
#    0.000    0.000    0.000    0.000    0.000    0.000 
#
# Total GULP energy -78298.902143 kJ/mol
# GULP energy per Si atom -5592.778725 kJ/mol
# Density = 2.605555 g / cm^3
# Si number density = 26.114985 Si / 1000 Ang^3
#
#
#
# Elastic Constant Matrix: (Units=GPa)
#
#
# Indices 1 2 3 4 5 6 
#
# 1 130.0354 33.9312 22.7631 10.8350 -24.7015 -12.7159
# 2 33.9312 89.5392 32.5809 19.0707 -13.1514 -0.4672
# 3 22.7631 32.5809 136.8530 19.0349 -36.6922 -3.3670
# 4 10.8350 19.0707 19.0349 38.1769 5.1154 -8.2001
# 5 -24.7015 -13.1514 -36.6922 5.1154 46.5212 13.5821
# 6 -12.7159 -0.4672 -3.3670 -8.2001 13.5821 59.2477
#
#
#
# Elastic Compliance Matrix: (Units=1/GPa)
#
#
# Indices 1 2 3 4 5 6 
#
# 1 0.009427 -0.002631 0.000688 -0.002224 0.004869 0.000618
# 2 -0.002631 0.014509 -0.001326 -0.006706 0.003023 -0.002147
# 3 0.000688 -0.001326 0.011203 -0.007060 0.010356 -0.002577
# 4 -0.002224 -0.006706 -0.007060 0.037353 -0.014993 0.007675
# 5 0.004869 0.003023 0.010356 -0.014993 0.037375 -0.008986
# 6 0.000618 -0.002147 -0.002577 0.007675 -0.008986 0.019970
#
#
# Mechanical properties :
#
#
# Convention : Reuss Voigt Hill
#
# Bulk Modulus (GPa) = 34.96280 59.44199 47.20240
# Shear Modulus (GPa) = 34.26824 46.59931 40.43378
#
# Velocity S-wave (km/s) = 3.62637 4.22879 3.93911
# Velocity P-wave (km/s) = 5.56338 6.83041 6.22919
#
# Compressibility (1/GPa) = 0.02860183
#
# Stress axis : x y z
#
# Youngs Moduli (GPa) = 106.08088 68.92345 89.25856
#
# Poissons Ratio (x) = 0.18132 -0.06143
# Poissons Ratio (y) = 0.27906 0.11837
# Poissons Ratio (z) = -0.07301 0.09140
#
# Static dielectric constant tensor:
#      x y z
#    x 2.063120 -0.077590 -0.057430 
#    y -0.077590 2.186140 -0.019180 
#    z -0.057430 -0.019180 2.128180 
# 
# From -- ./inp_files/475150.got.cif
#   From: 2010.05.17/outbox.cif.g08.bks.cpg/sg2_238_cif.got.tgz:475150.got - 2010.06.03 11:33:40.
