data_PCOD9031075
_publ_section_title
;
Structure prediction by ZEFSAII (Michael W. Deem and Ramdas Pophale) SiO2 
 PCOD9031075
Probable space group: P -1
;
_chemical_formula_sum "Si O2"
_cell_formula_units_Z 14
_cell_length_a 12.627318
_cell_length_b 8.610191
_cell_length_c 11.949388
_cell_angle_alpha 142.492393
_cell_angle_beta 129.026641
_cell_angle_gamma 55.263759
_cell_volume 607.689464
_symmetry_space_group_name_H-M "P -1"
_symmetry_group_IT_number 2
_symmetry_cell_setting 'triclinic'
loop_
_space_group_symop_operation_xyz
x,y,z
-x,-y,-z
loop_
_atom_site_type_symbol
_atom_site_label
_atom_site_fract_x
_atom_site_fract_y
_atom_site_fract_z
Si Si1 0.417515 0.035663 0.851016
Si Si2 0.119299 0.659114 0.209261
Si Si3 0.655648 0.484711 0.546370
Si Si4 0.785044 0.438533 0.018781
Si Si5 0.611948 0.266054 0.984414
Si Si6 0.771932 0.529999 0.421379
Si Si7 0.934971 0.755315 0.465761
O O1 0.328959 0.316171 0.945854
O O2 0.322568 0.818532 0.648563
O O3 0.531287 0.032181 0.825844
O O4 0.500000 0.000000 0.000000
O O5 0.232240 0.496061 0.271388
O O6 0.071686 0.942290 0.389569
O O7 0.183068 0.704800 0.157121
O O8 0.000000 0.500000 0.000000
O O9 0.500000 0.500000 0.500000
O O10 0.690622 0.626634 0.536210
O O11 0.730665 0.245967 0.960432
O O12 0.901099 0.575641 0.236985
O O13 0.675852 0.358360 0.193230
O O14 0.500000 0.500000 0.000000
O O15 0.820876 0.715321 0.463177
O O16 0.914782 0.359750 0.455833
#
# Coordination Sequence:
#
# PCOD9031075 Si02
#       7
#     2   2   2   2   2   2   2
#     4  11  20  38  65  94 133 173 210 276 336 398
#     4  12  27  43  69 102 136 181 230 282 336 406
#     4  12  26  41  64 107 141 171 227 283 344 402
#     4  10  22  43  64  94 132 174 225 267 337 396
#     4   9  20  37  65  94 123 175 216 261 337 404
#     4  10  22  43  69  94 137 179 224 280 338 406
#     4  10  23  46  70  96 130 183 231 278 336 402
#
# _framework density 23.038083
#
# number of rings (size 3 to 8) (size 9 to 14) (size 15 to 20)
#    0.000    1.429    2.857    1.714    4.000    3.429 
#    0.000   11.429    0.000    0.000    0.000    0.000 
#    0.000    0.000    0.000    0.000    0.000    0.000 
#
# Total GULP energy -78182.888927 kJ/mol
# GULP energy per Si atom -5584.492066 kJ/mol
# Density = 2.298565 g / cm^3
# Si number density = 23.038083 Si / 1000 Ang^3
#
#
#
# Elastic Constant Matrix: (Units=GPa)
#
#
# Indices 1 2 3 4 5 6 
#
# 1 91.0702 -3.6626 19.7268 -8.8274 -9.0478 17.8005
# 2 -3.6626 48.1787 25.0228 -22.7920 8.2993 2.1772
# 3 19.7268 25.0228 97.3675 -23.2924 9.6342 3.7613
# 4 -8.8274 -22.7920 -23.2924 52.2713 4.6461 2.2612
# 5 -9.0478 8.2993 9.6342 4.6461 42.8225 -5.4086
# 6 17.8005 2.1772 3.7613 2.2612 -5.4086 32.7187
#
#
#
# Elastic Compliance Matrix: (Units=1/GPa)
#
#
# Indices 1 2 3 4 5 6 
#
# 1 0.013648 0.004026 -0.002972 0.002915 0.001534 -0.007299
# 2 0.004026 0.030963 -0.004890 0.012790 -0.006144 -0.005588
# 3 -0.002972 -0.004890 0.013308 0.003588 -0.003108 -0.000349
# 4 0.002915 0.012790 0.003588 0.027619 -0.006401 -0.005816
# 5 0.001534 -0.006144 -0.003108 -0.006401 0.026869 0.004816
# 6 -0.007299 -0.005588 -0.000349 -0.005816 0.004816 0.036145
#
#
# Mechanical properties :
#
#
# Convention : Reuss Voigt Hill
#
# Bulk Modulus (GPa) = 19.90146 35.42115 27.66130
# Shear Modulus (GPa) = 28.90628 38.59780 33.75204
#
# Velocity S-wave (km/s) = 3.54604 4.09759 3.83175
# Velocity P-wave (km/s) = 5.04214 6.14780 5.62221
#
# Compressibility (1/GPa) = 0.05024758
#
# Stress axis : x y z
#
# Youngs Moduli (GPa) = 73.27128 32.29673 75.14065
#
# Poissons Ratio (x) = -0.13002 0.22333
# Poissons Ratio (y) = -0.29498 0.36741
# Poissons Ratio (z) = 0.21777 0.15792
#
# Static dielectric constant tensor:
#      x y z
#    x 2.028790 -0.001010 0.000510 
#    y -0.001010 1.864840 0.010420 
#    z 0.000510 0.010420 1.821860 
# 
# From -- ./inp_files/255650.got.cif
#   From: 2010.05.17/outbox.cif.g08.bks.cpg/sg2_128_cif.got.tgz:255650.got - 2010.06.03 11:33:40.
