data_PCOD9031916
_publ_section_title
;
Structure prediction by ZEFSAII (Michael W. Deem and Ramdas Pophale) SiO2 
 PCOD9031916
Probable space group: P -1
;
_chemical_formula_sum "Si O2"
_cell_formula_units_Z 16
_cell_length_a 8.865218
_cell_length_b 12.029055
_cell_length_c 8.497302
_cell_angle_alpha 123.951645
_cell_angle_beta 105.415908
_cell_angle_gamma 73.449128
_cell_volume 713.999446
_symmetry_space_group_name_H-M "P -1"
_symmetry_group_IT_number 2
_symmetry_cell_setting 'triclinic'
loop_
_space_group_symop_operation_xyz
x,y,z
-x,-y,-z
loop_
_atom_site_type_symbol
_atom_site_label
_atom_site_fract_x
_atom_site_fract_y
_atom_site_fract_z
Si Si1 0.917878 0.380756 0.025493
Si Si2 0.233951 0.851837 0.300776
Si Si3 0.923624 0.654027 0.646625
Si Si4 0.356914 0.889567 0.714106
Si Si5 0.473624 0.098410 0.724664
Si Si6 0.995398 0.072373 0.226105
Si Si7 0.256701 0.366285 0.941863
Si Si8 0.583373 0.624058 0.680378
O O1 0.790774 0.519023 0.112413
O O2 0.964781 0.315727 0.154151
O O3 0.841078 0.282093 0.817232
O O4 0.088832 0.384667 0.000152
O O5 0.309796 0.863445 0.500214
O O6 0.368716 0.835832 0.190499
O O7 0.102800 0.977159 0.307465
O O8 0.746114 0.643097 0.648381
O O9 0.000000 0.500000 0.500000
O O10 0.940578 0.782429 0.642661
O O11 0.188004 0.918044 0.772298
O O12 0.463831 0.762072 0.721476
O O13 0.452578 0.013753 0.808825
O O14 0.323097 0.219132 0.772788
O O15 0.500000 0.000000 0.500000
O O16 0.000000 0.000000 0.000000
O O17 0.375323 0.392399 0.135391
O O18 0.500000 0.500000 0.500000
#
# Coordination Sequence:
#
# PCOD9031916 Si02
#       8
#     2   2   2   2   2   2   2   2
#     4  10  22  43  68  99 131 181 229 281 344 407
#     4  11  23  43  69  99 136 174 233 274 346 405
#     4  11  25  43  68 101 140 180 228 288 337 414
#     4  11  25  43  69  96 140 179 222 282 340 407
#     4  10  24  42  64 101 134 179 225 282 341 410
#     4  12  25  43  70 100 136 178 231 282 338 410
#     4  10  23  41  69  95 136 177 227 282 341 411
#     4  11  24  43  67 101 138 179 225 278 355 407
#
# _framework density 22.408982000000002
#
# number of rings (size 3 to 8) (size 9 to 14) (size 15 to 20)
#    0.000    1.250    1.250    3.375    3.500    9.000 
#    0.000    0.000    0.000    0.000    0.000    0.000 
#    0.000    0.000    0.000    0.000    0.000    0.000 
#
# Total GULP energy -89301.516089 kJ/mol
# GULP energy per Si atom -5581.344756 kJ/mol
# Density = 2.235798 g / cm^3
# Si number density = 22.408982 Si / 1000 Ang^3
#
#
#
# Elastic Constant Matrix: (Units=GPa)
#
#
# Indices 1 2 3 4 5 6 
#
# 1 84.5731 30.0209 17.1698 -8.7654 -3.6945 -14.7663
# 2 30.0209 136.1247 6.9561 10.9745 -0.1934 -25.7334
# 3 17.1698 6.9561 59.8933 5.5644 9.2787 -4.0333
# 4 -8.7654 10.9745 5.5644 27.4765 -7.8599 -0.0490
# 5 -3.6945 -0.1934 9.2787 -7.8599 18.2868 5.5813
# 6 -14.7663 -25.7334 -4.0333 -0.0490 5.5813 37.4999
#
#
#
# Elastic Compliance Matrix: (Units=1/GPa)
#
#
# Indices 1 2 3 4 5 6 
#
# 1 0.016604 -0.003960 -0.007059 0.011587 0.011456 0.001372
# 2 -0.003960 0.009961 0.002250 -0.007736 -0.007168 0.006575
# 3 -0.007059 0.002250 0.023162 -0.013647 -0.020321 0.004262
# 4 0.011587 -0.007736 -0.013647 0.056106 0.035568 -0.007434
# 5 0.011456 -0.007168 -0.020321 0.035568 0.087262 -0.015535
# 6 0.001372 0.006575 0.004262 -0.007434 -0.015535 0.034480
#
#
# Mechanical properties :
#
#
# Convention : Reuss Voigt Hill
#
# Bulk Modulus (GPa) = 31.06578 43.20940 37.13759
# Shear Modulus (GPa) = 19.54341 31.74892 25.64617
#
# Velocity S-wave (km/s) = 2.95638 3.76812 3.38666
# Velocity P-wave (km/s) = 5.05438 6.18511 5.64811
#
# Compressibility (1/GPa) = 0.03218976
#
# Stress axis : x y z
#
# Youngs Moduli (GPa) = 60.22795 100.39183 43.17483
#
# Poissons Ratio (x) = 0.39752 0.30477
# Poissons Ratio (y) = 0.23848 -0.09716
# Poissons Ratio (z) = 0.42514 -0.22591
#
# Static dielectric constant tensor:
#      x y z
#    x 1.898960 0.055440 -0.014280 
#    y 0.055440 1.870130 0.005540 
#    z -0.014280 0.005540 1.966340 
# 
# From -- ./inp_files/190262.got.cif
#   From: 2010.05.17/outbox.cif.g08.bks.cpg/sg2_96_cif.got.tgz:190262.got - 2010.06.03 11:33:40.
