data_PCOD9031060
_publ_section_title
;
Structure prediction by ZEFSAII (Michael W. Deem and Ramdas Pophale) SiO2 
 PCOD9031060
Probable space group: P -1
;
_chemical_formula_sum "Si O2"
_cell_formula_units_Z 16
_cell_length_a 22.671232
_cell_length_b 6.850778
_cell_length_c 5.281449
_cell_angle_alpha 103.784725
_cell_angle_beta 119.271914
_cell_angle_gamma 76.216728
_cell_volume 687.725187
_symmetry_space_group_name_H-M "P -1"
_symmetry_group_IT_number 2
_symmetry_cell_setting 'triclinic'
loop_
_space_group_symop_operation_xyz
x,y,z
-x,-y,-z
loop_
_atom_site_type_symbol
_atom_site_label
_atom_site_fract_x
_atom_site_fract_y
_atom_site_fract_z
Si Si1 0.231152 0.480281 0.392490
Si Si2 0.012804 0.324765 0.680330
Si Si3 0.063658 0.955313 0.313881
Si Si4 0.209543 0.735949 0.924279
Si Si5 0.367429 0.785403 0.271049
Si Si6 0.856771 0.862174 0.865919
Si Si7 0.540431 0.912652 0.306697
Si Si8 0.609737 0.467221 0.263793
O O1 0.203756 0.587394 0.105301
O O2 0.206493 0.262489 0.305272
O O3 0.313082 0.475143 0.566309
O O4 0.203840 0.616990 0.616683
O O5 0.000000 0.500000 0.500000
O O6 0.946384 0.264153 0.662939
O O7 0.041846 0.127438 0.523225
O O8 0.077116 0.311881 0.002884
O O9 0.127886 0.016445 0.316978
O O10 0.000000 0.000000 0.000000
O O11 0.286311 0.791193 0.106357
O O12 0.159886 0.947053 0.918040
O O13 0.397425 0.639579 0.516548
O O14 0.388921 0.999501 0.461416
O O15 0.394240 0.686415 0.028085
O O16 0.557277 0.673185 0.220793
O O17 0.500000 0.000000 0.500000
O O18 0.500000 0.000000 0.000000
#
# Coordination Sequence:
#
# PCOD9031060 Si02
#       8
#     2   2   2   2   2   2   2   2
#     4  10  24  42  69 100 129 174 221 272 340 394
#     4  10  23  43  65  91 127 173 213 262 337 400
#     4   9  22  42  60  90 123 166 209 258 328 392
#     4  10  24  43  67  99 132 170 221 274 337 399
#     4  10  22  43  65  90 134 178 212 276 336 381
#     4  11  24  41  68  96 130 166 219 284 327 398
#     4  12  25  38  63 100 129 176 229 270 320 388
#     4  10  22  43  64  92 135 175 219 270 330 397
#
# _framework density 23.265107
#
# number of rings (size 3 to 8) (size 9 to 14) (size 15 to 20)
#    0.000    1.750    0.000    2.250    3.500    9.000 
#    0.000    7.500    0.000    0.000    0.000    0.000 
#    0.000    0.000    0.000    0.000    0.000    0.000 
#
# Total GULP energy -89381.842177 kJ/mol
# GULP energy per Si atom -5586.365136 kJ/mol
# Density = 2.321215 g / cm^3
# Si number density = 23.265107 Si / 1000 Ang^3
#
#
#
# Elastic Constant Matrix: (Units=GPa)
#
#
# Indices 1 2 3 4 5 6 
#
# 1 62.8915 28.7281 23.0477 -10.7902 -16.6418 3.9555
# 2 28.7281 115.3209 29.5303 -8.3402 -11.7549 -11.7419
# 3 23.0477 29.5303 88.8025 -10.2020 -27.9535 -1.4035
# 4 -10.7902 -8.3402 -10.2020 42.4944 2.0315 -0.0076
# 5 -16.6418 -11.7549 -27.9535 2.0315 34.1668 1.2503
# 6 3.9555 -11.7419 -1.4035 -0.0076 1.2503 37.7152
#
#
#
# Elastic Compliance Matrix: (Units=1/GPa)
#
#
# Indices 1 2 3 4 5 6 
#
# 1 0.021296 -0.004303 -0.001266 0.003887 0.007767 -0.003877
# 2 -0.004303 0.010741 -0.002551 0.000435 -0.000649 0.003722
# 3 -0.001266 -0.002551 0.016448 0.002561 0.011826 -0.000441
# 4 0.003887 0.000435 0.002561 0.025093 0.002656 -0.000260
# 5 0.007767 -0.000649 0.011826 0.002656 0.042418 -0.001982
# 6 -0.003877 0.003722 -0.000441 -0.000260 -0.001982 0.028129
#
#
# Mechanical properties :
#
#
# Convention : Reuss Voigt Hill
#
# Bulk Modulus (GPa) = 31.01197 47.73634 39.37415
# Shear Modulus (GPa) = 29.22067 35.25584 32.23826
#
# Velocity S-wave (km/s) = 3.54784 3.89703 3.72653
# Velocity P-wave (km/s) = 5.49014 6.38844 5.95625
#
# Compressibility (1/GPa) = 0.03224562
#
# Stress axis : x y z
#
# Youngs Moduli (GPa) = 46.95746 93.10385 60.79884
#
# Poissons Ratio (x) = 0.40061 0.07697
# Poissons Ratio (y) = 0.20205 0.15507
# Poissons Ratio (z) = 0.05945 0.23747
#
# Static dielectric constant tensor:
#      x y z
#    x 2.039540 -0.036740 0.246530 
#    y -0.036740 1.757520 0.299840 
#    z 0.246530 0.299840 0.903880 
# 
# From -- ./inp_files/14729.got.cif
#   From: 2010.05.17/outbox.cif.g08.bks.cpg/sg2_8_cif.got.tgz:14729.got - 2010.06.03 11:33:40.
