data_PCOD9031210
_publ_section_title
;
Structure prediction by ZEFSAII (Michael W. Deem and Ramdas Pophale) SiO2 
 PCOD9031210
Probable space group: P -1
;
_chemical_formula_sum "Si O2"
_cell_formula_units_Z 16
_cell_length_a 16.301040
_cell_length_b 9.273311
_cell_length_c 19.679471
_cell_angle_alpha 28.223874
_cell_angle_beta 34.182134
_cell_angle_gamma 37.374957
_cell_volume 765.800934
_symmetry_space_group_name_H-M "P -1"
_symmetry_group_IT_number 2
_symmetry_cell_setting 'triclinic'
loop_
_space_group_symop_operation_xyz
x,y,z
-x,-y,-z
loop_
_atom_site_type_symbol
_atom_site_label
_atom_site_fract_x
_atom_site_fract_y
_atom_site_fract_z
Si Si1 0.789024 0.879106 0.178263
Si Si2 0.579237 0.138263 0.778371
Si Si3 0.085465 0.749022 0.946646
Si Si4 0.514106 0.817847 0.820576
Si Si5 0.310832 0.159217 0.041846
Si Si6 0.073337 0.227960 0.651714
Si Si7 0.874569 0.332043 0.451437
Si Si8 0.241930 0.520463 0.309534
O O1 0.827429 0.533433 0.331084
O O2 0.816782 0.112987 0.121914
O O3 0.628193 0.010821 0.198840
O O4 0.915121 0.865404 0.040097
O O5 0.718581 0.294422 0.607335
O O6 0.538644 0.039798 0.772883
O O7 0.643008 0.851573 0.906293
O O8 0.424845 0.293426 0.860458
O O9 0.107649 0.883398 0.802203
O O10 0.144816 0.376490 0.059762
O O11 0.656601 0.703265 0.721700
O O12 0.500000 0.500000 0.000000
O O13 0.315297 0.801996 0.165722
O O14 0.054027 0.453142 0.637153
O O15 0.204560 0.310031 0.483413
O O16 0.919266 0.309634 0.682093
O O17 0.000000 0.000000 0.500000
#
# Coordination Sequence:
#
# PCOD9031210 Si02
#       8
#     2   2   2   2   2   2   2   2
#     4  10  24  40  66  98 130 175 219 262 331 396
#     4  11  24  40  65  98 129 172 219 259 333 382
#     4  10  22  43  65  94 132 169 220 272 324 388
#     4  12  23  42  65  93 134 175 213 270 324 393
#     4  11  23  42  68  98 128 172 220 271 320 393
#     4  10  23  42  65  95 127 176 219 266 332 386
#     4  11  22  42  67  96 133 173 217 274 324 388
#     4  11  23  42  67  98 129 172 222 264 326 391
#
# _framework density 20.893158
#
# number of rings (size 3 to 8) (size 9 to 14) (size 15 to 20)
#    0.000    1.250    2.500    3.000    1.750    4.000 
#    0.000    2.500    0.000    0.000    0.000    0.000 
#    0.000    0.000    0.000    0.000    0.000    0.000 
#
# Total GULP energy -89322.384321 kJ/mol
# GULP energy per Si atom -5582.649020 kJ/mol
# Density = 2.084560 g / cm^3
# Si number density = 20.893158 Si / 1000 Ang^3
#
#
#
# Elastic Constant Matrix: (Units=GPa)
#
#
# Indices 1 2 3 4 5 6 
#
# 1 60.3285 12.1374 31.5680 10.0931 6.4184 -1.5093
# 2 12.1374 54.9755 27.7456 9.7903 14.2994 -4.3525
# 3 31.5680 27.7456 98.0184 15.9056 15.8351 -8.2531
# 4 10.0931 9.7903 15.9056 24.7526 -3.6974 1.9969
# 5 6.4184 14.2994 15.8351 -3.6974 32.7302 5.3643
# 6 -1.5093 -4.3525 -8.2531 1.9969 5.3643 17.5331
#
#
#
# Elastic Compliance Matrix: (Units=1/GPa)
#
#
# Indices 1 2 3 4 5 6 
#
# 1 0.020508 -0.000419 -0.005333 -0.005075 -0.001882 0.000305
# 2 -0.000419 0.025679 -0.002313 -0.011293 -0.013018 0.010519
# 3 -0.005333 -0.002313 0.016413 -0.009596 -0.008680 0.010441
# 4 -0.005075 -0.011293 -0.009596 0.057824 0.020482 -0.020609
# 5 -0.001882 -0.013018 -0.008680 0.020482 0.047092 -0.024220
# 6 0.000305 0.010519 0.010441 -0.020609 -0.024220 0.074344
#
#
# Mechanical properties :
#
#
# Convention : Reuss Voigt Hill
#
# Bulk Modulus (GPa) = 21.51877 39.58050 30.54964
# Shear Modulus (GPa) = 18.28290 24.46128 21.37209
#
# Velocity S-wave (km/s) = 2.96136 3.42538 3.20179
# Velocity P-wave (km/s) = 4.69198 5.88470 5.32186
#
# Compressibility (1/GPa) = 0.04647106
#
# Stress axis : x y z
#
# Youngs Moduli (GPa) = 48.76227 38.94158 60.92757
#
# Poissons Ratio (x) = 0.01630 0.32492
# Poissons Ratio (y) = 0.02042 0.14092
# Poissons Ratio (z) = 0.26005 0.09007
#
# Static dielectric constant tensor:
#      x y z
#    x 1.761250 0.012560 -0.008600 
#    y 0.012560 1.713250 -0.010690 
#    z -0.008600 -0.010690 1.780900 
# 
# From -- ./inp_files/461899.got.cif
#   From: 2010.05.17/outbox.cif.g08.bks.cpg/sg2_231_cif.got.tgz:461899.got - 2010.06.03 11:33:40.
