data_PCOD9031850
_publ_section_title
;
Structure prediction by ZEFSAII (Michael W. Deem and Ramdas Pophale) SiO2 
 PCOD9031850
Probable space group: P -1
;
_chemical_formula_sum "Si O2"
_cell_formula_units_Z 16
_cell_length_a 20.224582
_cell_length_b 14.302143
_cell_length_c 8.527559
_cell_angle_alpha 67.489825
_cell_angle_beta 119.104260
_cell_angle_gamma 159.603988
_cell_volume 729.159609
_symmetry_space_group_name_H-M "P -1"
_symmetry_group_IT_number 2
_symmetry_cell_setting 'triclinic'
loop_
_space_group_symop_operation_xyz
x,y,z
-x,-y,-z
loop_
_atom_site_type_symbol
_atom_site_label
_atom_site_fract_x
_atom_site_fract_y
_atom_site_fract_z
Si Si1 0.778677 0.259290 0.463024
Si Si2 0.862533 0.069235 0.343561
Si Si3 0.275689 0.255275 0.845207
Si Si4 0.768695 0.561178 0.269580
Si Si5 0.114939 0.550177 0.180285
Si Si6 0.915477 0.792142 0.956315
Si Si7 0.530016 0.806833 0.274800
Si Si8 0.508086 0.092190 0.129300
O O1 0.807661 0.326846 0.633582
O O2 0.701133 0.258434 0.272172
O O3 0.000000 0.500000 0.500000
O O4 0.615062 0.965880 0.427272
O O5 0.063387 0.284144 0.531029
O O6 0.955125 0.259922 0.197545
O O7 0.764144 0.845879 0.302298
O O8 0.693367 0.924046 0.335705
O O9 0.255228 0.351315 0.767815
O O10 0.500000 0.500000 0.000000
O O11 0.101527 0.993684 0.929082
O O12 0.549527 0.231914 0.216529
O O13 0.854648 0.656522 0.129491
O O14 0.313816 0.781968 0.152740
O O15 0.000000 0.500000 0.000000
O O16 0.701164 0.527046 0.781055
O O17 0.000000 0.000000 0.000000
O O18 0.530966 0.896631 0.084076
#
# Coordination Sequence:
#
# PCOD9031850 Si02
#       8
#     2   2   2   2   2   2   2   2
#     4  12  23  42  62  98 133 175 224 269 329 402
#     4  12  23  44  64  97 136 174 225 276 331 398
#     4  11  24  44  70  97 129 175 224 278 343 395
#     4  10  22  43  68  96 133 175 222 279 329 395
#     4  12  25  42  66  96 140 177 221 276 339 397
#     4   9  21  43  67  94 129 171 222 273 332 395
#     4  11  23  42  67  96 135 179 221 272 337 398
#     4  11  22  42  65  96 134 173 217 279 333 395
#
# _framework density 21.943071
#
# number of rings (size 3 to 8) (size 9 to 14) (size 15 to 20)
#    0.000    1.000    3.750    3.375    1.750    0.000 
#    4.500    6.875    0.000    0.000    0.000    0.000 
#    0.000    0.000    0.000    0.000    0.000    0.000 
#
# Total GULP energy -89342.089256 kJ/mol
# GULP energy per Si atom -5583.880578 kJ/mol
# Density = 2.189313 g / cm^3
# Si number density = 21.943071 Si / 1000 Ang^3
#
#
#
# Elastic Constant Matrix: (Units=GPa)
#
#
# Indices 1 2 3 4 5 6 
#
# 1 114.8796 24.0112 37.2287 7.1798 6.7717 -13.1006
# 2 24.0112 84.6398 -4.3926 25.7660 10.2569 -5.9399
# 3 37.2287 -4.3926 79.6388 18.7626 15.5574 -8.0868
# 4 7.1798 25.7660 18.7626 32.0467 -8.0017 -5.2191
# 5 6.7717 10.2569 15.5574 -8.0017 45.4745 17.1697
# 6 -13.1006 -5.9399 -8.0868 -5.2191 17.1697 37.3695
#
#
#
# Elastic Compliance Matrix: (Units=1/GPa)
#
#
# Indices 1 2 3 4 5 6 
#
# 1 0.012575 -0.007845 -0.009726 0.010465 0.004978 0.000231
# 2 -0.007845 0.030899 0.020658 -0.039269 -0.024453 0.012382
# 3 -0.009726 0.020658 0.034154 -0.038873 -0.027136 0.014304
# 4 0.010465 -0.039269 -0.038873 0.091085 0.043519 -0.018259
# 5 0.004978 -0.024453 -0.027136 0.043519 0.053763 -0.026638
# 6 0.000231 0.012382 0.014304 -0.018259 -0.026638 0.041593
#
#
# Mechanical properties :
#
#
# Convention : Reuss Voigt Hill
#
# Bulk Modulus (GPa) = 11.93288 43.65032 27.79160
# Shear Modulus (GPa) = 17.49292 37.79886 27.64589
#
# Velocity S-wave (km/s) = 2.82653 4.15491 3.55335
# Velocity P-wave (km/s) = 4.01276 6.55388 5.43395
#
# Compressibility (1/GPa) = 0.08380210
#
# Stress axis : x y z
#
# Youngs Moduli (GPa) = 79.52225 32.36352 29.27884
#
# Poissons Ratio (x) = 0.25389 0.28476
# Poissons Ratio (y) = 0.62385 -0.60483
# Poissons Ratio (z) = 0.77341 -0.66855
#
# Static dielectric constant tensor:
#      x y z
#    x 1.824340 -0.017610 -0.028600 
#    y -0.017610 1.899350 0.020060 
#    z -0.028600 0.020060 1.799010 
# 
# From -- ./inp_files/282449.got.cif
#   From: 2010.05.17/outbox.cif.g08.bks.cpg/sg2_142_cif.got.tgz:282449.got - 2010.06.03 11:33:40.
