data_PCOD9031605
_publ_section_title
;
Structure prediction by ZEFSAII (Michael W. Deem and Ramdas Pophale) SiO2 
 PCOD9031605
Probable space group: P -1
;
_chemical_formula_sum "Si O2"
_cell_formula_units_Z 12
_cell_length_a 8.999835
_cell_length_b 12.184335
_cell_length_c 9.365761
_cell_angle_alpha 39.167582
_cell_angle_beta 56.782804
_cell_angle_gamma 55.900141
_cell_volume 524.406458
_symmetry_space_group_name_H-M "P -1"
_symmetry_group_IT_number 2
_symmetry_cell_setting 'triclinic'
loop_
_space_group_symop_operation_xyz
x,y,z
-x,-y,-z
loop_
_atom_site_type_symbol
_atom_site_label
_atom_site_fract_x
_atom_site_fract_y
_atom_site_fract_z
Si Si1 0.617363 0.878686 0.716791
Si Si2 0.942995 0.183875 0.757746
Si Si3 0.895059 0.640280 0.032998
Si Si4 0.064133 0.950512 0.674058
Si Si5 0.336169 0.225364 0.510910
Si Si6 0.344831 0.490244 0.477668
O O1 0.620814 0.755694 0.698931
O O2 0.733986 0.018531 0.458338
O O3 0.423323 0.014814 0.716041
O O4 0.725473 0.770639 0.902203
O O5 0.750817 0.325528 0.739820
O O6 0.115815 0.269557 0.596094
O O7 0.941161 0.106739 0.677635
O O8 0.000000 0.000000 0.000000
O O9 0.813061 0.553449 0.294700
O O10 0.000000 0.500000 0.000000
O O11 0.026083 0.757579 0.911361
O O12 0.000000 0.000000 0.500000
O O13 0.409379 0.341686 0.471389
O O14 0.500000 0.500000 0.500000
#
# Coordination Sequence:
#
# PCOD9031605 Si02
#       6
#     2   2   2   2   2   2
#     4   9  21  40  69  97 130 180 220 275 330 400
#     4  11  24  43  66  92 129 181 217 269 342 389
#     4  11  23  40  67  97 137 177 222 272 339 389
#     4   9  19  38  66  94 128 169 222 267 328 396
#     4  10  22  43  67  95 139 169 225 276 334 391
#     4  12  28  42  67 102 140 172 225 282 326 396
#
# _framework density 22.883012999999998
#
# number of rings (size 3 to 8) (size 9 to 14) (size 15 to 20)
#    0.000    1.667    0.000    4.500    9.333    2.000 
#    0.000    0.833    0.000    0.000    0.000    0.000 
#    0.000    0.000    0.000    0.000    0.000    0.000 
#
# Total GULP energy -67007.795342 kJ/mol
# GULP energy per Si atom -5583.982945 kJ/mol
# Density = 2.283093 g / cm^3
# Si number density = 22.883013 Si / 1000 Ang^3
#
#
#
# Elastic Constant Matrix: (Units=GPa)
#
#
# Indices 1 2 3 4 5 6 
#
# 1 103.1066 44.6017 7.2292 -14.3246 17.8216 12.9311
# 2 44.6017 105.7973 9.5169 -5.1385 5.6922 20.2687
# 3 7.2292 9.5169 64.7453 -9.7422 6.5034 -1.0889
# 4 -14.3246 -5.1385 -9.7422 24.5748 -0.3838 9.9208
# 5 17.8216 5.6922 6.5034 -0.3838 42.0359 -7.9798
# 6 12.9311 20.2687 -1.0889 9.9208 -7.9798 50.9113
#
#
#
# Elastic Compliance Matrix: (Units=1/GPa)
#
#
# Indices 1 2 3 4 5 6 
#
# 1 0.014722 -0.004529 0.001102 0.009942 -0.006636 -0.004890
# 2 -0.004529 0.012311 -0.001175 0.001095 -0.000322 -0.004040
# 3 0.001102 -0.001175 0.016934 0.007638 -0.003130 -0.001429
# 4 0.009942 0.001095 0.007638 0.055624 -0.007860 -0.014869
# 5 -0.006636 -0.000322 -0.003130 -0.007860 0.028530 0.007750
# 6 -0.004890 -0.004040 -0.001429 -0.014869 0.007750 0.026574
#
#
# Mechanical properties :
#
#
# Convention : Reuss Voigt Hill
#
# Bulk Modulus (GPa) = 28.76450 44.03830 36.40140
# Shear Modulus (GPa) = 28.49207 37.65784 33.07495
#
# Velocity S-wave (km/s) = 3.53245 4.06108 3.80596
# Velocity P-wave (km/s) = 5.40695 6.42469 5.93767
#
# Compressibility (1/GPa) = 0.03476507
#
# Stress axis : x y z
#
# Youngs Moduli (GPa) = 67.92484 81.22502 59.05141
#
# Poissons Ratio (x) = 0.36786 -0.06509
# Poissons Ratio (y) = 0.30762 0.06938
# Poissons Ratio (z) = -0.07487 0.09543
#
# Static dielectric constant tensor:
#      x y z
#    x 1.906060 -0.028650 -0.038700 
#    y -0.028650 1.861540 -0.021620 
#    z -0.038700 -0.021620 1.933950 
# 
# From -- ./inp_files/156480.got.cif
#   From: 2010.05.17/outbox.cif.g08.bks.cpg/sg2_79_cif.got.tgz:156480.got - 2010.06.03 11:33:40.
