data_PCOD9031043
_publ_section_title
;
Structure prediction by ZEFSAII (Michael W. Deem and Ramdas Pophale) SiO2 
 PCOD9031043
Probable space group: P -1
;
_chemical_formula_sum "Si O2"
_cell_formula_units_Z 14
_cell_length_a 11.460538
_cell_length_b 12.294221
_cell_length_c 10.971697
_cell_angle_alpha 119.636834
_cell_angle_beta 25.339694
_cell_angle_gamma 114.639707
_cell_volume 573.188848
_symmetry_space_group_name_H-M "P -1"
_symmetry_group_IT_number 2
_symmetry_cell_setting 'triclinic'
loop_
_space_group_symop_operation_xyz
x,y,z
-x,-y,-z
loop_
_atom_site_type_symbol
_atom_site_label
_atom_site_fract_x
_atom_site_fract_y
_atom_site_fract_z
Si Si1 0.967786 0.980180 0.680832
Si Si2 0.797339 0.677455 0.211895
Si Si3 0.785620 0.574209 0.911796
Si Si4 0.552075 0.172771 0.939328
Si Si5 0.218971 0.044623 0.726286
Si Si6 0.791051 0.348066 0.613284
Si Si7 0.689469 0.262829 0.110837
O O1 0.212561 0.944349 0.332011
O O2 0.742980 0.878711 0.828079
O O3 0.154687 0.978523 0.624574
O O4 0.798745 0.115201 0.933623
O O5 0.799735 0.808544 0.207203
O O6 0.526991 0.693192 0.557339
O O7 0.817886 0.578355 0.028213
O O8 0.045696 0.666432 0.066564
O O9 0.886455 0.444235 0.679080
O O10 0.960247 0.674045 0.729261
O O11 0.465509 0.595513 0.193607
O O12 0.658454 0.245997 0.764387
O O13 0.561049 0.264426 0.098342
O O14 0.500000 0.000000 0.500000
O O15 0.000000 0.000000 0.000000
#
# Coordination Sequence:
#
# PCOD9031043 Si02
#       7
#     2   2   2   2   2   2   2
#     4  11  23  38  59  90 123 167 200 244 306 344
#     4  11  23  40  62  83 123 167 194 245 319 347
#     4  10  22  43  64  87 124 154 198 254 318 358
#     4  12  23  39  65  88 123 160 212 249 294 353
#     4  11  23  36  54  87 123 154 201 241 283 371
#     4  10  23  40  64  94 115 154 206 256 299 366
#     4  11  23  42  57  91 123 165 205 244 291 370
#
# _framework density 24.424761
#
# number of rings (size 3 to 8) (size 9 to 14) (size 15 to 20)
#    0.000    1.143    0.000    7.714    6.000    0.000 
#    0.000    1.429    0.000    0.000    0.000    0.000 
#    0.000    0.000    0.000    0.000    0.000    0.000 
#
# Total GULP energy -78265.150626 kJ/mol
# GULP energy per Si atom -5590.367902 kJ/mol
# Density = 2.436917 g / cm^3
# Si number density = 24.424761 Si / 1000 Ang^3
#
#
#
# Elastic Constant Matrix: (Units=GPa)
#
#
# Indices 1 2 3 4 5 6 
#
# 1 94.6799 33.1153 44.0236 11.2202 -4.5572 39.0293
# 2 33.1153 43.9110 9.9201 -5.2262 0.6548 11.1819
# 3 44.0236 9.9201 151.9458 -11.9141 0.4938 20.2506
# 4 11.2202 -5.2262 -11.9141 21.4884 18.0562 6.9580
# 5 -4.5572 0.6548 0.4938 18.0562 47.5817 -1.3365
# 6 39.0293 11.1819 20.2506 6.9580 -1.3365 41.9350
#
#
#
# Elastic Compliance Matrix: (Units=1/GPa)
#
#
# Indices 1 2 3 4 5 6 
#
# 1 0.037652 -0.028103 -0.010843 -0.045609 0.021018 -0.014076
# 2 -0.028103 0.048326 0.009050 0.050527 -0.022630 -0.000206
# 3 -0.010843 0.009050 0.011247 0.023266 -0.010163 -0.001937
# 4 -0.045609 0.050527 0.023266 0.151619 -0.063106 -0.009428
# 5 0.021018 -0.022630 -0.010163 -0.063106 0.047488 0.003365
# 6 -0.014076 -0.000206 -0.001937 -0.009428 0.003365 0.039609
#
#
# Mechanical properties :
#
#
# Convention : Reuss Voigt Hill
#
# Bulk Modulus (GPa) = 26.71370 51.62832 39.17101
# Shear Modulus (GPa) = 12.24863 35.76622 24.00743
#
# Velocity S-wave (km/s) = 2.24181 3.83082 3.13855
# Velocity P-wave (km/s) = 4.20260 6.38361 5.40428
#
# Compressibility (1/GPa) = 0.03743398
#
# Stress axis : x y z
#
# Youngs Moduli (GPa) = 26.55935 20.69297 88.90905
#
# Poissons Ratio (x) = 0.58152 0.96402
# Poissons Ratio (y) = 0.74638 -0.80462
# Poissons Ratio (z) = 0.28798 -0.18727
#
# Static dielectric constant tensor:
#      x y z
#    x 2.109560 -0.125250 -0.012700 
#    y -0.125250 2.095060 0.062810 
#    z -0.012700 0.062810 1.894230 
# 
# From -- ./inp_files/434175.got.cif
#   From: 2010.05.17/outbox.cif.g08.bks.cpg/sg2_218_cif.got.tgz:434175.got - 2010.06.03 11:33:40.
