data_PCOD9031195
_publ_section_title
;
Structure prediction by ZEFSAII (Michael W. Deem and Ramdas Pophale) SiO2 
 PCOD9031195
Probable space group: P -1
;
_chemical_formula_sum "Si O2"
_cell_formula_units_Z 14
_cell_length_a 13.415194
_cell_length_b 8.212269
_cell_length_c 17.609956
_cell_angle_alpha 134.254523
_cell_angle_beta 40.339032
_cell_angle_gamma 104.455477
_cell_volume 713.535372
_symmetry_space_group_name_H-M "P -1"
_symmetry_group_IT_number 2
_symmetry_cell_setting 'triclinic'
loop_
_space_group_symop_operation_xyz
x,y,z
-x,-y,-z
loop_
_atom_site_type_symbol
_atom_site_label
_atom_site_fract_x
_atom_site_fract_y
_atom_site_fract_z
Si Si1 0.894014 0.626349 0.021181
Si Si2 0.901830 0.076692 0.499310
Si Si3 0.185727 0.371446 0.635792
Si Si4 0.237850 0.608541 0.531598
Si Si5 0.846357 0.155047 0.866447
Si Si6 0.568076 0.696170 0.831124
Si Si7 0.539561 0.166505 0.470366
O O1 0.728421 0.950503 0.240523
O O2 0.814823 0.450599 0.989551
O O3 0.000000 0.500000 0.000000
O O4 0.015733 0.582794 0.862623
O O5 0.720743 0.413505 0.702366
O O6 0.826716 0.889740 0.458628
O O7 0.000000 0.000000 0.500000
O O8 0.074571 0.974757 0.305825
O O9 0.192619 0.494122 0.592453
O O10 0.367345 0.297112 0.554062
O O11 0.316555 0.394693 0.344915
O O12 0.406307 0.645545 0.460059
O O13 0.034741 0.914443 0.728195
O O14 0.640447 0.236825 0.033902
O O15 0.500000 0.000000 0.000000
O O16 0.500000 0.000000 0.500000
#
# Coordination Sequence:
#
# PCOD9031195 Si02
#       7
#     2   2   2   2   2   2   2
#     4  11  20  39  65  92 121 176 211 255 325 396
#     4  10  24  45  69  93 130 174 220 274 330 383
#     4  11  25  40  63  98 133 166 219 275 326 387
#     4  11  25  41  64  99 134 171 211 281 330 382
#     4  10  22  43  65  93 129 170 221 260 331 398
#     4  11  26  44  69  96 126 176 223 269 332 393
#     4  12  21  40  68  92 134 172 217 261 328 398
#
# _framework density 19.620612000000001
#
# number of rings (size 3 to 8) (size 9 to 14) (size 15 to 20)
#    0.000    1.143    2.857    3.857    4.000    3.429 
#    2.571    0.000    0.000    0.000    0.000    0.000 
#    0.000    0.000    0.000    0.000    0.000    0.000 
#
# Total GULP energy -78080.960166 kJ/mol
# GULP energy per Si atom -5577.211440 kJ/mol
# Density = 1.957595 g / cm^3
# Si number density = 19.620612 Si / 1000 Ang^3
#
#
#
# Elastic Constant Matrix: (Units=GPa)
#
#
# Indices 1 2 3 4 5 6 
#
# 1 96.1170 34.1121 45.3829 -6.1149 6.2964 -14.7389
# 2 34.1121 78.8058 30.2486 -15.0424 15.1875 -17.5794
# 3 45.3829 30.2486 83.9118 -1.9328 19.0463 4.5262
# 4 -6.1149 -15.0424 -1.9328 31.0541 7.2549 4.7860
# 5 6.2964 15.1875 19.0463 7.2549 28.9543 -3.8841
# 6 -14.7389 -17.5794 4.5262 4.7860 -3.8841 31.1248
#
#
#
# Elastic Compliance Matrix: (Units=1/GPa)
#
#
# Indices 1 2 3 4 5 6 
#
# 1 0.017069 -0.003022 -0.010018 -0.001491 0.006019 0.008814
# 2 -0.003022 0.021190 -0.004139 0.010258 -0.009176 0.008417
# 3 -0.010018 -0.004139 0.022398 0.002247 -0.012591 -0.012256
# 4 -0.001491 0.010258 0.002247 0.041696 -0.017496 -0.003834
# 5 0.006019 -0.009176 -0.012591 -0.017496 0.051870 0.008662
# 6 0.008814 0.008417 -0.012256 -0.003834 0.008662 0.044509
#
#
# Mechanical properties :
#
#
# Convention : Reuss Voigt Hill
#
# Bulk Modulus (GPa) = 38.02379 53.14685 45.58532
# Shear Modulus (GPa) = 20.67332 28.16604 24.41968
#
# Velocity S-wave (km/s) = 3.24952 3.79295 3.53171
# Velocity P-wave (km/s) = 5.78799 6.80647 6.31779
#
# Compressibility (1/GPa) = 0.02629933
#
# Stress axis : x y z
#
# Youngs Moduli (GPa) = 58.58574 47.19121 44.64586
#
# Poissons Ratio (x) = 0.14259 0.44728
# Poissons Ratio (y) = 0.17702 0.18481
# Poissons Ratio (z) = 0.58693 0.19534
#
# Static dielectric constant tensor:
#      x y z
#    x 1.172720 0.035360 0.036950 
#    y 0.035360 1.702410 0.019350 
#    z 0.036950 0.019350 1.663210 
# 
# From -- ./inp_files/60780.got.cif
#   From: 2010.05.17/outbox.cif.g08.bks.cpg/sg2_31_cif.got.tgz:60780.got - 2010.06.03 11:33:40.
