data_PCOD9031983
_publ_section_title
;
Structure prediction by ZEFSAII (Michael W. Deem and Ramdas Pophale) SiO2 
 PCOD9031983
Probable space group: P -1
;
_chemical_formula_sum "Si O2"
_cell_formula_units_Z 14
_cell_length_a 5.894447
_cell_length_b 11.936302
_cell_length_c 12.030155
_cell_angle_alpha 130.601108
_cell_angle_beta 76.280164
_cell_angle_gamma 112.431172
_cell_volume 593.950355
_symmetry_space_group_name_H-M "P -1"
_symmetry_group_IT_number 2
_symmetry_cell_setting 'triclinic'
loop_
_space_group_symop_operation_xyz
x,y,z
-x,-y,-z
loop_
_atom_site_type_symbol
_atom_site_label
_atom_site_fract_x
_atom_site_fract_y
_atom_site_fract_z
Si Si1 0.613520 0.154437 0.657934
Si Si2 0.229784 0.125134 0.113156
Si Si3 0.558966 0.617357 0.292107
Si Si4 0.059768 0.412275 0.331387
Si Si5 0.044590 0.128700 0.481335
Si Si6 0.194428 0.921840 0.180864
Si Si7 0.731440 0.337825 0.111245
O O1 0.469515 0.278379 0.741521
O O2 0.861712 0.221932 0.599696
O O3 0.500000 0.000000 0.500000
O O4 0.660196 0.104888 0.744104
O O5 0.327847 0.036594 0.141183
O O6 0.456672 0.215960 0.067367
O O7 0.124751 0.258165 0.258846
O O8 0.000000 0.000000 0.000000
O O9 0.692093 0.744295 0.452594
O O10 0.709824 0.498558 0.170911
O O11 0.300177 0.515802 0.305405
O O12 0.833993 0.368739 0.243790
O O13 0.000000 0.500000 0.500000
O O14 0.014444 0.017499 0.307071
O O15 0.000000 0.000000 0.500000
O O16 0.102377 0.750619 0.028461
#
# Coordination Sequence:
#
# PCOD9031983 Si02
#       7
#     2   2   2   2   2   2   2
#     4  11  23  43  71 104 133 179 230 285 346 407
#     4  11  25  45  70 101 138 181 234 289 348 412
#     4  11  24  45  68  98 146 175 232 287 342 417
#     4  11  27  43  71 101 139 190 229 286 355 398
#     4  10  22  43  69 102 131 177 240 280 332 417
#     4  11  24  43  73 101 135 182 231 287 345 411
#     4  11  26  46  65 105 143 178 235 283 350 420
#
# _framework density 23.570993000000001
#
# number of rings (size 3 to 8) (size 9 to 14) (size 15 to 20)
#    0.000    1.143    4.286    1.286    6.000    2.857 
#    0.000    6.429    0.000    0.000    0.000    0.000 
#    0.000    0.000    0.000    0.000    0.000    0.000 
#
# Total GULP energy -78125.360157 kJ/mol
# GULP energy per Si atom -5580.382868 kJ/mol
# Density = 2.351734 g / cm^3
# Si number density = 23.570993 Si / 1000 Ang^3
#
#
#
# Elastic Constant Matrix: (Units=GPa)
#
#
# Indices 1 2 3 4 5 6 
#
# 1 73.1841 39.4372 29.8510 18.5131 4.4463 -16.6806
# 2 39.4372 113.3122 48.7140 25.7311 -5.5342 -34.9098
# 3 29.8510 48.7140 129.4890 18.8928 1.3537 -18.9605
# 4 18.5131 25.7311 18.8928 39.6634 -10.0935 -3.8315
# 5 4.4463 -5.5342 1.3537 -10.0935 37.7919 16.6768
# 6 -16.6806 -34.9098 -18.9605 -3.8315 16.6768 61.6991
#
#
#
# Elastic Compliance Matrix: (Units=1/GPa)
#
#
# Indices 1 2 3 4 5 6 
#
# 1 0.019310 -0.003508 -0.001392 -0.007333 -0.006509 0.004112
# 2 -0.003508 0.014633 -0.002774 -0.006397 -0.001972 0.006614
# 3 -0.001392 -0.002774 0.009672 -0.002500 -0.001863 0.001375
# 4 -0.007333 -0.006397 -0.002500 0.036587 0.013166 -0.007657
# 5 -0.006509 -0.001972 -0.001863 0.013166 0.035972 -0.012354
# 6 0.004112 0.006614 0.001375 -0.007657 -0.012354 0.024348
#
#
# Mechanical properties :
#
#
# Convention : Reuss Voigt Hill
#
# Bulk Modulus (GPa) = 35.37529 61.33220 48.35375
# Shear Modulus (GPa) = 30.24948 41.02974 35.63961
#
# Velocity S-wave (km/s) = 3.58625 4.17668 3.89268
# Velocity P-wave (km/s) = 5.67352 7.02398 6.38455
#
# Compressibility (1/GPa) = 0.02826832
#
# Stress axis : x y z
#
# Youngs Moduli (GPa) = 51.78644 68.34000 103.38601
#
# Poissons Ratio (x) = 0.23975 0.14388
# Poissons Ratio (y) = 0.18168 0.28675
# Poissons Ratio (z) = 0.07207 0.18955
#
# Static dielectric constant tensor:
#      x y z
#    x 2.206260 0.058680 -0.074300 
#    y 0.058680 1.881330 -0.013390 
#    z -0.074300 -0.013390 1.913910 
# 
# From -- ./inp_files/365393.got.cif
#   From: 2010.05.17/outbox.cif.g08.bks.cpg/sg2_183_cif.got.tgz:365393.got - 2010.06.03 11:33:40.
