data_PCOD9031617
_publ_section_title
;
Structure prediction by ZEFSAII (Michael W. Deem and Ramdas Pophale) SiO2 
 PCOD9031617
Probable space group: P -1
;
_chemical_formula_sum "Si O2"
_cell_formula_units_Z 13
_cell_length_a 7.263626
_cell_length_b 9.404539
_cell_length_c 15.332404
_cell_angle_alpha 39.945105
_cell_angle_beta 135.255121
_cell_angle_gamma 113.734045
_cell_volume 449.405922
_symmetry_space_group_name_H-M "P -1"
_symmetry_group_IT_number 2
_symmetry_cell_setting 'triclinic'
loop_
_space_group_symop_operation_xyz
x,y,z
-x,-y,-z
loop_
_atom_site_type_symbol
_atom_site_label
_atom_site_fract_x
_atom_site_fract_y
_atom_site_fract_z
Si Si1 0.141684 0.783817 0.769882
Si Si2 0.981188 0.488484 0.295966
Si Si3 0.325134 0.196818 0.687877
Si Si4 0.500000 0.000000 0.500000
Si Si5 0.113478 0.785398 0.052050
Si Si6 0.161124 0.883338 0.340416
Si Si7 0.425969 0.456533 0.165006
O O1 0.044030 0.723098 0.673987
O O2 0.879177 0.921109 0.680602
O O3 0.320449 0.958357 0.751343
O O4 0.305856 0.550616 0.985854
O O5 0.693118 0.542561 0.224955
O O6 0.228383 0.403318 0.487877
O O7 0.996514 0.685394 0.141652
O O8 0.606694 0.173147 0.841124
O O9 0.071163 0.224871 0.657089
O O10 0.502968 0.183782 0.331686
O O11 0.472231 0.778588 0.521108
O O12 0.197574 0.603087 0.086423
O O13 0.911017 0.007667 0.829009
#
# Coordination Sequence:
#
# PCOD9031617 Si02
#       7
#     2   2   2   1   2   2   2
#     4   9  21  40  67  92 129 176 214 269 325 379
#     4  12  22  41  64 102 131 168 226 271 316 388
#     4  10  22  43  67  96 134 176 216 267 330 390
#     4  12  20  40  60 102 128 162 218 274 314 380
#     4  11  24  44  70  93 135 181 210 265 337 392
#     4   9  21  39  67  94 128 172 221 260 327 387
#     4  11  24  40  67  97 133 169 220 272 325 386
#
# _framework density 28.92708
#
# number of rings (size 3 to 8) (size 9 to 14) (size 15 to 20)
#    0.923    0.615    1.538    3.692    0.000    4.308 
#    0.000    0.769    0.000    0.000    0.000    0.000 
#    0.000    0.000    0.000    0.000    0.000    0.000 
#
# Total GULP energy -72782.805967 kJ/mol
# GULP energy per Si atom -5598.677382 kJ/mol
# Density = 2.886124 g / cm^3
# Si number density = 28.927080 Si / 1000 Ang^3
#
#
#
# Elastic Constant Matrix: (Units=GPa)
#
#
# Indices 1 2 3 4 5 6 
#
# 1 108.6304 42.5516 15.0983 -10.6023 -14.7335 24.3870
# 2 42.5516 106.7068 23.9312 26.5561 -3.9129 7.0204
# 3 15.0983 23.9312 179.8295 -2.2581 -9.1682 11.4576
# 4 -10.6023 26.5561 -2.2581 58.1502 19.3322 3.3849
# 5 -14.7335 -3.9129 -9.1682 19.3322 40.2760 3.5029
# 6 24.3870 7.0204 11.4576 3.3849 3.5029 63.2514
#
#
#
# Elastic Compliance Matrix: (Units=1/GPa)
#
#
# Indices 1 2 3 4 5 6 
#
# 1 0.013529 -0.006201 0.000195 0.004750 0.002542 -0.004958
# 2 -0.006201 0.014373 -0.001442 -0.008795 0.002902 0.001367
# 3 0.000195 -0.001442 0.005866 0.000633 0.001056 -0.001070
# 4 0.004750 -0.008795 0.000633 0.025955 -0.011280 -0.001734
# 5 0.002542 0.002902 0.001056 -0.011280 0.031927 -0.002658
# 6 -0.004958 0.001367 -0.001070 -0.001734 -0.002658 0.018004
#
#
# Mechanical properties :
#
#
# Convention : Reuss Voigt Hill
#
# Bulk Modulus (GPa) = 52.98956 62.03652 57.51304
# Shear Modulus (GPa) = 38.21439 53.24123 45.72781
#
# Velocity S-wave (km/s) = 3.63858 4.29480 3.98024
# Velocity P-wave (km/s) = 6.00087 6.78867 6.40689
#
# Compressibility (1/GPa) = 0.01887164
#
# Stress axis : x y z
#
# Youngs Moduli (GPa) = 73.91527 69.57512 170.46576
#
# Poissons Ratio (x) = 0.43145 -0.03316
# Poissons Ratio (y) = 0.45836 0.24574
# Poissons Ratio (z) = -0.01438 0.10030
#
# Static dielectric constant tensor:
#      x y z
#    x 2.362850 -0.072660 0.038140 
#    y -0.072660 2.450480 -0.034910 
#    z 0.038140 -0.034910 2.156890 
# 
# From -- ./inp_files/497573.got.cif
#   From: 2010.05.17/outbox.cif.g08.bks.cpg/sg2_249_cif.got.tgz:497573.got - 2010.06.03 11:33:40.
