data_PCOD9031159
_publ_section_title
;
Structure prediction by ZEFSAII (Michael W. Deem and Ramdas Pophale) SiO2 
 PCOD9031159
Probable space group: P -1
;
_chemical_formula_sum "Si O2"
_cell_formula_units_Z 16
_cell_length_a 13.644843
_cell_length_b 21.894527
_cell_length_c 17.942912
_cell_angle_alpha 19.699815
_cell_angle_beta 34.574594
_cell_angle_gamma 26.095690
_cell_volume 785.938923
_symmetry_space_group_name_H-M "P -1"
_symmetry_group_IT_number 2
_symmetry_cell_setting 'triclinic'
loop_
_space_group_symop_operation_xyz
x,y,z
-x,-y,-z
loop_
_atom_site_type_symbol
_atom_site_label
_atom_site_fract_x
_atom_site_fract_y
_atom_site_fract_z
Si Si1 0.865789 0.714656 0.279371
Si Si2 0.586306 0.827309 0.917824
Si Si3 0.155098 0.511125 0.592609
Si Si4 0.414219 0.398654 0.964743
Si Si5 0.071904 0.957255 0.916253
Si Si6 0.924868 0.675837 0.000483
Si Si7 0.199569 0.849743 0.485936
Si Si8 0.435995 0.536273 0.583967
O O1 0.891492 0.605274 0.308254
O O2 0.000000 0.500000 0.500000
O O3 0.966400 0.850075 0.066994
O O4 0.603015 0.898597 0.258134
O O5 0.593915 0.766970 0.896601
O O6 0.496273 0.706194 0.152645
O O7 0.827972 0.695487 0.956187
O O8 0.408015 0.413200 0.537071
O O9 0.133454 0.434620 0.775010
O O10 0.009498 0.793356 0.350447
O O11 0.376523 0.609031 0.699231
O O12 0.657947 0.237243 0.033931
O O13 0.191637 0.528736 0.004175
O O14 0.000000 0.000000 0.000000
O O15 0.794081 0.951618 0.778077
O O16 0.191701 0.737906 0.542187
O O17 0.000000 0.000000 0.500000
O O18 0.500000 0.500000 0.500000
#
# Coordination Sequence:
#
# PCOD9031159 Si02
#       8
#     2   2   2   2   2   2   2   2
#     4  12  25  39  68  98 123 172 220 271 329 387
#     4  11  21  38  65  95 128 165 218 266 330 397
#     4  12  25  41  64 100 136 165 223 276 329 395
#     4  10  22  43  65  89 130 173 219 268 323 398
#     4  12  22  45  67  94 128 170 224 279 322 384
#     4  11  24  39  63  97 131 172 212 266 342 395
#     4   9  21  39  60  90 132 169 215 270 324 394
#     4  11  21  38  64  96 134 171 208 275 343 384
#
# _framework density 20.357817000000001
#
# number of rings (size 3 to 8) (size 9 to 14) (size 15 to 20)
#    0.000    1.000    5.000    1.875    3.500    1.500 
#    0.000    0.625    0.000    0.000    0.000    0.000 
#    0.000    0.000    0.000    0.000    0.000    0.000 
#
# Total GULP energy -89128.936767 kJ/mol
# GULP energy per Si atom -5570.558548 kJ/mol
# Density = 2.031148 g / cm^3
# Si number density = 20.357817 Si / 1000 Ang^3
#
#
#
# Elastic Constant Matrix: (Units=GPa)
#
#
# Indices 1 2 3 4 5 6 
#
# 1 79.3234 10.8939 10.3104 -16.8263 -21.1396 -2.4886
# 2 10.8939 87.6172 30.4601 -20.7617 2.9795 -8.3698
# 3 10.3104 30.4601 123.5728 -15.6186 -5.8592 3.4426
# 4 -16.8263 -20.7617 -15.6186 37.5402 2.6023 1.2694
# 5 -21.1396 2.9795 -5.8592 2.6023 28.9457 1.8922
# 6 -2.4886 -8.3698 3.4426 1.2694 1.8922 33.4748
#
#
#
# Elastic Compliance Matrix: (Units=1/GPa)
#
#
# Indices 1 2 3 4 5 6 
#
# 1 0.017359 -0.001131 0.000219 0.006394 0.012260 0.000050
# 2 -0.001131 0.014617 -0.002977 0.006470 -0.003766 0.003844
# 3 0.000219 -0.002977 0.009247 0.002206 0.002263 -0.001891
# 4 0.006394 0.006470 0.002206 0.033888 0.001371 0.000504
# 5 0.012260 -0.003766 0.002263 0.001371 0.044408 -0.002825
# 6 0.000050 0.003844 -0.001891 0.000504 -0.002825 0.031173
#
#
# Mechanical properties :
#
#
# Convention : Reuss Voigt Hill
#
# Bulk Modulus (GPa) = 29.90074 43.76024 36.83049
# Shear Modulus (GPa) = 29.47794 35.91542 32.69668
#
# Velocity S-wave (km/s) = 3.80938 4.20480 4.01196
# Velocity P-wave (km/s) = 5.83677 6.71685 6.29222
#
# Compressibility (1/GPa) = 0.03344399
#
# Stress axis : x y z
#
# Youngs Moduli (GPa) = 57.60768 68.41298 108.14721
#
# Poissons Ratio (x) = 0.07739 -0.02364
# Poissons Ratio (y) = 0.06517 0.32191
# Poissons Ratio (z) = -0.01259 0.20364
#
# Static dielectric constant tensor:
#      x y z
#    x 1.837870 0.017910 -0.057760 
#    y 0.017910 1.851190 -0.011570 
#    z -0.057760 -0.011570 1.732960 
# 
# From -- ./inp_files/532826.got.cif
#   From: 2010.05.17/outbox.cif.g08.bks.cpg/sg2_267_cif.got.tgz:532826.got - 2010.06.03 11:33:40.
