data_PCOD9031001
_publ_section_title
;
Structure prediction by ZEFSAII (Michael W. Deem and Ramdas Pophale) SiO2 
 PCOD9031001
Probable space group: P -1
;
_chemical_formula_sum "Si O2"
_cell_formula_units_Z 10
_cell_length_a 13.446389
_cell_length_b 8.814551
_cell_length_c 12.909376
_cell_angle_alpha 111.149259
_cell_angle_beta 148.272334
_cell_angle_gamma 46.169271
_cell_volume 463.653601
_symmetry_space_group_name_H-M "P -1"
_symmetry_group_IT_number 2
_symmetry_cell_setting 'triclinic'
loop_
_space_group_symop_operation_xyz
x,y,z
-x,-y,-z
loop_
_atom_site_type_symbol
_atom_site_label
_atom_site_fract_x
_atom_site_fract_y
_atom_site_fract_z
Si Si1 0.281381 0.372794 0.019094
Si Si2 0.732830 0.277313 0.272577
Si Si3 0.784900 0.585813 0.503043
Si Si4 0.822358 0.962934 0.792949
Si Si5 0.825568 0.910694 0.542712
O O1 0.439433 0.370818 0.066727
O O2 0.541398 0.144417 0.273193
O O3 0.083175 0.366539 0.787049
O O4 0.036673 0.660424 0.925325
O O5 0.712662 0.470151 0.351215
O O6 0.868468 0.212027 0.262353
O O7 0.000000 0.000000 0.500000
O O8 0.845920 0.701266 0.514069
O O9 0.496125 0.829080 0.377925
O O10 0.770965 0.007114 0.634888
O O11 0.000000 0.000000 0.000000
#
# Coordination Sequence:
#
# PCOD9031001 Si02
#       5
#     2   2   2   2   2
#     4  10  22  43  66  93 130 158 209 262 303 375
#     4  10  22  43  63  96 127 162 210 255 309 375
#     4  11  23  42  65  92 129 163 209 257 310 368
#     4  11  23  42  64  93 128 164 209 260 307 371
#     4  10  23  41  66  95 124 167 208 251 319 366
#
# _framework density 21.567826
#
# number of rings (size 3 to 8) (size 9 to 14) (size 15 to 20)
#    0.000    1.600    2.000    3.000    0.000   10.400 
#   10.800    0.000    0.000    0.000    0.000    0.000 
#    0.000    0.000    0.000    0.000    0.000    0.000 
#
# Total GULP energy -55892.803440 kJ/mol
# GULP energy per Si atom -5589.280344 kJ/mol
# Density = 2.151874 g / cm^3
# Si number density = 21.567826 Si / 1000 Ang^3
#
#
#
# Elastic Constant Matrix: (Units=GPa)
#
#
# Indices 1 2 3 4 5 6 
#
# 1 104.0403 41.8981 28.5482 -4.1934 3.4096 -8.4629
# 2 41.8981 40.8529 22.2176 -7.1160 4.4063 -8.4733
# 3 28.5482 22.2176 115.7911 0.5221 -0.7672 -0.5863
# 4 -4.1934 -7.1160 0.5221 28.5436 6.3707 3.7198
# 5 3.4096 4.4063 -0.7672 6.3707 50.2690 -4.4529
# 6 -8.4629 -8.4733 -0.5863 3.7198 -4.4529 24.0476
#
#
#
# Elastic Compliance Matrix: (Units=1/GPa)
#
#
# Indices 1 2 3 4 5 6 
#
# 1 0.016561 -0.016879 -0.000830 -0.001932 0.000613 0.000273
# 2 -0.016879 0.048450 -0.005156 0.009331 -0.003575 0.008900
# 3 -0.000830 -0.005156 0.009834 -0.001554 0.000723 -0.001495
# 4 -0.001932 0.009331 -0.001554 0.039058 -0.006068 -0.004595
# 5 0.000613 -0.003575 0.000723 -0.006068 0.021286 0.003854
# 6 0.000273 0.008900 -0.001495 -0.004595 0.003854 0.046204
#
#
# Mechanical properties :
#
#
# Convention : Reuss Voigt Hill
#
# Bulk Modulus (GPa) = 34.34621 49.55690 41.95156
# Shear Modulus (GPa) = 21.11223 31.77339 26.44281
#
# Velocity S-wave (km/s) = 3.13209 3.84237 3.50527
# Velocity P-wave (km/s) = 5.38882 6.53546 5.98964
#
# Compressibility (1/GPa) = 0.02911529
#
# Stress axis : x y z
#
# Youngs Moduli (GPa) = 60.38198 20.63980 101.68403
#
# Poissons Ratio (x) = 0.34839 0.08442
# Poissons Ratio (y) = 1.01921 0.52423
# Poissons Ratio (z) = 0.05013 0.10641
#
# Static dielectric constant tensor:
#      x y z
#    x 1.795690 -0.006400 0.014510 
#    y -0.006400 1.751720 -0.007150 
#    z 0.014510 -0.007150 1.815390 
# 
# From -- ./inp_files/30957.got.cif
#   From: 2010.05.17/outbox.cif.g08.bks.cpg/sg2_16_cif.got.tgz:30957.got - 2010.06.03 11:33:40.
