data_PCOD9031706
_publ_section_title
;
Structure prediction by ZEFSAII (Michael W. Deem and Ramdas Pophale) SiO2 
 PCOD9031706
Probable space group: P -1
;
_chemical_formula_sum "Si O2"
_cell_formula_units_Z 14
_cell_length_a 9.484806
_cell_length_b 5.355580
_cell_length_c 13.024975
_cell_angle_alpha 102.224516
_cell_angle_beta 119.127345
_cell_angle_gamma 91.443160
_cell_volume 558.440941
_symmetry_space_group_name_H-M "P -1"
_symmetry_group_IT_number 2
_symmetry_cell_setting 'triclinic'
loop_
_space_group_symop_operation_xyz
x,y,z
-x,-y,-z
loop_
_atom_site_type_symbol
_atom_site_label
_atom_site_fract_x
_atom_site_fract_y
_atom_site_fract_z
Si Si1 0.429193 0.408909 0.750003
Si Si2 0.038119 0.336216 0.843292
Si Si3 0.140761 0.827069 0.033009
Si Si4 0.507097 0.143165 0.354647
Si Si5 0.103952 0.280308 0.544170
Si Si6 0.760282 0.031701 0.597683
Si Si7 0.372045 0.167602 0.018469
O O1 0.233563 0.379735 0.687328
O O2 0.459049 0.120189 0.711940
O O3 0.532424 0.550787 0.892315
O O4 0.474067 0.606257 0.688174
O O5 0.899256 0.316170 0.885430
O O6 0.113531 0.633425 0.910176
O O7 0.200123 0.197402 0.904170
O O8 0.304879 0.017294 0.085304
O O9 0.000000 0.000000 0.000000
O O10 0.334458 0.075775 0.343585
O O11 0.642024 0.174797 0.497257
O O12 0.000000 0.500000 0.500000
O O13 0.926984 0.217123 0.700673
O O14 0.204880 0.215960 0.474735
O O15 0.000000 0.000000 0.500000
O O16 0.500000 0.000000 0.000000
#
# Coordination Sequence:
#
# PCOD9031706 Si02
#       7
#     2   2   2   2   2   2   2
#     4  11  25  46  72  96 143 179 227 291 349 411
#     4  10  22  43  68 100 136 181 233 291 344 413
#     4   9  21  42  65  98 135 181 227 282 355 404
#     4  10  24  46  72 107 131 182 229 297 353 399
#     4  11  25  45  67  95 135 183 223 275 346 410
#     4  10  23  42  71 103 135 177 238 289 343 421
#     4  11  26  42  65 102 136 188 232 282 349 420
#
# _framework density 25.069797000000001
#
# number of rings (size 3 to 8) (size 9 to 14) (size 15 to 20)
#    0.000    1.714    0.000    2.571   10.000    8.000 
#   12.857    0.000    0.000    0.000    0.000    0.000 
#    0.000    0.000    0.000    0.000    0.000    0.000 
#
# Total GULP energy -78280.384913 kJ/mol
# GULP energy per Si atom -5591.456065 kJ/mol
# Density = 2.501274 g / cm^3
# Si number density = 25.069797 Si / 1000 Ang^3
#
#
#
# Elastic Constant Matrix: (Units=GPa)
#
#
# Indices 1 2 3 4 5 6 
#
# 1 151.0877 28.4318 31.4058 7.9614 18.0409 11.0148
# 2 28.4318 91.0358 16.6142 7.0700 26.1229 7.1538
# 3 31.4058 16.6142 74.3456 13.6137 28.0985 10.9332
# 4 7.9614 7.0700 13.6137 42.9840 8.2313 9.2207
# 5 18.0409 26.1229 28.0985 8.2313 47.0658 14.8139
# 6 11.0148 7.1538 10.9332 9.2207 14.8139 46.2326
#
#
#
# Elastic Compliance Matrix: (Units=1/GPa)
#
#
# Indices 1 2 3 4 5 6 
#
# 1 0.007579 -0.001798 -0.002642 -0.000076 -0.000041 -0.000874
# 2 -0.001798 0.013528 0.000505 -0.000821 -0.007192 0.000684
# 3 -0.002642 0.000505 0.018863 -0.003673 -0.009883 -0.000010
# 4 -0.000076 -0.000821 -0.003673 0.025520 -0.000559 -0.003897
# 5 -0.000041 -0.007192 -0.009883 -0.000559 0.033508 -0.007165
# 6 -0.000874 0.000684 -0.000010 -0.003897 -0.007165 0.024808
#
#
# Mechanical properties :
#
#
# Convention : Reuss Voigt Hill
#
# Bulk Modulus (GPa) = 31.15332 52.15253 41.65292
# Shear Modulus (GPa) = 35.11825 43.25765 39.18795
#
# Velocity S-wave (km/s) = 3.74681 4.15841 3.95796
# Velocity P-wave (km/s) = 5.58317 6.62605 6.12684
#
# Compressibility (1/GPa) = 0.03209931
#
# Stress axis : x y z
#
# Youngs Moduli (GPa) = 131.94590 73.92044 53.01319
#
# Poissons Ratio (x) = 0.13294 0.14003
# Poissons Ratio (y) = 0.23729 -0.02675
# Poissons Ratio (z) = 0.34854 -0.03729
#
# Static dielectric constant tensor:
#      x y z
#    x 2.064660 0.067550 0.029480 
#    y 0.067550 1.957550 -0.014950 
#    z 0.029480 -0.014950 2.160900 
# 
# From -- ./inp_files/373045.got.cif
#   From: 2010.05.17/outbox.cif.g08.bks.cpg/sg2_187_cif.got.tgz:373045.got - 2010.06.03 11:33:40.
