data_PCOD9031025
_publ_section_title
;
Structure prediction by ZEFSAII (Michael W. Deem and Ramdas Pophale) SiO2 
 PCOD9031025
Probable space group: P -1
;
_chemical_formula_sum "Si O2"
_cell_formula_units_Z 14
_cell_length_a 7.970016
_cell_length_b 12.941018
_cell_length_c 15.252216
_cell_angle_alpha 48.419794
_cell_angle_beta 53.424041
_cell_angle_gamma 91.693874
_cell_volume 667.803696
_symmetry_space_group_name_H-M "P -1"
_symmetry_group_IT_number 2
_symmetry_cell_setting 'triclinic'
loop_
_space_group_symop_operation_xyz
x,y,z
-x,-y,-z
loop_
_atom_site_type_symbol
_atom_site_label
_atom_site_fract_x
_atom_site_fract_y
_atom_site_fract_z
Si Si1 0.478933 0.603225 0.161771
Si Si2 0.654887 0.937109 0.573771
Si Si3 0.831297 0.067151 0.257671
Si Si4 0.764932 0.487320 0.528588
Si Si5 0.710675 0.922250 0.183326
Si Si6 0.305869 0.842431 0.071665
Si Si7 0.746920 0.680360 0.758917
O O1 0.429709 0.547088 0.311327
O O2 0.401848 0.728093 0.097333
O O3 0.273389 0.412453 0.273084
O O4 0.820191 0.743170 0.952674
O O5 0.351351 0.876028 0.714501
O O6 0.666335 0.802271 0.699992
O O7 0.720348 0.935407 0.452598
O O8 0.923117 0.162536 0.393668
O O9 0.764227 0.958411 0.249261
O O10 0.562149 0.301236 0.633622
O O11 0.000000 0.500000 0.500000
O O12 0.965742 0.684740 0.299198
O O13 0.654735 0.047986 0.088654
O O14 0.000000 0.000000 0.000000
O O15 0.500000 0.000000 0.000000
O O16 0.500000 0.500000 0.000000
#
# Coordination Sequence:
#
# PCOD9031025 Si02
#       7
#     2   2   2   2   2   2   2
#     4  11  23  43  70  97 134 178 226 281 333 412
#     4  10  26  47  70  96 137 183 222 293 330 397
#     4  11  24  46  65 103 142 177 222 278 356 391
#     4  10  22  43  64 100 128 178 225 266 336 411
#     4  12  24  43  67 100 143 173 222 285 341 410
#     4  11  23  42  71  97 136 181 225 279 330 410
#     4  11  24  46  72  98 126 176 242 274 334 402
#
# _framework density 20.964243
#
# number of rings (size 3 to 8) (size 9 to 14) (size 15 to 20)
#    0.000    1.143    5.714    0.000    6.000    3.429 
#    2.571    0.000    0.000    0.000    0.000    0.000 
#    0.000    0.000    0.000    0.000    0.000    0.000 
#
# Total GULP energy -78299.771407 kJ/mol
# GULP energy per Si atom -5592.840815 kJ/mol
# Density = 2.091653 g / cm^3
# Si number density = 20.964243 Si / 1000 Ang^3
#
#
#
# Elastic Constant Matrix: (Units=GPa)
#
#
# Indices 1 2 3 4 5 6 
#
# 1 61.6923 20.5824 34.9376 -2.7971 -11.2540 4.7588
# 2 20.5824 114.1515 48.1467 -7.8745 -2.8509 28.8951
# 3 34.9376 48.1467 113.9677 -0.7994 -3.2279 -4.5770
# 4 -2.7971 -7.8745 -0.7994 39.1713 -3.2949 -2.9681
# 5 -11.2540 -2.8509 -3.2279 -3.2949 27.3508 5.5761
# 6 4.7588 28.8951 -4.5770 -2.9681 5.5761 36.8870
#
#
#
# Elastic Compliance Matrix: (Units=1/GPa)
#
#
# Indices 1 2 3 4 5 6 
#
# 1 0.022292 0.000812 -0.007114 0.002003 0.009825 -0.005719
# 2 0.000812 0.015252 -0.007097 0.002310 0.004090 -0.013365
# 3 -0.007114 -0.007097 0.014183 -0.001315 -0.003930 0.008725
# 4 0.002003 0.002310 -0.001315 0.026410 0.004244 -0.000748
# 5 0.009825 0.004090 -0.003930 0.004244 0.043356 -0.011171
# 6 -0.005719 -0.013365 0.008725 -0.000748 -0.011171 0.041028
#
#
# Mechanical properties :
#
#
# Convention : Reuss Voigt Hill
#
# Bulk Modulus (GPa) = 40.11366 55.23831 47.67598
# Shear Modulus (GPa) = 25.30010 33.09149 29.19579
#
# Velocity S-wave (km/s) = 3.47770 3.97731 3.73587
# Velocity P-wave (km/s) = 5.94153 6.89188 6.43427
#
# Compressibility (1/GPa) = 0.02492917
#
# Stress axis : x y z
#
# Youngs Moduli (GPa) = 44.86011 65.56618 70.50497
#
# Poissons Ratio (x) = -0.05327 0.50159
# Poissons Ratio (y) = -0.03645 0.50038
# Poissons Ratio (z) = 0.31914 0.46532
#
# Static dielectric constant tensor:
#      x y z
#    x 1.766860 0.006140 0.009280 
#    y 0.006140 1.743620 0.028920 
#    z 0.009280 0.028920 1.751170 
# 
# From -- ./inp_files/498932.got.cif
#   From: 2010.05.17/outbox.cif.g08.bks.cpg/sg2_250_cif.got.tgz:498932.got - 2010.06.03 11:33:40.
