data_PCOD9031512
_publ_section_title
;
Structure prediction by ZEFSAII (Michael W. Deem and Ramdas Pophale) SiO2 
 PCOD9031512
Probable space group: P -1
;
_chemical_formula_sum "Si O2"
_cell_formula_units_Z 14
_cell_length_a 12.400279
_cell_length_b 17.912595
_cell_length_c 8.975690
_cell_angle_alpha 45.927915
_cell_angle_beta 34.894828
_cell_angle_gamma 30.094090
_cell_volume 571.199112
_symmetry_space_group_name_H-M "P -1"
_symmetry_group_IT_number 2
_symmetry_cell_setting 'triclinic'
loop_
_space_group_symop_operation_xyz
x,y,z
-x,-y,-z
loop_
_atom_site_type_symbol
_atom_site_label
_atom_site_fract_x
_atom_site_fract_y
_atom_site_fract_z
Si Si1 0.804988 0.760079 0.567678
Si Si2 0.212268 0.983483 0.186600
Si Si3 0.614212 0.393858 0.875968
Si Si4 0.581693 0.912652 0.304381
Si Si5 0.789440 0.530902 0.000334
Si Si6 0.379577 0.326021 0.702549
Si Si7 0.240165 0.842425 0.750199
O O1 0.779833 0.791317 0.375994
O O2 0.740921 0.666487 0.804199
O O3 0.109358 0.661778 0.411158
O O4 0.601951 0.922146 0.647947
O O5 0.485478 0.821460 0.154531
O O6 0.000000 0.000000 0.500000
O O7 0.074723 0.026589 0.118885
O O8 0.253360 0.091026 0.005046
O O9 0.500000 0.500000 0.000000
O O10 0.388697 0.471318 0.898266
O O11 0.705338 0.244390 0.043484
O O12 0.378448 0.900501 0.512985
O O13 0.113153 0.392419 0.826652
O O14 0.701301 0.563442 0.227946
O O15 0.598068 0.277755 0.401953
#
# Coordination Sequence:
#
# PCOD9031512 Si02
#       7
#     2   2   2   2   2   2   2
#     4  11  24  42  69 106 138 181 238 284 364 405
#     4  10  22  43  67 102 142 177 235 279 347 422
#     4  12  27  44  73 106 136 185 243 295 352 413
#     4  11  23  41  71 104 140 181 228 294 354 413
#     4  11  24  48  69  97 148 184 232 296 345 430
#     4  10  24  44  70  98 141 194 222 281 364 414
#     4  11  24  43  73 103 141 179 236 300 345 412
#
# _framework density 24.509843
#
# number of rings (size 3 to 8) (size 9 to 14) (size 15 to 20)
#    0.000    1.143    4.286    0.857    4.000    4.000 
#    0.000    9.286    0.000    0.000    0.000    0.000 
#    0.000    0.000    0.000    0.000    0.000    0.000 
#
# Total GULP energy -78294.844902 kJ/mol
# GULP energy per Si atom -5592.488922 kJ/mol
# Density = 2.445406 g / cm^3
# Si number density = 24.509843 Si / 1000 Ang^3
#
#
#
# Elastic Constant Matrix: (Units=GPa)
#
#
# Indices 1 2 3 4 5 6 
#
# 1 145.7691 44.8583 31.3912 9.0517 -34.7053 -31.2742
# 2 44.8583 88.3693 12.3194 -5.3722 -10.0282 -24.2293
# 3 31.3912 12.3194 84.4239 -18.9901 -11.6871 10.3760
# 4 9.0517 -5.3722 -18.9901 42.7132 -1.3697 -5.2240
# 5 -34.7053 -10.0282 -11.6871 -1.3697 39.2684 -5.4148
# 6 -31.2742 -24.2293 10.3760 -5.2240 -5.4148 40.7541
#
#
#
# Elastic Compliance Matrix: (Units=1/GPa)
#
#
# Indices 1 2 3 4 5 6 
#
# 1 0.014638 -0.001983 -0.005921 -0.004040 0.012276 0.012675
# 2 -0.001983 0.015487 -0.001542 0.002863 0.003064 0.008853
# 3 -0.005921 -0.001542 0.016818 0.007384 -0.001606 -0.009009
# 4 -0.004040 0.002863 0.007384 0.027967 0.000383 0.000358
# 5 0.012276 0.003064 -0.001606 0.000383 0.038960 0.016876
# 6 0.012675 0.008853 -0.009009 0.000358 0.016876 0.044109
#
#
# Mechanical properties :
#
#
# Convention : Reuss Voigt Hill
#
# Bulk Modulus (GPa) = 35.64975 55.07780 45.36377
# Shear Modulus (GPa) = 26.84987 39.88003 33.36495
#
# Velocity S-wave (km/s) = 3.31338 4.03811 3.69357
# Velocity P-wave (km/s) = 5.40506 6.65299 6.06123
#
# Compressibility (1/GPa) = 0.02805069
#
# Stress axis : x y z
#
# Youngs Moduli (GPa) = 68.31450 64.57193 59.46174
#
# Poissons Ratio (x) = 0.12802 0.35206
# Poissons Ratio (y) = 0.13544 0.09172
# Poissons Ratio (z) = 0.40448 0.09960
#
# Static dielectric constant tensor:
#      x y z
#    x 1.934290 0.027340 0.038020 
#    y 0.027340 1.972330 0.034620 
#    z 0.038020 0.034620 1.998670 
# 
# From -- ./inp_files/70112.got.cif
#   From: 2010.05.17/outbox.cif.g08.bks.cpg/sg2_36_cif.got.tgz:70112.got - 2010.06.03 11:33:40.
