data_PCOD9031074
_publ_section_title
;
Structure prediction by ZEFSAII (Michael W. Deem and Ramdas Pophale) SiO2 
 PCOD9031074
Probable space group: P -1
;
_chemical_formula_sum "Si O2"
_cell_formula_units_Z 14
_cell_length_a 8.886717
_cell_length_b 9.126031
_cell_length_c 9.766078
_cell_angle_alpha 50.349120
_cell_angle_beta 100.827130
_cell_angle_gamma 101.146961
_cell_volume 596.135221
_symmetry_space_group_name_H-M "P -1"
_symmetry_group_IT_number 2
_symmetry_cell_setting 'triclinic'
loop_
_space_group_symop_operation_xyz
x,y,z
-x,-y,-z
loop_
_atom_site_type_symbol
_atom_site_label
_atom_site_fract_x
_atom_site_fract_y
_atom_site_fract_z
Si Si1 0.105133 0.408267 0.271463
Si Si2 0.831534 0.929277 0.958706
Si Si3 0.408688 0.150803 0.811455
Si Si4 0.295911 0.666670 0.359046
Si Si5 0.792948 0.544546 0.035263
Si Si6 0.700511 0.912530 0.476695
Si Si7 0.610593 0.303124 0.342808
O O1 0.175193 0.521561 0.346963
O O2 0.144879 0.191056 0.422307
O O3 0.930527 0.444957 0.192436
O O4 0.193644 0.494617 0.099333
O O5 0.755902 0.118676 0.786561
O O6 0.734188 0.826427 0.128215
O O7 0.827031 0.770644 0.934332
O O8 0.000000 0.000000 0.000000
O O9 0.539128 0.321504 0.697036
O O10 0.346999 0.076017 0.697792
O O11 0.500000 0.000000 0.000000
O O12 0.683923 0.378484 0.452636
O O13 0.640168 0.456847 0.136805
O O14 0.565453 0.772608 0.609984
O O15 0.691500 0.116422 0.421427
#
# Coordination Sequence:
#
# PCOD9031074 Si02
#       7
#     2   2   2   2   2   2   2
#     4  11  25  42  64  95 133 169 212 268 320 378
#     4  11  22  41  64  92 128 171 210 261 316 379
#     4   9  22  38  68  95 125 167 215 257 324 376
#     4  10  22  43  64  94 131 165 213 269 319 379
#     4  11  26  42  63  96 129 171 218 261 319 381
#     4  10  23  44  66  94 131 169 208 269 321 376
#     4  10  24  42  67  94 126 166 218 263 317 385
#
# _framework density 23.484604000000001
#
# number of rings (size 3 to 8) (size 9 to 14) (size 15 to 20)
#    0.000    1.714    1.429    0.857    8.000    5.143 
#    0.000    0.000    0.000    0.000    0.000    0.000 
#    0.000    0.000    0.000    0.000    0.000    0.000 
#
# Total GULP energy -78368.251783 kJ/mol
# GULP energy per Si atom -5597.732270 kJ/mol
# Density = 2.343115 g / cm^3
# Si number density = 23.484604 Si / 1000 Ang^3
#
#
#
# Elastic Constant Matrix: (Units=GPa)
#
#
# Indices 1 2 3 4 5 6 
#
# 1 60.0958 18.2900 47.0979 1.8551 7.4213 -8.2104
# 2 18.2900 83.4001 25.5564 -8.3410 25.3794 0.1127
# 3 47.0979 25.5564 82.0120 -3.1696 7.7565 3.8673
# 4 1.8551 -8.3410 -3.1696 40.7561 -6.8075 6.7607
# 5 7.4213 25.3794 7.7565 -6.8075 36.0273 -6.5607
# 6 -8.2104 0.1127 3.8673 6.7607 -6.5607 24.1871
#
#
#
# Elastic Compliance Matrix: (Units=1/GPa)
#
#
# Indices 1 2 3 4 5 6 
#
# 1 0.036908 -0.002394 -0.021635 -0.006725 0.000764 0.018086
# 2 -0.002394 0.016943 -0.002563 0.002188 -0.011231 -0.004140
# 3 -0.021635 -0.002563 0.026293 0.004516 -0.000922 -0.013048
# 4 -0.006725 0.002188 0.004516 0.027701 0.002259 -0.010145
# 5 0.000764 -0.011231 -0.000922 0.002259 0.037981 0.010130
# 6 0.018086 -0.004140 -0.013048 -0.010145 0.010130 0.055173
#
#
# Mechanical properties :
#
#
# Convention : Reuss Voigt Hill
#
# Bulk Modulus (GPa) = 37.09054 45.26629 41.17842
# Shear Modulus (GPa) = 18.99910 29.16499 24.08204
#
# Velocity S-wave (km/s) = 2.84738 3.52785 3.20572
# Velocity P-wave (km/s) = 5.16120 5.99258 5.59236
#
# Compressibility (1/GPa) = 0.02696105
#
# Stress axis : x y z
#
# Youngs Moduli (GPa) = 27.09416 59.02186 38.03240
#
# Poissons Ratio (x) = 0.14131 0.82282
# Poissons Ratio (y) = 0.06487 0.09747
# Poissons Ratio (z) = 0.58617 0.15126
#
# Static dielectric constant tensor:
#      x y z
#    x 1.891820 -0.026980 0.008430 
#    y -0.026980 1.856290 -0.027710 
#    z 0.008430 -0.027710 1.873980 
# 
# From -- ./inp_files/378013.got.cif
#   From: 2010.05.17/outbox.cif.g08.bks.cpg/sg2_190_cif.got.tgz:378013.got - 2010.06.03 11:33:40.
