data_PCOD9031490
_publ_section_title
;
Structure prediction by ZEFSAII (Michael W. Deem and Ramdas Pophale) SiO2 
 PCOD9031490
Probable space group: P -1
;
_chemical_formula_sum "Si O2"
_cell_formula_units_Z 16
_cell_length_a 12.693713
_cell_length_b 9.643275
_cell_length_c 9.113115
_cell_angle_alpha 81.385666
_cell_angle_beta 93.908959
_cell_angle_gamma 43.383383
_cell_volume 731.394050
_symmetry_space_group_name_H-M "P -1"
_symmetry_group_IT_number 2
_symmetry_cell_setting 'triclinic'
loop_
_space_group_symop_operation_xyz
x,y,z
-x,-y,-z
loop_
_atom_site_type_symbol
_atom_site_label
_atom_site_fract_x
_atom_site_fract_y
_atom_site_fract_z
Si Si1 0.070003 0.059728 0.907662
Si Si2 0.341833 0.604035 0.888624
Si Si3 0.666126 0.770970 0.604258
Si Si4 0.348938 0.677420 0.558190
Si Si5 0.350001 0.297364 0.045713
Si Si6 0.138336 0.663053 0.418650
Si Si7 0.186611 0.126542 0.547065
Si Si8 0.724750 0.897568 0.103468
O O1 0.203281 0.855356 0.850433
O O2 0.168448 0.093913 0.974887
O O3 0.931340 0.258999 0.763744
O O4 0.000000 0.000000 0.000000
O O5 0.377826 0.561745 0.727797
O O6 0.500000 0.500000 0.000000
O O7 0.286222 0.514640 0.969321
O O8 0.658721 0.735528 0.779225
O O9 0.716592 0.588782 0.538457
O O10 0.792009 0.768183 0.580895
O O11 0.500000 0.000000 0.500000
O O12 0.500000 0.500000 0.500000
O O13 0.197104 0.756568 0.456414
O O14 0.308220 0.879214 0.559142
O O15 0.537065 0.119350 0.047867
O O16 0.265257 0.264030 0.944264
O O17 0.992747 0.752705 0.487722
O O18 0.223621 0.145637 0.713292
#
# Coordination Sequence:
#
# PCOD9031490 Si02
#       8
#     2   2   2   2   2   2   2   2
#     4  11  24  45  73 101 150 192 237 296 366 436
#     4  12  25  47  73 104 147 189 240 310 355 428
#     4  12  25  44  73 102 139 184 245 297 348 438
#     4  12  27  44  77 107 139 188 254 296 358 435
#     4  11  24  42  72 105 140 184 244 295 362 421
#     4  11  26  45  70 103 145 192 234 297 371 422
#     4  11  23  48  66 101 145 185 232 296 361 428
#     4  10  22  43  67 100 145 180 233 296 357 420
#
# _framework density 21.876031000000001
#
# number of rings (size 3 to 8) (size 9 to 14) (size 15 to 20)
#    0.000    0.750    5.000    2.250    5.250    3.000 
#    0.000    3.125    0.000    0.000    0.000    0.000 
#    0.000    0.000    0.000    0.000    0.000    0.000 
#
# Total GULP energy -89463.471234 kJ/mol
# GULP energy per Si atom -5591.466952 kJ/mol
# Density = 2.182624 g / cm^3
# Si number density = 21.876031 Si / 1000 Ang^3
#
#
#
# Elastic Constant Matrix: (Units=GPa)
#
#
# Indices 1 2 3 4 5 6 
#
# 1 138.3952 5.8884 34.1364 11.3665 -4.5301 16.6189
# 2 5.8884 88.9678 26.1282 3.3426 1.5594 10.9215
# 3 34.1364 26.1282 58.8572 11.0292 -9.4670 6.8074
# 4 11.3665 3.3426 11.0292 24.9538 5.0431 -1.5236
# 5 -4.5301 1.5594 -9.4670 5.0431 41.7747 -1.1091
# 6 16.6189 10.9215 6.8074 -1.5236 -1.1091 43.6217
#
#
#
# Elastic Compliance Matrix: (Units=1/GPa)
#
#
# Indices 1 2 3 4 5 6 
#
# 1 0.008955 0.001341 -0.005027 -0.002216 -0.000031 -0.003041
# 2 0.001341 0.013552 -0.006980 0.000916 -0.002128 -0.002837
# 3 -0.005027 -0.006980 0.025962 -0.009648 0.006749 -0.000554
# 4 -0.002216 0.000916 -0.009648 0.047069 -0.008049 0.003560
# 5 -0.000031 -0.002128 0.006749 -0.008049 0.026512 -0.000115
# 6 -0.003041 -0.002837 -0.000554 0.003560 -0.000115 0.025001
#
#
# Mechanical properties :
#
#
# Convention : Reuss Voigt Hill
#
# Bulk Modulus (GPa) = 36.84977 46.50290 41.67633
# Shear Modulus (GPa) = 28.18052 36.74119 32.46085
#
# Velocity S-wave (km/s) = 3.59303 4.10264 3.85626
# Velocity P-wave (km/s) = 5.83905 6.61406 6.23860
#
# Compressibility (1/GPa) = 0.02713721
#
# Stress axis : x y z
#
# Youngs Moduli (GPa) = 111.67312 73.78882 38.51827
#
# Poissons Ratio (x) = -0.09893 0.19363
# Poissons Ratio (y) = -0.14973 0.26884
# Poissons Ratio (z) = 0.56137 0.51501
#
# Static dielectric constant tensor:
#      x y z
#    x 1.795740 -0.055620 -0.143540 
#    y -0.055620 1.774760 -0.092590 
#    z -0.143540 -0.092590 1.367250 
# 
# From -- ./inp_files/244119.got.cif
#   From: 2010.05.17/outbox.cif.g08.bks.cpg/sg2_123_cif.got.tgz:244119.got - 2010.06.03 11:33:40.
