data_PCOD9031956
_publ_section_title
;
Structure prediction by ZEFSAII (Michael W. Deem and Ramdas Pophale) SiO2 
 PCOD9031956
Probable space group: P -1
;
_chemical_formula_sum "Si O2"
_cell_formula_units_Z 12
_cell_length_a 5.338197
_cell_length_b 12.009950
_cell_length_c 8.935121
_cell_angle_alpha 107.714799
_cell_angle_beta 86.052309
_cell_angle_gamma 106.934111
_cell_volume 521.897677
_symmetry_space_group_name_H-M "P -1"
_symmetry_group_IT_number 2
_symmetry_cell_setting 'triclinic'
loop_
_space_group_symop_operation_xyz
x,y,z
-x,-y,-z
loop_
_atom_site_type_symbol
_atom_site_label
_atom_site_fract_x
_atom_site_fract_y
_atom_site_fract_z
Si Si1 0.815158 0.429463 0.848768
Si Si2 0.158495 0.452540 0.598945
Si Si3 0.759958 0.895820 0.899592
Si Si4 0.527414 0.826733 0.174544
Si Si5 0.104580 0.951055 0.326743
Si Si6 0.349554 0.374192 0.271411
O O1 0.580324 0.319334 0.873139
O O2 0.728346 0.526433 0.788288
O O3 0.985165 0.374772 0.702938
O O4 0.000000 0.500000 0.000000
O O5 0.304604 0.380990 0.456264
O O6 0.337307 0.573331 0.721965
O O7 0.000000 0.500000 0.500000
O O8 0.789174 0.759794 0.833814
O O9 0.752344 0.938989 0.747577
O O10 0.526633 0.875413 0.022877
O O11 0.000000 0.000000 0.000000
O O12 0.328380 0.881084 0.300188
O O13 0.829915 0.870365 0.231617
O O14 0.000000 0.000000 0.500000
#
# Coordination Sequence:
#
# PCOD9031956 Si02
#       6
#     2   2   2   2   2   2
#     4  11  25  39  70 103 142 182 233 298 360 425
#     4   9  21  41  63 101 134 181 230 291 354 422
#     4  10  24  45  70  99 141 189 236 290 351 430
#     4  11  26  46  71 102 145 180 242 289 358 424
#     4  11  26  48  73 104 137 191 237 296 350 424
#     4  10  22  43  69 100 141 184 236 290 365 415
#
# _framework density 22.993012
#
# number of rings (size 3 to 8) (size 9 to 14) (size 15 to 20)
#    0.000    1.667    0.000    2.000    9.333    4.000 
#   12.000    0.000    0.000    0.000    0.000    0.000 
#    0.000    0.000    0.000    0.000    0.000    0.000 
#
# Total GULP energy -66904.337426 kJ/mol
# GULP energy per Si atom -5575.361452 kJ/mol
# Density = 2.294068 g / cm^3
# Si number density = 22.993012 Si / 1000 Ang^3
#
#
#
# Elastic Constant Matrix: (Units=GPa)
#
#
# Indices 1 2 3 4 5 6 
#
# 1 71.2541 19.8734 11.9217 3.5615 2.9764 13.2141
# 2 19.8734 163.1028 49.1567 3.2620 2.8459 21.1032
# 3 11.9217 49.1567 121.2758 -11.4294 -8.6195 16.0604
# 4 3.5615 3.2620 -11.4294 37.7972 5.3245 -4.3958
# 5 2.9764 2.8459 -8.6195 5.3245 39.8835 -1.7447
# 6 13.2141 21.1032 16.0604 -4.3958 -1.7447 30.7839
#
#
#
# Elastic Compliance Matrix: (Units=1/GPa)
#
#
# Indices 1 2 3 4 5 6 
#
# 1 0.015688 -0.000844 -0.000672 -0.002153 -0.001239 -0.006182
# 2 -0.000844 0.007589 -0.002732 -0.001692 -0.001006 -0.003713
# 3 -0.000672 -0.002732 0.010170 0.002793 0.001955 -0.002635
# 4 -0.002153 -0.001692 0.002793 0.028564 -0.002729 0.004551
# 5 -0.001239 -0.001006 0.001955 -0.002729 0.026080 0.001290
# 6 -0.006182 -0.003713 -0.002635 0.004551 0.001290 0.039781
#
#
# Mechanical properties :
#
#
# Convention : Reuss Voigt Hill
#
# Bulk Modulus (GPa) = 40.08017 57.50402 48.79209
# Shear Modulus (GPa) = 34.55707 40.00499 37.28103
#
# Velocity S-wave (km/s) = 3.88098 4.17571 4.03104
# Velocity P-wave (km/s) = 6.12797 6.95071 6.55226
#
# Compressibility (1/GPa) = 0.02494999
#
# Stress axis : x y z
#
# Youngs Moduli (GPa) = 63.74239 131.76450 98.32557
#
# Poissons Ratio (x) = 0.11126 0.06609
# Poissons Ratio (y) = 0.05382 0.26866
# Poissons Ratio (z) = 0.04285 0.36002
#
# Static dielectric constant tensor:
#      x y z
#    x 2.015880 -0.040710 -0.082350 
#    y -0.040710 1.892220 -0.018940 
#    z -0.082350 -0.018940 1.952390 
# 
# From -- ./inp_files/22705.got.cif
#   From: 2010.05.17/outbox.cif.g08.bks.cpg/sg2_12_cif.got.tgz:22705.got - 2010.06.03 11:33:40.
