data_PCOD9031825
_publ_section_title
;
Structure prediction by ZEFSAII (Michael W. Deem and Ramdas Pophale) SiO2 
 PCOD9031825
Probable space group: P -1
;
_chemical_formula_sum "Si O2"
_cell_formula_units_Z 13
_cell_length_a 14.370869
_cell_length_b 8.642342
_cell_length_c 11.493569
_cell_angle_alpha 97.479311
_cell_angle_beta 146.051821
_cell_angle_gamma 107.325178
_cell_volume 537.766020
_symmetry_space_group_name_H-M "P -1"
_symmetry_group_IT_number 2
_symmetry_cell_setting 'triclinic'
loop_
_space_group_symop_operation_xyz
x,y,z
-x,-y,-z
loop_
_atom_site_type_symbol
_atom_site_label
_atom_site_fract_x
_atom_site_fract_y
_atom_site_fract_z
Si Si1 0.112375 0.657101 0.744787
Si Si2 0.373357 0.346842 0.236632
Si Si3 0.890355 0.801824 0.456680
Si Si4 0.811437 0.431568 0.637527
Si Si5 0.247124 0.879986 0.281639
Si Si6 0.442707 0.611021 0.114073
Si Si7 0.000000 0.000000 0.000000
O O1 0.000000 0.500000 0.500000
O O2 0.103403 0.836439 0.732356
O O3 0.914257 0.490137 0.622516
O O4 0.361218 0.737226 0.044992
O O5 0.500000 0.500000 0.500000
O O6 0.553645 0.339046 0.373253
O O7 0.360192 0.466417 0.132599
O O8 0.125813 0.111830 0.011389
O O9 0.718104 0.760714 0.372700
O O10 0.717299 0.574335 0.174699
O O11 0.000000 0.000000 0.500000
O O12 0.801268 0.257158 0.669907
O O13 0.008940 0.677045 0.934319
O O14 0.235227 0.055953 0.292319
O O15 0.500000 0.000000 0.500000
#
# Coordination Sequence:
#
# PCOD9031825 Si02
#       7
#     2   2   2   2   2   2   1
#     4  10  22  43  68  95 128 173 219 268 329 389
#     4  12  24  41  68  99 137 177 218 271 330 394
#     4  10  22  43  69  95 125 168 225 273 325 387
#     4  11  23  44  67  93 136 176 217 273 333 389
#     4  11  24  41  65  98 131 172 222 271 323 395
#     4  10  23  42  67  93 132 174 211 273 332 382
#     4  12  24  40  64 100 128 172 226 262 324 396
#
# _framework density 24.17408
#
# number of rings (size 3 to 8) (size 9 to 14) (size 15 to 20)
#    0.000    1.231    4.615    0.923    2.154    3.077 
#    0.000    3.077    0.000    0.000    0.000    0.000 
#    0.000    0.000    0.000    0.000    0.000    0.000 
#
# Total GULP energy -72493.997445 kJ/mol
# GULP energy per Si atom -5576.461342 kJ/mol
# Density = 2.411906 g / cm^3
# Si number density = 24.174080 Si / 1000 Ang^3
#
#
#
# Elastic Constant Matrix: (Units=GPa)
#
#
# Indices 1 2 3 4 5 6 
#
# 1 148.5863 52.1060 47.9632 -13.4569 26.9744 30.0943
# 2 52.1060 146.0941 46.9916 -36.1578 30.8140 32.5308
# 3 47.9632 46.9916 98.6370 -18.5975 26.4869 -9.3428
# 4 -13.4569 -36.1578 -18.5975 50.6075 -11.0104 2.1516
# 5 26.9744 30.8140 26.4869 -11.0104 55.1151 -9.5147
# 6 30.0943 32.5308 -9.3428 2.1516 -9.5147 41.0427
#
#
#
# Elastic Compliance Matrix: (Units=1/GPa)
#
#
# Indices 1 2 3 4 5 6 
#
# 1 0.011997 0.002715 -0.006370 0.002003 -0.006340 -0.013973
# 2 0.002715 0.016316 -0.006914 0.008762 -0.008651 -0.018961
# 3 -0.006370 -0.006914 0.017531 -0.000602 0.000921 0.014387
# 4 0.002003 0.008762 -0.000602 0.026311 -0.002134 -0.010425
# 5 -0.006340 -0.008651 0.000921 -0.002134 0.028392 0.018409
# 6 -0.013973 -0.018961 0.014387 -0.010425 0.018409 0.057729
#
#
# Mechanical properties :
#
#
# Convention : Reuss Voigt Hill
#
# Bulk Modulus (GPa) = 40.47762 76.38209 58.42985
# Shear Modulus (GPa) = 26.64533 45.77017 36.20775
#
# Velocity S-wave (km/s) = 3.32358 4.35599 3.87433
# Velocity P-wave (km/s) = 5.61327 7.54751 6.65108
#
# Compressibility (1/GPa) = 0.02470501
#
# Stress axis : x y z
#
# Youngs Moduli (GPa) = 83.35513 61.28929 57.04063
#
# Poissons Ratio (x) = -0.16637 0.36336
# Poissons Ratio (y) = -0.22627 0.39438
# Poissons Ratio (z) = 0.53099 0.42375
#
# Static dielectric constant tensor:
#      x y z
#    x 1.913160 -0.104250 -0.031300 
#    y -0.104250 1.999700 -0.022260 
#    z -0.031300 -0.022260 1.884920 
# 
# From -- ./inp_files/318785.got.cif
#   From: 2010.05.17/outbox.cif.g08.bks.cpg/sg2_160_cif.got.tgz:318785.got - 2010.06.03 11:33:40.
