data_PCOD9031045
_publ_section_title
;
Structure prediction by ZEFSAII (Michael W. Deem and Ramdas Pophale) SiO2 
 PCOD9031045
Probable space group: P -1
;
_chemical_formula_sum "Si O2"
_cell_formula_units_Z 14
_cell_length_a 5.235769
_cell_length_b 17.267358
_cell_length_c 5.781468
_cell_angle_alpha 96.161224
_cell_angle_beta 83.894408
_cell_angle_gamma 83.703550
_cell_volume 512.832591
_symmetry_space_group_name_H-M "P -1"
_symmetry_group_IT_number 2
_symmetry_cell_setting 'triclinic'
loop_
_space_group_symop_operation_xyz
x,y,z
-x,-y,-z
loop_
_atom_site_type_symbol
_atom_site_label
_atom_site_fract_x
_atom_site_fract_y
_atom_site_fract_z
Si Si1 0.697497 0.025077 0.798788
Si Si2 0.333654 0.552938 0.839197
Si Si3 0.249027 0.409507 0.571552
Si Si4 0.014682 0.263047 0.425181
Si Si5 0.636400 0.879331 0.524883
Si Si6 0.592204 0.306459 0.835959
Si Si7 0.226468 0.834712 0.923100
O O1 0.514011 0.078527 0.658837
O O2 0.805869 0.944221 0.637665
O O3 0.878651 0.085796 0.905263
O O4 0.500000 0.000000 0.000000
O O5 0.147752 0.495100 0.717295
O O6 0.518353 0.575555 0.619500
O O7 0.500000 0.500000 0.000000
O O8 0.253304 0.632846 0.013007
O O9 0.095016 0.349639 0.426521
O O10 0.343064 0.358506 0.773997
O O11 0.194840 0.203646 0.553172
O O12 0.741899 0.276965 0.581547
O O13 0.988569 0.213057 0.181806
O O14 0.412668 0.862293 0.718733
O O15 0.592968 0.230144 0.966773
#
# Coordination Sequence:
#
# PCOD9031045 Si02
#       7
#     2   2   2   2   2   2   2
#     4   9  20  41  66  86 118 163 204 248 300 355
#     4   9  20  41  66  86 118 163 204 248 300 355
#     4  10  22  43  64  88 122 161 203 250 300 358
#     4  12  24  36  62  94 122 156 200 250 304 360
#     4  10  22  43  64  88 122 161 203 250 300 358
#     4  11  23  40  61  90 124 159 200 251 302 359
#     4  11  23  40  61  90 124 159 200 251 302 359
#
# _framework density 27.299358999999999
#
# number of rings (size 3 to 8) (size 9 to 14) (size 15 to 20)
#    0.000    1.714    0.000    4.286    0.000    6.857 
#    0.000   20.000    0.000    0.000    0.000    0.000 
#    0.000    0.000    0.000    0.000    0.000    0.000 
#
# Total GULP energy -78379.940613 kJ/mol
# GULP energy per Si atom -5598.567187 kJ/mol
# Density = 2.723722 g / cm^3
# Si number density = 27.299359 Si / 1000 Ang^3
#
#
#
# Elastic Constant Matrix: (Units=GPa)
#
#
# Indices 1 2 3 4 5 6 
#
# 1 51.4653 33.0819 15.6285 7.1365 8.5903 17.2613
# 2 33.0819 218.4578 71.7481 19.4833 14.3415 28.5767
# 3 15.6285 71.7481 102.1548 9.7478 22.2046 29.6366
# 4 7.1365 19.4833 9.7478 95.1609 17.6853 15.6810
# 5 8.5903 14.3415 22.2046 17.6853 31.6694 15.2484
# 6 17.2613 28.5767 29.6366 15.6810 15.2484 43.2210
#
#
#
# Elastic Compliance Matrix: (Units=1/GPa)
#
#
# Indices 1 2 3 4 5 6 
#
# 1 0.023853 -0.002833 0.001059 0.000403 -0.002469 -0.007655
# 2 -0.002833 0.006421 -0.004188 -0.000878 0.001507 -0.000455
# 3 0.001059 -0.004188 0.015902 0.001581 -0.007259 -0.006570
# 4 0.000403 -0.000878 0.001581 0.012123 -0.006207 -0.002873
# 5 -0.002469 0.001507 -0.007259 -0.006207 0.044142 -0.008354
# 6 -0.007655 -0.000455 -0.006570 -0.002873 -0.008354 0.034990
#
#
# Mechanical properties :
#
#
# Convention : Reuss Voigt Hill
#
# Bulk Modulus (GPa) = 29.19420 68.11055 48.65237
# Shear Modulus (GPa) = 31.10018 50.78489 40.94253
#
# Velocity S-wave (km/s) = 3.37891 4.31779 3.87688
# Velocity P-wave (km/s) = 5.09313 7.06126 6.15636
#
# Compressibility (1/GPa) = 0.03425338
#
# Stress axis : x y z
#
# Youngs Moduli (GPa) = 41.92271 155.74115 62.88697
#
# Poissons Ratio (x) = 0.44115 -0.06661
# Poissons Ratio (y) = 0.11875 0.26337
# Poissons Ratio (z) = -0.04441 0.65223
#
# Static dielectric constant tensor:
#      x y z
#    x 2.140070 0.037370 0.100800 
#    y 0.037370 2.090930 0.049220 
#    z 0.100800 0.049220 2.199100 
# 
# From -- ./inp_files/8123.got.cif
#   From: 2010.05.17/outbox.cif.g08.bks.cpg/sg2_5_cif.got.tgz:8123.got - 2010.06.03 11:33:40.
