data_PCOD9031041
_publ_section_title
;
Structure prediction by ZEFSAII (Michael W. Deem and Ramdas Pophale) SiO2 
 PCOD9031041
Probable space group: P -1
;
_chemical_formula_sum "Si O2"
_cell_formula_units_Z 16
_cell_length_a 14.659259
_cell_length_b 15.244651
_cell_length_c 12.993509
_cell_angle_alpha 140.246987
_cell_angle_beta 151.181144
_cell_angle_gamma 28.186175
_cell_volume 661.064996
_symmetry_space_group_name_H-M "P -1"
_symmetry_group_IT_number 2
_symmetry_cell_setting 'triclinic'
loop_
_space_group_symop_operation_xyz
x,y,z
-x,-y,-z
loop_
_atom_site_type_symbol
_atom_site_label
_atom_site_fract_x
_atom_site_fract_y
_atom_site_fract_z
Si Si1 0.460110 0.510080 0.845589
Si Si2 0.503233 0.697065 0.625134
Si Si3 0.941692 0.673854 0.544634
Si Si4 0.009785 0.184616 0.078175
Si Si5 0.558918 0.166762 0.923405
Si Si6 0.685555 0.782296 0.077782
Si Si7 0.929004 0.271127 0.716940
Si Si8 0.112914 0.359545 0.173602
O O1 0.179632 0.585625 0.624022
O O2 0.500000 0.500000 0.000000
O O3 0.478775 0.651665 0.942508
O O4 0.709325 0.306293 0.872178
O O5 0.695711 0.470821 0.613264
O O6 0.211036 0.794762 0.438294
O O7 0.601838 0.729872 0.652579
O O8 0.585100 0.744318 0.848059
O O9 0.941456 0.796567 0.738836
O O10 0.669345 0.789563 0.327572
O O11 0.000000 0.500000 0.500000
O O12 0.090095 0.280974 0.181037
O O13 0.183698 0.982314 0.020461
O O14 0.538778 0.102728 0.956379
O O15 0.833679 0.840904 0.229486
O O16 0.907856 0.582948 0.171355
O O17 0.018164 0.314851 0.942735
#
# Coordination Sequence:
#
# PCOD9031041 Si02
#       8
#     2   2   2   2   2   2   2   2
#     4  10  22  43  64  86 118 160 201 251 305 361
#     4   8  15  29  54  82 113 156 201 245 290 351
#     4  11  22  44  66  88 120 161 203 252 307 362
#     4  11  23  41  63  92 128 159 204 254 304 365
#     4  12  23  41  63  94 125 162 202 253 307 362
#     4   9  17  32  56  80 122 153 198 250 292 354
#     4   8  15  29  53  83 112 156 201 241 296 349
#     4   9  16  34  52  84 118 155 199 246 297 350
#
# _framework density 24.203368999999999
#
# number of rings (size 3 to 8) (size 9 to 14) (size 15 to 20)
#    0.000    2.250    3.750    1.875    0.000    3.000 
#    9.000    2.500    0.000    1.500    0.000    0.000 
#    0.000    0.000    0.000    0.000    0.000    0.000 
#
# Total GULP energy -89468.298755 kJ/mol
# GULP energy per Si atom -5591.768672 kJ/mol
# Density = 2.414828 g / cm^3
# Si number density = 24.203369 Si / 1000 Ang^3
#
#
#
# Elastic Constant Matrix: (Units=GPa)
#
#
# Indices 1 2 3 4 5 6 
#
# 1 108.1521 8.4729 37.0837 -9.3540 28.6195 -20.2222
# 2 8.4729 62.6414 8.2387 -12.0667 1.7820 -17.0886
# 3 37.0837 8.2387 89.4547 -8.8048 33.4204 -15.3882
# 4 -9.3540 -12.0667 -8.8048 13.7862 -6.5306 11.5394
# 5 28.6195 1.7820 33.4204 -6.5306 44.3130 -2.7088
# 6 -20.2222 -17.0886 -15.3882 11.5394 -2.7088 34.2831
#
#
#
# Elastic Compliance Matrix: (Units=1/GPa)
#
#
# Indices 1 2 3 4 5 6 
#
# 1 0.012756 0.000343 -0.001782 -0.000917 -0.006635 0.006680
# 2 0.000343 0.020070 -0.000245 0.013656 0.001512 0.005620
# 3 -0.001782 -0.000245 0.017199 -0.000888 -0.011579 0.005931
# 4 -0.000917 0.013656 -0.000888 0.118300 0.016150 -0.032676
# 5 -0.006635 0.001512 -0.011579 0.016150 0.037241 -0.010851
# 6 0.006680 0.005620 0.005931 -0.032676 -0.010851 0.048713
#
#
# Mechanical properties :
#
#
# Convention : Reuss Voigt Hill
#
# Bulk Modulus (GPa) = 21.43244 40.87097 31.15171
# Shear Modulus (GPa) = 18.30174 32.24000 25.27087
#
# Velocity S-wave (km/s) = 2.75283 3.65368 3.23477
# Velocity P-wave (km/s) = 4.35643 5.89256 5.18174
#
# Compressibility (1/GPa) = 0.04665824
#
# Stress axis : x y z
#
# Youngs Moduli (GPa) = 78.39575 49.82494 58.14389
#
# Poissons Ratio (x) = -0.01711 0.10360
# Poissons Ratio (y) = -0.02692 0.01423
# Poissons Ratio (z) = 0.13969 0.01220
#
# Static dielectric constant tensor:
#      x y z
#    x 1.960880 -0.033410 0.025410 
#    y -0.033410 1.982360 0.023660 
#    z 0.025410 0.023660 1.906480 
# 
# From -- ./inp_files/533853.got.cif
#   From: 2010.05.17/outbox.cif.g08.bks.cpg/sg2_267_cif.got.tgz:533853.got - 2010.06.03 11:33:40.
