data_PCOD9031982
_publ_section_title
;
Structure prediction by ZEFSAII (Michael W. Deem and Ramdas Pophale) SiO2 
 PCOD9031982
Probable space group: P -1
;
_chemical_formula_sum "Si O2"
_cell_formula_units_Z 14
_cell_length_a 10.222782
_cell_length_b 10.594322
_cell_length_c 8.882010
_cell_angle_alpha 98.414084
_cell_angle_beta 44.594175
_cell_angle_gamma 121.351273
_cell_volume 534.932372
_symmetry_space_group_name_H-M "P -1"
_symmetry_group_IT_number 2
_symmetry_cell_setting 'triclinic'
loop_
_space_group_symop_operation_xyz
x,y,z
-x,-y,-z
loop_
_atom_site_type_symbol
_atom_site_label
_atom_site_fract_x
_atom_site_fract_y
_atom_site_fract_z
Si Si1 0.267104 0.722279 0.415950
Si Si2 0.098645 0.520638 0.088284
Si Si3 0.403676 0.320338 0.066189
Si Si4 0.764376 0.163461 0.832157
Si Si5 0.129456 0.238076 0.003886
Si Si6 0.158984 0.133788 0.515579
Si Si7 0.660897 0.910037 0.347565
O O1 0.157127 0.772970 0.393314
O O2 0.432001 0.854742 0.431383
O O3 0.085230 0.568878 0.637876
O O4 0.419251 0.698629 0.172830
O O5 0.234446 0.705604 0.050448
O O6 0.183926 0.409141 0.984903
O O7 0.000000 0.500000 0.000000
O O8 0.349605 0.277186 0.276752
O O9 0.500000 0.500000 0.000000
O O10 0.174613 0.213135 0.133615
O O11 0.964780 0.155276 0.739637
O O12 0.500000 0.000000 0.000000
O O13 0.298740 0.219496 0.765254
O O14 0.870408 0.086101 0.151551
O O15 0.297227 0.100027 0.512448
O O16 0.000000 0.000000 0.500000
#
# Coordination Sequence:
#
# PCOD9031982 Si02
#       7
#     2   2   2   2   2   2   2
#     4  11  26  46  73 107 148 192 242 306 369 443
#     4  12  27  48  74 111 152 192 246 313 377 438
#     4  11  22  41  70 101 142 191 242 299 370 433
#     4  12  28  48  76 111 153 195 249 305 373 445
#     4  10  22  43  69 101 151 191 236 305 370 436
#     4  12  24  45  72 106 144 193 250 303 360 447
#     4  10  24  44  75 108 146 193 248 299 369 441
#
# _framework density 26.171530000000001
#
# number of rings (size 3 to 8) (size 9 to 14) (size 15 to 20)
#    0.000    0.857    1.429    4.714    6.000    4.000 
#    0.000    3.571    0.000    0.000    0.000    0.000 
#    0.000    0.000    0.000    0.000    0.000    0.000 
#
# Total GULP energy -78244.580188 kJ/mol
# GULP energy per Si atom -5588.898585 kJ/mol
# Density = 2.611196 g / cm^3
# Si number density = 26.171530 Si / 1000 Ang^3
#
#
#
# Elastic Constant Matrix: (Units=GPa)
#
#
# Indices 1 2 3 4 5 6 
#
# 1 137.9556 27.0670 18.5608 4.4542 33.4443 13.9842
# 2 27.0670 152.5127 24.4856 0.4178 -0.9968 12.9137
# 3 18.5608 24.4856 94.3484 1.6847 22.3401 -0.1597
# 4 4.4542 0.4178 1.6847 43.4679 -8.3315 -6.5811
# 5 33.4443 -0.9968 22.3401 -8.3315 53.6283 7.1539
# 6 13.9842 12.9137 -0.1597 -6.5811 7.1539 39.4610
#
#
#
# Elastic Compliance Matrix: (Units=1/GPa)
#
#
# Indices 1 2 3 4 5 6 
#
# 1 0.009263 -0.001496 0.000000 -0.002385 -0.005892 -0.002123
# 2 -0.001496 0.007379 -0.002179 0.000268 0.002322 -0.002270
# 3 0.000000 -0.002179 0.012535 -0.001315 -0.005676 0.001574
# 4 -0.002385 0.000268 -0.001315 0.024926 0.005388 0.003932
# 5 -0.005892 0.002322 -0.005676 0.005388 0.025899 -0.002492
# 6 -0.002123 -0.002270 0.001574 0.003932 -0.002492 0.027950
#
#
# Mechanical properties :
#
#
# Convention : Reuss Voigt Hill
#
# Bulk Modulus (GPa) = 45.81702 58.33815 52.07758
# Shear Modulus (GPa) = 40.79055 48.29165 44.54110
#
# Velocity S-wave (km/s) = 3.95217 4.30024 4.12987
# Velocity P-wave (km/s) = 6.19441 6.85530 6.53322
#
# Compressibility (1/GPa) = 0.02182595
#
# Stress axis : x y z
#
# Youngs Moduli (GPa) = 107.95893 135.52242 79.77818
#
# Poissons Ratio (x) = 0.20276 -0.00001
# Poissons Ratio (y) = 0.16152 0.17385
# Poissons Ratio (z) = -0.00002 0.29533
#
# Static dielectric constant tensor:
#      x y z
#    x 2.289350 -0.056960 -0.178490 
#    y -0.056960 2.086740 0.035460 
#    z -0.178490 0.035460 2.400790 
# 
# From -- ./inp_files/258865.got.cif
#   From: 2010.05.17/outbox.cif.g08.bks.cpg/sg2_130_cif.got.tgz:258865.got - 2010.06.03 11:33:40.
