data_PCOD9031178
_publ_section_title
;
Structure prediction by ZEFSAII (Michael W. Deem and Ramdas Pophale) SiO2 
 PCOD9031178
Probable space group: P -1
;
_chemical_formula_sum "Si O2"
_cell_formula_units_Z 14
_cell_length_a 9.147095
_cell_length_b 9.487051
_cell_length_c 15.023861
_cell_angle_alpha 135.500141
_cell_angle_beta 61.430193
_cell_angle_gamma 133.148987
_cell_volume 666.580142
_symmetry_space_group_name_H-M "P -1"
_symmetry_group_IT_number 2
_symmetry_cell_setting 'triclinic'
loop_
_space_group_symop_operation_xyz
x,y,z
-x,-y,-z
loop_
_atom_site_type_symbol
_atom_site_label
_atom_site_fract_x
_atom_site_fract_y
_atom_site_fract_z
Si Si1 0.126463 0.288280 0.103137
Si Si2 0.042160 0.309428 0.942803
Si Si3 0.256797 0.369726 0.735543
Si Si4 0.313131 0.236221 0.188653
Si Si5 0.025850 0.643875 0.334335
Si Si6 0.164593 0.461846 0.477235
Si Si7 0.569402 0.919087 0.528643
O O1 0.300396 0.345702 0.147213
O O2 0.006348 0.389848 0.229910
O O3 0.159210 0.387661 0.037930
O O4 0.000000 0.000000 0.000000
O O5 0.171112 0.279566 0.818052
O O6 0.830734 0.053127 0.902908
O O7 0.000000 0.500000 0.000000
O O8 0.454374 0.642816 0.804123
O O9 0.083891 0.348940 0.716769
O O10 0.329828 0.214381 0.599115
O O11 0.221065 0.323456 0.329741
O O12 0.924202 0.671072 0.463468
O O13 0.261257 0.851421 0.362441
O O14 0.370525 0.721827 0.550010
O O15 0.000000 0.500000 0.500000
O O16 0.500000 0.000000 0.500000
#
# Coordination Sequence:
#
# PCOD9031178 Si02
#       7
#     2   2   2   2   2   2   2
#     4  10  22  43  65  92 127 172 220 262 311 384
#     4  11  23  43  67  91 129 174 216 268 318 368
#     4  11  25  41  65  97 131 168 211 270 322 379
#     4  10  23  43  66  94 131 164 219 263 320 391
#     4  12  22  41  64  95 132 164 212 268 318 379
#     4  11  21  39  68  92 126 171 201 261 333 379
#     4  11  23  39  66  98 125 164 214 257 322 393
#
# _framework density 21.002725999999999
#
# number of rings (size 3 to 8) (size 9 to 14) (size 15 to 20)
#    0.000    1.143    4.286    2.143    0.000    4.571 
#    0.000    0.000    0.000    0.000    0.000    0.000 
#    0.000    0.000    0.000    0.000    0.000    0.000 
#
# Total GULP energy -78220.753517 kJ/mol
# GULP energy per Si atom -5587.196680 kJ/mol
# Density = 2.095492 g / cm^3
# Si number density = 21.002726 Si / 1000 Ang^3
#
#
#
# Elastic Constant Matrix: (Units=GPa)
#
#
# Indices 1 2 3 4 5 6 
#
# 1 113.4835 39.4876 35.4719 7.4346 20.2041 4.3231
# 2 39.4876 90.1362 23.6571 3.9115 17.7654 8.1379
# 3 35.4719 23.6571 68.1909 2.2043 20.4304 2.3373
# 4 7.4346 3.9115 2.2043 37.7004 -10.7200 5.3957
# 5 20.2041 17.7654 20.4304 -10.7200 33.1540 1.0554
# 6 4.3231 8.1379 2.3373 5.3957 1.0554 36.2623
#
#
#
# Elastic Compliance Matrix: (Units=1/GPa)
#
#
# Indices 1 2 3 4 5 6 
#
# 1 0.012109 -0.003358 -0.003767 -0.003045 -0.004247 0.000130
# 2 -0.003358 0.014275 -0.001504 -0.001888 -0.005214 -0.002274
# 3 -0.003767 -0.001504 0.020409 -0.003337 -0.010563 0.000275
# 4 -0.003045 -0.001888 -0.003337 0.032565 0.015590 -0.004297
# 5 -0.004247 -0.005214 -0.010563 0.015590 0.047136 -0.001335
# 6 0.000130 -0.002274 0.000275 -0.004297 -0.001335 0.028732
#
#
# Mechanical properties :
#
#
# Convention : Reuss Voigt Hill
#
# Bulk Modulus (GPa) = 33.86046 52.11599 42.98823
# Shear Modulus (GPa) = 27.42266 32.96958 30.19612
#
# Velocity S-wave (km/s) = 3.61733 3.96634 3.79585
# Velocity P-wave (km/s) = 5.79687 6.77079 6.30267
#
# Compressibility (1/GPa) = 0.02953297
#
# Stress axis : x y z
#
# Youngs Moduli (GPa) = 82.58567 70.05129 48.99704
#
# Poissons Ratio (x) = 0.23526 0.18459
# Poissons Ratio (y) = 0.27736 0.07371
# Poissons Ratio (z) = 0.31112 0.10539
#
# Static dielectric constant tensor:
#      x y z
#    x 1.749060 -0.002980 0.010460 
#    y -0.002980 1.773490 0.012800 
#    z 0.010460 0.012800 1.796020 
# 
# From -- ./inp_files/179758.got.cif
#   From: 2010.05.17/outbox.cif.g08.bks.cpg/sg2_90_cif.got.tgz:179758.got - 2010.06.03 11:33:40.
