data_PCOD9031891
_publ_section_title
;
Structure prediction by ZEFSAII (Michael W. Deem and Ramdas Pophale) SiO2 
 PCOD9031891
Probable space group: P -1
;
_chemical_formula_sum "Si O2"
_cell_formula_units_Z 16
_cell_length_a 9.227150
_cell_length_b 12.037204
_cell_length_c 8.130129
_cell_angle_alpha 65.533247
_cell_angle_beta 77.209739
_cell_angle_gamma 64.022429
_cell_volume 737.993578
_symmetry_space_group_name_H-M "P -1"
_symmetry_group_IT_number 2
_symmetry_cell_setting 'triclinic'
loop_
_space_group_symop_operation_xyz
x,y,z
-x,-y,-z
loop_
_atom_site_type_symbol
_atom_site_label
_atom_site_fract_x
_atom_site_fract_y
_atom_site_fract_z
Si Si1 0.347756 0.243384 0.216680
Si Si2 0.799023 0.222787 0.600630
Si Si3 0.429976 0.035940 0.814506
Si Si4 0.835872 0.486216 0.996721
Si Si5 0.146300 0.542041 0.386337
Si Si6 0.010322 0.219978 0.271057
Si Si7 0.135111 0.024697 0.052164
Si Si8 0.543841 0.702426 0.495859
O O1 0.307879 0.369798 0.026286
O O2 0.167693 0.242553 0.288311
O O3 0.432985 0.277547 0.329448
O O4 0.463546 0.095579 0.230240
O O5 0.862256 0.318409 0.628865
O O6 0.776263 0.112042 0.788181
O O7 0.625527 0.299092 0.514210
O O8 0.934754 0.158056 0.466768
O O9 0.440317 0.169091 0.666607
O O10 0.500000 0.000000 0.000000
O O11 0.245852 0.056211 0.872084
O O12 0.839539 0.460814 0.814671
O O13 0.000000 0.500000 0.000000
O O14 0.859818 0.355285 0.173397
O O15 0.305244 0.432406 0.495905
O O16 0.000000 0.500000 0.500000
O O17 0.071161 0.136297 0.140512
O O18 0.000000 0.000000 0.000000
#
# Coordination Sequence:
#
# PCOD9031891 Si02
#       8
#     2   2   2   2   2   2   2   2
#     4  10  22  43  68  98 129 179 224 269 336 404
#     4  12  25  45  64 101 137 175 225 279 337 394
#     4  12  24  44  68  97 135 177 223 278 334 395
#     4   9  20  40  66  99 127 169 224 267 327 396
#     4  11  24  43  71  98 134 178 224 276 336 402
#     4  11  23  43  67  95 138 177 224 275 334 402
#     4  12  28  43  68 101 135 177 226 282 335 398
#     4  11  25  43  68  98 137 178 223 275 336 399
#
# _framework density 21.680406000000001
#
# number of rings (size 3 to 8) (size 9 to 14) (size 15 to 20)
#    0.000    1.000    2.500    4.125    7.000    1.000 
#    2.250    1.250    0.000    0.000    0.000    0.000 
#    0.000    0.000    0.000    0.000    0.000    0.000 
#
# Total GULP energy -89336.030799 kJ/mol
# GULP energy per Si atom -5583.501925 kJ/mol
# Density = 2.163106 g / cm^3
# Si number density = 21.680406 Si / 1000 Ang^3
#
#
#
# Elastic Constant Matrix: (Units=GPa)
#
#
# Indices 1 2 3 4 5 6 
#
# 1 115.1690 2.8234 15.5857 6.6224 1.8135 2.7854
# 2 2.8234 70.6121 27.6321 -20.1044 -13.8277 -3.6214
# 3 15.5857 27.6321 47.0009 -9.4813 1.1971 1.6421
# 4 6.6224 -20.1044 -9.4813 23.1103 -3.9645 -3.4752
# 5 1.8135 -13.8277 1.1971 -3.9645 37.2573 -1.5372
# 6 2.7854 -3.6214 1.6421 -3.4752 -1.5372 26.3754
#
#
#
# Elastic Compliance Matrix: (Units=1/GPa)
#
#
# Indices 1 2 3 4 5 6 
#
# 1 0.009580 -0.000838 -0.003695 -0.005469 -0.001310 -0.001694
# 2 -0.000838 0.029399 -0.012765 0.024384 0.014327 0.008968
# 3 -0.003695 -0.012765 0.030466 0.000977 -0.005575 -0.003455
# 4 -0.005469 0.024384 0.000977 0.071606 0.017495 0.014319
# 5 -0.001310 0.014327 -0.005575 0.017495 0.034541 0.006771
# 6 -0.001694 0.008968 -0.003455 0.014319 0.006771 0.041821
#
#
# Mechanical properties :
#
#
# Convention : Reuss Voigt Hill
#
# Bulk Modulus (GPa) = 28.69557 36.09606 32.39581
# Shear Modulus (GPa) = 18.96644 29.79798 24.38221
#
# Velocity S-wave (km/s) = 2.96094 3.71134 3.35717
# Velocity P-wave (km/s) = 4.99540 5.92036 5.47744
#
# Compressibility (1/GPa) = 0.03484858
#
# Stress axis : x y z
#
# Youngs Moduli (GPa) = 104.38929 34.01521 32.82360
#
# Poissons Ratio (x) = 0.02850 0.12128
# Poissons Ratio (y) = 0.08746 0.41900
# Poissons Ratio (z) = 0.38570 0.43421
#
# Static dielectric constant tensor:
#      x y z
#    x 1.673480 0.070660 0.047610 
#    y 0.070660 1.756520 -0.064540 
#    z 0.047610 -0.064540 1.799050 
# 
# From -- ./inp_files/184919.got.cif
#   From: 2010.05.17/outbox.cif.g08.bks.cpg/sg2_93_cif.got.tgz:184919.got - 2010.06.03 11:33:40.
