data_PCOD9031394
_publ_section_title
;
Structure prediction by ZEFSAII (Michael W. Deem and Ramdas Pophale) SiO2 
 PCOD9031394
Probable space group: P -1
;
_chemical_formula_sum "Si O2"
_cell_formula_units_Z 14
_cell_length_a 15.403070
_cell_length_b 7.112119
_cell_length_c 9.055338
_cell_angle_alpha 111.075356
_cell_angle_beta 138.743409
_cell_angle_gamma 55.829218
_cell_volume 537.647873
_symmetry_space_group_name_H-M "P -1"
_symmetry_group_IT_number 2
_symmetry_cell_setting 'triclinic'
loop_
_space_group_symop_operation_xyz
x,y,z
-x,-y,-z
loop_
_atom_site_type_symbol
_atom_site_label
_atom_site_fract_x
_atom_site_fract_y
_atom_site_fract_z
Si Si1 0.419584 0.344256 0.607019
Si Si2 0.787587 0.525586 0.025689
Si Si3 0.290698 0.101925 0.189330
Si Si4 0.026236 0.016566 0.710216
Si Si5 0.232069 0.768330 0.344579
Si Si6 0.379430 0.252744 0.861550
Si Si7 0.909684 0.735117 0.635977
O O1 0.291263 0.276884 0.366354
O O2 0.386466 0.586704 0.563317
O O3 0.424783 0.324463 0.785371
O O4 0.568678 0.143553 0.672781
O O5 0.683043 0.550915 0.039609
O O6 0.957204 0.506734 0.214630
O O7 0.686023 0.777196 0.892162
O O8 0.792059 0.345291 0.860945
O O9 0.158700 0.049465 0.956259
O O10 0.877996 0.206656 0.653555
O O11 0.000000 0.000000 0.500000
O O12 0.029159 0.784761 0.710033
O O13 0.176921 0.034286 0.313160
O O14 0.221248 0.254842 0.626891
O O15 0.500000 0.000000 0.000000
#
# Coordination Sequence:
#
# PCOD9031394 Si02
#       7
#     2   2   2   2   2   2   2
#     4  10  23  41  67  95 129 175 217 264 321 391
#     4  11  22  42  67  96 130 169 217 271 319 388
#     4  10  22  43  66  95 129 173 222 261 320 391
#     4  10  23  41  65  94 132 169 215 269 321 386
#     4   9  24  42  64  98 131 168 215 266 330 386
#     4  12  25  43  67  96 132 171 223 269 324 386
#     4  10  25  41  63  97 131 166 216 270 329 379
#
# _framework density 26.039345999999998
#
# number of rings (size 3 to 8) (size 9 to 14) (size 15 to 20)
#    0.857    0.857    1.429    1.714    6.000    1.143 
#    2.571    2.143    0.000    0.000    0.000    0.000 
#    0.000    0.000    0.000    0.000    0.000    0.000 
#
# Total GULP energy -78040.291993 kJ/mol
# GULP energy per Si atom -5574.306571 kJ/mol
# Density = 2.598008 g / cm^3
# Si number density = 26.039346 Si / 1000 Ang^3
#
#
#
# Elastic Constant Matrix: (Units=GPa)
#
#
# Indices 1 2 3 4 5 6 
#
# 1 31.8183 18.5037 25.2557 17.4770 -9.9903 -11.9677
# 2 18.5037 97.3572 35.3483 -10.6291 10.4544 -42.5880
# 3 25.2557 35.3483 137.2032 1.6770 7.4709 -18.4707
# 4 17.4770 -10.6291 1.6770 48.1912 -8.5915 -0.6983
# 5 -9.9903 10.4544 7.4709 -8.5915 33.8816 11.0752
# 6 -11.9677 -42.5880 -18.4707 -0.6983 11.0752 42.9664
#
#
#
# Elastic Compliance Matrix: (Units=1/GPa)
#
#
# Indices 1 2 3 4 5 6 
#
# 1 0.068382 -0.020499 -0.010213 -0.024376 0.026797 -0.012966
# 2 -0.020499 0.031785 0.001168 0.010579 -0.024110 0.032684
# 3 -0.010213 0.001168 0.009732 0.002574 -0.006219 0.004142
# 4 -0.024376 0.010579 0.002574 0.030978 -0.005349 0.006685
# 5 0.026797 -0.024110 -0.006219 -0.005349 0.055850 -0.033591
# 6 -0.012966 0.032684 0.004142 0.006685 -0.033591 0.062606
#
#
# Mechanical properties :
#
#
# Convention : Reuss Voigt Hill
#
# Bulk Modulus (GPa) = 19.68065 47.17711 33.42888
# Shear Modulus (GPa) = 14.90945 37.49256 26.20101
#
# Velocity S-wave (km/s) = 2.39545 3.79864 3.17552
# Velocity P-wave (km/s) = 3.90197 6.11527 5.12942
#
# Compressibility (1/GPa) = 0.05081132
#
# Stress axis : x y z
#
# Youngs Moduli (GPa) = 14.62370 31.46175 102.75192
#
# Poissons Ratio (x) = 0.64494 1.04939
# Poissons Ratio (y) = 0.29977 -0.12002
# Poissons Ratio (z) = 0.14935 -0.03675
#
# Static dielectric constant tensor:
#      x y z
#    x 2.144210 0.097800 -0.006770 
#    y 0.097800 1.705420 0.545410 
#    z -0.006770 0.545410 1.283750 
# 
# From -- ./inp_files/326522.got.cif
#   From: 2010.05.17/outbox.cif.g08.bks.cpg/sg2_164_cif.got.tgz:326522.got - 2010.06.03 11:33:40.
