data_PCOD9031084
_publ_section_title
;
Structure prediction by ZEFSAII (Michael W. Deem and Ramdas Pophale) SiO2 
 PCOD9031084
Probable space group: P -1
;
_chemical_formula_sum "Si O2"
_cell_formula_units_Z 13
_cell_length_a 7.813099
_cell_length_b 11.573834
_cell_length_c 8.369193
_cell_angle_alpha 86.400309
_cell_angle_beta 50.531496
_cell_angle_gamma 107.473470
_cell_volume 523.169076
_symmetry_space_group_name_H-M "P -1"
_symmetry_group_IT_number 2
_symmetry_cell_setting 'triclinic'
loop_
_space_group_symop_operation_xyz
x,y,z
-x,-y,-z
loop_
_atom_site_type_symbol
_atom_site_label
_atom_site_fract_x
_atom_site_fract_y
_atom_site_fract_z
Si Si1 0.500000 0.500000 0.500000
Si Si2 0.338284 0.982859 0.316679
Si Si3 0.117572 0.859987 0.933445
Si Si4 0.098143 0.677679 0.457123
Si Si5 0.048743 0.997863 0.224533
Si Si6 0.406639 0.533410 0.218751
Si Si7 0.837310 0.378615 0.214774
O O1 0.585935 0.572829 0.260759
O O2 0.591399 0.392634 0.399113
O O3 0.195135 0.829272 0.393283
O O4 0.179578 0.026383 0.524632
O O5 0.606848 0.021791 0.223461
O O6 0.304399 0.043009 0.164911
O O7 0.174959 0.743917 0.861340
O O8 0.956601 0.894524 0.900173
O O9 0.005589 0.867807 0.169200
O O10 0.288138 0.633899 0.262429
O O11 0.063335 0.628059 0.666079
O O12 0.824588 0.594308 0.556701
O O13 0.500000 0.500000 0.000000
O O14 0.000000 0.500000 0.000000
#
# Coordination Sequence:
#
# PCOD9031084 Si02
#       7
#     1   2   2   2   2   2   2
#     4  10  24  42  68 100 122 186 232 262 356 412
#     4  11  23  44  68 100 140 178 226 291 345 412
#     4  11  24  45  69 100 140 179 232 285 344 415
#     4  10  23  42  65  98 139 173 225 285 343 406
#     4  10  24  42  67 105 130 186 228 277 351 415
#     4  10  22  43  64  95 137 181 224 284 339 411
#     4  11  24  44  67  99 138 177 227 286 342 413
#
# _framework density 24.848562000000001
#
# number of rings (size 3 to 8) (size 9 to 14) (size 15 to 20)
#    0.000    1.538    1.538    1.846    0.000    9.846 
#   11.077    0.000    0.000    0.000    0.000    0.000 
#    0.000    0.000    0.000    0.000    0.000    0.000 
#
# Total GULP energy -72422.888263 kJ/mol
# GULP energy per Si atom -5570.991405 kJ/mol
# Density = 2.479201 g / cm^3
# Si number density = 24.848562 Si / 1000 Ang^3
#
#
#
# Elastic Constant Matrix: (Units=GPa)
#
#
# Indices 1 2 3 4 5 6 
#
# 1 75.5517 15.3864 24.1738 2.2406 -7.2620 -31.0669
# 2 15.3864 164.5686 57.1575 49.1074 -16.3960 -20.6190
# 3 24.1738 57.1575 110.1295 46.9577 6.9486 -14.5758
# 4 2.2406 49.1074 46.9577 62.2646 -3.9374 -12.5636
# 5 -7.2620 -16.3960 6.9486 -3.9374 46.3287 5.3546
# 6 -31.0669 -20.6190 -14.5758 -12.5636 5.3546 20.7544
#
#
#
# Elastic Compliance Matrix: (Units=1/GPa)
#
#
# Indices 1 2 3 4 5 6 
#
# 1 0.048220 0.003509 -0.010408 0.019561 0.002839 0.079465
# 2 0.003509 0.009224 -0.003272 -0.002797 0.002951 0.009664
# 3 -0.010408 -0.003272 0.017136 -0.012980 -0.004916 -0.013384
# 4 0.019561 -0.002797 -0.012980 0.035187 0.002620 0.038009
# 5 0.002839 0.002951 -0.004916 0.002620 0.024140 -0.000913
# 6 0.079465 0.009664 -0.013384 0.038009 -0.000913 0.190577
#
#
# Mechanical properties :
#
#
# Convention : Reuss Voigt Hill
#
# Bulk Modulus (GPa) = 18.43716 60.40949 39.42333
# Shear Modulus (GPa) = 13.77767 42.77168 28.27467
#
# Velocity S-wave (km/s) = 2.35726 4.15335 3.37691
# Velocity P-wave (km/s) = 3.85290 6.88217 5.57714
#
# Compressibility (1/GPa) = 0.05423829
#
# Stress axis : x y z
#
# Youngs Moduli (GPa) = 20.73816 108.40884 58.35621
#
# Poissons Ratio (x) = -0.38037 0.60736
# Poissons Ratio (y) = -0.07276 0.19095
# Poissons Ratio (z) = 0.21584 0.35473
#
# Static dielectric constant tensor:
#      x y z
#    x 2.043110 -0.021190 0.156450 
#    y -0.021190 1.795420 0.124540 
#    z 0.156450 0.124540 1.909460 
# 
# From -- ./inp_files/170168.got.cif
#   From: 2010.05.17/outbox.cif.g08.bks.cpg/sg2_86_cif.got.tgz:170168.got - 2010.06.03 11:33:40.
