data_PCOD9031752
_publ_section_title
;
Structure prediction by ZEFSAII (Michael W. Deem and Ramdas Pophale) SiO2 
 PCOD9031752
Probable space group: P -1
;
_chemical_formula_sum "Si O2"
_cell_formula_units_Z 12
_cell_length_a 13.089517
_cell_length_b 14.128633
_cell_length_c 9.747618
_cell_angle_alpha 117.097407
_cell_angle_beta 46.292926
_cell_angle_gamma 151.764900
_cell_volume 551.136496
_symmetry_space_group_name_H-M "P -1"
_symmetry_group_IT_number 2
_symmetry_cell_setting 'triclinic'
loop_
_space_group_symop_operation_xyz
x,y,z
-x,-y,-z
loop_
_atom_site_type_symbol
_atom_site_label
_atom_site_fract_x
_atom_site_fract_y
_atom_site_fract_z
Si Si1 0.121070 0.444926 0.468402
Si Si2 0.278732 0.659030 0.750903
Si Si3 0.524984 0.987026 0.310883
Si Si4 0.340382 0.137855 0.961292
Si Si5 0.650616 0.786136 0.710751
Si Si6 0.281779 0.318919 0.202606
O O1 0.199740 0.549243 0.609093
O O2 0.382469 0.645406 0.249514
O O3 0.097733 0.300672 0.399261
O O4 0.797328 0.267887 0.605258
O O5 0.491653 0.722414 0.682007
O O6 0.403643 0.858495 0.733001
O O7 0.000000 0.500000 0.000000
O O8 0.755212 0.041422 0.117879
O O9 0.500000 0.000000 0.500000
O O10 0.409002 0.169952 0.081127
O O11 0.141482 0.114782 0.139449
O O12 0.556279 0.615587 0.765691
O O13 0.000000 0.000000 0.500000
O O14 0.500000 0.500000 0.000000
#
# Coordination Sequence:
#
# PCOD9031752 Si02
#       6
#     2   2   2   2   2   2
#     4  11  22  45  72  99 141 180 238 286 336 424
#     4  12  28  43  70 109 141 181 231 290 359 401
#     4  12  25  42  73 101 135 189 236 282 343 421
#     4   9  21  43  70  95 138 179 227 284 337 415
#     4  10  22  43  68 103 139 175 231 286 347 406
#     4   8  19  39  69  91 130 181 219 275 338 399
#
# _framework density 21.773191000000001
#
# number of rings (size 3 to 8) (size 9 to 14) (size 15 to 20)
#    1.000    0.667    1.667    2.500    2.333    4.667 
#    0.000    6.667    0.000    0.000    0.000    0.000 
#    0.000    0.000    0.000    0.000    0.000    0.000 
#
# Total GULP energy -66816.641927 kJ/mol
# GULP energy per Si atom -5568.053494 kJ/mol
# Density = 2.172363 g / cm^3
# Si number density = 21.773191 Si / 1000 Ang^3
#
#
#
# Elastic Constant Matrix: (Units=GPa)
#
#
# Indices 1 2 3 4 5 6 
#
# 1 145.7827 49.8089 51.6609 2.1396 0.7319 -16.8262
# 2 49.8089 66.4185 58.3230 20.2469 -0.9172 1.8727
# 3 51.6609 58.3230 133.3202 16.0533 10.8740 7.0530
# 4 2.1396 20.2469 16.0533 41.6758 -11.5373 -6.6438
# 5 0.7319 -0.9172 10.8740 -11.5373 51.4188 17.2648
# 6 -16.8262 1.8727 7.0530 -6.6438 17.2648 36.3211
#
#
#
# Elastic Compliance Matrix: (Units=1/GPa)
#
#
# Indices 1 2 3 4 5 6 
#
# 1 0.011218 -0.009098 -0.001267 0.005137 -0.001430 0.007532
# 2 -0.009098 0.034878 -0.009940 -0.013187 0.002470 -0.007669
# 3 -0.001267 -0.009940 0.012746 -0.000966 -0.002565 -0.001507
# 4 0.005137 -0.013187 -0.000966 0.032990 0.004976 0.006916
# 5 -0.001430 0.002470 -0.002565 0.004976 0.024945 -0.011239
# 6 0.007532 -0.007669 -0.001507 0.006916 -0.011239 0.038317
#
#
# Mechanical properties :
#
#
# Convention : Reuss Voigt Hill
#
# Bulk Modulus (GPa) = 54.85324 73.90077 64.37700
# Shear Modulus (GPa) = 24.77934 38.26504 31.52219
#
# Velocity S-wave (km/s) = 3.37718 4.19673 3.80906
# Velocity P-wave (km/s) = 6.36041 7.58276 6.99833
#
# Compressibility (1/GPa) = 0.01823046
#
# Stress axis : x y z
#
# Youngs Moduli (GPa) = 89.14127 28.67152 78.45870
#
# Poissons Ratio (x) = 0.26085 0.09943
# Poissons Ratio (y) = 0.81101 0.77990
# Poissons Ratio (z) = 0.11296 0.28500
#
# Static dielectric constant tensor:
#      x y z
#    x 1.860920 -0.069270 -0.030830 
#    y -0.069270 1.848260 -0.004050 
#    z -0.030830 -0.004050 1.805780 
# 
# From -- ./inp_files/268270.got.cif
#   From: 2010.05.17/outbox.cif.g08.bks.cpg/sg2_135_cif.got.tgz:268270.got - 2010.06.03 11:33:40.
