data_PCOD9031489
_publ_section_title
;
Structure prediction by ZEFSAII (Michael W. Deem and Ramdas Pophale) SiO2 
 PCOD9031489
Probable space group: P -1
;
_chemical_formula_sum "Si O2"
_cell_formula_units_Z 16
_cell_length_a 15.962387
_cell_length_b 9.897093
_cell_length_c 5.246432
_cell_angle_alpha 120.213418
_cell_angle_beta 110.096343
_cell_angle_gamma 74.250246
_cell_volume 667.662309
_symmetry_space_group_name_H-M "P -1"
_symmetry_group_IT_number 2
_symmetry_cell_setting 'triclinic'
loop_
_space_group_symop_operation_xyz
x,y,z
-x,-y,-z
loop_
_atom_site_type_symbol
_atom_site_label
_atom_site_fract_x
_atom_site_fract_y
_atom_site_fract_z
Si Si1 0.160279 0.741076 0.560313
Si Si2 0.032496 0.261366 0.380535
Si Si3 0.562704 0.477147 0.790300
Si Si4 0.813435 0.964111 0.435456
Si Si5 0.691605 0.209516 0.894435
Si Si6 0.066581 0.569253 0.942813
Si Si7 0.343723 0.220757 0.889524
Si Si8 0.590225 0.950976 0.709556
O O1 0.063868 0.732048 0.576736
O O2 0.164663 0.922035 0.660645
O O3 0.243969 0.691270 0.783073
O O4 0.155391 0.625462 0.204985
O O5 0.099219 0.116559 0.406354
O O6 0.079873 0.422522 0.621416
O O7 0.995878 0.273955 0.068521
O O8 0.500000 0.500000 0.500000
O O9 0.620954 0.309721 0.734711
O O10 0.500000 0.500000 0.000000
O O11 0.632358 0.604115 0.944939
O O12 0.752666 0.827045 0.168762
O O13 0.754930 0.085167 0.675772
O O14 0.637134 0.109535 0.936005
O O15 0.000000 0.500000 0.000000
O O16 0.355455 0.158186 0.551217
O O17 0.409821 0.133017 0.095268
O O18 0.500000 0.000000 0.500000
#
# Coordination Sequence:
#
# PCOD9031489 Si02
#       8
#     2   2   2   2   2   2   2   2
#     4  11  22  42  66 102 141 185 243 302 361 424
#     4  10  22  43  67 100 141 195 241 292 360 423
#     4  12  28  50  77 110 145 192 244 306 383 453
#     4  11  25  42  67 101 143 188 244 297 365 430
#     4  11  26  43  70 105 143 185 242 309 364 442
#     4   9  21  40  66  94 133 185 238 294 353 430
#     4  11  24  44  67 105 138 183 234 297 357 438
#     4  11  22  44  72  99 137 182 232 292 370 438
#
# _framework density 23.964209
#
# number of rings (size 3 to 8) (size 9 to 14) (size 15 to 20)
#    0.000    1.250    1.250    3.750    1.750    9.000 
#    2.250    0.000    0.000    0.000    0.000    0.000 
#    0.000    0.000    0.000    0.000    0.000    0.000 
#
# Total GULP energy -89361.340493 kJ/mol
# GULP energy per Si atom -5585.083781 kJ/mol
# Density = 2.390967 g / cm^3
# Si number density = 23.964209 Si / 1000 Ang^3
#
#
#
# Elastic Constant Matrix: (Units=GPa)
#
#
# Indices 1 2 3 4 5 6 
#
# 1 59.4692 25.0443 16.9113 -0.1469 18.6003 8.8082
# 2 25.0443 107.8510 21.4797 -18.8588 0.6390 10.3404
# 3 16.9113 21.4797 101.4369 -15.9899 20.2243 -2.1187
# 4 -0.1469 -18.8588 -15.9899 41.3033 9.9904 12.8621
# 5 18.6003 0.6390 20.2243 9.9904 31.5673 -1.9195
# 6 8.8082 10.3404 -2.1187 12.8621 -1.9195 46.2223
#
#
#
# Elastic Compliance Matrix: (Units=1/GPa)
#
#
# Indices 1 2 3 4 5 6 
#
# 1 0.024424 -0.004507 0.000620 0.003872 -0.016250 -0.005370
# 2 -0.004507 0.011872 -0.001153 0.005744 0.001129 -0.003401
# 3 0.000620 -0.001153 0.013601 0.008216 -0.011778 -0.002012
# 4 0.003872 0.005744 0.008216 0.039272 -0.020908 -0.013442
# 5 -0.016250 0.001129 -0.011778 -0.020908 0.056028 0.010449
# 6 -0.005370 -0.003401 -0.002012 -0.013442 0.010449 0.027501
#
#
# Mechanical properties :
#
#
# Convention : Reuss Voigt Hill
#
# Bulk Modulus (GPa) = 25.11474 43.95863 34.53668
# Shear Modulus (GPa) = 25.50357 37.50670 31.50514
#
# Velocity S-wave (km/s) = 3.26580 3.96044 3.62978
# Velocity P-wave (km/s) = 4.97227 6.26871 5.65775
#
# Compressibility (1/GPa) = 0.03981726
#
# Stress axis : x y z
#
# Youngs Moduli (GPa) = 40.94276 84.23018 73.52585
#
# Poissons Ratio (x) = 0.37963 -0.04561
# Poissons Ratio (y) = 0.18453 0.08480
# Poissons Ratio (z) = -0.02540 0.09715
#
# Static dielectric constant tensor:
#      x y z
#    x 1.985640 0.016440 -0.054290 
#    y 0.016440 1.912460 -0.009760 
#    z -0.054290 -0.009760 2.008730 
# 
# From -- ./inp_files/107703.got.cif
#   From: 2010.05.17/outbox.cif.g08.bks.cpg/sg2_54_cif.got.tgz:107703.got - 2010.06.03 11:33:40.
