data_PCOD9031410
_publ_section_title
;
Structure prediction by ZEFSAII (Michael W. Deem and Ramdas Pophale) SiO2 
 PCOD9031410
Probable space group: P -1
;
_chemical_formula_sum "Si O2"
_cell_formula_units_Z 13
_cell_length_a 12.983264
_cell_length_b 11.150485
_cell_length_c 4.895843
_cell_angle_alpha 78.397703
_cell_angle_beta 73.523338
_cell_angle_gamma 44.196742
_cell_volume 473.807887
_symmetry_space_group_name_H-M "P -1"
_symmetry_group_IT_number 2
_symmetry_cell_setting 'triclinic'
loop_
_space_group_symop_operation_xyz
x,y,z
-x,-y,-z
loop_
_atom_site_type_symbol
_atom_site_label
_atom_site_fract_x
_atom_site_fract_y
_atom_site_fract_z
Si Si1 0.192260 0.777314 0.215575
Si Si2 0.128226 0.462803 0.104940
Si Si3 0.856731 0.033485 0.314339
Si Si4 0.438348 0.314689 0.765059
Si Si5 0.435792 0.929000 0.718737
Si Si6 0.500000 0.500000 0.000000
Si Si7 0.850645 0.782727 0.459419
O O1 0.159655 0.846055 0.512102
O O2 0.237528 0.849465 0.933058
O O3 0.336045 0.578055 0.189906
O O4 0.030446 0.872115 0.172518
O O5 0.256935 0.435465 0.864186
O O6 0.199803 0.295155 0.302639
O O7 0.023490 0.622489 0.319290
O O8 0.000000 0.500000 0.000000
O O9 0.826347 0.933322 0.548497
O O10 0.506327 0.159054 0.993461
O O11 0.509198 0.222172 0.462384
O O12 0.494289 0.401977 0.791688
O O13 0.500000 0.000000 0.500000
O O14 0.257380 0.104404 0.768666
#
# Coordination Sequence:
#
# PCOD9031410 Si02
#       7
#     2   2   2   2   2   1   2
#     4  10  23  42  67  94 137 172 235 276 346 404
#     4  11  26  44  67 104 140 187 230 302 361 423
#     4  10  22  43  66  96 125 186 226 283 335 423
#     4  12  28  47  74 107 147 192 240 292 371 419
#     4  12  25  47  75 104 143 191 241 301 352 437
#     4  12  26  48  70 110 146 188 234 306 348 438
#     4  11  24  41  68  98 135 180 235 292 355 418
#
# _framework density 27.437280999999999
#
# number of rings (size 3 to 8) (size 9 to 14) (size 15 to 20)
#    0.000    0.923    1.538    4.154    6.462    2.462 
#    2.769    0.000    0.000    0.000    0.000    0.000 
#    0.000    0.000    0.000    0.000    0.000    0.000 
#
# Total GULP energy -72472.889596 kJ/mol
# GULP energy per Si atom -5574.837661 kJ/mol
# Density = 2.737483 g / cm^3
# Si number density = 27.437281 Si / 1000 Ang^3
#
#
#
# Elastic Constant Matrix: (Units=GPa)
#
#
# Indices 1 2 3 4 5 6 
#
# 1 76.5684 14.0972 15.9226 -2.1689 -11.2237 -8.7691
# 2 14.0972 75.4386 26.2931 -7.1248 4.2562 0.7045
# 3 15.9226 26.2931 116.3924 1.4812 -4.5274 -10.5305
# 4 -2.1689 -7.1248 1.4812 44.3739 -5.5781 -6.7396
# 5 -11.2237 4.2562 -4.5274 -5.5781 47.8892 8.7944
# 6 -8.7691 0.7045 -10.5305 -6.7396 8.7944 52.2567
#
#
#
# Elastic Compliance Matrix: (Units=1/GPa)
#
#
# Indices 1 2 3 4 5 6 
#
# 1 0.014461 -0.002402 -0.001158 0.001047 0.003283 0.001808
# 2 -0.002402 0.015146 -0.003253 0.002087 -0.001848 -0.000683
# 3 -0.001158 -0.003253 0.009661 -0.000583 0.000565 0.001626
# 4 0.001047 0.002087 -0.000583 0.023636 0.002262 0.002698
# 5 0.003283 -0.001848 0.000565 0.002262 0.022652 -0.002831
# 6 0.001808 -0.000683 0.001626 0.002698 -0.002831 0.020601
#
#
# Mechanical properties :
#
#
# Convention : Reuss Voigt Hill
#
# Bulk Modulus (GPa) = 38.99690 42.33613 40.66652
# Shear Modulus (GPa) = 38.96170 43.04306 41.00238
#
# Velocity S-wave (km/s) = 3.77241 3.96508 3.86995
# Velocity P-wave (km/s) = 5.76357 6.03541 5.90105
#
# Compressibility (1/GPa) = 0.02564306
#
# Stress axis : x y z
#
# Youngs Moduli (GPa) = 69.15032 66.02271 103.50461
#
# Poissons Ratio (x) = 0.15859 0.11983
# Poissons Ratio (y) = 0.16611 0.33672
# Poissons Ratio (z) = 0.08005 0.21478
#
# Static dielectric constant tensor:
#      x y z
#    x 2.240880 -0.097950 0.175340 
#    y -0.097950 2.114050 0.115530 
#    z 0.175340 0.115530 1.983000 
# 
# From -- ./inp_files/92269.got.cif
#   From: 2010.05.17/outbox.cif.g08.bks.cpg/sg2_47_cif.got.tgz:92269.got - 2010.06.03 11:33:40.
