data_PCOD9031415
_publ_section_title
;
Structure prediction by ZEFSAII (Michael W. Deem and Ramdas Pophale) SiO2 
 PCOD9031415
Probable space group: P -1
;
_chemical_formula_sum "Si O2"
_cell_formula_units_Z 16
_cell_length_a 7.736766
_cell_length_b 9.872085
_cell_length_c 13.849990
_cell_angle_alpha 63.470731
_cell_angle_beta 53.257895
_cell_angle_gamma 86.214638
_cell_volume 727.956756
_symmetry_space_group_name_H-M "P -1"
_symmetry_group_IT_number 2
_symmetry_cell_setting 'triclinic'
loop_
_space_group_symop_operation_xyz
x,y,z
-x,-y,-z
loop_
_atom_site_type_symbol
_atom_site_label
_atom_site_fract_x
_atom_site_fract_y
_atom_site_fract_z
Si Si1 0.904842 0.959936 0.936854
Si Si2 0.369686 0.880919 0.350760
Si Si3 0.430943 0.117798 0.410953
Si Si4 0.746030 0.801277 0.369126
Si Si5 0.898019 0.346868 0.645863
Si Si6 0.237256 0.617660 0.912005
Si Si7 0.442017 0.338692 0.914337
Si Si8 0.637737 0.153089 0.039400
O O1 0.763787 0.778681 0.037214
O O2 0.098974 0.026348 0.772553
O O3 0.743396 0.074868 0.943517
O O4 0.000000 0.000000 0.000000
O O5 0.516155 0.780605 0.390752
O O6 0.191375 0.785506 0.364639
O O7 0.294396 0.994880 0.415920
O O8 0.541727 0.007030 0.187121
O O9 0.306550 0.205400 0.497357
O O10 0.636102 0.246346 0.249537
O O11 0.500000 0.000000 0.500000
O O12 0.905048 0.685911 0.342420
O O13 0.679144 0.361081 0.773709
O O14 0.000000 0.500000 0.500000
O O15 0.397483 0.502363 0.903922
O O16 0.209045 0.708179 0.990680
O O17 0.000000 0.500000 0.000000
O O18 0.451923 0.230372 0.037682
#
# Coordination Sequence:
#
# PCOD9031415 Si02
#       8
#     2   2   2   2   2   2   2   2
#     4  12  21  38  71  98 127 176 229 272 335 401
#     4  10  22  43  66  96 132 173 230 280 319 415
#     4   9  22  44  67  95 136 175 231 273 330 417
#     4  11  22  41  70  96 131 181 226 275 340 405
#     4  12  25  42  63  95 137 178 223 281 346 394
#     4  11  25  43  68  99 136 176 222 284 345 398
#     4  12  24  41  63 101 138 166 225 291 329 406
#     4  11  21  42  65  94 131 172 219 275 335 397
#
# _framework density 21.979329
#
# number of rings (size 3 to 8) (size 9 to 14) (size 15 to 20)
#    0.000    1.000    3.750    3.000    3.500    1.000 
#    4.500    1.250    0.000    0.000    0.000    0.000 
#    0.000    0.000    0.000    0.000    0.000    0.000 
#
# Total GULP energy -89222.564388 kJ/mol
# GULP energy per Si atom -5576.410274 kJ/mol
# Density = 2.192930 g / cm^3
# Si number density = 21.979329 Si / 1000 Ang^3
#
#
#
# Elastic Constant Matrix: (Units=GPa)
#
#
# Indices 1 2 3 4 5 6 
#
# 1 95.1778 18.0954 2.4044 -9.0278 2.0318 -9.2372
# 2 18.0954 79.8921 13.8460 -14.0379 -0.6856 2.9293
# 3 2.4044 13.8460 61.2030 3.0052 1.8287 -7.5863
# 4 -9.0278 -14.0379 3.0052 34.4491 -1.1329 3.8023
# 5 2.0318 -0.6856 1.8287 -1.1329 23.1867 -5.2175
# 6 -9.2372 2.9293 -7.5863 3.8023 -5.2175 44.1353
#
#
#
# Elastic Compliance Matrix: (Units=1/GPa)
#
#
# Indices 1 2 3 4 5 6 
#
# 1 0.011362 -0.002428 0.000331 0.001679 -0.000472 0.002395
# 2 -0.002428 0.014920 -0.003924 0.006097 0.000672 -0.002619
# 3 0.000331 -0.003924 0.017858 -0.003497 -0.000916 0.003592
# 4 0.001679 0.006097 -0.003497 0.032664 0.001155 -0.003332
# 5 -0.000472 0.000672 -0.000916 0.001155 0.044409 0.004849
# 6 0.002395 -0.002619 0.003592 -0.003332 0.004849 0.024811
#
#
# Mechanical properties :
#
#
# Convention : Reuss Voigt Hill
#
# Bulk Modulus (GPa) = 31.15335 33.88495 32.51915
# Shear Modulus (GPa) = 29.62725 33.81602 31.72163
#
# Velocity S-wave (km/s) = 3.67544 3.92667 3.80313
# Velocity P-wave (km/s) = 5.67596 6.00071 5.84059
#
# Compressibility (1/GPa) = 0.03209928
#
# Stress axis : x y z
#
# Youngs Moduli (GPa) = 88.01509 67.02454 55.99695
#
# Poissons Ratio (x) = 0.16271 -0.01856
# Poissons Ratio (y) = 0.21367 0.21973
# Poissons Ratio (z) = -0.02917 0.26300
#
# Static dielectric constant tensor:
#      x y z
#    x 1.932890 0.004420 -0.022340 
#    y 0.004420 1.906310 0.077570 
#    z -0.022340 0.077570 1.838660 
# 
# From -- ./inp_files/492442.got.cif
#   From: 2010.05.17/outbox.cif.g08.bks.cpg/sg2_247_cif.got.tgz:492442.got - 2010.06.03 11:33:40.
