data_PCOD9031914
_publ_section_title
;
Structure prediction by ZEFSAII (Michael W. Deem and Ramdas Pophale) SiO2 
 PCOD9031914
Probable space group: P -1
;
_chemical_formula_sum "Si O2"
_cell_formula_units_Z 15
_cell_length_a 11.407803
_cell_length_b 4.940406
_cell_length_c 13.295532
_cell_angle_alpha 89.986787
_cell_angle_beta 119.601480
_cell_angle_gamma 80.473048
_cell_volume 639.595272
_symmetry_space_group_name_H-M "P -1"
_symmetry_group_IT_number 2
_symmetry_cell_setting 'triclinic'
loop_
_space_group_symop_operation_xyz
x,y,z
-x,-y,-z
loop_
_atom_site_type_symbol
_atom_site_label
_atom_site_fract_x
_atom_site_fract_y
_atom_site_fract_z
Si Si1 0.500000 0.000000 0.000000
Si Si2 0.347486 0.942236 0.425095
Si Si3 0.600690 0.866111 0.870130
Si Si4 0.851637 0.177587 0.945356
Si Si5 0.173424 0.188054 0.537016
Si Si6 0.144088 0.688011 0.650003
Si Si7 0.695744 0.557603 0.726100
Si Si8 0.282655 0.571321 0.918541
O O1 0.528096 0.931440 0.140712
O O2 0.616427 0.214529 0.046660
O O3 0.272070 0.011770 0.498096
O O4 0.273975 0.176961 0.317239
O O5 0.500000 0.000000 0.500000
O O6 0.349467 0.647798 0.374378
O O7 0.729051 0.002479 0.895382
O O8 0.588967 0.664549 0.772962
O O9 0.630679 0.716582 0.996202
O O10 0.822841 0.387072 0.840760
O O11 0.827353 0.341340 0.039362
O O12 0.000000 0.000000 0.000000
O O13 0.208967 0.471615 0.591561
O O14 0.021311 0.278754 0.424486
O O15 0.165786 0.990190 0.628615
O O16 0.205219 0.575441 0.781808
#
# Coordination Sequence:
#
# PCOD9031914 Si02
#       8
#     1   2   2   2   2   2   2   2
#     4   8  20  42  58  98 142 172 230 272 328 426
#     4  12  26  47  68 103 132 187 231 286 346 408
#     4   9  21  44  63 104 137 176 222 275 339 415
#     4  11  24  42  68 110 139 179 227 277 351 427
#     4  10  24  44  65  96 136 169 237 289 329 410
#     4  10  22  43  68  99 128 180 226 283 348 389
#     4  11  24  45  71  98 142 181 224 288 344 397
#     4   9  22  39  68 101 133 184 217 285 337 417
#
# _framework density 23.452331000000001
#
# number of rings (size 3 to 8) (size 9 to 14) (size 15 to 20)
#    0.800    1.067    1.333    1.200    3.733    4.800 
#    2.400    0.000    0.000    0.000    0.000    0.000 
#    0.000    0.000    0.000    0.000    0.000    0.000 
#
# Total GULP energy -83669.375571 kJ/mol
# GULP energy per Si atom -5577.958371 kJ/mol
# Density = 2.339895 g / cm^3
# Si number density = 23.452331 Si / 1000 Ang^3
#
#
#
# Elastic Constant Matrix: (Units=GPa)
#
#
# Indices 1 2 3 4 5 6 
#
# 1 62.2698 13.8965 10.7026 -0.5875 -8.4932 -23.9360
# 2 13.8965 95.7423 18.0344 13.0580 -0.8339 -1.9983
# 3 10.7026 18.0344 93.0963 -3.1311 -0.7673 -15.3239
# 4 -0.5875 13.0580 -3.1311 51.2082 -7.5468 -16.1197
# 5 -8.4932 -0.8339 -0.7673 -7.5468 15.9089 6.1372
# 6 -23.9360 -1.9983 -15.3239 -16.1197 6.1372 40.9395
#
#
#
# Elastic Compliance Matrix: (Units=1/GPa)
#
#
# Indices 1 2 3 4 5 6 
#
# 1 0.024611 -0.004451 0.001058 0.008135 0.010572 0.016187
# 2 -0.004451 0.012212 -0.002829 -0.005199 -0.002512 -0.004736
# 3 0.001058 -0.002829 0.012355 0.003557 0.000202 0.006475
# 4 0.008135 -0.005199 0.003557 0.027577 0.011553 0.014961
# 5 0.010572 -0.002512 0.000202 0.011553 0.074020 -0.000413
# 6 0.016187 -0.004736 0.006475 0.014961 -0.000413 0.042035
#
#
# Mechanical properties :
#
#
# Convention : Reuss Voigt Hill
#
# Bulk Modulus (GPa) = 27.22266 37.37507 32.29887
# Shear Modulus (GPa) = 22.98857 35.50965 29.24911
#
# Velocity S-wave (km/s) = 3.13425 3.89539 3.53536
# Velocity P-wave (km/s) = 4.97302 6.01692 5.51970
#
# Compressibility (1/GPa) = 0.03673410
#
# Stress axis : x y z
#
# Youngs Moduli (GPa) = 40.63163 81.88655 80.93793
#
# Poissons Ratio (x) = 0.36449 -0.08563
# Poissons Ratio (y) = 0.18086 0.22898
# Poissons Ratio (z) = -0.04299 0.23166
#
# Static dielectric constant tensor:
#      x y z
#    x 1.871550 -0.057070 -0.009270 
#    y -0.057070 1.935160 0.031610 
#    z -0.009270 0.031610 1.972080 
# 
# From -- ./inp_files/408515.got.cif
#   From: 2010.05.17/outbox.cif.g08.bks.cpg/sg2_205_cif.got.tgz:408515.got - 2010.06.03 11:33:40.
