data_PCOD9031286
_publ_section_title
;
Structure prediction by ZEFSAII (Michael W. Deem and Ramdas Pophale) SiO2 
 PCOD9031286
Probable space group: P -1
;
_chemical_formula_sum "Si O2"
_cell_formula_units_Z 16
_cell_length_a 8.967853
_cell_length_b 11.194671
_cell_length_c 11.731938
_cell_angle_alpha 119.590128
_cell_angle_beta 61.343613
_cell_angle_gamma 73.680291
_cell_volume 660.149413
_symmetry_space_group_name_H-M "P -1"
_symmetry_group_IT_number 2
_symmetry_cell_setting 'triclinic'
loop_
_space_group_symop_operation_xyz
x,y,z
-x,-y,-z
loop_
_atom_site_type_symbol
_atom_site_label
_atom_site_fract_x
_atom_site_fract_y
_atom_site_fract_z
Si Si1 0.264216 0.401561 0.245087
Si Si2 0.044193 0.758586 0.641203
Si Si3 0.370596 0.593485 0.975350
Si Si4 0.145088 0.366439 0.661513
Si Si5 0.905497 0.892169 0.995541
Si Si6 0.373657 0.105641 0.238688
Si Si7 0.468232 0.720092 0.402264
Si Si8 0.870243 0.852472 0.256179
O O1 0.492636 0.362814 0.118690
O O2 0.326753 0.230678 0.207275
O O3 0.123401 0.573931 0.466225
O O4 0.107503 0.464728 0.219247
O O5 0.039497 0.750322 0.774670
O O6 0.789986 0.930716 0.761885
O O7 0.241434 0.758506 0.537373
O O8 0.406540 0.431795 0.815992
O O9 0.500000 0.500000 0.000000
O O10 0.109334 0.777799 0.184064
O O11 0.256557 0.207458 0.450089
O O12 0.338614 0.375689 0.615322
O O13 0.138464 0.292191 0.750439
O O14 0.922861 0.833672 0.092585
O O15 0.641096 0.992049 0.111951
O O16 0.000000 0.000000 0.000000
O O17 0.352789 0.934153 0.529129
#
# Coordination Sequence:
#
# PCOD9031286 Si02
#       8
#     2   2   2   2   2   2   2   2
#     4  10  23  45  73  98 139 182 228 296 343 409
#     4  10  22  43  66 100 134 181 236 275 349 407
#     4  11  25  49  68 105 139 183 236 280 347 428
#     4  11  22  45  70 102 142 182 236 282 358 413
#     4  12  23  43  67 102 140 178 235 284 341 415
#     4  11  23  43  71  99 139 179 233 291 339 416
#     4  11  25  45  73 101 140 188 228 287 356 406
#     4  12  25  45  74 102 148 181 228 297 345 415
#
# _framework density 24.236937999999999
#
# number of rings (size 3 to 8) (size 9 to 14) (size 15 to 20)
#    0.000    1.000    3.750    3.000    0.000    3.000 
#    2.250    5.000    0.000    0.000    0.000    0.000 
#    0.000    0.000    0.000    0.000    0.000    0.000 
#
# Total GULP energy -89295.340982 kJ/mol
# GULP energy per Si atom -5580.958811 kJ/mol
# Density = 2.418177 g / cm^3
# Si number density = 24.236938 Si / 1000 Ang^3
#
#
#
# Elastic Constant Matrix: (Units=GPa)
#
#
# Indices 1 2 3 4 5 6 
#
# 1 141.4871 40.7018 19.7497 7.9497 -11.5731 -14.6175
# 2 40.7018 89.2444 11.7690 -7.5186 4.0279 -21.0067
# 3 19.7497 11.7690 69.4229 0.4574 -4.4661 -0.7796
# 4 7.9497 -7.5186 0.4574 36.3225 -7.9348 -6.9063
# 5 -11.5731 4.0279 -4.4661 -7.9348 58.3781 -4.6479
# 6 -14.6175 -21.0067 -0.7796 -6.9063 -4.6479 35.7344
#
#
#
# Elastic Compliance Matrix: (Units=1/GPa)
#
#
# Indices 1 2 3 4 5 6 
#
# 1 0.008760 -0.003747 -0.001723 -0.002086 0.001672 0.001158
# 2 -0.003747 0.015653 -0.001559 0.005619 -0.000489 0.008657
# 3 -0.001723 -0.001559 0.015198 -0.000194 0.000805 -0.001222
# 4 -0.002086 0.005619 -0.000194 0.031818 0.004237 0.009146
# 5 0.001672 -0.000489 0.000805 0.004237 0.018421 0.003629
# 6 0.001158 0.008657 -0.001222 0.009146 0.003629 0.035760
#
#
# Mechanical properties :
#
#
# Convention : Reuss Voigt Hill
#
# Bulk Modulus (GPa) = 39.13230 49.39950 44.26590
# Shear Modulus (GPa) = 33.74197 41.28261 37.51229
#
# Velocity S-wave (km/s) = 3.73523 4.13157 3.93839
# Velocity P-wave (km/s) = 5.89774 6.57161 6.24377
#
# Compressibility (1/GPa) = 0.02555434
#
# Stress axis : x y z
#
# Youngs Moduli (GPa) = 114.16154 63.88680 65.79760
#
# Poissons Ratio (x) = 0.23935 0.11334
# Poissons Ratio (y) = 0.42771 0.10258
# Poissons Ratio (z) = 0.19664 0.09960
#
# Static dielectric constant tensor:
#      x y z
#    x 2.049950 0.083940 -0.083330 
#    y 0.083940 2.001520 0.051520 
#    z -0.083330 0.051520 2.060680 
# 
# From -- ./inp_files/390636.got.cif
#   From: 2010.05.17/outbox.cif.g08.bks.cpg/sg2_196_cif.got.tgz:390636.got - 2010.06.03 11:33:40.
