data_PCOD9031121
_publ_section_title
;
Structure prediction by ZEFSAII (Michael W. Deem and Ramdas Pophale) SiO2 
 PCOD9031121
Probable space group: P -1
;
_chemical_formula_sum "Si O2"
_cell_formula_units_Z 14
_cell_length_a 14.359799
_cell_length_b 11.893806
_cell_length_c 11.922259
_cell_angle_alpha 125.815492
_cell_angle_beta 43.702578
_cell_angle_gamma 151.853708
_cell_volume 655.062475
_symmetry_space_group_name_H-M "P -1"
_symmetry_group_IT_number 2
_symmetry_cell_setting 'triclinic'
loop_
_space_group_symop_operation_xyz
x,y,z
-x,-y,-z
loop_
_atom_site_type_symbol
_atom_site_label
_atom_site_fract_x
_atom_site_fract_y
_atom_site_fract_z
Si Si1 0.248063 0.865889 0.146689
Si Si2 0.974762 0.249024 0.953219
Si Si3 0.080612 0.500975 0.223828
Si Si4 0.305344 0.262988 0.658879
Si Si5 0.653889 0.984536 0.412287
Si Si6 0.474699 0.858692 0.267891
Si Si7 0.725961 0.803484 0.611361
O O1 0.081006 0.720913 0.097658
O O2 0.102829 0.678902 0.268105
O O3 0.308327 0.077285 0.233349
O O4 0.500000 0.000000 0.000000
O O5 0.111034 0.220161 0.801099
O O6 0.111101 0.448832 0.047569
O O7 0.717262 0.015798 0.094051
O O8 0.275837 0.644221 0.231502
O O9 0.849341 0.244539 0.333207
O O10 0.243295 0.073120 0.669919
O O11 0.546522 0.534645 0.652942
O O12 0.338780 0.241654 0.489766
O O13 0.470187 0.799161 0.364151
O O14 0.546439 0.991599 0.607323
O O15 0.000000 0.000000 0.500000
#
# Coordination Sequence:
#
# PCOD9031121 Si02
#       7
#     2   2   2   2   2   2   2
#     4  12  23  43  71 100 137 174 225 285 338 394
#     4  11  24  42  66 102 134 176 224 280 339 397
#     4  11  23  40  69 100 133 175 226 279 338 390
#     4  11  25  45  66  99 140 175 224 274 338 404
#     4  10  24  44  68  97 135 177 226 280 329 407
#     4  10  22  43  65 100 130 178 231 271 340 390
#     4  11  25  44  67 100 136 179 220 270 340 404
#
# _framework density 21.372005999999999
#
# number of rings (size 3 to 8) (size 9 to 14) (size 15 to 20)
#    0.000    1.143    2.857    2.571    0.000    6.857 
#    0.000    1.429    0.000    0.000    0.000    0.000 
#    0.000    0.000    0.000    0.000    0.000    0.000 
#
# Total GULP energy -78132.773993 kJ/mol
# GULP energy per Si atom -5580.912428 kJ/mol
# Density = 2.132336 g / cm^3
# Si number density = 21.372006 Si / 1000 Ang^3
#
#
#
# Elastic Constant Matrix: (Units=GPa)
#
#
# Indices 1 2 3 4 5 6 
#
# 1 115.8179 44.3804 28.6545 -1.7011 -9.0022 16.8863
# 2 44.3804 98.1414 27.9380 -4.3790 0.1532 9.1806
# 3 28.6545 27.9380 72.1807 1.4000 -13.9445 11.8526
# 4 -1.7011 -4.3790 1.4000 32.4799 7.1601 13.1482
# 5 -9.0022 0.1532 -13.9445 7.1601 37.9640 6.2427
# 6 16.8863 9.1806 11.8526 13.1482 6.2427 41.9858
#
#
#
# Elastic Compliance Matrix: (Units=1/GPa)
#
#
# Indices 1 2 3 4 5 6 
#
# 1 0.011501 -0.004274 -0.001806 0.001133 0.002510 -0.003909
# 2 -0.004274 0.013439 -0.004057 0.002599 -0.002975 -0.000446
# 3 -0.001806 -0.004057 0.018254 -0.001322 0.007233 -0.004201
# 4 0.001133 0.002599 -0.001322 0.037073 -0.005334 -0.011467
# 5 0.002510 -0.002975 0.007233 -0.005334 0.031501 -0.005414
# 6 -0.003909 -0.000446 -0.004201 -0.011467 -0.005414 0.031069
#
#
# Mechanical properties :
#
#
# Convention : Reuss Voigt Hill
#
# Bulk Modulus (GPa) = 43.63117 54.23176 48.93147
# Shear Modulus (GPa) = 29.28215 34.83041 32.05628
#
# Velocity S-wave (km/s) = 3.70552 4.04136 3.87708
# Velocity P-wave (km/s) = 6.22634 6.87074 6.55646
#
# Compressibility (1/GPa) = 0.02291939
#
# Stress axis : x y z
#
# Youngs Moduli (GPa) = 86.95168 74.40802 54.78148
#
# Poissons Ratio (x) = 0.31803 0.09896
# Poissons Ratio (y) = 0.37164 0.22224
# Poissons Ratio (z) = 0.15707 0.30187
#
# Static dielectric constant tensor:
#      x y z
#    x 1.782290 0.022010 0.019160 
#    y 0.022010 1.818460 -0.004110 
#    z 0.019160 -0.004110 1.805070 
# 
# From -- ./inp_files/451756.got.cif
#   From: 2010.05.17/outbox.cif.g08.bks.cpg/sg2_226_cif.got.tgz:451756.got - 2010.06.03 11:33:40.
