data_PCOD9031693
_publ_section_title
;
Structure prediction by ZEFSAII (Michael W. Deem and Ramdas Pophale) SiO2 
 PCOD9031693
Probable space group: P -1
;
_chemical_formula_sum "Si O2"
_cell_formula_units_Z 15
_cell_length_a 14.323026
_cell_length_b 17.411144
_cell_length_c 8.924360
_cell_angle_alpha 40.409177
_cell_angle_beta 139.577320
_cell_angle_gamma 156.320372
_cell_volume 561.665620
_symmetry_space_group_name_H-M "P -1"
_symmetry_group_IT_number 2
_symmetry_cell_setting 'triclinic'
loop_
_space_group_symop_operation_xyz
x,y,z
-x,-y,-z
loop_
_atom_site_type_symbol
_atom_site_label
_atom_site_fract_x
_atom_site_fract_y
_atom_site_fract_z
Si Si1 0.718025 0.080894 0.059139
Si Si2 0.245683 0.230446 0.423515
Si Si3 0.376224 0.520182 0.719969
Si Si4 0.000000 0.500000 0.000000
Si Si5 0.942682 0.671917 0.129035
Si Si6 0.064560 0.796722 0.552198
Si Si7 0.630473 0.959556 0.698277
Si Si8 0.543485 0.296309 0.888143
O O1 0.888264 0.145315 0.303281
O O2 0.871012 0.264204 0.858064
O O3 0.599643 0.901252 0.083317
O O4 0.500000 0.000000 0.000000
O O5 0.418702 0.288492 0.417980
O O6 0.194660 0.326344 0.150088
O O7 0.398978 0.316571 0.633830
O O8 0.000000 0.000000 0.500000
O O9 0.184359 0.341478 0.630888
O O10 0.500000 0.500000 0.000000
O O11 0.224266 0.493649 0.699088
O O12 0.804184 0.461051 0.892195
O O13 0.099847 0.677241 0.757337
O O14 0.121487 0.867311 0.162175
O O15 0.280669 0.998389 0.423394
O O16 0.500000 0.000000 0.500000
O O17 0.474602 0.753573 0.888198
#
# Coordination Sequence:
#
# PCOD9031693 Si02
#       8
#     2   2   2   1   2   2   2   2
#     4  11  20  36  57  90 122 157 185 243 307 353
#     4  11  18  35  62  88 105 153 204 240 277 346
#     4   9  20  36  58  86 112 153 200 242 282 352
#     4  12  20  36  58  92 106 158 198 246 276 350
#     4   9  20  35  58  83 115 153 196 238 292 343
#     4  11  21  34  61  83 116 148 197 240 292 343
#     4  10  17  32  53  82 109 154 190 231 279 357
#     4  11  22  36  63  82 121 150 202 241 292 344
#
# _framework density 26.70628
#
# number of rings (size 3 to 8) (size 9 to 14) (size 15 to 20)
#    0.000    1.600    6.667    0.800    0.000    0.000 
#    0.000    2.667    2.933   20.000    0.000    0.000 
#    0.000    0.000    0.000    0.000    0.000    0.000 
#
# Total GULP energy -83542.729150 kJ/mol
# GULP energy per Si atom -5569.515277 kJ/mol
# Density = 2.664550 g / cm^3
# Si number density = 26.706280 Si / 1000 Ang^3
#
#
#
# Elastic Constant Matrix: (Units=GPa)
#
#
# Indices 1 2 3 4 5 6 
#
# 1 87.6989 57.5275 28.6997 -9.4322 -33.2584 22.3286
# 2 57.5275 131.9488 42.4197 -23.4775 -25.1476 37.6018
# 3 28.6997 42.4197 121.4520 -17.6767 -21.1754 17.3529
# 4 -9.4322 -23.4775 -17.6767 54.2724 12.0498 -23.2644
# 5 -33.2584 -25.1476 -21.1754 12.0498 58.9666 -14.6072
# 6 22.3286 37.6018 17.3529 -23.2644 -14.6072 59.4000
#
#
#
# Elastic Compliance Matrix: (Units=1/GPa)
#
#
# Indices 1 2 3 4 5 6 
#
# 1 0.019066 -0.006415 -0.000998 -0.002269 0.007673 -0.001816
# 2 -0.006415 0.012500 -0.002044 0.001898 -0.000469 -0.004276
# 3 -0.000998 -0.002044 0.009739 0.001698 0.001692 -0.000095
# 4 -0.002269 0.001898 0.001698 0.023268 -0.002734 0.007597
# 5 0.007673 -0.000469 0.001692 -0.002734 0.022601 0.001405
# 6 -0.001816 -0.004276 -0.000095 0.007597 0.001405 0.023573
#
#
# Mechanical properties :
#
#
# Convention : Reuss Voigt Hill
#
# Bulk Modulus (GPa) = 44.66303 66.48819 55.57561
# Shear Modulus (GPa) = 36.46308 48.69132 42.57720
#
# Velocity S-wave (km/s) = 3.69906 4.27455 3.99717
# Velocity P-wave (km/s) = 5.91643 7.02228 6.49294
#
# Compressibility (1/GPa) = 0.02238988
#
# Stress axis : x y z
#
# Youngs Moduli (GPa) = 52.45057 80.00137 102.67740
#
# Poissons Ratio (x) = 0.51324 0.10242
# Poissons Ratio (y) = 0.33649 0.20992
# Poissons Ratio (z) = 0.05232 0.16356
#
# Static dielectric constant tensor:
#      x y z
#    x 2.219330 0.026430 0.017890 
#    y 0.026430 2.161340 -0.010450 
#    z 0.017890 -0.010450 2.181270 
# 
# From -- ./inp_files/338603.got.cif
#   From: 2010.05.17/outbox.cif.g08.bks.cpg/sg2_170_cif.got.tgz:338603.got - 2010.06.03 11:33:40.
