data_PCOD9031319
_publ_section_title
;
Structure prediction by ZEFSAII (Michael W. Deem and Ramdas Pophale) SiO2 
 PCOD9031319
Probable space group: P -1
;
_chemical_formula_sum "Si O2"
_cell_formula_units_Z 14
_cell_length_a 8.038934
_cell_length_b 6.545756
_cell_length_c 23.357454
_cell_angle_alpha 133.883219
_cell_angle_beta 38.522962
_cell_angle_gamma 125.346250
_cell_volume 549.949893
_symmetry_space_group_name_H-M "P -1"
_symmetry_group_IT_number 2
_symmetry_cell_setting 'triclinic'
loop_
_space_group_symop_operation_xyz
x,y,z
-x,-y,-z
loop_
_atom_site_type_symbol
_atom_site_label
_atom_site_fract_x
_atom_site_fract_y
_atom_site_fract_z
Si Si1 0.341366 0.231048 0.961280
Si Si2 0.791098 0.716266 0.116915
Si Si3 0.151529 0.611831 0.423673
Si Si4 0.614718 0.797699 0.553838
Si Si5 0.874213 0.585683 0.189568
Si Si6 0.864972 0.296302 0.250767
Si Si7 0.753329 0.818663 0.782232
O O1 0.391188 0.244896 0.881803
O O2 0.470990 0.952493 0.895419
O O3 0.500000 0.500000 0.000000
O O4 0.043755 0.320458 0.071984
O O5 0.955586 0.016770 0.141280
O O6 0.692385 0.628233 0.190359
O O7 0.000000 0.500000 0.000000
O O8 0.360218 0.897044 0.426564
O O9 0.244820 0.344209 0.310514
O O10 0.000000 0.500000 0.500000
O O11 0.911203 0.726781 0.474770
O O12 0.500000 0.500000 0.500000
O O13 0.413309 0.803992 0.662695
O O14 0.793100 0.504762 0.260240
O O15 0.046893 0.889213 0.211624
O O16 0.105694 0.374796 0.245958
#
# Coordination Sequence:
#
# PCOD9031319 Si02
#       7
#     2   2   2   2   2   2   2
#     4   9  19  40  64  99 145 186 226 297 357 417
#     4   9  20  40  61  96 138 176 241 283 341 427
#     4  11  27  46  74 107 138 189 246 300 366 440
#     4  11  26  50  71 103 146 187 238 306 367 431
#     4   9  21  40  70  98 137 191 235 291 354 428
#     4  11  23  43  69 100 137 191 234 292 366 430
#     4  10  22  43  66 104 141 179 241 294 357 427
#
# _framework density 25.456866000000002
#
# number of rings (size 3 to 8) (size 9 to 14) (size 15 to 20)
#    0.000    2.000    1.429    0.857    4.000    5.714 
#    5.143    0.000    0.000    0.000    0.000    0.000 
#    0.000    0.000    0.000    0.000    0.000    0.000 
#
# Total GULP energy -78042.334218 kJ/mol
# GULP energy per Si atom -5574.452444 kJ/mol
# Density = 2.539892 g / cm^3
# Si number density = 25.456866 Si / 1000 Ang^3
#
#
#
# Elastic Constant Matrix: (Units=GPa)
#
#
# Indices 1 2 3 4 5 6 
#
# 1 119.3333 46.1560 19.0167 1.3774 20.9888 -7.7414
# 2 46.1560 155.0701 45.4386 -7.1599 28.9001 -4.3127
# 3 19.0167 45.4386 119.2169 14.1356 12.6367 -6.0191
# 4 1.3774 -7.1599 14.1356 49.2520 -3.9272 3.9090
# 5 20.9888 28.9001 12.6367 -3.9272 46.9631 3.2131
# 6 -7.7414 -4.3127 -6.0191 3.9090 3.2131 42.2384
#
#
#
# Elastic Compliance Matrix: (Units=1/GPa)
#
#
# Indices 1 2 3 4 5 6 
#
# 1 0.010004 -0.002326 -0.000156 -0.000980 -0.003210 0.001909
# 2 -0.002326 0.008683 -0.002788 0.001843 -0.003410 0.000152
# 3 -0.000156 -0.002788 0.010115 -0.003534 -0.001338 0.001557
# 4 -0.000980 0.001843 -0.003534 0.022010 0.002280 -0.002706
# 5 -0.003210 -0.003410 -0.001338 0.002280 0.025602 -0.003286
# 6 0.001909 0.000152 0.001557 -0.002706 -0.003286 0.024763
#
#
# Mechanical properties :
#
#
# Convention : Reuss Voigt Hill
#
# Bulk Modulus (GPa) = 54.75882 68.31589 61.53735
# Shear Modulus (GPa) = 42.44336 46.55795 44.50065
#
# Velocity S-wave (km/s) = 4.08765 4.28120 4.18554
# Velocity P-wave (km/s) = 6.62085 7.16466 6.89812
#
# Compressibility (1/GPa) = 0.01826190
#
# Stress axis : x y z
#
# Youngs Moduli (GPa) = 99.95836 115.17234 98.86189
#
# Poissons Ratio (x) = 0.26786 0.01547
# Poissons Ratio (y) = 0.23248 0.27561
# Poissons Ratio (z) = 0.01564 0.32108
#
# Static dielectric constant tensor:
#      x y z
#    x 2.104920 0.025600 -0.006960 
#    y 0.025600 2.142950 -0.025930 
#    z -0.006960 -0.025930 2.049660 
# 
# From -- ./inp_files/605721.got.cif
#   From: 2010.05.17/outbox.cif.g08.bks.cpg/sg2_303_cif.got.tgz:605721.got - 2010.06.03 11:33:40.
