data_PCOD9031125
_publ_section_title
;
Structure prediction by ZEFSAII (Michael W. Deem and Ramdas Pophale) SiO2 
 PCOD9031125
Probable space group: P -1
;
_chemical_formula_sum "Si O2"
_cell_formula_units_Z 16
_cell_length_a 8.781322
_cell_length_b 18.456026
_cell_length_c 5.995394
_cell_angle_alpha 77.219362
_cell_angle_beta 97.781961
_cell_angle_gamma 46.235533
_cell_volume 624.324958
_symmetry_space_group_name_H-M "P -1"
_symmetry_group_IT_number 2
_symmetry_cell_setting 'triclinic'
loop_
_space_group_symop_operation_xyz
x,y,z
-x,-y,-z
loop_
_atom_site_type_symbol
_atom_site_label
_atom_site_fract_x
_atom_site_fract_y
_atom_site_fract_z
Si Si1 0.728544 0.097672 0.822263
Si Si2 0.914783 0.265448 0.705638
Si Si3 0.190054 0.541272 0.489450
Si Si4 0.980603 0.595397 0.911898
Si Si5 0.249861 0.027787 0.412181
Si Si6 0.213733 0.806624 0.608840
Si Si7 0.564303 0.293757 0.876452
Si Si8 0.318988 0.164591 0.157760
O O1 0.659378 0.042415 0.752903
O O2 0.707218 0.159967 0.564818
O O3 0.578976 0.200512 0.895656
O O4 0.000000 0.000000 0.000000
O O5 0.745665 0.394907 0.529926
O O6 0.915760 0.212031 0.532555
O O7 0.792564 0.256501 0.868906
O O8 0.161464 0.206873 0.878551
O O9 0.360760 0.410152 0.637788
O O10 0.051025 0.585158 0.671498
O O11 0.107839 0.568778 0.194535
O O12 0.763314 0.729491 0.815955
O O13 0.000000 0.500000 0.000000
O O14 0.404309 0.943123 0.707210
O O15 0.258321 0.112993 0.327543
O O16 0.991768 0.090319 0.347358
O O17 0.430409 0.698710 0.863167
#
# Coordination Sequence:
#
# PCOD9031125 Si02
#       8
#     2   2   2   2   2   2   2   2
#     4  11  23  41  61  98 138 180 226 287 351 409
#     4  10  22  43  65 100 141 178 231 291 344 423
#     4  11  26  43  74 103 138 185 239 286 363 414
#     4  11  26  50  71 102 141 185 235 298 348 426
#     4  11  21  40  67  97 133 179 230 277 344 424
#     4  11  22  39  69  94 141 176 225 292 347 415
#     4  11  24  40  67 102 138 180 230 289 351 421
#     4  10  23  43  68  96 135 179 228 285 349 413
#
# _framework density 25.627679000000001
#
# number of rings (size 3 to 8) (size 9 to 14) (size 15 to 20)
#    0.000    1.250    2.500    2.625    7.000    1.000 
#    0.000    2.500    0.000    0.000    0.000    0.000 
#    0.000    0.000    0.000    0.000    0.000    0.000 
#
# Total GULP energy -89187.990055 kJ/mol
# GULP energy per Si atom -5574.249378 kJ/mol
# Density = 2.556935 g / cm^3
# Si number density = 25.627679 Si / 1000 Ang^3
#
#
#
# Elastic Constant Matrix: (Units=GPa)
#
#
# Indices 1 2 3 4 5 6 
#
# 1 50.7936 28.9582 7.8164 7.2190 -4.1305 23.2927
# 2 28.9582 106.3687 27.7777 -5.4323 4.6975 26.3603
# 3 7.8164 27.7777 106.3989 -6.3612 7.1872 -2.9657
# 4 7.2190 -5.4323 -6.3612 49.2743 1.9599 -3.4807
# 5 -4.1305 4.6975 7.1872 1.9599 37.3183 -6.1911
# 6 23.2927 26.3603 -2.9657 -3.4807 -6.1911 41.5075
#
#
#
# Elastic Compliance Matrix: (Units=1/GPa)
#
#
# Indices 1 2 3 4 5 6 
#
# 1 0.030295 -0.004582 -0.001960 -0.006305 0.002246 -0.014424
# 2 -0.004582 0.013191 -0.003016 0.001398 -0.002706 -0.006307
# 3 -0.001960 -0.003016 0.010623 0.001642 -0.001354 0.003710
# 4 -0.006305 0.001398 0.001642 0.021957 -0.001619 0.004367
# 5 0.002246 -0.002706 -0.001354 -0.001619 0.028474 0.004473
# 6 -0.014424 -0.006307 0.003710 0.004367 0.004473 0.037491
#
#
# Mechanical properties :
#
#
# Convention : Reuss Voigt Hill
#
# Bulk Modulus (GPa) = 28.57865 43.62951 36.10408
# Shear Modulus (GPa) = 28.93337 38.88729 33.91033
#
# Velocity S-wave (km/s) = 3.36369 3.89960 3.64152
# Velocity P-wave (km/s) = 5.12460 6.11042 5.63909
#
# Compressibility (1/GPa) = 0.03499116
#
# Stress axis : x y z
#
# Youngs Moduli (GPa) = 33.00899 75.81190 94.13442
#
# Poissons Ratio (x) = 0.34739 0.18449
# Poissons Ratio (y) = 0.15126 0.28395
# Poissons Ratio (z) = 0.06469 0.22868
#
# Static dielectric constant tensor:
#      x y z
#    x 2.055610 -0.089590 0.008050 
#    y -0.089590 2.309070 0.158270 
#    z 0.008050 0.158270 2.164750 
# 
# From -- ./inp_files/64636.got.cif
#   From: 2010.05.17/outbox.cif.g08.bks.cpg/sg2_33_cif.got.tgz:64636.got - 2010.06.03 11:33:40.
