data_PCOD9031628
_publ_section_title
;
Structure prediction by ZEFSAII (Michael W. Deem and Ramdas Pophale) SiO2 
 PCOD9031628
Probable space group: P -1
;
_chemical_formula_sum "Si O2"
_cell_formula_units_Z 15
_cell_length_a 8.722677
_cell_length_b 5.756671
_cell_length_c 23.876596
_cell_angle_alpha 99.301433
_cell_angle_beta 149.959405
_cell_angle_gamma 82.842527
_cell_volume 592.023709
_symmetry_space_group_name_H-M "P -1"
_symmetry_group_IT_number 2
_symmetry_cell_setting 'triclinic'
loop_
_space_group_symop_operation_xyz
x,y,z
-x,-y,-z
loop_
_atom_site_type_symbol
_atom_site_label
_atom_site_fract_x
_atom_site_fract_y
_atom_site_fract_z
Si Si1 0.133791 0.122580 0.668528
Si Si2 0.766494 0.331645 0.184840
Si Si3 0.672204 0.509414 0.866634
Si Si4 0.500000 0.500000 0.000000
Si Si5 0.220898 0.574156 0.521998
Si Si6 0.271762 0.704027 0.362084
Si Si7 0.428613 0.213782 0.260412
Si Si8 0.005384 0.108141 0.828289
O O1 0.436666 0.283551 0.787419
O O2 0.957800 0.258282 0.569064
O O3 0.889183 0.108799 0.641260
O O4 0.270673 0.890285 0.676306
O O5 0.523812 0.293125 0.155577
O O6 0.079034 0.464285 0.308149
O O7 0.634617 0.522054 0.107276
O O8 0.829418 0.103982 0.159320
O O9 0.694106 0.587340 0.811718
O O10 0.000000 0.500000 0.000000
O O11 0.252157 0.298220 0.934261
O O12 0.376778 0.366436 0.528592
O O13 0.493399 0.702590 0.648878
O O14 0.000000 0.500000 0.500000
O O15 0.218084 0.783616 0.284226
O O16 0.173411 0.009238 0.180855
#
# Coordination Sequence:
#
# PCOD9031628 Si02
#       8
#     2   2   2   1   2   2   2   2
#     4  11  25  47  71 106 148 188 240 299 360 437
#     4  10  22  43  67  96 141 187 238 292 358 431
#     4  11  27  46  70 102 147 191 239 301 366 423
#     4  10  24  40  68  98 136 186 242 296 350 410
#     4  12  23  46  76 105 146 188 241 304 360 424
#     4  10  23  44  68 104 146 185 234 296 363 425
#     4  12  26  45  74 108 143 188 245 296 365 429
#     4  11  23  43  71 101 143 188 244 297 353 434
#
# _framework density 25.336822000000002
#
# number of rings (size 3 to 8) (size 9 to 14) (size 15 to 20)
#    0.000    1.067    2.667    2.800    3.733    0.533 
#    2.400    1.333    0.000    0.000    0.000    0.000 
#    0.000    0.000    0.000    0.000    0.000    0.000 
#
# Total GULP energy -83728.813634 kJ/mol
# GULP energy per Si atom -5581.920909 kJ/mol
# Density = 2.527915 g / cm^3
# Si number density = 25.336822 Si / 1000 Ang^3
#
#
#
# Elastic Constant Matrix: (Units=GPa)
#
#
# Indices 1 2 3 4 5 6 
#
# 1 113.1354 36.6518 36.9726 -3.5457 15.3894 -17.4346
# 2 36.6518 45.0415 23.0618 -0.8323 19.2329 -15.6502
# 3 36.9726 23.0618 106.2499 -5.4902 -4.0505 1.2618
# 4 -3.5457 -0.8323 -5.4902 40.1984 10.4831 6.7170
# 5 15.3894 19.2329 -4.0505 10.4831 46.7959 -7.1334
# 6 -17.4346 -15.6502 1.2618 6.7170 -7.1334 58.3227
#
#
#
# Elastic Compliance Matrix: (Units=1/GPa)
#
#
# Indices 1 2 3 4 5 6 
#
# 1 0.012701 -0.007956 -0.002720 0.000602 -0.001045 0.001524
# 2 -0.007956 0.040273 -0.006490 0.001749 -0.013872 0.006671
# 3 -0.002720 -0.006490 0.011982 0.000590 0.004104 -0.002380
# 4 0.000602 0.001749 0.000590 0.027602 -0.007578 -0.003469
# 5 -0.001045 -0.013872 0.004104 -0.007578 0.029522 0.000360
# 6 0.001524 0.006671 -0.002380 -0.003469 0.000360 0.019886
#
#
# Mechanical properties :
#
#
# Convention : Reuss Voigt Hill
#
# Bulk Modulus (GPa) = 32.65466 50.86659 41.76063
# Shear Modulus (GPa) = 26.80868 40.24611 33.52739
#
# Velocity S-wave (km/s) = 3.25636 3.98985 3.64162
# Velocity P-wave (km/s) = 5.20142 6.43000 5.84806
#
# Compressibility (1/GPa) = 0.03062350
#
# Stress axis : x y z
#
# Youngs Moduli (GPa) = 78.73394 24.83076 83.45781
#
# Poissons Ratio (x) = 0.19755 0.22697
# Poissons Ratio (y) = 0.62641 0.54168
# Poissons Ratio (z) = 0.21413 0.16116
#
# Static dielectric constant tensor:
#      x y z
#    x 2.021420 -0.039470 -0.026230 
#    y -0.039470 2.058520 0.013400 
#    z -0.026230 0.013400 2.139590 
# 
# From -- ./inp_files/90265.got.cif
#   From: 2010.05.17/outbox.cif.g08.bks.cpg/sg2_46_cif.got.tgz:90265.got - 2010.06.03 11:33:40.
