data_PCOD9031962
_publ_section_title
;
Structure prediction by ZEFSAII (Michael W. Deem and Ramdas Pophale) SiO2 
 PCOD9031962
Probable space group: P -1
;
_chemical_formula_sum "Si O2"
_cell_formula_units_Z 12
_cell_length_a 11.949339
_cell_length_b 8.740861
_cell_length_c 5.798095
_cell_angle_alpha 110.655949
_cell_angle_beta 50.789194
_cell_angle_gamma 111.450866
_cell_volume 430.478662
_symmetry_space_group_name_H-M "P -1"
_symmetry_group_IT_number 2
_symmetry_cell_setting 'triclinic'
loop_
_space_group_symop_operation_xyz
x,y,z
-x,-y,-z
loop_
_atom_site_type_symbol
_atom_site_label
_atom_site_fract_x
_atom_site_fract_y
_atom_site_fract_z
Si Si1 0.116111 0.168581 0.450140
Si Si2 0.113329 0.179942 0.946454
Si Si3 0.839398 0.388933 0.672678
Si Si4 0.617168 0.197265 0.576732
Si Si5 0.333130 0.927796 0.058952
Si Si6 0.600835 0.610983 0.238724
O O1 0.092394 0.260555 0.767486
O O2 0.100368 0.237669 0.255379
O O3 0.267227 0.096043 0.231249
O O4 0.000000 0.000000 0.500000
O O5 0.293102 0.214866 0.725794
O O6 0.000000 0.000000 0.000000
O O7 0.784406 0.297739 0.454467
O O8 0.000000 0.500000 0.500000
O O9 0.804851 0.233540 0.812665
O O10 0.613925 0.105248 0.286583
O O11 0.509440 0.328129 0.762861
O O12 0.587790 0.100568 0.811203
O O13 0.286594 0.506069 0.044783
O O14 0.500000 0.500000 0.500000
#
# Coordination Sequence:
#
# PCOD9031962 Si02
#       6
#     2   2   2   2   2   2
#     4  10  22  43  69 101 144 187 239 301 363 425
#     4  10  25  44  71 108 138 194 242 303 356 436
#     4  10  25  40  73 109 145 189 247 309 359 434
#     4  10  23  44  68 105 144 190 237 300 366 435
#     4  10  22  43  69 100 148 182 249 289 369 420
#     4  12  24  50  76 108 151 196 246 299 381 443
#
# _framework density 27.87595
#
# number of rings (size 3 to 8) (size 9 to 14) (size 15 to 20)
#    1.000    0.667    1.667    1.500    4.667    6.000 
#    3.000    5.000    0.000    0.000    0.000    0.000 
#    0.000    0.000    0.000    0.000    0.000    0.000 
#
# Total GULP energy -66839.526471 kJ/mol
# GULP energy per Si atom -5569.960539 kJ/mol
# Density = 2.781250 g / cm^3
# Si number density = 27.875950 Si / 1000 Ang^3
#
#
#
# Elastic Constant Matrix: (Units=GPa)
#
#
# Indices 1 2 3 4 5 6 
#
# 1 156.0274 61.8856 101.6142 6.4100 45.7115 -3.2254
# 2 61.8856 107.9742 76.2233 -27.7734 12.5757 -11.5013
# 3 101.6142 76.2233 254.6815 -22.1380 42.0140 -13.2873
# 4 6.4100 -27.7734 -22.1380 46.5584 -8.0623 -17.6048
# 5 45.7115 12.5757 42.0140 -8.0623 55.2951 10.2571
# 6 -3.2254 -11.5013 -13.2873 -17.6048 10.2571 60.5407
#
#
#
# Elastic Compliance Matrix: (Units=1/GPa)
#
#
# Indices 1 2 3 4 5 6 
#
# 1 0.014857 -0.008623 -0.003014 -0.011443 -0.009087 -0.003296
# 2 -0.008623 0.019307 -0.001472 0.015311 0.004881 0.006511
# 3 -0.003014 -0.001472 0.006250 0.002983 -0.001880 0.002117
# 4 -0.011443 0.015311 0.002983 0.039876 0.007047 0.013356
# 5 -0.009087 0.004881 -0.001880 0.007047 0.027419 -0.002565
# 6 -0.003296 0.006511 0.002117 0.013356 -0.002565 0.022362
#
#
# Mechanical properties :
#
#
# Convention : Reuss Voigt Hill
#
# Bulk Modulus (GPa) = 70.45600 110.90324 90.67962
# Shear Modulus (GPa) = 31.05177 51.07618 41.06398
#
# Velocity S-wave (km/s) = 3.34118 4.28514 3.84226
# Velocity P-wave (km/s) = 6.34147 8.02211 7.23078
#
# Compressibility (1/GPa) = 0.01419326
#
# Stress axis : x y z
#
# Youngs Moduli (GPa) = 67.30929 51.79541 160.00825
#
# Poissons Ratio (x) = 0.44665 0.48231
# Poissons Ratio (y) = 0.58043 0.23559
# Poissons Ratio (z) = 0.20289 0.07626
#
# Static dielectric constant tensor:
#      x y z
#    x 2.411570 0.108950 -0.069090 
#    y 0.108950 2.241390 -0.080940 
#    z -0.069090 -0.080940 2.094690 
# 
# From -- ./inp_files/91802.got.cif
#   From: 2010.05.17/outbox.cif.g08.bks.cpg/sg2_46_cif.got.tgz:91802.got - 2010.06.03 11:33:40.
