data_PCOD9031669
_publ_section_title
;
Structure prediction by ZEFSAII (Michael W. Deem and Ramdas Pophale) SiO2 
 PCOD9031669
Probable space group: P -1
;
_chemical_formula_sum "Si O2"
_cell_formula_units_Z 14
_cell_length_a 11.987328
_cell_length_b 10.252573
_cell_length_c 9.138776
_cell_angle_alpha 64.342935
_cell_angle_beta 140.799601
_cell_angle_gamma 128.184038
_cell_volume 555.580402
_symmetry_space_group_name_H-M "P -1"
_symmetry_group_IT_number 2
_symmetry_cell_setting 'triclinic'
loop_
_space_group_symop_operation_xyz
x,y,z
-x,-y,-z
loop_
_atom_site_type_symbol
_atom_site_label
_atom_site_fract_x
_atom_site_fract_y
_atom_site_fract_z
Si Si1 0.725579 0.519670 0.997434
Si Si2 0.915142 0.820663 0.824164
Si Si3 0.044406 0.621151 0.848779
Si Si4 0.626692 0.992906 0.767890
Si Si5 0.345080 0.034963 0.660516
Si Si6 0.637982 0.779444 0.118773
Si Si7 0.033295 0.304901 0.556994
O O1 0.877561 0.597773 0.250388
O O2 0.760824 0.382757 0.016005
O O3 0.501190 0.411568 0.883602
O O4 0.777520 0.667225 0.865598
O O5 0.996200 0.759529 0.797470
O O6 0.776920 0.895259 0.592430
O O7 0.136421 0.932626 0.069553
O O8 0.916601 0.575318 0.590033
O O9 0.000000 0.500000 0.000000
O O10 0.500000 0.000000 0.500000
O O11 0.560181 0.084174 0.779290
O O12 0.570380 0.821571 0.876062
O O13 0.357701 0.101247 0.805279
O O14 0.204278 0.833570 0.612879
O O15 0.859993 0.806173 0.306767
#
# Coordination Sequence:
#
# PCOD9031669 Si02
#       7
#     2   2   2   2   2   2   2
#     4  11  26  43  70 104 148 184 232 295 364 416
#     4  11  24  49  72 107 143 188 240 297 353 427
#     4  10  22  43  67  98 137 186 236 284 350 421
#     4  12  27  44  73 109 143 185 242 297 354 427
#     4  12  25  47  80 101 143 192 241 293 356 424
#     4  12  25  47  70 107 144 188 245 288 353 434
#     4  12  23  44  73 104 144 189 236 296 356 424
#
# _framework density 25.198872999999999
#
# number of rings (size 3 to 8) (size 9 to 14) (size 15 to 20)
#    0.000    0.571    2.857    5.143    2.000    4.000 
#    5.143    0.000    0.000    0.000    0.000    0.000 
#    0.000    0.000    0.000    0.000    0.000    0.000 
#
# Total GULP energy -78216.579337 kJ/mol
# GULP energy per Si atom -5586.898524 kJ/mol
# Density = 2.514152 g / cm^3
# Si number density = 25.198873 Si / 1000 Ang^3
#
#
#
# Elastic Constant Matrix: (Units=GPa)
#
#
# Indices 1 2 3 4 5 6 
#
# 1 71.0420 20.2756 16.1761 -14.1211 -6.8545 3.7837
# 2 20.2756 94.2413 44.0864 -6.1602 -9.7545 28.4274
# 3 16.1761 44.0864 130.8955 -45.6287 -15.1512 28.0111
# 4 -14.1211 -6.1602 -45.6287 43.5476 -5.5781 -4.9371
# 5 -6.8545 -9.7545 -15.1512 -5.5781 57.3968 6.6082
# 6 3.7837 28.4274 28.0111 -4.9371 6.6082 37.7159
#
#
#
# Elastic Compliance Matrix: (Units=1/GPa)
#
#
# Indices 1 2 3 4 5 6 
#
# 1 0.016371 -0.003804 0.002026 0.007242 0.002521 0.000226
# 2 -0.003804 0.016200 -0.004145 -0.004132 0.001911 -0.009626
# 3 0.002026 -0.004145 0.018336 0.019147 0.007329 -0.009474
# 4 0.007242 -0.004132 0.019147 0.045257 0.010508 -0.007750
# 5 0.002521 0.001911 0.007329 0.010508 0.022114 -0.009636
# 6 0.000226 -0.009626 -0.009474 -0.007750 -0.009636 0.041457
#
#
# Mechanical properties :
#
#
# Convention : Reuss Voigt Hill
#
# Bulk Modulus (GPa) = 25.60153 50.80611 38.20382
# Shear Modulus (GPa) = 27.08542 42.10813 34.59678
#
# Velocity S-wave (km/s) = 3.28207 4.09226 3.70935
# Velocity P-wave (km/s) = 4.95424 6.52186 5.79134
#
# Compressibility (1/GPa) = 0.03906016
#
# Stress axis : x y z
#
# Youngs Moduli (GPa) = 61.08300 61.72866 54.53786
#
# Poissons Ratio (x) = 0.23480 -0.11048
# Poissons Ratio (y) = 0.23235 0.22608
# Poissons Ratio (z) = -0.12374 0.25588
#
# Static dielectric constant tensor:
#      x y z
#    x 1.985700 -0.038410 -0.011290 
#    y -0.038410 2.030020 0.015370 
#    z -0.011290 0.015370 1.969590 
# 
# From -- ./inp_files/262223.got.cif
#   From: 2010.05.17/outbox.cif.g08.bks.cpg/sg2_132_cif.got.tgz:262223.got - 2010.06.03 11:33:40.
