data_PCOD9031848
_publ_section_title
;
Structure prediction by ZEFSAII (Michael W. Deem and Ramdas Pophale) SiO2 
 PCOD9031848
Probable space group: P -1
;
_chemical_formula_sum "Si O2"
_cell_formula_units_Z 16
_cell_length_a 9.127377
_cell_length_b 15.887711
_cell_length_c 14.081397
_cell_angle_alpha 47.106781
_cell_angle_beta 130.517963
_cell_angle_gamma 154.110358
_cell_volume 648.744776
_symmetry_space_group_name_H-M "P -1"
_symmetry_group_IT_number 2
_symmetry_cell_setting 'triclinic'
loop_
_space_group_symop_operation_xyz
x,y,z
-x,-y,-z
loop_
_atom_site_type_symbol
_atom_site_label
_atom_site_fract_x
_atom_site_fract_y
_atom_site_fract_z
Si Si1 0.107089 0.929604 0.015632
Si Si2 0.436406 0.783260 0.370523
Si Si3 0.266933 0.275903 0.585676
Si Si4 0.011710 0.875061 0.217922
Si Si5 0.728947 0.172859 0.364123
Si Si6 0.326089 0.652461 0.640934
Si Si7 0.807389 0.210804 0.164061
Si Si8 0.766904 0.673153 0.901900
O O1 0.935367 0.792794 0.143500
O O2 0.497581 0.133682 0.052507
O O3 0.085059 0.853616 0.965773
O O4 0.914313 0.954445 0.898398
O O5 0.601063 0.765734 0.387127
O O6 0.433945 0.741611 0.511557
O O7 0.035625 0.589793 0.327974
O O8 0.642868 0.001391 0.268893
O O9 0.500000 0.500000 0.500000
O O10 0.248276 0.249420 0.710711
O O11 0.906451 0.143957 0.496062
O O12 0.340619 0.971696 0.321829
O O13 0.740239 0.272972 0.373983
O O14 0.906123 0.297598 0.244647
O O15 0.613822 0.712009 0.759846
O O16 0.111028 0.350822 0.110975
O O17 0.500000 0.500000 0.000000
#
# Coordination Sequence:
#
# PCOD9031848 Si02
#       8
#     2   2   2   2   2   2   2   2
#     4  10  22  43  68  96 131 178 227 275 334 397
#     4  11  26  45  70 103 141 177 224 286 342 411
#     4  12  25  42  67 100 138 177 221 280 343 401
#     4  10  23  41  69  97 132 174 228 280 329 402
#     4  11  24  44  70 101 134 176 225 282 335 406
#     4  11  25  45  69 101 141 177 228 280 348 397
#     4  11  26  44  72 102 136 180 232 278 342 403
#     4  12  25  44  68  98 139 182 229 283 335 402
#
# _framework density 24.663011999999998
#
# number of rings (size 3 to 8) (size 9 to 14) (size 15 to 20)
#    0.000    1.000    2.500    3.000    5.250    4.000 
#    0.000    0.625    0.000    0.000    0.000    0.000 
#    0.000    0.000    0.000    0.000    0.000    0.000 
#
# Total GULP energy -89545.526272 kJ/mol
# GULP energy per Si atom -5596.595392 kJ/mol
# Density = 2.460688 g / cm^3
# Si number density = 24.663012 Si / 1000 Ang^3
#
#
#
# Elastic Constant Matrix: (Units=GPa)
#
#
# Indices 1 2 3 4 5 6 
#
# 1 160.4315 16.0603 51.3898 -8.0433 -25.7058 27.4769
# 2 16.0603 67.9652 33.8870 -1.5847 -5.0662 12.9454
# 3 51.3898 33.8870 119.8134 12.8037 -28.2434 13.7053
# 4 -8.0433 -1.5847 12.8037 31.6652 4.1365 -0.7414
# 5 -25.7058 -5.0662 -28.2434 4.1365 56.9966 -5.0467
# 6 27.4769 12.9454 13.7053 -0.7414 -5.0467 33.4819
#
#
#
# Elastic Compliance Matrix: (Units=1/GPa)
#
#
# Indices 1 2 3 4 5 6 
#
# 1 0.008582 0.000872 -0.003232 0.003186 0.001607 -0.005744
# 2 0.000872 0.018373 -0.005658 0.003497 -0.001532 -0.005657
# 3 -0.003232 -0.005658 0.013313 -0.007161 0.005157 0.000010
# 4 0.003186 0.003497 -0.007161 0.036026 -0.004496 -0.000916
# 5 0.001607 -0.001532 0.005157 -0.004496 0.021036 0.000234
# 6 -0.005744 -0.005657 0.000010 -0.000916 0.000234 0.036779
#
#
# Mechanical properties :
#
#
# Convention : Reuss Voigt Hill
#
# Bulk Modulus (GPa) = 41.26993 61.20938 51.23966
# Shear Modulus (GPa) = 31.60090 40.88696 36.24393
#
# Velocity S-wave (km/s) = 3.58342 4.07606 3.83765
# Velocity P-wave (km/s) = 5.82160 6.85744 6.36064
#
# Compressibility (1/GPa) = 0.02423072
#
# Stress axis : x y z
#
# Youngs Moduli (GPa) = 116.51902 54.42674 75.11629
#
# Poissons Ratio (x) = -0.04745 0.24280
# Poissons Ratio (y) = -0.10158 0.42503
# Poissons Ratio (z) = 0.37663 0.30796
#
# Static dielectric constant tensor:
#      x y z
#    x 1.943280 -0.006620 -0.028790 
#    y -0.006620 2.072030 -0.019510 
#    z -0.028790 -0.019510 1.969220 
# 
# From -- ./inp_files/190405.got.cif
#   From: 2010.05.17/outbox.cif.g08.bks.cpg/sg2_96_cif.got.tgz:190405.got - 2010.06.03 11:33:40.
