data_PCOD9031015
_publ_section_title
;
Structure prediction by ZEFSAII (Michael W. Deem and Ramdas Pophale) SiO2 
 PCOD9031015
Probable space group: P -1
;
_chemical_formula_sum "Si O2"
_cell_formula_units_Z 16
_cell_length_a 19.530365
_cell_length_b 11.884578
_cell_length_c 22.420678
_cell_angle_alpha 149.621663
_cell_angle_beta 163.303948
_cell_angle_gamma 39.933918
_cell_volume 689.654126
_symmetry_space_group_name_H-M "P -1"
_symmetry_group_IT_number 2
_symmetry_cell_setting 'triclinic'
loop_
_space_group_symop_operation_xyz
x,y,z
-x,-y,-z
loop_
_atom_site_type_symbol
_atom_site_label
_atom_site_fract_x
_atom_site_fract_y
_atom_site_fract_z
Si Si1 0.343455 0.048533 0.645193
Si Si2 0.204117 0.295201 0.150424
Si Si3 0.144279 0.066184 0.223184
Si Si4 0.847303 0.359131 0.134426
Si Si5 0.365889 0.725304 0.200238
Si Si6 0.996962 0.333806 0.478947
Si Si7 0.622872 0.877349 0.894111
Si Si8 0.848987 0.558953 0.987214
O O1 0.247243 0.266379 0.662934
O O2 0.404378 0.949390 0.713885
O O3 0.601576 0.144638 0.863677
O O4 0.097429 0.816791 0.310838
O O5 0.500000 0.500000 0.500000
O O6 0.201914 0.110715 0.012605
O O7 0.979445 0.388732 0.990378
O O8 0.113905 0.163179 0.077536
O O9 0.329586 0.154032 0.475792
O O10 0.053483 0.280595 0.236415
O O11 0.290265 0.960769 0.250779
O O12 0.997970 0.539326 0.395687
O O13 0.709945 0.420921 0.991355
O O14 0.233221 0.549605 0.064942
O O15 0.000000 0.500000 0.500000
O O16 0.755650 0.077936 0.147087
O O17 0.610551 0.616717 0.788612
#
# Coordination Sequence:
#
# PCOD9031015 Si02
#       8
#     2   2   2   2   2   2   2   2
#     4  11  23  40  68  99 128 162 222 278 321 385
#     4  11  19  39  65  99 128 169 215 270 333 382
#     4  10  22  43  63  98 131 172 220 264 319 394
#     4  12  23  40  70  96 128 173 216 274 326 381
#     4  10  25  42  63  94 140 174 213 263 324 391
#     4  11  24  40  65 101 132 165 216 276 332 381
#     4  11  22  39  62  97 131 163 216 271 323 385
#     4  10  23  41  62  94 133 175 210 265 333 392
#
# _framework density 23.200036000000001
#
# number of rings (size 3 to 8) (size 9 to 14) (size 15 to 20)
#    0.000    1.250    3.750    1.125    5.250    1.000 
#    9.000    2.500    0.000    4.500    0.000    0.000 
#    0.000    0.000    0.000    0.000    0.000    0.000 
#
# Total GULP energy -89090.055692 kJ/mol
# GULP energy per Si atom -5568.128481 kJ/mol
# Density = 2.314723 g / cm^3
# Si number density = 23.200036 Si / 1000 Ang^3
#
#
#
# Elastic Constant Matrix: (Units=GPa)
#
#
# Indices 1 2 3 4 5 6 
#
# 1 65.5666 22.6778 24.6569 -15.1963 -27.5834 21.9363
# 2 22.6778 128.8584 5.0372 -20.3383 -20.2769 13.6946
# 3 24.6569 5.0372 85.9107 -12.5994 -14.2221 -3.7834
# 4 -15.1963 -20.3383 -12.5994 23.6153 7.7469 -5.9062
# 5 -27.5834 -20.2769 -14.2221 7.7469 44.4272 -7.7435
# 6 21.9363 13.6946 -3.7834 -5.9062 -7.7435 18.1143
#
#
#
# Elastic Compliance Matrix: (Units=1/GPa)
#
#
# Indices 1 2 3 4 5 6 
#
# 1 0.041118 0.001056 -0.010715 0.005890 0.013701 -0.045053
# 2 0.001056 0.009676 0.000465 0.007011 0.003150 -0.004864
# 3 -0.010715 0.000465 0.016667 0.006760 0.000980 0.018729
# 4 0.005890 0.007011 0.006760 0.057647 0.000349 0.007925
# 5 0.013701 0.003150 0.000980 0.000349 0.031826 -0.005050
# 6 -0.045053 -0.004864 0.018729 0.007925 -0.005050 0.117778
#
#
# Mechanical properties :
#
#
# Convention : Reuss Voigt Hill
#
# Bulk Modulus (GPa) = 20.37821 42.78660 31.58240
# Shear Modulus (GPa) = 16.15737 32.42894 24.29315
#
# Velocity S-wave (km/s) = 2.64187 3.74277 3.23943
# Velocity P-wave (km/s) = 4.25544 6.09592 5.25685
#
# Compressibility (1/GPa) = 0.04907203
#
# Stress axis : x y z
#
# Youngs Moduli (GPa) = 24.32025 103.35259 60.00034
#
# Poissons Ratio (x) = -0.10915 0.64292
# Poissons Ratio (y) = -0.02568 -0.02790
# Poissons Ratio (z) = 0.26060 -0.04807
#
# Static dielectric constant tensor:
#      x y z
#    x 1.883860 0.052490 -0.004240 
#    y 0.052490 2.025910 -0.026630 
#    z -0.004240 -0.026630 1.902900 
# 
# From -- ./inp_files/306996.got.cif
#   From: 2010.05.17/outbox.cif.g08.bks.cpg/sg2_154_cif.got.tgz:306996.got - 2010.06.03 11:33:40.
