data_PCOD9031589
_publ_section_title
;
Structure prediction by ZEFSAII (Michael W. Deem and Ramdas Pophale) SiO2 
 PCOD9031589
Probable space group: P -1
;
_chemical_formula_sum "Si O2"
_cell_formula_units_Z 16
_cell_length_a 17.502587
_cell_length_b 5.789155
_cell_length_c 9.369951
_cell_angle_alpha 55.757389
_cell_angle_beta 118.554059
_cell_angle_gamma 106.190832
_cell_volume 689.316219
_symmetry_space_group_name_H-M "P -1"
_symmetry_group_IT_number 2
_symmetry_cell_setting 'triclinic'
loop_
_space_group_symop_operation_xyz
x,y,z
-x,-y,-z
loop_
_atom_site_type_symbol
_atom_site_label
_atom_site_fract_x
_atom_site_fract_y
_atom_site_fract_z
Si Si1 0.924502 0.359396 0.582392
Si Si2 0.413233 0.580490 0.977521
Si Si3 0.710876 0.943650 0.880011
Si Si4 0.246864 0.809423 0.656339
Si Si5 0.248805 0.252899 0.294769
Si Si6 0.582127 0.413453 0.694408
Si Si7 0.830633 0.209582 0.098835
Si Si8 0.023960 0.279313 0.222234
O O1 0.825620 0.373422 0.428914
O O2 0.931493 0.532213 0.677830
O O3 0.000000 0.500000 0.500000
O O4 0.941224 0.017228 0.709310
O O5 0.436059 0.680486 0.125167
O O6 0.347226 0.323712 0.039199
O O7 0.500000 0.500000 0.000000
O O8 0.350642 0.764354 0.757901
O O9 0.640856 0.183872 0.751093
O O10 0.760142 0.965753 0.765807
O O11 0.788820 0.964583 0.054737
O O12 0.223923 0.773914 0.812535
O O13 0.233244 0.122262 0.478234
O O14 0.349900 0.330141 0.336584
O O15 0.190840 0.514127 0.109316
O O16 0.500000 0.500000 0.500000
O O17 0.930103 0.185293 0.234113
O O18 0.000000 0.500000 0.000000
#
# Coordination Sequence:
#
# PCOD9031589 Si02
#       8
#     2   2   2   2   2   2   2   2
#     4  12  28  49  74 118 150 202 257 312 387 455
#     4  11  26  44  66 103 137 190 238 293 372 431
#     4  10  22  43  67  94 142 184 235 297 366 437
#     4  12  25  47  72 102 150 187 245 308 364 455
#     4  10  24  44  66 105 135 191 245 290 376 437
#     4  10  23  43  65  98 136 179 240 304 363 434
#     4  11  24  47  72 102 146 193 240 306 365 444
#     4  12  28  49  80 113 157 200 259 317 381 460
#
# _framework density 23.211406
#
# number of rings (size 3 to 8) (size 9 to 14) (size 15 to 20)
#    0.000    1.000    5.000    1.500    8.750    2.500 
#    2.250    0.000    0.000    0.000    0.000    0.000 
#    0.000    0.000    0.000    0.000    0.000    0.000 
#
# Total GULP energy -89242.204035 kJ/mol
# GULP energy per Si atom -5577.637752 kJ/mol
# Density = 2.315858 g / cm^3
# Si number density = 23.211406 Si / 1000 Ang^3
#
#
#
# Elastic Constant Matrix: (Units=GPa)
#
#
# Indices 1 2 3 4 5 6 
#
# 1 104.1275 14.5701 30.4933 4.4879 16.7719 -12.8753
# 2 14.5701 84.3583 55.5854 4.1583 0.5857 -19.9004
# 3 30.4933 55.5854 122.8013 -2.1586 14.7811 -2.2621
# 4 4.4879 4.1583 -2.1586 44.4431 13.9048 2.4878
# 5 16.7719 0.5857 14.7811 13.9048 24.0003 -4.5658
# 6 -12.8753 -19.9004 -2.2621 2.4878 -4.5658 25.3838
#
#
#
# Elastic Compliance Matrix: (Units=1/GPa)
#
#
# Indices 1 2 3 4 5 6 
#
# 1 0.011820 0.001035 -0.002623 0.000033 -0.005632 0.005557
# 2 0.001035 0.027888 -0.014867 -0.010757 0.018837 0.025506
# 3 -0.002623 -0.014867 0.017351 0.008439 -0.016270 -0.015193
# 4 0.000033 -0.010757 0.008439 0.033337 -0.027286 -0.015840
# 5 -0.005632 0.018837 -0.016270 -0.027286 0.076072 0.026818
# 6 0.005557 0.025506 -0.015193 -0.015840 0.026818 0.067232
#
#
# Mechanical properties :
#
#
# Convention : Reuss Voigt Hill
#
# Bulk Modulus (GPa) = 41.40928 56.95386 49.18157
# Shear Modulus (GPa) = 18.20439 32.80799 25.50619
#
# Velocity S-wave (km/s) = 2.80355 3.76366 3.31851
# Velocity P-wave (km/s) = 5.32528 6.59372 5.99315
#
# Compressibility (1/GPa) = 0.02414918
#
# Stress axis : x y z
#
# Youngs Moduli (GPa) = 84.60517 35.85776 57.63463
#
# Poissons Ratio (x) = -0.03711 0.15115
# Poissons Ratio (y) = -0.08756 0.85685
# Poissons Ratio (z) = 0.22188 0.53309
#
# Static dielectric constant tensor:
#      x y z
#    x 1.769080 0.127900 0.012630 
#    y 0.127900 1.830570 -0.005240 
#    z 0.012630 -0.005240 1.934310 
# 
# From -- ./inp_files/323367.got.cif
#   From: 2010.05.17/outbox.cif.g08.bks.cpg/sg2_162_cif.got.tgz:323367.got - 2010.06.03 11:33:40.
