data_PCOD9031553
_publ_section_title
;
Structure prediction by ZEFSAII (Michael W. Deem and Ramdas Pophale) SiO2 
 PCOD9031553
Probable space group: P -1
;
_chemical_formula_sum "Si O2"
_cell_formula_units_Z 16
_cell_length_a 11.086912
_cell_length_b 15.107058
_cell_length_c 8.710707
_cell_angle_alpha 43.842345
_cell_angle_beta 81.911662
_cell_angle_gamma 55.176726
_cell_volume 729.201469
_symmetry_space_group_name_H-M "P -1"
_symmetry_group_IT_number 2
_symmetry_cell_setting 'triclinic'
loop_
_space_group_symop_operation_xyz
x,y,z
-x,-y,-z
loop_
_atom_site_type_symbol
_atom_site_label
_atom_site_fract_x
_atom_site_fract_y
_atom_site_fract_z
Si Si1 0.003314 0.607114 0.044331
Si Si2 0.458551 0.586640 0.148313
Si Si3 0.282534 0.560791 0.981147
Si Si4 0.518608 0.817201 0.418911
Si Si5 0.451058 0.346154 0.668283
Si Si6 0.055860 0.607732 0.373481
Si Si7 0.323766 0.065102 0.404205
Si Si8 0.814453 0.792882 0.442741
O O1 0.036679 0.657154 0.137289
O O2 0.080935 0.410292 0.271128
O O3 0.807476 0.739795 0.884787
O O4 0.102983 0.632054 0.884552
O O5 0.613921 0.484371 0.133052
O O6 0.479062 0.452400 0.427008
O O7 0.465202 0.699614 0.123657
O O8 0.304931 0.663520 0.966056
O O9 0.373496 0.376650 0.283874
O O10 0.477266 0.813895 0.255667
O O11 0.640289 0.852348 0.347505
O O12 0.368105 0.941587 0.409783
O O13 0.249174 0.476407 0.553374
O O14 0.000000 0.500000 0.500000
O O15 0.928324 0.763503 0.321130
O O16 0.234705 0.088173 0.549557
O O17 0.500000 0.000000 0.500000
#
# Coordination Sequence:
#
# PCOD9031553 Si02
#       8
#     2   2   2   2   2   2   2   2
#     4  10  18  33  54  77 106 141 175 223 258 310
#     4   9  18  30  55  84 102 129 179 231 257 301
#     4   9  17  34  54  81 101 131 179 226 264 301
#     4   9  17  35  49  73 115 136 166 216 266 315
#     4  10  17  32  53  83 105 136 168 222 270 304
#     4  10  17  32  53  80 109 133 172 220 264 314
#     4  10  21  34  49  75 112 147 175 212 261 321
#     4   9  18  33  53  78 106 140 178 213 255 313
#
# _framework density 21.941807000000001
#
# number of rings (size 3 to 8) (size 9 to 14) (size 15 to 20)
#    0.000    2.500    5.000    0.375    1.750    0.000 
#    4.500    3.750    0.000    7.500    0.000    0.000 
#    0.000    0.000    0.000    0.000    0.000    0.000 
#
# Total GULP energy -89091.196849 kJ/mol
# GULP energy per Si atom -5568.199803 kJ/mol
# Density = 2.189187 g / cm^3
# Si number density = 21.941807 Si / 1000 Ang^3
#
#
#
# Elastic Constant Matrix: (Units=GPa)
#
#
# Indices 1 2 3 4 5 6 
#
# 1 78.5866 35.0724 32.1321 12.6699 10.8410 -12.8174
# 2 35.0724 185.8166 23.4335 29.2090 16.8054 4.3691
# 3 32.1321 23.4335 41.1914 -4.4083 15.3312 1.3545
# 4 12.6699 29.2090 -4.4083 25.6431 -1.6480 5.8730
# 5 10.8410 16.8054 15.3312 -1.6480 18.4664 11.2803
# 6 -12.8174 4.3691 1.3545 5.8730 11.2803 36.9941
#
#
#
# Elastic Compliance Matrix: (Units=1/GPa)
#
#
# Indices 1 2 3 4 5 6 
#
# 1 0.031560 0.002484 -0.023574 -0.028371 -0.016624 0.021078
# 2 0.002484 0.008329 -0.004806 -0.013280 -0.009281 0.004991
# 3 -0.023574 -0.004806 0.056746 0.027125 -0.022040 -0.007264
# 4 -0.028371 -0.013280 0.027125 0.082406 0.033451 -0.032537
# 5 -0.016624 -0.009281 -0.022040 0.033451 0.121958 -0.046355
# 6 0.021078 0.004991 -0.007264 -0.032537 -0.046355 0.053311
#
#
# Mechanical properties :
#
#
# Convention : Reuss Voigt Hill
#
# Bulk Modulus (GPa) = 22.30124 54.09674 38.19899
# Shear Modulus (GPa) = 11.87508 30.55114 21.21311
#
# Velocity S-wave (km/s) = 2.32891 3.73550 3.11270
# Velocity P-wave (km/s) = 4.17345 6.58129 5.51049
#
# Compressibility (1/GPa) = 0.04484056
#
# Stress axis : x y z
#
# Youngs Moduli (GPa) = 31.68523 120.06944 17.62250
#
# Poissons Ratio (x) = -0.29821 0.41544
# Poissons Ratio (y) = -0.07869 0.08470
# Poissons Ratio (z) = 0.74696 0.57710
#
# Static dielectric constant tensor:
#      x y z
#    x 1.849410 0.036920 -0.009810 
#    y 0.036920 1.915280 0.065830 
#    z -0.009810 0.065830 1.891110 
# 
# From -- ./inp_files/269792.got.cif
#   From: 2010.05.17/outbox.cif.g08.bks.cpg/sg2_135_cif.got.tgz:269792.got - 2010.06.03 11:33:40.
