data_PCOD9031004
_publ_section_title
;
Structure prediction by ZEFSAII (Michael W. Deem and Ramdas Pophale) SiO2 
 PCOD9031004
Probable space group: P -1
;
_chemical_formula_sum "Si O2"
_cell_formula_units_Z 16
_cell_length_a 8.356653
_cell_length_b 11.151726
_cell_length_c 17.217992
_cell_angle_alpha 39.425526
_cell_angle_beta 128.756913
_cell_angle_gamma 101.707194
_cell_volume 654.715115
_symmetry_space_group_name_H-M "P -1"
_symmetry_group_IT_number 2
_symmetry_cell_setting 'triclinic'
loop_
_space_group_symop_operation_xyz
x,y,z
-x,-y,-z
loop_
_atom_site_type_symbol
_atom_site_label
_atom_site_fract_x
_atom_site_fract_y
_atom_site_fract_z
Si Si1 0.912401 0.001567 0.885454
Si Si2 0.213751 0.197003 0.301116
Si Si3 0.144890 0.638883 0.028640
Si Si4 0.920605 0.998460 0.370230
Si Si5 0.117939 0.582281 0.379160
Si Si6 0.292340 0.157933 0.744021
Si Si7 0.231042 0.274484 0.937400
Si Si8 0.643094 0.375945 0.211331
O O1 0.141533 0.825196 0.987395
O O2 0.779346 0.869399 0.923159
O O3 0.787333 0.251212 0.685360
O O4 0.000000 0.000000 0.000000
O O5 0.168152 0.437974 0.187397
O O6 0.051963 0.130505 0.330950
O O7 0.500000 0.000000 0.500000
O O8 0.106435 0.234481 0.162314
O O9 0.377561 0.508959 0.105718
O O10 0.700108 0.168670 0.276800
O O11 0.836173 0.941477 0.295478
O O12 0.134586 0.757740 0.592044
O O13 0.880192 0.708176 0.302254
O O14 0.017347 0.581131 0.263287
O O15 0.296927 0.338928 0.597525
O O16 0.565122 0.933213 0.952568
O O17 0.321116 0.435072 0.907883
#
# Coordination Sequence:
#
# PCOD9031004 Si02
#       8
#     2   2   2   2   2   2   2   2
#     4  10  23  44  66  96 136 175 223 273 329 400
#     4  11  23  42  67 101 136 176 218 275 338 401
#     4  11  24  44  69  97 132 179 226 271 334 404
#     4  11  23  42  64 100 132 171 217 277 338 386
#     4  10  22  43  63  96 130 169 224 272 326 394
#     4  11  23  40  70  94 131 170 220 277 328 396
#     4  11  22  41  66  95 129 175 215 273 332 396
#     4  11  23  41  69  95 133 170 223 276 326 401
#
# _framework density 24.438109000000001
#
# number of rings (size 3 to 8) (size 9 to 14) (size 15 to 20)
#    0.000    1.250    2.500    3.375    0.000    5.500 
#    0.000    0.000    0.000    0.000    0.000    0.000 
#    0.000    0.000    0.000    0.000    0.000    0.000 
#
# Total GULP energy -89457.567438 kJ/mol
# GULP energy per Si atom -5591.097965 kJ/mol
# Density = 2.438249 g / cm^3
# Si number density = 24.438109 Si / 1000 Ang^3
#
#
#
# Elastic Constant Matrix: (Units=GPa)
#
#
# Indices 1 2 3 4 5 6 
#
# 1 93.1401 19.1494 23.0754 -12.4421 -15.4471 15.1392
# 2 19.1494 65.6856 39.0606 -7.7554 11.3828 -4.1085
# 3 23.0754 39.0606 143.7396 -8.1676 -10.7379 3.2619
# 4 -12.4421 -7.7554 -8.1676 36.8895 0.7913 -11.2885
# 5 -15.4471 11.3828 -10.7379 0.7913 33.7915 -19.4707
# 6 15.1392 -4.1085 3.2619 -11.2885 -19.4707 44.6618
#
#
#
# Elastic Compliance Matrix: (Units=1/GPa)
#
#
# Indices 1 2 3 4 5 6 
#
# 1 0.013510 -0.004777 -0.000152 0.002998 0.006968 -0.001212
# 2 -0.004777 0.022559 -0.006155 0.001812 -0.012192 -0.000713
# 3 -0.000152 -0.006155 0.009110 0.001041 0.005804 0.001613
# 4 0.002998 0.001812 0.001041 0.031547 0.005894 0.009618
# 5 0.006968 -0.012192 0.005804 0.005894 0.049678 0.019240
# 6 -0.001212 -0.000713 0.001613 0.009618 0.019240 0.033437
#
#
# Mechanical properties :
#
#
# Convention : Reuss Voigt Hill
#
# Bulk Modulus (GPa) = 43.45981 51.68177 47.57079
# Shear Modulus (GPa) = 26.36032 37.82055 32.09044
#
# Velocity S-wave (km/s) = 3.28785 3.93823 3.62765
# Velocity P-wave (km/s) = 5.67763 6.47097 6.08724
#
# Compressibility (1/GPa) = 0.02300976
#
# Stress axis : x y z
#
# Youngs Moduli (GPa) = 74.02171 44.32811 109.76738
#
# Poissons Ratio (x) = 0.21177 0.01671
# Poissons Ratio (y) = 0.35362 0.67562
# Poissons Ratio (z) = 0.01127 0.27284
#
# Static dielectric constant tensor:
#      x y z
#    x 2.038230 -0.013830 0.000280 
#    y -0.013830 1.964760 -0.017840 
#    z 0.000280 -0.017840 1.924450 
# 
# From -- ./inp_files/559694.got.cif
#   From: 2010.05.17/outbox.cif.g08.bks.cpg/sg2_280_cif.got.tgz:559694.got - 2010.06.03 11:33:40.
