data_PCOD9031214
_publ_section_title
;
Structure prediction by ZEFSAII (Michael W. Deem and Ramdas Pophale) SiO2 
 PCOD9031214
Probable space group: P -1
;
_chemical_formula_sum "Si O2"
_cell_formula_units_Z 16
_cell_length_a 9.546331
_cell_length_b 16.387329
_cell_length_c 10.418563
_cell_angle_alpha 70.005289
_cell_angle_beta 113.586739
_cell_angle_gamma 53.761582
_cell_volume 750.015842
_symmetry_space_group_name_H-M "P -1"
_symmetry_group_IT_number 2
_symmetry_cell_setting 'triclinic'
loop_
_space_group_symop_operation_xyz
x,y,z
-x,-y,-z
loop_
_atom_site_type_symbol
_atom_site_label
_atom_site_fract_x
_atom_site_fract_y
_atom_site_fract_z
Si Si1 0.284909 0.479261 0.341380
Si Si2 0.743379 0.341884 0.260581
Si Si3 0.338178 0.120147 0.536612
Si Si4 0.279780 0.221430 0.178162
Si Si5 0.365890 0.523030 0.593056
Si Si6 0.795446 0.167113 0.007945
Si Si7 0.418122 0.838375 0.305773
Si Si8 0.683081 0.183211 0.255547
O O1 0.178988 0.560121 0.401264
O O2 0.537103 0.428220 0.443489
O O3 0.411884 0.322402 0.479494
O O4 0.044146 0.608385 0.077282
O O5 0.774296 0.386485 0.372599
O O6 0.648027 0.288247 0.268108
O O7 0.053183 0.199141 0.386654
O O8 0.500000 0.500000 0.000000
O O9 0.326112 0.181200 0.367405
O O10 0.381817 0.174096 0.627425
O O11 0.594188 0.929057 0.749783
O O12 0.459075 0.217383 0.195165
O O13 0.647961 0.328647 0.826015
O O14 0.690662 0.199952 0.096764
O O15 0.681902 0.149894 0.874796
O O16 0.137492 0.000140 0.199666
O O17 0.000000 0.000000 0.500000
#
# Coordination Sequence:
#
# PCOD9031214 Si02
#       8
#     2   2   2   2   2   2   2   2
#     4  10  23  40  67 100 126 166 215 266 311 373
#     4  12  25  42  67  95 127 173 211 258 321 380
#     4  11  25  44  64  93 130 171 210 259 326 380
#     4  11  25  44  66  92 132 168 209 269 317 375
#     4  10  22  43  65  94 135 168 209 260 320 381
#     4  10  22  44  65  92 134 171 206 260 324 379
#     4  10  23  40  69  97 124 170 215 259 318 381
#     4  12  25  43  65  96 128 168 216 262 315 377
#
# _framework density 21.332885000000001
#
# number of rings (size 3 to 8) (size 9 to 14) (size 15 to 20)
#    0.000    1.250    2.500    2.250    7.000    2.500 
#    0.000    3.750    0.000    0.000    0.000    0.000 
#    0.000    0.000    0.000    0.000    0.000    0.000 
#
# Total GULP energy -89338.821399 kJ/mol
# GULP energy per Si atom -5583.676337 kJ/mol
# Density = 2.128433 g / cm^3
# Si number density = 21.332885 Si / 1000 Ang^3
#
#
#
# Elastic Constant Matrix: (Units=GPa)
#
#
# Indices 1 2 3 4 5 6 
#
# 1 71.8444 26.5533 12.1992 9.6343 1.1935 16.8550
# 2 26.5533 90.1366 11.5501 -8.3703 -5.7441 20.5902
# 3 12.1992 11.5501 86.9993 -11.1477 -5.2481 13.4955
# 4 9.6343 -8.3703 -11.1477 19.5875 1.0538 -3.6378
# 5 1.1935 -5.7441 -5.2481 1.0538 23.7052 3.3473
# 6 16.8550 20.5902 13.4955 -3.6378 3.3473 38.0562
#
#
#
# Elastic Compliance Matrix: (Units=1/GPa)
#
#
# Indices 1 2 3 4 5 6 
#
# 1 0.019976 -0.005606 -0.003147 -0.015043 -0.001545 -0.006000
# 2 -0.005606 0.014961 0.001020 0.008453 0.004543 -0.005565
# 3 -0.003147 0.001020 0.013698 0.008945 0.003531 -0.003471
# 4 -0.015043 0.008453 0.008945 0.068092 0.001006 0.005337
# 5 -0.001545 0.004543 0.003531 0.001006 0.045074 -0.006895
# 6 -0.006000 -0.005565 -0.003471 0.005337 -0.006895 0.034293
#
#
# Mechanical properties :
#
#
# Convention : Reuss Voigt Hill
#
# Bulk Modulus (GPa) = 30.14831 38.84284 34.49557
# Shear Modulus (GPa) = 22.46025 29.51496 25.98761
#
# Velocity S-wave (km/s) = 3.24828 3.72364 3.49405
# Velocity P-wave (km/s) = 5.31333 6.06092 5.69939
#
# Compressibility (1/GPa) = 0.03316936
#
# Stress axis : x y z
#
# Youngs Moduli (GPa) = 50.06024 66.84133 73.00456
#
# Poissons Ratio (x) = 0.37473 0.22973
# Poissons Ratio (y) = 0.28065 -0.07450
# Poissons Ratio (z) = 0.15753 -0.06821
#
# Static dielectric constant tensor:
#      x y z
#    x 1.841010 0.013280 0.015630 
#    y 0.013280 1.946370 0.094460 
#    z 0.015630 0.094460 1.771050 
# 
# From -- ./inp_files/398816.got.cif
#   From: 2010.05.17/outbox.cif.g08.bks.cpg/sg2_200_cif.got.tgz:398816.got - 2010.06.03 11:33:40.
