data_PCOD9031815
_publ_section_title
;
Structure prediction by ZEFSAII (Michael W. Deem and Ramdas Pophale) SiO2 
 PCOD9031815
Probable space group: P -1
;
_chemical_formula_sum "Si O2"
_cell_formula_units_Z 12
_cell_length_a 8.993655
_cell_length_b 9.630118
_cell_length_c 12.891761
_cell_angle_alpha 59.567793
_cell_angle_beta 36.637050
_cell_angle_gamma 82.248189
_cell_volume 487.966278
_symmetry_space_group_name_H-M "P -1"
_symmetry_group_IT_number 2
_symmetry_cell_setting 'triclinic'
loop_
_space_group_symop_operation_xyz
x,y,z
-x,-y,-z
loop_
_atom_site_type_symbol
_atom_site_label
_atom_site_fract_x
_atom_site_fract_y
_atom_site_fract_z
Si Si1 0.352646 0.868185 0.998417
Si Si2 0.814291 0.572931 0.517075
Si Si3 0.093142 0.736754 0.968645
Si Si4 0.442918 0.223758 0.725026
Si Si5 0.620838 0.623395 0.989935
Si Si6 0.760719 0.285757 0.324046
O O1 0.539957 0.784766 0.970120
O O2 0.051785 0.780724 0.265701
O O3 0.264602 0.788353 0.960742
O O4 0.501814 0.091153 0.816070
O O5 0.671622 0.440051 0.547040
O O6 0.552487 0.520306 0.763056
O O7 0.000000 0.500000 0.500000
O O8 0.877864 0.816113 0.060894
O O9 0.879785 0.509066 0.167471
O O10 0.286389 0.792753 0.735780
O O11 0.497119 0.194210 0.587298
O O12 0.500000 0.500000 0.000000
O O13 0.964782 0.716254 0.778742
#
# Coordination Sequence:
#
# PCOD9031815 Si02
#       6
#     2   2   2   2   2   2
#     4  11  25  42  70  98 131 177 220 269 332 388
#     4  10  22  43  68  94 133 176 214 272 330 385
#     4  11  23  44  65 100 134 176 220 267 328 393
#     4  12  24  44  68 100 136 170 222 272 327 393
#     4  11  21  44  66  98 132 170 224 272 326 392
#     4  11  23  41  72  93 133 181 215 269 334 381
#
# _framework density 24.591861999999999
#
# number of rings (size 3 to 8) (size 9 to 14) (size 15 to 20)
#    0.000    1.000    5.000    2.000    0.000    4.000 
#    3.000    0.000    0.000    0.000    0.000    0.000 
#    0.000    0.000    0.000    0.000    0.000    0.000 
#
# Total GULP energy -67236.055763 kJ/mol
# GULP energy per Si atom -5603.004647 kJ/mol
# Density = 2.453589 g / cm^3
# Si number density = 24.591862 Si / 1000 Ang^3
#
#
#
# Elastic Constant Matrix: (Units=GPa)
#
#
# Indices 1 2 3 4 5 6 
#
# 1 98.7689 27.4962 5.3125 22.3197 6.3359 1.9138
# 2 27.4962 80.4038 39.1995 18.6680 9.9641 -10.0579
# 3 5.3125 39.1995 112.2891 16.1171 27.4721 1.9984
# 4 22.3197 18.6680 16.1171 41.4080 6.9276 14.3990
# 5 6.3359 9.9641 27.4721 6.9276 36.7346 10.9285
# 6 1.9138 -10.0579 1.9984 14.3990 10.9285 53.4003
#
#
#
# Elastic Compliance Matrix: (Units=1/GPa)
#
#
# Indices 1 2 3 4 5 6 
#
# 1 0.012408 -0.003503 0.001877 -0.005810 -0.001719 0.000744
# 2 -0.003503 0.018468 -0.005247 -0.006202 -0.001000 0.005677
# 3 0.001877 -0.005247 0.013078 -0.002634 -0.008450 0.000895
# 4 -0.005810 -0.006202 -0.002634 0.034520 0.001246 -0.010424
# 5 -0.001719 -0.001000 -0.008450 0.001246 0.036117 -0.007538
# 6 0.000744 0.005677 0.000895 -0.010424 -0.007538 0.024089
#
#
# Mechanical properties :
#
#
# Convention : Reuss Voigt Hill
#
# Bulk Modulus (GPa) = 33.10492 48.38645 40.74568
# Shear Modulus (GPa) = 30.77014 40.93883 35.85448
#
# Velocity S-wave (km/s) = 3.54111 4.08454 3.82250
# Velocity P-wave (km/s) = 5.49639 6.47789 6.00722
#
# Compressibility (1/GPa) = 0.03020699
#
# Stress axis : x y z
#
# Youngs Moduli (GPa) = 80.59412 54.14895 76.46333
#
# Poissons Ratio (x) = 0.18970 -0.14355
# Poissons Ratio (y) = 0.28234 0.40123
# Poissons Ratio (z) = -0.15130 0.28414
#
# Static dielectric constant tensor:
#      x y z
#    x 1.939330 0.002630 0.006800 
#    y 0.002630 1.960140 0.005200 
#    z 0.006800 0.005200 1.942870 
# 
# From -- ./inp_files/144869.got.cif
#   From: 2010.05.17/outbox.cif.g08.bks.cpg/sg2_73_cif.got.tgz:144869.got - 2010.06.03 11:33:40.
