data_PCOD9031781
_publ_section_title
;
Structure prediction by ZEFSAII (Michael W. Deem and Ramdas Pophale) SiO2 
 PCOD9031781
Probable space group: P -1
;
_chemical_formula_sum "Si O2"
_cell_formula_units_Z 14
_cell_length_a 13.283170
_cell_length_b 8.169824
_cell_length_c 10.450439
_cell_angle_alpha 130.766693
_cell_angle_beta 81.482692
_cell_angle_gamma 129.007717
_cell_volume 597.152006
_symmetry_space_group_name_H-M "P -1"
_symmetry_group_IT_number 2
_symmetry_cell_setting 'triclinic'
loop_
_space_group_symop_operation_xyz
x,y,z
-x,-y,-z
loop_
_atom_site_type_symbol
_atom_site_label
_atom_site_fract_x
_atom_site_fract_y
_atom_site_fract_z
Si Si1 0.653439 0.119434 0.555023
Si Si2 0.822923 0.619731 0.595169
Si Si3 0.653677 0.730631 0.160300
Si Si4 0.298040 0.667744 0.955688
Si Si5 0.501688 0.247581 0.364239
Si Si6 0.979362 0.678167 0.009199
Si Si7 0.140492 0.692402 0.766360
O O1 0.778201 0.467991 0.666492
O O2 0.500000 0.000000 0.500000
O O3 0.663429 0.936701 0.364624
O O4 0.627413 0.999163 0.638574
O O5 0.664422 0.420181 0.458029
O O6 0.899714 0.549706 0.458071
O O7 0.912947 0.971398 0.781857
O O8 0.767052 0.981792 0.157814
O O9 0.500000 0.500000 0.000000
O O10 0.665549 0.531481 0.141767
O O11 0.440335 0.025746 0.141954
O O12 0.225253 0.673907 0.848597
O O13 0.178148 0.485150 0.999894
O O14 0.500000 0.500000 0.500000
O O15 0.021059 0.646477 0.845557
O O16 0.000000 0.500000 0.000000
#
# Coordination Sequence:
#
# PCOD9031781 Si02
#       7
#     2   2   2   2   2   2   2
#     4   9  21  40  59  93 129 170 213 267 337 398
#     4  10  22  43  68  91 132 179 214 278 340 390
#     4  11  24  40  68  97 134 177 218 282 339 393
#     4  11  25  43  66 104 129 177 230 272 337 404
#     4  11  23  39  64  98 133 170 221 280 339 395
#     4  10  23  44  68  98 134 178 227 274 336 400
#     4  10  24  44  67  96 138 177 224 279 336 399
#
# _framework density 23.444617000000001
#
# number of rings (size 3 to 8) (size 9 to 14) (size 15 to 20)
#    0.000    1.714    0.000    4.286   10.000    4.000 
#    2.571    1.429    0.000    0.000    0.000    0.000 
#    0.000    0.000    0.000    0.000    0.000    0.000 
#
# Total GULP energy -78060.639168 kJ/mol
# GULP energy per Si atom -5575.759941 kJ/mol
# Density = 2.339126 g / cm^3
# Si number density = 23.444617 Si / 1000 Ang^3
#
#
#
# Elastic Constant Matrix: (Units=GPa)
#
#
# Indices 1 2 3 4 5 6 
#
# 1 71.2857 28.5620 25.0648 14.2822 -4.8980 -9.2241
# 2 28.5620 136.8698 78.2067 10.7428 -1.3358 -3.8467
# 3 25.0648 78.2067 97.3478 33.3169 -19.6739 2.0614
# 4 14.2822 10.7428 33.3169 49.5050 -0.2970 -13.3839
# 5 -4.8980 -1.3358 -19.6739 -0.2970 27.8476 -0.0919
# 6 -9.2241 -3.8467 2.0614 -13.3839 -0.0919 38.1577
#
#
#
# Elastic Compliance Matrix: (Units=1/GPa)
#
#
# Indices 1 2 3 4 5 6 
#
# 1 0.016451 -0.002800 -0.000517 -0.003059 0.002370 0.002655
# 2 -0.002800 0.020973 -0.024858 0.015053 -0.016861 0.008020
# 3 -0.000517 -0.024858 0.047666 -0.030636 0.032013 -0.015874
# 4 -0.003059 0.015053 -0.030636 0.043033 -0.020943 0.017477
# 5 0.002370 -0.016861 0.032013 -0.020943 0.057878 -0.010063
# 6 0.002655 0.008020 -0.015874 0.017477 -0.010063 0.034621
#
#
# Mechanical properties :
#
#
# Convention : Reuss Voigt Hill
#
# Bulk Modulus (GPa) = 34.79224 63.24114 49.01669
# Shear Modulus (GPa) = 17.44887 34.68007 26.06447
#
# Velocity S-wave (km/s) = 2.73107 3.85025 3.33790
# Velocity P-wave (km/s) = 4.98171 6.84099 5.98400
#
# Compressibility (1/GPa) = 0.02874205
#
# Stress axis : x y z
#
# Youngs Moduli (GPa) = 60.78725 47.67953 20.97912
#
# Poissons Ratio (x) = 0.13349 0.01084
# Poissons Ratio (y) = 0.17019 0.52149
# Poissons Ratio (z) = 0.03142 1.18520
#
# Static dielectric constant tensor:
#      x y z
#    x 1.954320 -0.049200 0.093860 
#    y -0.049200 2.056600 -0.203250 
#    z 0.093860 -0.203250 2.157860 
# 
# From -- ./inp_files/391125.got.cif
#   From: 2010.05.17/outbox.cif.g08.bks.cpg/sg2_196_cif.got.tgz:391125.got - 2010.06.03 11:33:40.
