data_PCOD9031056
_publ_section_title
;
Structure prediction by ZEFSAII (Michael W. Deem and Ramdas Pophale) SiO2 
 PCOD9031056
Probable space group: P -1
;
_chemical_formula_sum "Si O2"
_cell_formula_units_Z 16
_cell_length_a 16.533683
_cell_length_b 14.888758
_cell_length_c 12.814764
_cell_angle_alpha 31.707095
_cell_angle_beta 58.295495
_cell_angle_gamma 35.036553
_cell_volume 784.135574
_symmetry_space_group_name_H-M "P -1"
_symmetry_group_IT_number 2
_symmetry_cell_setting 'triclinic'
loop_
_space_group_symop_operation_xyz
x,y,z
-x,-y,-z
loop_
_atom_site_type_symbol
_atom_site_label
_atom_site_fract_x
_atom_site_fract_y
_atom_site_fract_z
Si Si1 0.006916 0.368624 0.225394
Si Si2 0.363072 0.241341 0.942790
Si Si3 0.204644 0.720071 0.119082
Si Si4 0.526627 0.962339 0.324682
Si Si5 0.227774 0.524523 0.086340
Si Si6 0.956555 0.523311 0.679349
Si Si7 0.180337 0.780102 0.645925
Si Si8 0.262182 0.024307 0.810652
O O1 0.820482 0.557728 0.165063
O O2 0.033678 0.412513 0.276182
O O3 0.161988 0.005498 0.459657
O O4 0.000000 0.500000 0.000000
O O5 0.324353 0.495967 0.750324
O O6 0.500000 0.000000 0.000000
O O7 0.434253 0.057422 0.184612
O O8 0.311358 0.402602 0.409209
O O9 0.246586 0.640206 0.046471
O O10 0.271400 0.805196 0.027561
O O11 0.000000 0.000000 0.000000
O O12 0.580665 0.081999 0.174124
O O13 0.388371 0.159573 0.316219
O O14 0.082645 0.617355 0.137287
O O15 0.189632 0.663581 0.863203
O O16 0.816163 0.814358 0.409501
O O17 0.129666 0.281430 0.735557
O O18 0.000000 0.000000 0.500000
#
# Coordination Sequence:
#
# PCOD9031056 Si02
#       8
#     2   2   2   2   2   2   2   2
#     4  11  22  42  67  94 125 173 224 267 318 390
#     4  10  22  43  64  91 130 172 208 274 333 373
#     4  12  23  41  65  96 127 171 218 259 330 390
#     4  11  24  44  62  94 138 165 215 271 330 390
#     4  11  22  42  64  92 134 170 209 276 326 379
#     4  11  21  40  66  94 131 164 219 272 321 387
#     4   9  20  38  62  91 120 168 221 253 319 389
#     4  11  23  40  64  99 128 169 216 268 329 395
#
# _framework density 20.404634000000001
#
# number of rings (size 3 to 8) (size 9 to 14) (size 15 to 20)
#    0.000    1.250    2.500    4.875    0.000    2.500 
#   11.250    0.625    0.000    0.000    0.000    0.000 
#    0.000    0.000    0.000    0.000    0.000    0.000 
#
# Total GULP energy -89264.767760 kJ/mol
# GULP energy per Si atom -5579.047985 kJ/mol
# Density = 2.035819 g / cm^3
# Si number density = 20.404634 Si / 1000 Ang^3
#
#
#
# Elastic Constant Matrix: (Units=GPa)
#
#
# Indices 1 2 3 4 5 6 
#
# 1 76.0528 9.8980 14.1184 0.8257 -5.8836 23.0367
# 2 9.8980 96.1195 23.4869 -4.7049 -1.5655 24.0568
# 3 14.1184 23.4869 94.8311 -8.4730 -6.0445 16.2313
# 4 0.8257 -4.7049 -8.4730 30.5790 -0.3242 -2.7295
# 5 -5.8836 -1.5655 -6.0445 -0.3242 33.3338 2.2043
# 6 23.0367 24.0568 16.2313 -2.7295 2.2043 40.7153
#
#
#
# Elastic Compliance Matrix: (Units=1/GPa)
#
#
# Indices 1 2 3 4 5 6 
#
# 1 0.016436 0.000968 -0.000919 -0.001386 0.003413 -0.009783
# 2 0.000968 0.012637 -0.001908 0.000752 0.000905 -0.007252
# 3 -0.000919 -0.001908 0.012075 0.002824 0.002170 -0.003095
# 4 -0.001386 0.000752 0.002824 0.033773 0.000535 0.001450
# 5 0.003413 0.000905 0.002170 0.000535 0.031373 -0.004994
# 6 -0.009783 -0.007252 -0.003095 0.001450 -0.004994 0.035982
#
#
# Mechanical properties :
#
#
# Convention : Reuss Voigt Hill
#
# Bulk Modulus (GPa) = 26.71595 40.22333 33.46964
# Shear Modulus (GPa) = 31.55192 35.55897 33.55544
#
# Velocity S-wave (km/s) = 3.93658 4.17908 4.05964
# Velocity P-wave (km/s) = 5.81238 6.56064 6.19781
#
# Compressibility (1/GPa) = 0.03743083
#
# Stress axis : x y z
#
# Youngs Moduli (GPa) = 60.84331 79.13363 82.81827
#
# Poissons Ratio (x) = -0.07661 0.07608
# Poissons Ratio (y) = -0.05891 0.15799
# Poissons Ratio (z) = 0.05589 0.15096
#
# Static dielectric constant tensor:
#      x y z
#    x 1.758400 0.017590 -0.022710 
#    y 0.017590 1.722860 -0.036000 
#    z -0.022710 -0.036000 1.753100 
# 
# From -- ./inp_files/282756.got.cif
#   From: 2010.05.17/outbox.cif.g08.bks.cpg/sg2_142_cif.got.tgz:282756.got - 2010.06.03 11:33:40.
