data_PCOD9031955
_publ_section_title
;
Structure prediction by ZEFSAII (Michael W. Deem and Ramdas Pophale) SiO2 
 PCOD9031955
Probable space group: P -1
;
_chemical_formula_sum "Si O2"
_cell_formula_units_Z 15
_cell_length_a 12.144257
_cell_length_b 20.879745
_cell_length_c 9.525529
_cell_angle_alpha 143.625363
_cell_angle_beta 144.950146
_cell_angle_gamma 26.676210
_cell_volume 596.803487
_symmetry_space_group_name_H-M "P -1"
_symmetry_group_IT_number 2
_symmetry_cell_setting 'triclinic'
loop_
_space_group_symop_operation_xyz
x,y,z
-x,-y,-z
loop_
_atom_site_type_symbol
_atom_site_label
_atom_site_fract_x
_atom_site_fract_y
_atom_site_fract_z
Si Si1 0.336284 0.152809 0.187594
Si Si2 0.402948 0.302048 0.183619
Si Si3 0.657498 0.390468 0.136200
Si Si4 0.782238 0.291390 0.400143
Si Si5 0.620567 0.001292 0.769783
Si Si6 0.561746 0.298543 0.631096
Si Si7 0.000000 0.000000 0.000000
Si Si8 0.908892 0.407997 0.983108
O O1 0.464422 0.222218 0.454014
O O2 0.318416 0.112752 0.253931
O O3 0.077176 0.278975 0.048413
O O4 0.500000 0.000000 0.000000
O O5 0.498747 0.343287 0.232388
O O6 0.611894 0.245946 0.428553
O O7 0.428913 0.167965 0.927190
O O8 0.107522 0.421610 0.151126
O O9 0.786532 0.341476 0.337868
O O10 0.627851 0.523323 0.281103
O O11 0.364780 0.456062 0.986769
O O12 0.751066 0.276655 0.907308
O O13 0.839646 0.353037 0.689303
O O14 0.977729 0.114951 0.284940
O O15 0.500000 0.000000 0.500000
O O16 0.871065 0.973998 0.938739
#
# Coordination Sequence:
#
# PCOD9031955 Si02
#       8
#     2   2   2   2   2   2   1   2
#     4  11  24  45  73 103 142 186 231 307 360 416
#     4  10  22  43  69 100 141 176 234 293 344 430
#     4  11  25  44  70 101 146 190 239 295 342 430
#     4  11  24  46  68 102 143 184 239 296 346 425
#     4  11  23  45  69 106 144 177 235 295 361 429
#     4  10  23  44  68 100 144 182 240 290 351 424
#     4  10  26  42  70 108 134 184 240 282 372 416
#     4  11  23  43  70 103 136 188 239 279 367 423
#
# _framework density 25.133903
#
# number of rings (size 3 to 8) (size 9 to 14) (size 15 to 20)
#    0.000    1.333    4.000    1.200    3.733    4.800 
#    2.400    2.000    0.000    0.000    0.000    0.000 
#    0.000    0.000    0.000    0.000    0.000    0.000 
#
# Total GULP energy -83515.775675 kJ/mol
# GULP energy per Si atom -5567.718378 kJ/mol
# Density = 2.507670 g / cm^3
# Si number density = 25.133903 Si / 1000 Ang^3
#
#
#
# Elastic Constant Matrix: (Units=GPa)
#
#
# Indices 1 2 3 4 5 6 
#
# 1 173.4325 12.7482 38.0830 0.3348 16.0017 43.6649
# 2 12.7482 36.0933 25.3035 -1.3381 6.9695 18.0657
# 3 38.0830 25.3035 164.2042 19.2374 -17.8701 30.6451
# 4 0.3348 -1.3381 19.2374 28.4234 4.6399 -6.8622
# 5 16.0017 6.9695 -17.8701 4.6399 47.5357 1.4433
# 6 43.6649 18.0657 30.6451 -6.8622 1.4433 55.5011
#
#
#
# Elastic Compliance Matrix: (Units=1/GPa)
#
#
# Indices 1 2 3 4 5 6 
#
# 1 0.007676 0.001711 -0.001303 -0.000014 -0.003147 -0.005796
# 2 0.001711 0.037898 -0.005954 0.004881 -0.008557 -0.009568
# 3 -0.001303 -0.005954 0.009622 -0.008597 0.005876 -0.003565
# 4 -0.000014 0.004881 -0.008597 0.044788 -0.008586 0.008930
# 5 -0.003147 -0.008557 0.005876 -0.008586 0.026390 0.000269
# 6 -0.005796 -0.009568 -0.003565 0.008930 0.000269 0.028758
#
#
# Mechanical properties :
#
#
# Convention : Reuss Voigt Hill
#
# Bulk Modulus (GPa) = 22.67403 58.44437 40.55920
# Shear Modulus (GPa) = 27.63563 46.13173 36.88368
#
# Velocity S-wave (km/s) = 3.31952 4.28885 3.83494
# Velocity P-wave (km/s) = 4.87167 6.91587 5.98174
#
# Compressibility (1/GPa) = 0.04410333
#
# Stress axis : x y z
#
# Youngs Moduli (GPa) = 130.27556 26.38640 103.93128
#
# Poissons Ratio (x) = -0.04514 0.13543
# Poissons Ratio (y) = -0.22287 0.61881
# Poissons Ratio (z) = 0.16976 0.15711
#
# Static dielectric constant tensor:
#      x y z
#    x 2.036760 -0.088490 0.028250 
#    y -0.088490 2.052090 -0.103840 
#    z 0.028250 -0.103840 1.890860 
# 
# From -- ./inp_files/282482.got.cif
#   From: 2010.05.17/outbox.cif.g08.bks.cpg/sg2_142_cif.got.tgz:282482.got - 2010.06.03 11:33:40.
