data_PCOD9031509
_publ_section_title
;
Structure prediction by ZEFSAII (Michael W. Deem and Ramdas Pophale) SiO2 
 PCOD9031509
Probable space group: P -1
;
_chemical_formula_sum "Si O2"
_cell_formula_units_Z 16
_cell_length_a 19.516506
_cell_length_b 7.332630
_cell_length_c 4.885131
_cell_angle_alpha 72.052230
_cell_angle_beta 112.385351
_cell_angle_gamma 82.050435
_cell_volume 588.415224
_symmetry_space_group_name_H-M "P -1"
_symmetry_group_IT_number 2
_symmetry_cell_setting 'triclinic'
loop_
_space_group_symop_operation_xyz
x,y,z
-x,-y,-z
loop_
_atom_site_type_symbol
_atom_site_label
_atom_site_fract_x
_atom_site_fract_y
_atom_site_fract_z
Si Si1 0.323506 0.880575 0.070592
Si Si2 0.170454 0.169009 0.665055
Si Si3 0.574602 0.545307 0.453448
Si Si4 0.923671 0.059200 0.672718
Si Si5 0.212511 0.443254 0.257566
Si Si6 0.755399 0.319905 0.337132
Si Si7 0.923233 0.471369 0.269298
Si Si8 0.573988 0.825970 0.806644
O O1 0.368881 0.046319 0.072779
O O2 0.370736 0.681073 0.394914
O O3 0.235265 0.984786 0.984702
O O4 0.307505 0.786976 0.799110
O O5 0.221651 0.217935 0.469123
O O6 0.140969 0.348184 0.753544
O O7 0.097290 0.109716 0.461176
O O8 0.500000 0.500000 0.500000
O O9 0.739962 0.484365 0.470118
O O10 0.604519 0.675359 0.667791
O O11 0.557330 0.687647 0.092443
O O12 0.838722 0.167062 0.620151
O O13 0.934741 0.238997 0.430957
O O14 0.000000 0.000000 0.000000
O O15 0.228697 0.562010 0.965197
O O16 0.116665 0.503754 0.102680
O O17 0.000000 0.500000 0.500000
O O18 0.500000 0.000000 0.500000
#
# Coordination Sequence:
#
# PCOD9031509 Si02
#       8
#     2   2   2   2   2   2   2   2
#     4  11  29  50  79 120 161 218 270 336 407 483
#     4  11  25  48  70 110 150 206 263 328 408 479
#     4  12  28  52  84 126 173 210 276 336 398 491
#     4  10  22  43  67 102 140 192 255 321 393 471
#     4  11  22  48  71 101 149 196 257 321 400 468
#     4  10  25  46  70 105 151 198 256 328 394 469
#     4  11  25  45  75 106 148 201 263 339 405 485
#     4  12  28  52  87 125 166 221 273 328 409 489
#
# _framework density 27.191680999999999
#
# number of rings (size 3 to 8) (size 9 to 14) (size 15 to 20)
#    0.000    1.000    3.750    1.500    5.250    2.500 
#   20.250    0.000    0.000    0.000    0.000    0.000 
#    0.000    0.000    0.000    0.000    0.000    0.000 
#
# Total GULP energy -89315.329304 kJ/mol
# GULP energy per Si atom -5582.208082 kJ/mol
# Density = 2.712979 g / cm^3
# Si number density = 27.191681 Si / 1000 Ang^3
#
#
#
# Elastic Constant Matrix: (Units=GPa)
#
#
# Indices 1 2 3 4 5 6 
#
# 1 93.6342 42.7353 69.7634 -8.2412 4.3151 15.0288
# 2 42.7353 201.5247 63.8561 5.5247 -3.3331 27.0834
# 3 69.7634 63.8561 177.7259 -12.4721 10.1559 5.7303
# 4 -8.2412 5.5247 -12.4721 59.3899 6.4288 15.7033
# 5 4.3151 -3.3331 10.1559 6.4288 55.3944 9.3522
# 6 15.0288 27.0834 5.7303 15.7033 9.3522 51.6430
#
#
#
# Elastic Compliance Matrix: (Units=1/GPa)
#
#
# Indices 1 2 3 4 5 6 
#
# 1 0.016331 -0.001143 -0.005712 0.002277 0.000158 -0.004240
# 2 -0.001143 0.006185 -0.001795 -0.000515 0.001322 -0.002794
# 3 -0.005712 -0.001795 0.008618 0.000921 -0.001631 0.001663
# 4 0.002277 -0.000515 0.000921 0.019162 -0.001582 -0.006035
# 5 0.000158 0.001322 -0.001631 -0.001582 0.019202 -0.003555
# 6 -0.004240 -0.002794 0.001663 -0.006035 -0.003555 0.024357
#
#
# Mechanical properties :
#
#
# Convention : Reuss Voigt Hill
#
# Bulk Modulus (GPa) = 72.28984 91.73269 82.01126
# Shear Modulus (GPa) = 43.18956 53.05413 48.12185
#
# Velocity S-wave (km/s) = 3.98972 4.42194 4.21138
# Velocity P-wave (km/s) = 6.91858 7.73823 7.33986
#
# Compressibility (1/GPa) = 0.01383320
#
# Stress axis : x y z
#
# Youngs Moduli (GPa) = 61.23161 161.68349 116.03432
#
# Poissons Ratio (x) = 0.18482 0.66284
# Poissons Ratio (y) = 0.06999 0.20829
# Poissons Ratio (z) = 0.34978 0.29024
#
# Static dielectric constant tensor:
#      x y z
#    x 2.329190 -0.058070 -0.071610 
#    y -0.058070 2.249320 -0.145270 
#    z -0.071610 -0.145270 2.640170 
# 
# From -- ./inp_files/106382.got.cif
#   From: 2010.05.17/outbox.cif.g08.bks.cpg/sg2_54_cif.got.tgz:106382.got - 2010.06.03 11:33:40.
