data_PCOD9031204
_publ_section_title
;
Structure prediction by ZEFSAII (Michael W. Deem and Ramdas Pophale) SiO2 
 PCOD9031204
Probable space group: P -1
;
_chemical_formula_sum "Si O2"
_cell_formula_units_Z 14
_cell_length_a 13.380693
_cell_length_b 11.463344
_cell_length_c 4.847248
_cell_angle_alpha 119.066595
_cell_angle_beta 111.416845
_cell_angle_gamma 106.484599
_cell_volume 498.451021
_symmetry_space_group_name_H-M "P -1"
_symmetry_group_IT_number 2
_symmetry_cell_setting 'triclinic'
loop_
_space_group_symop_operation_xyz
x,y,z
-x,-y,-z
loop_
_atom_site_type_symbol
_atom_site_label
_atom_site_fract_x
_atom_site_fract_y
_atom_site_fract_z
Si Si1 0.350369 0.406114 0.148272
Si Si2 0.360816 0.113112 0.738527
Si Si3 0.627579 0.289474 0.569227
Si Si4 0.000000 0.000000 0.000000
Si Si5 0.873068 0.394389 0.560633
Si Si6 0.500000 0.000000 0.500000
Si Si7 0.130144 0.324964 0.277596
Si Si8 0.119761 0.882800 0.613553
O O1 0.500000 0.500000 0.500000
O O2 0.350897 0.542159 0.124618
O O3 0.253835 0.369525 0.265419
O O4 0.331912 0.247616 0.818149
O O5 0.393978 0.051200 0.433027
O O6 0.244058 0.976882 0.647943
O O7 0.499148 0.188613 0.126707
O O8 0.747641 0.331878 0.551108
O O9 0.607414 0.168012 0.644621
O O10 0.894606 0.991674 0.089751
O O11 0.093246 0.204238 0.356126
O O12 0.871314 0.516260 0.486712
O O13 0.874990 0.240030 0.319419
O O14 0.000000 0.500000 0.000000
O O15 0.001942 0.208404 0.824399
#
# Coordination Sequence:
#
# PCOD9031204 Si02
#       8
#     2   2   2   1   2   1   2   2
#     4   9  20  43  66  87 131 170 200 265 315 358
#     4  11  23  42  65  94 131 164 205 265 314 365
#     4  10  22  43  65  94 129 161 215 260 305 383
#     4  12  24  38  68 100 120 168 214 252 320 376
#     4   9  20  43  66  87 131 170 200 265 315 358
#     4  12  24  38  68 100 120 168 214 252 320 376
#     4  10  22  43  65  94 129 161 215 260 305 383
#     4  11  23  42  65  94 131 164 205 265 314 365
#
# _framework density 28.087011
#
# number of rings (size 3 to 8) (size 9 to 14) (size 15 to 20)
#    0.000    1.714    2.857    0.857    0.000    2.286 
#    0.000   12.857    0.000    0.000    0.000    0.000 
#    0.000    0.000    0.000    0.000    0.000    0.000 
#
# Total GULP energy -78056.700259 kJ/mol
# GULP energy per Si atom -5575.478590 kJ/mol
# Density = 2.802308 g / cm^3
# Si number density = 28.087011 Si / 1000 Ang^3
#
#
#
# Elastic Constant Matrix: (Units=GPa)
#
#
# Indices 1 2 3 4 5 6 
#
# 1 196.9086 24.4098 37.2369 -2.3147 27.7820 12.2830
# 2 24.4098 127.8903 21.2789 31.5769 22.8864 1.7651
# 3 37.2369 21.2789 79.7961 -8.1960 22.2481 0.3736
# 4 -2.3147 31.5769 -8.1960 36.6399 2.2461 3.4337
# 5 27.7820 22.8864 22.2481 2.2461 40.5698 10.5952
# 6 12.2830 1.7651 0.3736 3.4337 10.5952 64.9203
#
#
#
# Elastic Compliance Matrix: (Units=1/GPa)
#
#
# Indices 1 2 3 4 5 6 
#
# 1 0.005905 -0.000499 -0.001827 0.000620 -0.002612 -0.000700
# 2 -0.000499 0.011787 -0.002755 -0.010632 -0.004491 0.001085
# 3 -0.001827 -0.002755 0.016717 0.006322 -0.007008 0.001134
# 4 0.000620 -0.010632 0.006322 0.038062 0.000511 -0.001961
# 5 -0.002612 -0.004491 -0.007008 0.000511 0.034074 -0.004931
# 6 -0.000700 0.001085 0.001134 -0.001961 -0.004931 0.016408
#
#
# Mechanical properties :
#
#
# Convention : Reuss Voigt Hill
#
# Bulk Modulus (GPa) = 41.24366 63.38289 52.31328
# Shear Modulus (GPa) = 35.41101 49.87064 42.64082
#
# Velocity S-wave (km/s) = 3.55457 4.21833 3.90060
# Velocity P-wave (km/s) = 5.61807 6.80745 6.24116
#
# Compressibility (1/GPa) = 0.02424615
#
# Stress axis : x y z
#
# Youngs Moduli (GPa) = 169.33628 84.84049 59.81787
#
# Poissons Ratio (x) = 0.04235 0.10932
# Poissons Ratio (y) = 0.08452 0.16481
# Poissons Ratio (z) = 0.30946 0.23375
#
# Static dielectric constant tensor:
#      x y z
#    x 2.239940 -0.096240 -0.040240 
#    y -0.096240 2.276170 -0.011450 
#    z -0.040240 -0.011450 2.527480 
# 
# From -- ./inp_files/7433.got.cif
#   From: 2010.05.17/outbox.cif.g08.bks.cpg/sg2_4_cif.got.tgz:7433.got - 2010.06.03 11:33:40.
