data_PCOD9031727
_publ_section_title
;
Structure prediction by ZEFSAII (Michael W. Deem and Ramdas Pophale) SiO2 
 PCOD9031727
Probable space group: P -1
;
_chemical_formula_sum "Si O2"
_cell_formula_units_Z 14
_cell_length_a 8.968297
_cell_length_b 16.610424
_cell_length_c 5.613030
_cell_angle_alpha 129.098641
_cell_angle_beta 104.130161
_cell_angle_gamma 62.095341
_cell_volume 571.870005
_symmetry_space_group_name_H-M "P -1"
_symmetry_group_IT_number 2
_symmetry_cell_setting 'triclinic'
loop_
_space_group_symop_operation_xyz
x,y,z
-x,-y,-z
loop_
_atom_site_type_symbol
_atom_site_label
_atom_site_fract_x
_atom_site_fract_y
_atom_site_fract_z
Si Si1 0.561811 0.615487 0.625646
Si Si2 0.102553 0.564458 0.774608
Si Si3 0.644102 0.490175 0.846342
Si Si4 0.142254 0.874366 0.866677
Si Si5 0.507471 0.160582 0.230385
Si Si6 0.023143 0.819558 0.225008
Si Si7 0.643178 0.987896 0.343308
O O1 0.720769 0.496258 0.409483
O O2 0.582332 0.610841 0.909167
O O3 0.384188 0.608371 0.497021
O O4 0.581859 0.708008 0.636753
O O5 0.000000 0.500000 0.500000
O O6 0.173511 0.540689 0.028710
O O7 0.009345 0.699505 0.966760
O O8 0.500000 0.500000 0.000000
O O9 0.325618 0.876982 0.940869
O O10 0.124871 0.811574 0.496950
O O11 0.104490 0.836217 0.039681
O O12 0.000000 0.000000 0.000000
O O13 0.588376 0.109903 0.422111
O O14 0.382430 0.100272 0.018601
O O15 0.838409 0.924895 0.373741
O O16 0.500000 0.000000 0.500000
#
# Coordination Sequence:
#
# PCOD9031727 Si02
#       7
#     2   2   2   2   2   2   2
#     4  10  22  43  68 101 139 187 244 298 364 438
#     4  11  25  45  68 103 149 195 242 298 371 438
#     4   9  21  40  65  98 136 183 241 298 351 437
#     4  12  26  49  78 112 149 193 253 313 382 440
#     4  11  25  43  72 105 142 193 246 303 375 445
#     4  12  28  48  77 112 150 196 251 315 371 452
#     4  11  26  47  70 103 145 190 243 307 376 451
#
# _framework density 24.481089999999998
#
# number of rings (size 3 to 8) (size 9 to 14) (size 15 to 20)
#    0.000    1.143    1.429    3.000   12.000    2.857 
#    2.571    0.000    0.000    0.000    0.000    0.000 
#    0.000    0.000    0.000    0.000    0.000    0.000 
#
# Total GULP energy -78073.041123 kJ/mol
# GULP energy per Si atom -5576.645795 kJ/mol
# Density = 2.442537 g / cm^3
# Si number density = 24.481090 Si / 1000 Ang^3
#
#
#
# Elastic Constant Matrix: (Units=GPa)
#
#
# Indices 1 2 3 4 5 6 
#
# 1 82.3598 32.3267 26.4834 -27.4244 4.8637 3.3223
# 2 32.3267 174.3081 44.4394 -21.5125 0.8657 27.7916
# 3 26.4834 44.4394 77.8526 -14.0201 17.5409 13.1183
# 4 -27.4244 -21.5125 -14.0201 41.2485 -6.1316 4.2255
# 5 4.8637 0.8657 17.5409 -6.1316 55.2114 -3.5494
# 6 3.3223 27.7916 13.1183 4.2255 -3.5494 44.5826
#
#
#
# Elastic Compliance Matrix: (Units=1/GPa)
#
#
# Indices 1 2 3 4 5 6 
#
# 1 0.016843 -0.000963 -0.003516 0.009653 0.000690 -0.000480
# 2 -0.000963 0.007695 -0.003099 0.002880 0.001011 -0.004006
# 3 -0.003516 -0.003099 0.017956 0.001725 -0.005391 -0.003682
# 4 0.009653 0.002880 0.001725 0.033653 0.001904 -0.006060
# 5 0.000690 0.001011 -0.005391 0.001904 0.020109 0.002325
# 6 -0.000480 -0.004006 -0.003682 -0.006060 0.002325 0.026806
#
#
# Mechanical properties :
#
#
# Convention : Reuss Voigt Hill
#
# Bulk Modulus (GPa) = 36.57925 60.11326 48.34626
# Shear Modulus (GPa) = 33.93726 43.62656 38.78191
#
# Velocity S-wave (km/s) = 3.72730 4.22601 3.98447
# Velocity P-wave (km/s) = 5.78774 6.95849 6.39994
#
# Compressibility (1/GPa) = 0.02733790
#
# Stress axis : x y z
#
# Youngs Moduli (GPa) = 59.37091 129.96014 55.69297
#
# Poissons Ratio (x) = 0.12512 0.19582
# Poissons Ratio (y) = 0.05716 0.17259
# Poissons Ratio (z) = 0.20876 0.40273
#
# Static dielectric constant tensor:
#      x y z
#    x 1.895900 0.024110 0.020110 
#    y 0.024110 2.066660 -0.140700 
#    z 0.020110 -0.140700 2.392900 
# 
# From -- ./inp_files/49427.got.cif
#   From: 2010.05.17/outbox.cif.g08.bks.cpg/sg2_25_cif.got.tgz:49427.got - 2010.06.03 11:33:40.
