data_PCOD9031627
_publ_section_title
;
Structure prediction by ZEFSAII (Michael W. Deem and Ramdas Pophale) SiO2 
 PCOD9031627
Probable space group: P -1
;
_chemical_formula_sum "Si O2"
_cell_formula_units_Z 12
_cell_length_a 13.799279
_cell_length_b 13.819074
_cell_length_c 10.146128
_cell_angle_alpha 83.009005
_cell_angle_beta 109.579045
_cell_angle_gamma 159.287990
_cell_volume 527.295985
_symmetry_space_group_name_H-M "P -1"
_symmetry_group_IT_number 2
_symmetry_cell_setting 'triclinic'
loop_
_space_group_symop_operation_xyz
x,y,z
-x,-y,-z
loop_
_atom_site_type_symbol
_atom_site_label
_atom_site_fract_x
_atom_site_fract_y
_atom_site_fract_z
Si Si1 0.310546 0.604871 0.215190
Si Si2 0.865336 0.581561 0.267901
Si Si3 0.731716 0.622226 0.636957
Si Si4 0.645916 0.360578 0.483050
Si Si5 0.276264 0.204761 0.989666
Si Si6 0.529822 0.912496 0.011938
O O1 0.441721 0.613289 0.300050
O O2 0.294673 0.637935 0.348851
O O3 0.519228 0.852392 0.160478
O O4 0.897438 0.223034 0.054535
O O5 0.851713 0.523360 0.417537
O O6 0.542229 0.365472 0.143680
O O7 0.784768 0.422727 0.155447
O O8 0.228086 0.966137 0.338233
O O9 0.500000 0.500000 0.500000
O O10 0.763414 0.577912 0.534837
O O11 0.066816 0.967573 0.810359
O O12 0.500000 0.500000 0.000000
O O13 0.000000 0.000000 0.000000
O O14 0.500000 0.000000 0.000000
#
# Coordination Sequence:
#
# PCOD9031627 Si02
#       6
#     2   2   2   2   2   2
#     4  10  24  45  68  98 137 173 224 275 343 399
#     4  12  22  44  64 101 132 174 227 283 320 405
#     4  10  22  43  67  96 141 183 220 266 341 403
#     4  10  24  40  70  94 140 173 215 274 340 389
#     4  12  26  39  64  99 136 178 230 268 327 401
#     4  12  25  47  74  98 131 180 229 286 343 391
#
# _framework density 22.757618000000001
#
# number of rings (size 3 to 8) (size 9 to 14) (size 15 to 20)
#    1.000    0.000    1.667    5.500    2.333    1.333 
#    0.000    9.167    0.000    0.000    0.000    0.000 
#    0.000    0.000    0.000    0.000    0.000    0.000 
#
# Total GULP energy -67009.077575 kJ/mol
# GULP energy per Si atom -5584.089798 kJ/mol
# Density = 2.270582 g / cm^3
# Si number density = 22.757618 Si / 1000 Ang^3
#
#
#
# Elastic Constant Matrix: (Units=GPa)
#
#
# Indices 1 2 3 4 5 6 
#
# 1 91.8571 45.4979 34.3168 -6.1332 -9.6725 -31.1732
# 2 45.4979 151.1914 40.8345 -3.0089 -2.6473 -13.4512
# 3 34.3168 40.8345 96.3752 5.0177 -25.7315 -20.9363
# 4 -6.1332 -3.0089 5.0177 47.8539 -1.6945 -2.9689
# 5 -9.6725 -2.6473 -25.7315 -1.6945 27.5375 0.6033
# 6 -31.1732 -13.4512 -20.9363 -2.9689 0.6033 28.2539
#
#
#
# Elastic Compliance Matrix: (Units=1/GPa)
#
#
# Indices 1 2 3 4 5 6 
#
# 1 0.021506 -0.004529 0.001064 0.004042 0.007866 0.022617
# 2 -0.004529 0.008663 -0.004082 -0.000003 -0.004489 -0.003802
# 3 0.001064 -0.004082 0.019345 -0.000707 0.017727 0.013113
# 4 0.004042 -0.000003 -0.000707 0.021943 0.001973 0.006197
# 5 0.007866 -0.004489 0.017727 0.001973 0.054921 0.018712
# 6 0.022617 -0.003802 0.013113 0.006197 0.018712 0.068506
#
#
# Mechanical properties :
#
#
# Convention : Reuss Voigt Hill
#
# Bulk Modulus (GPa) = 29.05282 64.52466 46.78874
# Shear Modulus (GPa) = 22.57843 35.31402 28.94623
#
# Velocity S-wave (km/s) = 3.15322 3.94349 3.57029
# Velocity P-wave (km/s) = 5.10402 7.01066 6.13190
#
# Compressibility (1/GPa) = 0.03442006
#
# Stress axis : x y z
#
# Youngs Moduli (GPa) = 46.49949 115.43894 51.69246
#
# Poissons Ratio (x) = 0.52279 -0.05501
# Poissons Ratio (y) = 0.21058 0.21102
# Poissons Ratio (z) = -0.04949 0.47124
#
# Static dielectric constant tensor:
#      x y z
#    x 1.873650 0.035440 0.007850 
#    y 0.035440 1.820900 0.010890 
#    z 0.007850 0.010890 1.921250 
# 
# From -- ./inp_files/313187.got.cif
#   From: 2010.05.17/outbox.cif.g08.bks.cpg/sg2_157_cif.got.tgz:313187.got - 2010.06.03 11:33:40.
