data_PCOD9031904
_publ_section_title
;
Structure prediction by ZEFSAII (Michael W. Deem and Ramdas Pophale) SiO2 
 PCOD9031904
Probable space group: P -1
;
_chemical_formula_sum "Si O2"
_cell_formula_units_Z 13
_cell_length_a 9.566783
_cell_length_b 6.528093
_cell_length_c 11.868583
_cell_angle_alpha 64.799707
_cell_angle_beta 56.075591
_cell_angle_gamma 69.596706
_cell_volume 550.398459
_symmetry_space_group_name_H-M "P -1"
_symmetry_group_IT_number 2
_symmetry_cell_setting 'triclinic'
loop_
_space_group_symop_operation_xyz
x,y,z
-x,-y,-z
loop_
_atom_site_type_symbol
_atom_site_label
_atom_site_fract_x
_atom_site_fract_y
_atom_site_fract_z
Si Si1 0.157158 0.371388 0.531473
Si Si2 0.555436 0.950579 0.655559
Si Si3 0.647105 0.438613 0.172292
Si Si4 0.721110 0.325733 0.409693
Si Si5 0.007403 0.020852 0.226122
Si Si6 0.389653 0.870526 0.162525
Si Si7 0.000000 0.500000 0.000000
O O1 0.289337 0.226057 0.422627
O O2 0.251041 0.545355 0.519471
O O3 0.000000 0.500000 0.500000
O O4 0.090157 0.198373 0.692717
O O5 0.392107 0.820113 0.757348
O O6 0.565969 0.178731 0.523981
O O7 0.591391 0.027196 0.746515
O O8 0.694488 0.478133 0.273378
O O9 0.478898 0.608461 0.177875
O O10 0.813440 0.499476 0.021526
O O11 0.897280 0.159510 0.343642
O O12 0.008422 0.218791 0.086565
O O13 0.195405 0.916425 0.202501
O O14 0.500000 0.000000 0.000000
#
# Coordination Sequence:
#
# PCOD9031904 Si02
#       7
#     2   2   2   2   2   2   1
#     4  11  22  42  72 106 136 175 223 281 347 398
#     4  11  24  41  69 100 136 174 225 280 339 399
#     4  11  24  44  67  98 137 179 224 277 339 398
#     4  10  23  43  72 102 136 173 223 283 336 401
#     4  10  22  43  68  98 136 175 224 276 334 401
#     4  12  25  44  66  98 138 180 225 275 331 404
#     4  10  22  46  64  90 138 180 222 272 326 402
#
# _framework density 23.619250999999998
#
# number of rings (size 3 to 8) (size 9 to 14) (size 15 to 20)
#    0.000    1.231    1.538    4.154    0.000    9.231 
#    5.538    3.846    0.000    0.000    0.000    0.000 
#    0.000    0.000    0.000    0.000    0.000    0.000 
#
# Total GULP energy -72452.549041 kJ/mol
# GULP energy per Si atom -5573.273003 kJ/mol
# Density = 2.356549 g / cm^3
# Si number density = 23.619251 Si / 1000 Ang^3
#
#
#
# Elastic Constant Matrix: (Units=GPa)
#
#
# Indices 1 2 3 4 5 6 
#
# 1 88.5117 38.9279 6.4334 -14.6639 -25.2447 -25.2578
# 2 38.9279 78.6285 10.5904 -24.2999 -6.7138 -5.7024
# 3 6.4334 10.5904 41.0058 -29.4339 -17.0907 5.1268
# 4 -14.6639 -24.2999 -29.4339 45.2145 3.2337 -8.5651
# 5 -25.2447 -6.7138 -17.0907 3.2337 45.2096 -4.2613
# 6 -25.2578 -5.7024 5.1268 -8.5651 -4.2613 43.6242
#
#
#
# Elastic Compliance Matrix: (Units=1/GPa)
#
#
# Indices 1 2 3 4 5 6 
#
# 1 0.027705 -0.007164 0.017298 0.018423 0.021398 0.018779
# 2 -0.007164 0.018778 0.002902 0.009676 -0.000827 -0.000215
# 3 0.017298 0.002902 0.073589 0.055594 0.035453 0.016125
# 4 0.018423 0.009676 0.055594 0.071592 0.029727 0.022358
# 5 0.021398 -0.000827 0.035453 0.029727 0.046969 0.018539
# 6 0.018779 -0.000215 0.016125 0.022358 0.018539 0.038073
#
#
# Mechanical properties :
#
#
# Convention : Reuss Voigt Hill
#
# Bulk Modulus (GPa) = 6.84250 35.56105 21.20178
# Shear Modulus (GPa) = 16.70293 36.95595 26.82944
#
# Velocity S-wave (km/s) = 2.66216 3.95986 3.37399
# Velocity P-wave (km/s) = 3.51465 5.99967 4.91674
#
# Compressibility (1/GPa) = 0.14614535
#
# Stress axis : x y z
#
# Youngs Moduli (GPa) = 36.09410 53.25377 13.58898
#
# Poissons Ratio (x) = 0.38150 -0.23507
# Poissons Ratio (y) = 0.25857 -0.03943
# Poissons Ratio (z) = -0.62437 -0.15454
#
# Static dielectric constant tensor:
#      x y z
#    x 1.881480 -0.028770 -0.025470 
#    y -0.028770 1.957910 0.012280 
#    z -0.025470 0.012280 2.024070 
# 
# From -- ./inp_files/28902.got.cif
#   From: 2010.05.17/outbox.cif.g08.bks.cpg/sg2_15_cif.got.tgz:28902.got - 2010.06.03 11:33:40.
