data_PCOD9031906
_publ_section_title
;
Structure prediction by ZEFSAII (Michael W. Deem and Ramdas Pophale) SiO2 
 PCOD9031906
Probable space group: P -1
;
_chemical_formula_sum "Si O2"
_cell_formula_units_Z 16
_cell_length_a 12.891511
_cell_length_b 9.008729
_cell_length_c 13.052958
_cell_angle_alpha 83.238490
_cell_angle_beta 145.914435
_cell_angle_gamma 77.378907
_cell_volume 694.457770
_symmetry_space_group_name_H-M "P -1"
_symmetry_group_IT_number 2
_symmetry_cell_setting 'triclinic'
loop_
_space_group_symop_operation_xyz
x,y,z
-x,-y,-z
loop_
_atom_site_type_symbol
_atom_site_label
_atom_site_fract_x
_atom_site_fract_y
_atom_site_fract_z
Si Si1 0.080695 0.878140 0.974595
Si Si2 0.214404 0.484571 0.129474
Si Si3 0.395899 0.824456 0.055040
Si Si4 0.862298 0.444934 0.464293
Si Si5 0.423609 0.943056 0.768810
Si Si6 0.180995 0.444260 0.865732
Si Si7 0.583305 0.077903 0.475865
Si Si8 0.900946 0.206077 0.345596
O O1 0.192827 0.670109 0.116462
O O2 0.250975 0.880109 0.036032
O O3 0.850598 0.961179 0.716322
O O4 0.000000 0.000000 0.000000
O O5 0.445254 0.295103 0.364028
O O6 0.184305 0.475853 0.984747
O O7 0.000000 0.500000 0.000000
O O8 0.608791 0.616452 0.253586
O O9 0.495253 0.944163 0.118729
O O10 0.247911 0.841229 0.836435
O O11 0.862207 0.283857 0.423502
O O12 0.000000 0.500000 0.500000
O O13 0.995436 0.407386 0.682157
O O14 0.464458 0.943809 0.679501
O O15 0.578938 0.736554 0.949910
O O16 0.160354 0.042607 0.561776
O O17 0.137161 0.621268 0.761479
O O18 0.500000 0.000000 0.500000
#
# Coordination Sequence:
#
# PCOD9031906 Si02
#       8
#     2   2   2   2   2   2   2   2
#     4  12  26  43  65 104 139 177 236 283 338 410
#     4  11  23  41  70  97 132 189 227 277 347 409
#     4  12  23  43  72 100 142 178 228 291 339 405
#     4  10  22  44  74  98 133 188 224 281 356 406
#     4  11  23  42  68  98 134 183 221 280 345 404
#     4  10  22  43  68  98 137 176 230 275 342 414
#     4  11  22  42  68  92 136 183 226 278 339 403
#     4  11  22  47  69  98 138 178 227 283 347 405
#
# _framework density 23.039559000000001
#
# number of rings (size 3 to 8) (size 9 to 14) (size 15 to 20)
#    0.000    1.000    6.250    1.125    1.750    2.000 
#    4.500    0.625    0.000    0.000    0.000    0.000 
#    0.000    0.000    0.000    0.000    0.000    0.000 
#
# Total GULP energy -89576.863746 kJ/mol
# GULP energy per Si atom -5598.553984 kJ/mol
# Density = 2.298712 g / cm^3
# Si number density = 23.039559 Si / 1000 Ang^3
#
#
#
# Elastic Constant Matrix: (Units=GPa)
#
#
# Indices 1 2 3 4 5 6 
#
# 1 75.7142 26.7091 26.1638 -5.8835 4.7513 -19.7985
# 2 26.7091 152.2249 67.1300 -4.7921 -4.2227 -26.5254
# 3 26.1638 67.1300 157.2398 -21.3260 13.6435 -1.3999
# 4 -5.8835 -4.7921 -21.3260 52.4593 2.4495 3.0697
# 5 4.7513 -4.2227 13.6435 2.4495 42.5705 -8.0160
# 6 -19.7985 -26.5254 -1.3999 3.0697 -8.0160 26.3331
#
#
#
# Elastic Compliance Matrix: (Units=1/GPa)
#
#
# Indices 1 2 3 4 5 6 
#
# 1 0.017794 0.001078 -0.003509 -0.000304 0.002077 0.014945
# 2 0.001078 0.011426 -0.005724 -0.002243 0.005610 0.013985
# 3 -0.003509 -0.005724 0.010347 0.004141 -0.005623 -0.010048
# 4 -0.000304 -0.002243 0.004141 0.021030 -0.003834 -0.005886
# 5 0.002077 0.005610 -0.005623 -0.003834 0.028879 0.016152
# 6 0.014945 0.013985 -0.010048 -0.005886 0.016152 0.068367
#
#
# Mechanical properties :
#
#
# Convention : Reuss Voigt Hill
#
# Bulk Modulus (GPa) = 42.99850 69.46500 56.23175
# Shear Modulus (GPa) = 27.48653 41.95099 34.71876
#
# Velocity S-wave (km/s) = 3.45775 4.27174 3.88612
# Velocity P-wave (km/s) = 5.88598 7.38554 6.67798
#
# Compressibility (1/GPa) = 0.02325663
#
# Stress axis : x y z
#
# Youngs Moduli (GPa) = 56.19823 87.51813 96.64323
#
# Poissons Ratio (x) = -0.09433 0.33916
# Poissons Ratio (y) = -0.06057 0.55318
# Poissons Ratio (z) = 0.19722 0.50095
#
# Static dielectric constant tensor:
#      x y z
#    x 1.901720 -0.008200 -0.035990 
#    y -0.008200 1.841390 0.019110 
#    z -0.035990 0.019110 1.858940 
# 
# From -- ./inp_files/529808.got.cif
#   From: 2010.05.17/outbox.cif.g08.bks.cpg/sg2_265_cif.got.tgz:529808.got - 2010.06.03 11:33:40.
