data_PCOD9031878
_publ_section_title
;
Structure prediction by ZEFSAII (Michael W. Deem and Ramdas Pophale) SiO2 
 PCOD9031878
Probable space group: P -1
;
_chemical_formula_sum "Si O2"
_cell_formula_units_Z 14
_cell_length_a 7.400499
_cell_length_b 14.500775
_cell_length_c 7.048987
_cell_angle_alpha 62.020821
_cell_angle_beta 117.446325
_cell_angle_gamma 95.578584
_cell_volume 585.963628
_symmetry_space_group_name_H-M "P -1"
_symmetry_group_IT_number 2
_symmetry_cell_setting 'triclinic'
loop_
_space_group_symop_operation_xyz
x,y,z
-x,-y,-z
loop_
_atom_site_type_symbol
_atom_site_label
_atom_site_fract_x
_atom_site_fract_y
_atom_site_fract_z
Si Si1 0.704799 0.357274 0.366102
Si Si2 0.664838 0.362274 0.787186
Si Si3 0.621273 0.795339 0.245642
Si Si4 0.926379 0.735709 0.772512
Si Si5 0.798165 0.897239 0.877810
Si Si6 0.258705 0.872258 0.295524
Si Si7 0.260341 0.469817 0.044548
O O1 0.728153 0.369353 0.591663
O O2 0.735321 0.232284 0.474687
O O3 0.471541 0.399159 0.147402
O O4 0.824410 0.437716 0.233122
O O5 0.451918 0.315854 0.735264
O O6 0.670634 0.470631 0.794458
O O7 0.832424 0.275133 0.056653
O O8 0.831167 0.771674 0.490129
O O9 0.663975 0.860948 0.019637
O O10 0.440445 0.849605 0.247563
O O11 0.884416 0.616300 0.904986
O O12 0.803665 0.817600 0.782689
O O13 0.036474 0.886897 0.071476
O O14 0.726339 0.020987 0.686843
#
# Coordination Sequence:
#
# PCOD9031878 Si02
#       7
#     2   2   2   2   2   2   2
#     4  10  22  43  68  97 137 181 232 281 347 408
#     4  11  24  44  67  98 150 175 228 298 328 416
#     4  11  25  45  72 103 143 181 232 284 352 410
#     4  12  25  44  69 111 134 183 247 269 352 434
#     4  11  25  45  78 100 142 188 224 296 353 400
#     4  10  22  51  70 103 144 177 238 291 339 422
#     4  11  24  40  70 101 135 189 232 275 354 413
#
# _framework density 23.892264999999998
#
# number of rings (size 3 to 8) (size 9 to 14) (size 15 to 20)
#    0.000    1.143    5.714    1.286    6.000    1.143 
#    0.000    5.714    0.000    0.000    0.000    0.000 
#    0.000    0.000    0.000    0.000    0.000    0.000 
#
# Total GULP energy -78332.956556 kJ/mol
# GULP energy per Si atom -5595.211183 kJ/mol
# Density = 2.383788 g / cm^3
# Si number density = 23.892265 Si / 1000 Ang^3
#
#
#
# Elastic Constant Matrix: (Units=GPa)
#
#
# Indices 1 2 3 4 5 6 
#
# 1 83.8273 36.2200 20.5211 -4.6913 -0.0065 -1.7275
# 2 36.2200 170.5843 64.5711 -26.1576 -22.6787 -13.1655
# 3 20.5211 64.5711 93.3785 -12.6054 -15.3053 -2.6019
# 4 -4.6913 -26.1576 -12.6054 44.9462 1.3705 9.3357
# 5 -0.0065 -22.6787 -15.3053 1.3705 39.6094 -2.3237
# 6 -1.7275 -13.1655 -2.6019 9.3357 -2.3237 17.5838
#
#
#
# Elastic Compliance Matrix: (Units=1/GPa)
#
#
# Indices 1 2 3 4 5 6 
#
# 1 0.013425 -0.002695 -0.001515 -0.000308 -0.002177 -0.001047
# 2 -0.002695 0.009634 -0.004927 0.002731 0.003827 0.005275
# 3 -0.001515 -0.004927 0.015062 0.001539 0.002825 -0.002053
# 4 -0.000308 0.002731 0.001539 0.026683 0.000540 -0.011853
# 5 -0.002177 0.003827 0.002825 0.000540 0.028898 0.006602
# 6 -0.001047 0.005275 -0.002053 -0.011853 0.006602 0.067579
#
#
# Mechanical properties :
#
#
# Convention : Reuss Voigt Hill
#
# Bulk Modulus (GPa) = 50.37805 65.60162 57.98983
# Shear Modulus (GPa) = 26.85706 35.52640 31.19173
#
# Velocity S-wave (km/s) = 3.35638 3.86027 3.61711
# Velocity P-wave (km/s) = 6.01263 6.88373 6.46287
#
# Compressibility (1/GPa) = 0.01984991
#
# Stress axis : x y z
#
# Youngs Moduli (GPa) = 74.48565 103.79876 66.39004
#
# Poissons Ratio (x) = 0.27971 0.10055
# Poissons Ratio (y) = 0.20072 0.32709
# Poissons Ratio (z) = 0.11281 0.51139
#
# Static dielectric constant tensor:
#      x y z
#    x 2.002840 -0.018480 0.032030 
#    y -0.018480 1.912510 0.001530 
#    z 0.032030 0.001530 1.904400 
# 
# From -- ./inp_files/195991.got.cif
#   From: 2010.05.17/outbox.cif.g08.bks.cpg/sg2_98_cif.got.tgz:195991.got - 2010.06.03 11:33:40.
