data_PCOD9031198
_publ_section_title
;
Structure prediction by ZEFSAII (Michael W. Deem and Ramdas Pophale) SiO2 
 PCOD9031198
Probable space group: P -1
;
_chemical_formula_sum "Si O2"
_cell_formula_units_Z 14
_cell_length_a 15.807568
_cell_length_b 5.338693
_cell_length_c 9.036635
_cell_angle_alpha 86.640321
_cell_angle_beta 134.089319
_cell_angle_gamma 93.076163
_cell_volume 546.724827
_symmetry_space_group_name_H-M "P -1"
_symmetry_group_IT_number 2
_symmetry_cell_setting 'triclinic'
loop_
_space_group_symop_operation_xyz
x,y,z
-x,-y,-z
loop_
_atom_site_type_symbol
_atom_site_label
_atom_site_fract_x
_atom_site_fract_y
_atom_site_fract_z
Si Si1 0.405876 0.317929 0.594526
Si Si2 0.403408 0.780830 0.778010
Si Si3 0.892529 0.403646 0.046151
Si Si4 0.085868 0.101369 0.472091
Si Si5 0.341754 0.440383 0.186766
Si Si6 0.672217 0.871771 0.097948
Si Si7 0.945565 0.196864 0.816791
O O1 0.362516 0.538077 0.644110
O O2 0.342527 0.337438 0.358604
O O3 0.539110 0.408238 0.712973
O O4 0.397471 0.037012 0.660984
O O5 0.341728 0.852243 0.855388
O O6 0.543208 0.752525 0.985495
O O7 0.766474 0.371411 0.964339
O O8 0.885629 0.370610 0.860603
O O9 0.998648 0.263192 0.259727
O O10 0.937191 0.685594 0.116848
O O11 0.204202 0.220459 0.680635
O O12 0.128797 0.901617 0.407385
O O13 0.000000 0.000000 0.500000
O O14 0.325025 0.203369 0.066860
O O15 0.000000 0.000000 0.000000
#
# Coordination Sequence:
#
# PCOD9031198 Si02
#       7
#     2   2   2   2   2   2   2
#     4  10  24  46  71 102 134 180 239 281 351 408
#     4  10  24  48  71 101 136 185 231 289 343 417
#     4  10  22  43  65  93 136 178 229 282 343 414
#     4  11  24  41  63 102 135 181 223 282 348 418
#     4  10  23  41  67 100 131 179 222 297 340 418
#     4  10  24  42  66  99 139 175 227 289 346 413
#     4   9  21  41  63  90 126 175 232 275 332 410
#
# _framework density 25.607029000000001
#
# number of rings (size 3 to 8) (size 9 to 14) (size 15 to 20)
#    0.000    2.000    0.000    0.857    4.000   16.000 
#    7.714    0.000    0.000    0.000    0.000    0.000 
#    0.000    0.000    0.000    0.000    0.000    0.000 
#
# Total GULP energy -78160.763245 kJ/mol
# GULP energy per Si atom -5582.911660 kJ/mol
# Density = 2.554875 g / cm^3
# Si number density = 25.607029 Si / 1000 Ang^3
#
#
#
# Elastic Constant Matrix: (Units=GPa)
#
#
# Indices 1 2 3 4 5 6 
#
# 1 129.4436 44.5794 66.2076 1.8239 -5.1098 -17.7023
# 2 44.5794 100.4701 54.8901 6.8097 -18.5135 -0.6047
# 3 66.2076 54.8901 185.2070 20.5279 -18.3535 -17.3865
# 4 1.8239 6.8097 20.5279 33.4774 -11.3227 -11.2323
# 5 -5.1098 -18.5135 -18.3535 -11.3227 50.3319 -0.3600
# 6 -17.7023 -0.6047 -17.3865 -11.2323 -0.3600 39.3968
#
#
#
# Elastic Compliance Matrix: (Units=1/GPa)
#
#
# Indices 1 2 3 4 5 6 
#
# 1 0.010972 -0.003600 -0.002835 0.003233 -0.000485 0.004541
# 2 -0.003600 0.013645 -0.002583 -0.000713 0.003532 -0.002719
# 3 -0.002835 -0.002583 0.007745 -0.003406 0.000828 0.001141
# 4 0.003233 -0.000713 -0.003406 0.038103 0.007473 0.010870
# 5 -0.000485 0.003532 0.000828 0.007473 0.023119 0.002544
# 6 0.004541 -0.002719 0.001141 0.010870 0.002544 0.031007
#
#
# Mechanical properties :
#
#
# Convention : Reuss Voigt Hill
#
# Bulk Modulus (GPa) = 69.81141 82.94165 76.37653
# Shear Modulus (GPa) = 33.92051 41.27081 37.59566
#
# Velocity S-wave (km/s) = 3.64353 4.01895 3.83584
# Velocity P-wave (km/s) = 6.70986 7.34823 7.03629
#
# Compressibility (1/GPa) = 0.01432431
#
# Stress axis : x y z
#
# Youngs Moduli (GPa) = 91.14326 73.28864 129.11277
#
# Poissons Ratio (x) = 0.26387 0.36606
# Poissons Ratio (y) = 0.32815 0.33351
# Poissons Ratio (z) = 0.25841 0.18931
#
# Static dielectric constant tensor:
#      x y z
#    x 2.111520 -0.316190 0.381990 
#    y -0.316190 3.382980 -1.677560 
#    z 0.381990 -1.677560 4.254040 
# 
# From -- ./inp_files/323782.got.cif
#   From: 2010.05.17/outbox.cif.g08.bks.cpg/sg2_162_cif.got.tgz:323782.got - 2010.06.03 11:33:40.
