data_PCOD9031623
_publ_section_title
;
Structure prediction by ZEFSAII (Michael W. Deem and Ramdas Pophale) SiO2 
 PCOD9031623
Probable space group: P -1
;
_chemical_formula_sum "Si O2"
_cell_formula_units_Z 14
_cell_length_a 26.611759
_cell_length_b 8.933900
_cell_length_c 6.660880
_cell_angle_alpha 55.746738
_cell_angle_beta 59.023354
_cell_angle_gamma 28.785186
_cell_volume 629.378986
_symmetry_space_group_name_H-M "P -1"
_symmetry_group_IT_number 2
_symmetry_cell_setting 'triclinic'
loop_
_space_group_symop_operation_xyz
x,y,z
-x,-y,-z
loop_
_atom_site_type_symbol
_atom_site_label
_atom_site_fract_x
_atom_site_fract_y
_atom_site_fract_z
Si Si1 0.496131 0.563874 0.189460
Si Si2 0.171744 0.295789 0.548669
Si Si3 0.202030 0.604018 0.425053
Si Si4 0.636645 0.362768 0.371392
Si Si5 0.089491 0.166061 0.954723
Si Si6 0.036130 0.088311 0.739020
Si Si7 0.613894 0.794679 0.943750
O O1 0.603247 0.371210 0.211734
O O2 0.466443 0.450195 0.445249
O O3 0.500000 0.500000 0.000000
O O4 0.410301 0.944375 0.116163
O O5 0.194134 0.412110 0.546337
O O6 0.173980 0.107893 0.816684
O O7 0.062002 0.606351 0.429941
O O8 0.271535 0.986872 0.444583
O O9 0.143677 0.790428 0.615477
O O10 0.315713 0.372558 0.277603
O O11 0.126104 0.898118 0.200549
O O12 0.659421 0.519624 0.203321
O O13 0.055644 0.191590 0.785690
O O14 0.000000 0.500000 0.000000
O O15 0.000000 0.000000 0.000000
O O16 0.500000 0.000000 0.000000
#
# Coordination Sequence:
#
# PCOD9031623 Si02
#       7
#     2   2   2   2   2   2   2
#     4  10  22  45  69  99 134 179 227 282 349 413
#     4  12  23  44  68 101 140 182 231 285 344 413
#     4  12  24  46  70 100 141 182 231 294 347 407
#     4  10  22  43  67  96 138 174 226 287 341 406
#     4  12  25  46  69  99 141 184 233 287 344 418
#     4  12  26  46  70 103 141 189 235 283 350 417
#     4  10  22  45  69  98 137 176 225 287 345 404
#
# _framework density 22.244147000000002
#
# number of rings (size 3 to 8) (size 9 to 14) (size 15 to 20)
#    0.000    0.857    5.714    1.714    0.000    0.571 
#   12.857    0.000    0.000    0.000    0.000    0.000 
#    0.000    0.000    0.000    0.000    0.000    0.000 
#
# Total GULP energy -77945.777795 kJ/mol
# GULP energy per Si atom -5567.555557 kJ/mol
# Density = 2.219352 g / cm^3
# Si number density = 22.244147 Si / 1000 Ang^3
#
#
#
# Elastic Constant Matrix: (Units=GPa)
#
#
# Indices 1 2 3 4 5 6 
#
# 1 84.0530 36.6221 55.9944 17.0965 -20.2304 12.5187
# 2 36.6221 149.3288 40.5281 9.4767 -0.0621 9.2485
# 3 55.9944 40.5281 90.4585 16.9532 -7.6771 19.4316
# 4 17.0965 9.4767 16.9532 40.4501 6.9045 -8.0126
# 5 -20.2304 -0.0621 -7.6771 6.9045 34.3144 -5.1397
# 6 12.5187 9.2485 19.4316 -8.0126 -5.1397 30.8225
#
#
#
# Elastic Compliance Matrix: (Units=1/GPa)
#
#
# Indices 1 2 3 4 5 6 
#
# 1 0.026481 -0.002566 -0.011954 -0.008470 0.014298 -0.002267
# 2 -0.002566 0.007898 -0.002177 0.000470 -0.002108 -0.000184
# 3 -0.011954 -0.002177 0.022524 -0.005544 -0.002476 -0.010546
# 4 -0.008470 0.000470 -0.005544 0.035218 -0.011211 0.014080
# 5 0.014298 -0.002108 -0.002476 -0.011211 0.039273 0.000021
# 6 -0.002267 -0.000184 -0.010546 0.014080 0.000021 0.043732
#
#
# Mechanical properties :
#
#
# Convention : Reuss Voigt Hill
#
# Bulk Modulus (GPa) = 42.54036 65.56994 54.05515
# Shear Modulus (GPa) = 23.11007 33.83044 28.47025
#
# Velocity S-wave (km/s) = 3.22674 3.90406 3.58145
# Velocity P-wave (km/s) = 5.74876 7.06142 6.43863
#
# Compressibility (1/GPa) = 0.02350709
#
# Stress axis : x y z
#
# Youngs Moduli (GPa) = 37.76330 126.62116 44.39657
#
# Poissons Ratio (x) = 0.32491 0.53073
# Poissons Ratio (y) = 0.09690 0.09667
# Poissons Ratio (z) = 0.45143 0.27572
#
# Static dielectric constant tensor:
#      x y z
#    x 2.407720 -1.163050 -0.402930 
#    y -1.163050 4.109960 0.747770 
#    z -0.402930 0.747770 2.177020 
# 
# From -- ./inp_files/40083.got.cif
#   From: 2010.05.17/outbox.cif.g08.bks.cpg/sg2_21_cif.got.tgz:40083.got - 2010.06.03 11:33:40.
