data_PCOD9031176
_publ_section_title
;
Structure prediction by ZEFSAII (Michael W. Deem and Ramdas Pophale) SiO2 
 PCOD9031176
Probable space group: P -1
;
_chemical_formula_sum "Si O2"
_cell_formula_units_Z 15
_cell_length_a 14.531529
_cell_length_b 18.077488
_cell_length_c 12.759181
_cell_angle_alpha 141.495422
_cell_angle_beta 145.146379
_cell_angle_gamma 23.445954
_cell_volume 755.605324
_symmetry_space_group_name_H-M "P -1"
_symmetry_group_IT_number 2
_symmetry_cell_setting 'triclinic'
loop_
_space_group_symop_operation_xyz
x,y,z
-x,-y,-z
loop_
_atom_site_type_symbol
_atom_site_label
_atom_site_fract_x
_atom_site_fract_y
_atom_site_fract_z
Si Si1 0.744108 0.602121 0.816563
Si Si2 0.241211 0.357324 0.490830
Si Si3 0.190320 0.590418 0.541474
Si Si4 0.455774 0.386483 0.151412
Si Si5 0.128446 0.019730 0.002528
Si Si6 0.775896 0.993020 0.687132
Si Si7 0.500000 0.000000 0.000000
Si Si8 0.069142 0.258758 0.056661
O O1 0.816252 0.488329 0.654216
O O2 0.596060 0.604449 0.764234
O O3 0.582880 0.810534 0.870130
O O4 0.000000 0.500000 0.000000
O O5 0.272006 0.464997 0.578528
O O6 0.490602 0.176954 0.587385
O O7 0.188323 0.291153 0.278056
O O8 0.000000 0.500000 0.500000
O O9 0.385286 0.585854 0.695000
O O10 0.919225 0.805571 0.552502
O O11 0.618987 0.183618 0.034837
O O12 0.186958 0.548510 0.021923
O O13 0.197177 0.040708 0.200692
O O14 0.932326 0.024527 0.844322
O O15 0.014977 0.178236 0.991722
O O16 0.730385 0.892483 0.011772
#
# Coordination Sequence:
#
# PCOD9031176 Si02
#       8
#     2   2   2   2   2   2   1   2
#     4  12  24  43  66  94 128 166 210 261 316 376
#     4  12  25  41  63  96 129 166 212 260 315 371
#     4  11  25  43  64  96 127 166 213 263 312 374
#     4  11  23  42  67  93 128 167 210 258 315 373
#     4  10  22  43  65  92 126 167 212 254 317 370
#     4  10  24  42  66  93 126 167 210 263 309 377
#     4  12  24  42  64  96 124 166 210 256 320 374
#     4  12  24  40  65  92 127 168 207 261 313 374
#
# _framework density 19.851634000000001
#
# number of rings (size 3 to 8) (size 9 to 14) (size 15 to 20)
#    0.000    0.800    4.000    2.800    1.867    3.200 
#    0.000    6.000    0.000    0.000    0.000    0.000 
#    0.000    0.000    0.000    0.000    0.000    0.000 
#
# Total GULP energy -83637.036888 kJ/mol
# GULP energy per Si atom -5575.802459 kJ/mol
# Density = 1.980645 g / cm^3
# Si number density = 19.851634 Si / 1000 Ang^3
#
#
#
# Elastic Constant Matrix: (Units=GPa)
#
#
# Indices 1 2 3 4 5 6 
#
# 1 74.8778 4.4160 -2.7264 1.9944 -9.2262 3.4148
# 2 4.4160 111.7138 48.4293 6.5571 -15.8500 -14.2162
# 3 -2.7264 48.4293 65.2093 4.4841 -12.4257 -13.0153
# 4 1.9944 6.5571 4.4841 25.6234 5.5628 -0.6295
# 5 -9.2262 -15.8500 -12.4257 5.5628 24.4579 10.2556
# 6 3.4148 -14.2162 -13.0153 -0.6295 10.2556 42.9363
#
#
#
# Elastic Compliance Matrix: (Units=1/GPa)
#
#
# Indices 1 2 3 4 5 6 
#
# 1 0.014689 -0.000554 0.002279 -0.003245 0.008195 -0.002666
# 2 -0.000554 0.013805 -0.009080 -0.002849 0.004455 0.000757
# 3 0.002279 -0.009080 0.024255 -0.003580 0.007099 0.002417
# 4 -0.003245 -0.002849 -0.003580 0.044193 -0.016081 0.002718
# 5 0.008195 0.004455 0.007099 -0.016081 0.058877 -0.011324
# 6 -0.002666 0.000757 0.002417 0.002718 -0.011324 0.027230
#
#
# Mechanical properties :
#
#
# Convention : Reuss Voigt Hill
#
# Bulk Modulus (GPa) = 26.29022 39.11540 32.70281
# Shear Modulus (GPa) = 23.75964 32.04900 27.90432
#
# Velocity S-wave (km/s) = 3.46332 4.02235 3.75326
# Velocity P-wave (km/s) = 5.40970 6.42799 5.94071
#
# Compressibility (1/GPa) = 0.03803695
#
# Stress axis : x y z
#
# Youngs Moduli (GPa) = 68.08017 72.43561 41.22786
#
# Poissons Ratio (x) = 0.04017 -0.09394
# Poissons Ratio (y) = 0.03775 0.37436
# Poissons Ratio (z) = -0.15512 0.65773
#
# Static dielectric constant tensor:
#      x y z
#    x 1.719230 0.008580 0.012930 
#    y 0.008580 1.642840 0.022240 
#    z 0.012930 0.022240 1.650210 
# 
# From -- ./inp_files/137502.got.cif
#   From: 2010.05.17/outbox.cif.g08.bks.cpg/sg2_69_cif.got.tgz:137502.got - 2010.06.03 11:33:40.
