data_PCOD9031325
_publ_section_title
;
Structure prediction by ZEFSAII (Michael W. Deem and Ramdas Pophale) SiO2 
 PCOD9031325
Probable space group: P -1
;
_chemical_formula_sum "Si O2"
_cell_formula_units_Z 16
_cell_length_a 15.534431
_cell_length_b 9.929647
_cell_length_c 18.874909
_cell_angle_alpha 24.050530
_cell_angle_beta 36.434055
_cell_angle_gamma 38.024845
_cell_volume 687.555972
_symmetry_space_group_name_H-M "P -1"
_symmetry_group_IT_number 2
_symmetry_cell_setting 'triclinic'
loop_
_space_group_symop_operation_xyz
x,y,z
-x,-y,-z
loop_
_atom_site_type_symbol
_atom_site_label
_atom_site_fract_x
_atom_site_fract_y
_atom_site_fract_z
Si Si1 0.732171 0.755865 0.154978
Si Si2 0.985209 0.850057 0.753091
Si Si3 0.171074 0.192407 0.384192
Si Si4 0.564628 0.608362 0.634973
Si Si5 0.402748 0.773988 0.332382
Si Si6 0.208637 0.651708 0.265495
Si Si7 0.308398 0.381079 0.990220
Si Si8 0.170688 0.848872 0.973837
O O1 0.869360 0.450532 0.188855
O O2 0.571122 0.678512 0.293009
O O3 0.726912 0.078942 0.952355
O O4 0.763428 0.894859 0.144663
O O5 0.022503 0.056357 0.560679
O O6 0.946634 0.118361 0.713880
O O7 0.839586 0.703803 0.904889
O O8 0.206865 0.333595 0.369184
O O9 0.166128 0.510857 0.184128
O O10 0.292949 0.893246 0.412720
O O11 0.623310 0.523839 0.557729
O O12 0.692673 0.470103 0.673029
O O13 0.429214 0.425466 0.831168
O O14 0.500000 0.000000 0.500000
O O15 0.375151 0.090430 0.142821
O O16 0.259380 0.723016 0.904328
O O17 0.000000 0.000000 0.000000
#
# Coordination Sequence:
#
# PCOD9031325 Si02
#       8
#     2   2   2   2   2   2   2   2
#     4  11  24  42  74 101 140 189 234 284 351 419
#     4  12  24  45  71 103 140 187 233 286 346 420
#     4  10  27  43  72 102 143 185 234 290 349 403
#     4  12  27  45  73 106 139 182 236 292 349 415
#     4  11  24  48  71 101 140 187 233 283 351 418
#     4  11  24  48  68 103 142 184 231 295 348 414
#     4  11  23  45  73  96 142 189 227 285 356 411
#     4  10  22  43  66 106 143 186 230 286 353 416
#
# _framework density 23.270833
#
# number of rings (size 3 to 8) (size 9 to 14) (size 15 to 20)
#    0.000    1.000    3.750    1.875    3.500    6.000 
#    0.000    0.000    0.000    0.000    0.000    0.000 
#    0.000    0.000    0.000    0.000    0.000    0.000 
#
# Total GULP energy -89563.728788 kJ/mol
# GULP energy per Si atom -5597.733049 kJ/mol
# Density = 2.321787 g / cm^3
# Si number density = 23.270833 Si / 1000 Ang^3
#
#
#
# Elastic Constant Matrix: (Units=GPa)
#
#
# Indices 1 2 3 4 5 6 
#
# 1 111.6017 64.3966 10.8792 -7.8862 -7.5543 10.2385
# 2 64.3966 181.9285 23.9720 -19.9691 -7.1325 29.9725
# 3 10.8792 23.9720 66.4291 2.6670 -5.1894 7.1527
# 4 -7.8862 -19.9691 2.6670 39.2623 0.3189 -0.4652
# 5 -7.5543 -7.1325 -5.1894 0.3189 13.7062 -2.1350
# 6 10.2385 29.9725 7.1527 -0.4652 -2.1350 42.7821
#
#
#
# Elastic Compliance Matrix: (Units=1/GPa)
#
#
# Indices 1 2 3 4 5 6 
#
# 1 0.011512 -0.003883 -0.000186 0.000318 0.004280 0.000213
# 2 -0.003883 0.008276 -0.001959 0.003504 0.000647 -0.004471
# 3 -0.000186 -0.001959 0.016385 -0.002200 0.004962 -0.001099
# 4 0.000318 0.003504 -0.002200 0.027441 0.000238 -0.001853
# 5 0.004280 0.000647 0.004962 0.000238 0.077774 0.001577
# 6 0.000213 -0.004471 -0.001099 -0.001853 0.001577 0.026698
#
#
# Mechanical properties :
#
#
# Convention : Reuss Voigt Hill
#
# Bulk Modulus (GPa) = 41.46375 62.05053 51.75714
# Shear Modulus (GPa) = 26.57033 36.53087 31.55060
#
# Velocity S-wave (km/s) = 3.38270 3.96639 3.68611
# Velocity P-wave (km/s) = 5.75443 6.90642 6.35658
#
# Compressibility (1/GPa) = 0.02411745
#
# Stress axis : x y z
#
# Youngs Moduli (GPa) = 86.86950 120.83560 61.03017
#
# Poissons Ratio (x) = 0.46917 0.01132
# Poissons Ratio (y) = 0.33729 0.11958
# Poissons Ratio (z) = 0.01612 0.23675
#
# Static dielectric constant tensor:
#      x y z
#    x 1.810720 -0.057330 0.001010 
#    y -0.057330 1.643100 -0.039390 
#    z 0.001010 -0.039390 1.894000 
# 
# From -- ./inp_files/566744.got.cif
#   From: 2010.05.17/outbox.cif.g08.bks.cpg/sg2_284_cif.got.tgz:566744.got - 2010.06.03 11:33:40.
