data_PCOD9031191
_publ_section_title
;
Structure prediction by ZEFSAII (Michael W. Deem and Ramdas Pophale) SiO2 
 PCOD9031191
Probable space group: P -1
;
_chemical_formula_sum "Si O2"
_cell_formula_units_Z 14
_cell_length_a 11.885097
_cell_length_b 5.245785
_cell_length_c 16.563671
_cell_angle_alpha 80.157492
_cell_angle_beta 33.750851
_cell_angle_gamma 82.804261
_cell_volume 565.031080
_symmetry_space_group_name_H-M "P -1"
_symmetry_group_IT_number 2
_symmetry_cell_setting 'triclinic'
loop_
_space_group_symop_operation_xyz
x,y,z
-x,-y,-z
loop_
_atom_site_type_symbol
_atom_site_label
_atom_site_fract_x
_atom_site_fract_y
_atom_site_fract_z
Si Si1 0.836883 0.309708 0.924879
Si Si2 0.438556 0.352193 0.460852
Si Si3 0.262634 0.892510 0.499300
Si Si4 0.470339 0.319862 0.914491
Si Si5 0.831983 0.042423 0.781011
Si Si6 0.636191 0.926998 0.178753
Si Si7 0.850237 0.512156 0.162953
O O1 0.910423 0.191201 0.805636
O O2 0.010290 0.511074 0.840295
O O3 0.606042 0.392908 0.042213
O O4 0.802407 0.123194 0.031548
O O5 0.500000 0.500000 0.500000
O O6 0.330492 0.070472 0.527534
O O7 0.658032 0.319731 0.289741
O O8 0.309538 0.586119 0.487221
O O9 0.024534 0.930195 0.628109
O O10 0.414671 0.012324 0.333844
O O11 0.695613 0.234890 0.800598
O O12 0.406391 0.257183 0.864034
O O13 0.322984 0.167902 0.074417
O O14 0.735757 0.779526 0.202026
O O15 0.000000 0.500000 0.000000
#
# Coordination Sequence:
#
# PCOD9031191 Si02
#       7
#     2   2   2   2   2   2   2
#     4  11  21  39  66  93 128 166 222 267 329 382
#     4  11  25  42  63  97 135 174 218 264 323 400
#     4  11  25  43  65  95 137 171 216 269 333 387
#     4  10  22  43  65  93 126 166 227 271 319 383
#     4  10  24  41  65  93 126 172 220 275 322 383
#     4  10  23  40  62  97 131 168 213 270 323 399
#     4  11  21  37  65  93 129 167 212 264 328 386
#
# _framework density 24.777398000000002
#
# number of rings (size 3 to 8) (size 9 to 14) (size 15 to 20)
#    0.000    1.429    1.429    3.000    6.000    2.857 
#    0.000    0.714    0.000    0.000    0.000    0.000 
#    0.000    0.000    0.000    0.000    0.000    0.000 
#
# Total GULP energy -78125.914315 kJ/mol
# GULP energy per Si atom -5580.422451 kJ/mol
# Density = 2.472100 g / cm^3
# Si number density = 24.777398 Si / 1000 Ang^3
#
#
#
# Elastic Constant Matrix: (Units=GPa)
#
#
# Indices 1 2 3 4 5 6 
#
# 1 60.1152 12.3681 27.9327 4.2316 -12.9233 -5.8778
# 2 12.3681 58.8314 13.5975 9.8927 -4.4304 2.7790
# 3 27.9327 13.5975 152.7846 41.2373 -29.0296 -7.0890
# 4 4.2316 9.8927 41.2373 29.8526 -3.4532 -3.6929
# 5 -12.9233 -4.4304 -29.0296 -3.4532 30.8529 10.7387
# 6 -5.8778 2.7790 -7.0890 -3.6929 10.7387 33.6180
#
#
#
# Elastic Compliance Matrix: (Units=1/GPa)
#
#
# Indices 1 2 3 4 5 6 
#
# 1 0.019870 -0.003833 -0.003475 0.004006 0.004201 0.002156
# 2 -0.003833 0.019214 0.001594 -0.008141 0.003063 -0.003795
# 3 -0.003475 0.001594 0.013954 -0.018451 0.010999 -0.003337
# 4 0.004006 -0.008141 -0.018451 0.060642 -0.012946 0.008279
# 5 0.004201 0.003063 0.010999 -0.012946 0.048414 -0.014087
# 6 0.002156 -0.003795 -0.003337 0.008279 -0.014087 0.035142
#
#
# Mechanical properties :
#
#
# Convention : Reuss Voigt Hill
#
# Bulk Modulus (GPa) = 24.03287 42.16975 33.10131
# Shear Modulus (GPa) = 22.46850 33.38688 27.92769
#
# Velocity S-wave (km/s) = 3.01460 3.67478 3.36094
# Velocity P-wave (km/s) = 4.67308 5.92129 5.33383
#
# Compressibility (1/GPa) = 0.04160967
#
# Stress axis : x y z
#
# Youngs Moduli (GPa) = 50.32769 52.04537 71.66617
#
# Poissons Ratio (x) = 0.19950 0.24900
# Poissons Ratio (y) = 0.19292 -0.11423
# Poissons Ratio (z) = 0.17486 -0.08296
#
# Static dielectric constant tensor:
#      x y z
#    x 1.987430 0.008720 0.011970 
#    y 0.008720 2.076020 0.009930 
#    z 0.011970 0.009930 1.960360 
# 
# From -- ./inp_files/24125.got.cif
#   From: 2010.05.17/outbox.cif.g08.bks.cpg/sg2_13_cif.got.tgz:24125.got - 2010.06.03 11:33:40.
