data_PCOD9031032
_publ_section_title
;
Structure prediction by ZEFSAII (Michael W. Deem and Ramdas Pophale) SiO2 
 PCOD9031032
Probable space group: P -1
;
_chemical_formula_sum "Si O2"
_cell_formula_units_Z 16
_cell_length_a 14.824302
_cell_length_b 5.716216
_cell_length_c 15.763942
_cell_angle_alpha 74.386260
_cell_angle_beta 139.944097
_cell_angle_gamma 124.265677
_cell_volume 676.765871
_symmetry_space_group_name_H-M "P -1"
_symmetry_group_IT_number 2
_symmetry_cell_setting 'triclinic'
loop_
_space_group_symop_operation_xyz
x,y,z
-x,-y,-z
loop_
_atom_site_type_symbol
_atom_site_label
_atom_site_fract_x
_atom_site_fract_y
_atom_site_fract_z
Si Si1 0.877513 0.931844 0.997903
Si Si2 0.303849 0.830733 0.844819
Si Si3 0.713685 0.303030 0.864512
Si Si4 0.661242 0.268296 0.305081
Si Si5 0.270817 0.733617 0.454049
Si Si6 0.610920 0.373928 0.608170
Si Si7 0.112828 0.100241 0.656416
Si Si8 0.980769 0.820687 0.249406
O O1 0.760203 0.566090 0.939140
O O2 0.813546 0.149686 0.928451
O O3 0.955410 0.989544 0.141918
O O4 0.000000 0.000000 0.000000
O O5 0.282828 0.832564 0.726613
O O6 0.199647 0.498424 0.836520
O O7 0.189712 0.946525 0.776914
O O8 0.500000 0.000000 0.000000
O O9 0.708382 0.452189 0.758893
O O10 0.532331 0.006910 0.791802
O O11 0.749794 0.346335 0.453669
O O12 0.713259 0.581701 0.275125
O O13 0.270733 0.539184 0.397617
O O14 0.129851 0.793090 0.327087
O O15 0.464417 0.024499 0.553595
O O16 0.500000 0.500000 0.500000
O O17 0.985747 0.080714 0.638356
O O18 0.000000 0.000000 0.500000
#
# Coordination Sequence:
#
# PCOD9031032 Si02
#       8
#     2   2   2   2   2   2   2   2
#     4  12  28  49  74 107 149 199 247 308 371 450
#     4  11  25  43  68 103 144 190 250 311 376 452
#     4  11  27  47  75 106 150 191 254 303 379 440
#     4  10  24  42  71 101 143 190 243 310 371 446
#     4  10  22  43  64 102 138 189 245 303 370 443
#     4  10  24  41  71 100 141 189 244 307 366 441
#     4  11  25  45  72 106 147 194 251 313 380 452
#     4  11  26  43  72 102 148 193 249 304 381 444
#
# _framework density 23.641853000000001
#
# number of rings (size 3 to 8) (size 9 to 14) (size 15 to 20)
#    0.000    1.250    0.000    3.375   14.000    6.000 
#    0.000    0.000    0.000    0.000    0.000    0.000 
#    0.000    0.000    0.000    0.000    0.000    0.000 
#
# Total GULP energy -89102.034645 kJ/mol
# GULP energy per Si atom -5568.877165 kJ/mol
# Density = 2.358804 g / cm^3
# Si number density = 23.641853 Si / 1000 Ang^3
#
#
#
# Elastic Constant Matrix: (Units=GPa)
#
#
# Indices 1 2 3 4 5 6 
#
# 1 106.4970 11.0952 50.2517 -16.6997 -21.1799 -7.6569
# 2 11.0952 74.2404 23.9884 4.8192 -12.8740 8.7684
# 3 50.2517 23.9884 110.4296 -10.7182 -22.1665 -12.6083
# 4 -16.6997 4.8192 -10.7182 44.4089 4.7591 4.0137
# 5 -21.1799 -12.8740 -22.1665 4.7591 41.7147 -5.5159
# 6 -7.6569 8.7684 -12.6083 4.0137 -5.5159 47.7035
#
#
#
# Elastic Compliance Matrix: (Units=1/GPa)
#
#
# Indices 1 2 3 4 5 6 
#
# 1 0.012949 -0.000095 -0.004670 0.003249 0.003829 0.001031
# 2 -0.000095 0.015623 -0.003402 -0.002562 0.002829 -0.003243
# 3 -0.004670 -0.003402 0.013252 0.001044 0.003998 0.003753
# 4 0.003249 -0.002562 0.001044 0.024519 -0.001512 -0.000970
# 5 0.003829 0.002829 0.003998 -0.001512 0.029710 0.004714
# 6 0.001031 -0.003243 0.003753 -0.000970 0.004714 0.023343
#
#
# Mechanical properties :
#
#
# Convention : Reuss Voigt Hill
#
# Bulk Modulus (GPa) = 39.23037 51.31529 45.27283
# Shear Modulus (GPa) = 34.66789 40.48754 37.57772
#
# Velocity S-wave (km/s) = 3.83349 4.14277 3.99112
# Velocity P-wave (km/s) = 6.01862 6.68100 6.35844
#
# Compressibility (1/GPa) = 0.02549046
#
# Stress axis : x y z
#
# Youngs Moduli (GPa) = 77.22882 64.00793 75.46084
#
# Poissons Ratio (x) = 0.00607 0.35241
# Poissons Ratio (y) = 0.00732 0.25669
# Poissons Ratio (z) = 0.36066 0.21773
#
# Static dielectric constant tensor:
#      x y z
#    x 1.930490 -0.141550 -0.047510 
#    y -0.141550 2.086160 0.082860 
#    z -0.047510 0.082860 1.888030 
# 
# From -- ./inp_files/459531.got.cif
#   From: 2010.05.17/outbox.cif.g08.bks.cpg/sg2_230_cif.got.tgz:459531.got - 2010.06.03 11:33:40.
