data_PCOD9031643
_publ_section_title
;
Structure prediction by ZEFSAII (Michael W. Deem and Ramdas Pophale) SiO2 
 PCOD9031643
Probable space group: P -1
;
_chemical_formula_sum "Si O2"
_cell_formula_units_Z 16
_cell_length_a 9.049177
_cell_length_b 14.493715
_cell_length_c 12.497926
_cell_angle_alpha 108.505133
_cell_angle_beta 130.993869
_cell_angle_gamma 110.383762
_cell_volume 737.820079
_symmetry_space_group_name_H-M "P -1"
_symmetry_group_IT_number 2
_symmetry_cell_setting 'triclinic'
loop_
_space_group_symop_operation_xyz
x,y,z
-x,-y,-z
loop_
_atom_site_type_symbol
_atom_site_label
_atom_site_fract_x
_atom_site_fract_y
_atom_site_fract_z
Si Si1 0.970729 0.595110 0.783280
Si Si2 0.181982 0.247689 0.012334
Si Si3 0.333979 0.663807 0.168737
Si Si4 0.285830 0.111539 0.369553
Si Si5 0.150061 0.502160 0.670578
Si Si6 0.749165 0.703340 0.682306
Si Si7 0.223411 0.836791 0.371652
Si Si8 0.260472 0.346391 0.755236
O O1 0.963352 0.693932 0.751577
O O2 0.603390 0.446710 0.584370
O O3 0.046910 0.526524 0.730880
O O4 0.219681 0.692094 0.031581
O O5 0.010833 0.270543 0.878253
O O6 0.488434 0.348689 0.128065
O O7 0.248446 0.290750 0.184548
O O8 0.970569 0.070886 0.829971
O O9 0.573881 0.805397 0.417876
O O10 0.533023 0.652276 0.208100
O O11 0.000000 0.500000 0.000000
O O12 0.157536 0.156981 0.267672
O O13 0.602462 0.186460 0.499530
O O14 0.103604 0.368835 0.614428
O O15 0.000000 0.500000 0.500000
O O16 0.009253 0.800663 0.348975
O O17 0.500000 0.000000 0.500000
O O18 0.500000 0.500000 0.000000
#
# Coordination Sequence:
#
# PCOD9031643 Si02
#       8
#     2   2   2   2   2   2   2   2
#     4  11  23  40  63  99 125 170 225 276 338 384
#     4  11  23  42  65  95 133 178 219 277 340 409
#     4  12  24  40  69  99 138 173 228 286 333 404
#     4  11  24  42  65  97 134 180 228 270 341 407
#     4  12  25  41  68  97 136 170 221 285 340 400
#     4  11  23  39  64  93 134 171 225 275 330 404
#     4  10  22  43  67  97 135 176 227 276 336 398
#     4  12  23  41  71 100 130 175 234 278 333 404
#
# _framework density 21.685504999999999
#
# number of rings (size 3 to 8) (size 9 to 14) (size 15 to 20)
#    0.000    0.750    5.000    2.625    3.500    0.000 
#    0.000    8.750    0.000    0.000    0.000    0.000 
#    0.000    0.000    0.000    0.000    0.000    0.000 
#
# Total GULP energy -89211.621895 kJ/mol
# GULP energy per Si atom -5575.726368 kJ/mol
# Density = 2.163615 g / cm^3
# Si number density = 21.685505 Si / 1000 Ang^3
#
#
#
# Elastic Constant Matrix: (Units=GPa)
#
#
# Indices 1 2 3 4 5 6 
#
# 1 112.8346 22.8565 40.6609 10.2763 18.4008 -12.4929
# 2 22.8565 102.3425 38.7930 -12.1955 13.6187 -5.7816
# 3 40.6609 38.7930 86.6819 -9.0621 9.2808 -0.6178
# 4 10.2763 -12.1955 -9.0621 40.3140 -7.4011 1.1791
# 5 18.4008 13.6187 9.2808 -7.4011 36.3455 -5.4322
# 6 -12.4929 -5.7816 -0.6178 1.1791 -5.4322 28.0706
#
#
#
# Elastic Compliance Matrix: (Units=1/GPa)
#
#
# Indices 1 2 3 4 5 6 
#
# 1 0.013036 -0.000366 -0.005954 -0.005909 -0.005430 0.004793
# 2 -0.000366 0.012391 -0.004859 0.002239 -0.002507 0.001703
# 3 -0.005954 -0.004859 0.016813 0.004085 0.000883 -0.003281
# 4 -0.005909 0.002239 0.004085 0.029206 0.006758 -0.001998
# 5 -0.005430 -0.002507 0.000883 0.006758 0.032824 0.003155
# 6 0.004793 0.001703 -0.003281 -0.001998 0.003155 0.038731
#
#
# Mechanical properties :
#
#
# Convention : Reuss Voigt Hill
#
# Bulk Modulus (GPa) = 50.29343 56.27552 53.28448
# Shear Modulus (GPa) = 29.07196 34.24926 31.66061
#
# Velocity S-wave (km/s) = 3.66542 3.97843 3.82513
# Velocity P-wave (km/s) = 6.41531 6.86374 6.64331
#
# Compressibility (1/GPa) = 0.01988331
#
# Stress axis : x y z
#
# Youngs Moduli (GPa) = 76.70873 80.70140 59.47736
#
# Poissons Ratio (x) = 0.02950 0.35411
# Poissons Ratio (y) = 0.02804 0.28903
# Poissons Ratio (z) = 0.45671 0.39216
#
# Static dielectric constant tensor:
#      x y z
#    x 1.611840 0.120160 -0.191320 
#    y 0.120160 1.831380 0.077460 
#    z -0.191320 0.077460 1.648720 
# 
# From -- ./inp_files/504164.got.cif
#   From: 2010.05.17/outbox.cif.g08.bks.cpg/sg2_253_cif.got.tgz:504164.got - 2010.06.03 11:33:40.
