data_PCOD9031378
_publ_section_title
;
Structure prediction by ZEFSAII (Michael W. Deem and Ramdas Pophale) SiO2 
 PCOD9031378
Probable space group: P -1
;
_chemical_formula_sum "Si O2"
_cell_formula_units_Z 16
_cell_length_a 21.186227
_cell_length_b 18.045938
_cell_length_c 11.350242
_cell_angle_alpha 36.599978
_cell_angle_beta 132.772691
_cell_angle_gamma 160.677931
_cell_volume 785.377015
_symmetry_space_group_name_H-M "P -1"
_symmetry_group_IT_number 2
_symmetry_cell_setting 'triclinic'
loop_
_space_group_symop_operation_xyz
x,y,z
-x,-y,-z
loop_
_atom_site_type_symbol
_atom_site_label
_atom_site_fract_x
_atom_site_fract_y
_atom_site_fract_z
Si Si1 0.678614 0.390218 0.958545
Si Si2 0.266224 0.714454 0.273376
Si Si3 0.705380 0.676558 0.770817
Si Si4 0.417810 0.955439 0.570640
Si Si5 0.208493 0.193840 0.021037
Si Si6 0.481750 0.620119 0.595871
Si Si7 0.826176 0.141372 0.542094
Si Si8 0.156246 0.371802 0.384519
O O1 0.672632 0.508342 0.873050
O O2 0.833960 0.600175 0.778508
O O3 0.724370 0.334243 0.173791
O O4 0.445290 0.051135 0.049975
O O5 0.200443 0.557363 0.272836
O O6 0.059761 0.488981 0.364078
O O7 0.384185 0.772503 0.437096
O O8 0.551781 0.587427 0.660115
O O9 0.683976 0.629750 0.944014
O O10 0.939773 0.031770 0.589925
O O11 0.292807 0.918159 0.449476
O O12 0.500000 0.000000 0.500000
O O13 0.348098 0.407742 0.812855
O O14 0.166449 0.990524 0.233879
O O15 0.000000 0.000000 0.000000
O O16 0.342181 0.524520 0.462010
O O17 0.689121 0.955323 0.485616
#
# Coordination Sequence:
#
# PCOD9031378 Si02
#       8
#     2   2   2   2   2   2   2   2
#     4  10  26  43  63  93 137 169 211 272 328 377
#     4  10  22  43  66  94 128 170 218 260 317 389
#     4  11  23  42  65  97 132 167 213 275 325 381
#     4  10  25  43  65  93 132 172 210 268 327 387
#     4  11  22  38  69 103 126 168 218 270 323 383
#     4  11  22  38  69  98 123 169 216 270 320 386
#     4  11  21  41  68  97 127 170 222 262 324 382
#     4  12  21  46  66  92 128 172 222 268 314 387
#
# _framework density 20.372382000000002
#
# number of rings (size 3 to 8) (size 9 to 14) (size 15 to 20)
#    0.750    0.500    5.000    2.250    3.500    1.000 
#    4.500    1.250    0.000    0.000    0.000    0.000 
#    0.000    0.000    0.000    0.000    0.000    0.000 
#
# Total GULP energy -89358.138436 kJ/mol
# GULP energy per Si atom -5584.883652 kJ/mol
# Density = 2.032601 g / cm^3
# Si number density = 20.372382 Si / 1000 Ang^3
#
#
#
# Elastic Constant Matrix: (Units=GPa)
#
#
# Indices 1 2 3 4 5 6 
#
# 1 133.8439 24.0271 28.1369 7.9928 25.5036 7.6184
# 2 24.0271 34.9727 11.4542 -5.9558 8.6783 23.4295
# 3 28.1369 11.4542 51.8833 -0.7760 -1.4970 -8.5989
# 4 7.9928 -5.9558 -0.7760 28.8454 -9.8533 0.9911
# 5 25.5036 8.6783 -1.4970 -9.8533 28.9596 -3.6681
# 6 7.6184 23.4295 -8.5989 0.9911 -3.6681 34.5522
#
#
#
# Elastic Compliance Matrix: (Units=1/GPa)
#
#
# Indices 1 2 3 4 5 6 
#
# 1 0.013448 0.002896 -0.010068 -0.009052 -0.017455 -0.009028
# 2 0.002896 0.128763 -0.048995 0.009734 -0.053801 -0.106136
# 3 -0.010068 -0.048995 0.044864 0.003578 0.033425 0.050054
# 4 -0.009052 0.009734 0.003578 0.046444 0.020680 -0.002851
# 5 -0.017455 -0.053801 0.033425 0.020680 0.081979 0.056759
# 6 -0.009028 -0.106136 0.050054 -0.002851 0.056759 0.121466
#
#
# Mechanical properties :
#
#
# Convention : Reuss Voigt Hill
#
# Bulk Modulus (GPa) = 13.37920 38.65957 26.01938
# Shear Modulus (GPa) = 8.70760 28.94356 18.82558
#
# Velocity S-wave (km/s) = 2.06966 3.77334 3.04316
# Velocity P-wave (km/s) = 3.50612 6.16456 5.01471
#
# Compressibility (1/GPa) = 0.07474291
#
# Stress axis : x y z
#
# Youngs Moduli (GPa) = 74.35833 7.76620 22.28952
#
# Poissons Ratio (x) = -0.02249 0.22441
# Poissons Ratio (y) = -0.21536 1.09207
# Poissons Ratio (z) = 0.74864 0.38050
#
# Static dielectric constant tensor:
#      x y z
#    x 1.711640 -0.000520 0.016430 
#    y -0.000520 1.738360 0.005030 
#    z 0.016430 0.005030 1.732970 
# 
# From -- ./inp_files/472193.got.cif
#   From: 2010.05.17/outbox.cif.g08.bks.cpg/sg2_237_cif.got.tgz:472193.got - 2010.06.03 11:33:40.
