data_PCOD9031167
_publ_section_title
;
Structure prediction by ZEFSAII (Michael W. Deem and Ramdas Pophale) SiO2 
 PCOD9031167
Probable space group: P -1
;
_chemical_formula_sum "Si O2"
_cell_formula_units_Z 16
_cell_length_a 16.342438
_cell_length_b 9.958505
_cell_length_c 8.162464
_cell_angle_alpha 82.472853
_cell_angle_beta 73.386988
_cell_angle_gamma 35.991163
_cell_volume 736.098681
_symmetry_space_group_name_H-M "P -1"
_symmetry_group_IT_number 2
_symmetry_cell_setting 'triclinic'
loop_
_space_group_symop_operation_xyz
x,y,z
-x,-y,-z
loop_
_atom_site_type_symbol
_atom_site_label
_atom_site_fract_x
_atom_site_fract_y
_atom_site_fract_z
Si Si1 0.166047 0.839241 0.766489
Si Si2 0.549050 0.614533 0.185018
Si Si3 0.417019 0.158687 0.681808
Si Si4 0.112045 0.205988 0.853697
Si Si5 0.917467 0.460091 0.244716
Si Si6 0.938854 0.983256 0.681851
Si Si7 0.357933 0.601856 0.364647
Si Si8 0.432545 0.856948 0.862841
O O1 0.278091 0.644132 0.872281
O O2 0.269536 0.699989 0.567668
O O3 0.025151 0.926888 0.800487
O O4 0.117525 0.056400 0.783285
O O5 0.528708 0.771075 0.286694
O O6 0.461519 0.598798 0.306317
O O7 0.485983 0.730326 0.024668
O O8 0.246104 0.386345 0.696887
O O9 0.500000 0.000000 0.500000
O O10 0.433944 0.017117 0.827838
O O11 0.089000 0.372417 0.734066
O O12 0.268605 0.022813 0.883604
O O13 0.988428 0.363493 0.038675
O O14 0.012792 0.234662 0.334188
O O15 0.765463 0.219009 0.733231
O O16 0.000000 0.000000 0.500000
O O17 0.457867 0.345795 0.303031
#
# Coordination Sequence:
#
# PCOD9031167 Si02
#       8
#     2   2   2   2   2   2   2   2
#     4  11  23  41  66 100 130 179 230 267 339 395
#     4  12  23  40  68 102 131 175 226 273 332 399
#     4  11  25  43  70  98 135 174 224 277 336 400
#     4  10  23  41  68  95 132 180 221 277 332 401
#     4  10  22  43  65  90 134 173 220 269 336 396
#     4  10  23  42  63  93 136 173 214 280 329 396
#     4  11  24  41  67  99 139 170 225 280 327 398
#     4  11  24  41  66 102 138 172 220 280 336 389
#
# _framework density 21.736214
#
# number of rings (size 3 to 8) (size 9 to 14) (size 15 to 20)
#    0.000    1.250    2.500    2.625    7.000    1.500 
#    0.000    5.000    0.000    0.000    0.000    0.000 
#    0.000    0.000    0.000    0.000    0.000    0.000 
#
# Total GULP energy -89500.852646 kJ/mol
# GULP energy per Si atom -5593.803290 kJ/mol
# Density = 2.168674 g / cm^3
# Si number density = 21.736214 Si / 1000 Ang^3
#
#
#
# Elastic Constant Matrix: (Units=GPa)
#
#
# Indices 1 2 3 4 5 6 
#
# 1 110.3639 43.2681 -4.0063 9.1800 5.2859 2.2393
# 2 43.2681 100.1391 9.2256 7.0321 -0.6273 2.9344
# 3 -4.0063 9.2256 50.4395 9.8113 2.9403 -1.6570
# 4 9.1800 7.0321 9.8113 42.4992 6.6787 -5.7283
# 5 5.2859 -0.6273 2.9403 6.6787 17.0860 9.4434
# 6 2.2393 2.9344 -1.6570 -5.7283 9.4434 52.7816
#
#
#
# Elastic Compliance Matrix: (Units=1/GPa)
#
#
# Indices 1 2 3 4 5 6 
#
# 1 0.011441 -0.005088 0.002369 -0.001538 -0.003739 0.000374
# 2 -0.005088 0.012578 -0.002748 -0.001109 0.003689 -0.001350
# 3 0.002369 -0.002748 0.021594 -0.004412 -0.003290 0.000840
# 4 -0.001538 -0.001109 -0.004412 0.027743 -0.012549 0.005244
# 5 -0.003739 0.003689 -0.003290 -0.012549 0.073383 -0.014641
# 6 0.000374 -0.001350 0.000840 0.005244 -0.014641 0.022220
#
#
# Mechanical properties :
#
#
# Convention : Reuss Voigt Hill
#
# Bulk Modulus (GPa) = 28.83632 39.76858 34.30245
# Shear Modulus (GPa) = 26.11590 36.63703 31.37647
#
# Velocity S-wave (km/s) = 3.47002 4.10997 3.80348
# Velocity P-wave (km/s) = 5.41756 6.39204 5.92487
#
# Compressibility (1/GPa) = 0.03467849
#
# Stress axis : x y z
#
# Youngs Moduli (GPa) = 87.40355 79.50165 46.30887
#
# Poissons Ratio (x) = 0.40451 -0.10970
# Poissons Ratio (y) = 0.44472 0.12727
# Poissons Ratio (z) = -0.20705 0.21850
#
# Static dielectric constant tensor:
#      x y z
#    x 1.778520 -0.000810 0.011730 
#    y -0.000810 1.807140 -0.041920 
#    z 0.011730 -0.041920 1.831950 
# 
# From -- ./inp_files/298495.got.cif
#   From: 2010.05.17/outbox.cif.g08.bks.cpg/sg2_150_cif.got.tgz:298495.got - 2010.06.03 11:33:40.
