data_PCOD9031397
_publ_section_title
;
Structure prediction by ZEFSAII (Michael W. Deem and Ramdas Pophale) SiO2 
 PCOD9031397
Probable space group: P -1
;
_chemical_formula_sum "Si O2"
_cell_formula_units_Z 15
_cell_length_a 17.288293
_cell_length_b 8.308063
_cell_length_c 20.083240
_cell_angle_alpha 58.134632
_cell_angle_beta 21.248999
_cell_angle_gamma 47.695785
_cell_volume 718.078610
_symmetry_space_group_name_H-M "P -1"
_symmetry_group_IT_number 2
_symmetry_cell_setting 'triclinic'
loop_
_space_group_symop_operation_xyz
x,y,z
-x,-y,-z
loop_
_atom_site_type_symbol
_atom_site_label
_atom_site_fract_x
_atom_site_fract_y
_atom_site_fract_z
Si Si1 0.386783 0.974609 0.344438
Si Si2 0.681730 0.342771 0.449528
Si Si3 0.499533 0.734534 0.620002
Si Si4 0.549371 0.311875 0.177536
Si Si5 0.500000 0.000000 0.000000
Si Si6 0.871507 0.147540 0.638296
Si Si7 0.920867 0.790834 0.222786
Si Si8 0.799259 0.704780 0.958835
O O1 0.460620 0.151382 0.261477
O O2 0.106973 0.103345 0.504203
O O3 0.367331 0.849740 0.451362
O O4 0.610303 0.783379 0.156315
O O5 0.500000 0.500000 0.500000
O O6 0.597227 0.508909 0.546039
O O7 0.982483 0.246088 0.215598
O O8 0.422370 0.711301 0.760218
O O9 0.740041 0.760724 0.423666
O O10 0.263949 0.964573 0.720701
O O11 0.330065 0.579574 0.276293
O O12 0.830035 0.232658 0.940672
O O13 0.377948 0.158405 0.993688
O O14 0.279574 0.945558 0.185099
O O15 0.000000 0.000000 0.500000
O O16 0.039945 0.571467 0.124903
#
# Coordination Sequence:
#
# PCOD9031397 Si02
#       8
#     2   2   2   2   1   2   2   2
#     4  12  27  43  66 103 140 172 222 284 340 402
#     4  11  26  45  70 100 139 182 226 277 336 402
#     4  10  24  43  69  96 133 180 224 278 327 402
#     4  12  26  41  69  99 137 175 219 279 339 402
#     4  12  22  44  78  96 124 178 234 276 330 408
#     4  12  24  46  70  97 131 175 226 279 340 404
#     4  10  22  43  66  95 131 174 228 266 332 396
#     4  11  24  44  73 101 130 183 229 275 340 403
#
# _framework density 20.889077
#
# number of rings (size 3 to 8) (size 9 to 14) (size 15 to 20)
#    0.000    0.800    4.000    2.400    9.333    0.533 
#    0.000    0.667    0.000    0.000    0.000    0.000 
#    0.000    0.000    0.000    0.000    0.000    0.000 
#
# Total GULP energy -83682.279310 kJ/mol
# GULP energy per Si atom -5578.818621 kJ/mol
# Density = 2.084153 g / cm^3
# Si number density = 20.889077 Si / 1000 Ang^3
#
#
#
# Elastic Constant Matrix: (Units=GPa)
#
#
# Indices 1 2 3 4 5 6 
#
# 1 41.0385 2.8769 12.5225 -6.7825 -20.4174 3.5001
# 2 2.8769 97.5333 48.5775 -20.9493 -4.5026 10.4639
# 3 12.5225 48.5775 121.4052 -13.1464 -32.0248 7.2100
# 4 -6.7825 -20.9493 -13.1464 30.9802 2.5214 -7.8602
# 5 -20.4174 -4.5026 -32.0248 2.5214 28.0420 -5.2311
# 6 3.5001 10.4639 7.2100 -7.8602 -5.2311 34.1291
#
#
#
# Elastic Compliance Matrix: (Units=1/GPa)
#
#
# Indices 1 2 3 4 5 6 
#
# 1 0.042897 -0.001414 0.007232 0.008981 0.038932 0.002542
# 2 -0.001414 0.015250 -0.007108 0.006956 -0.007813 -0.002624
# 3 0.007232 -0.007108 0.016615 0.002457 0.023263 0.002059
# 4 0.008981 0.006956 0.002457 0.041145 0.008094 0.007144
# 5 0.038932 -0.007813 0.023263 0.008094 0.090307 0.009194
# 6 0.002542 -0.002624 0.002059 0.007144 0.009194 0.032464
#
#
# Mechanical properties :
#
#
# Convention : Reuss Voigt Hill
#
# Bulk Modulus (GPa) = 13.85375 43.10340 28.47858
# Shear Modulus (GPa) = 18.84533 31.69693 25.27113
#
# Velocity S-wave (km/s) = 3.00686 3.89960 3.48196
# Velocity P-wave (km/s) = 4.32451 6.39961 5.46152
#
# Compressibility (1/GPa) = 0.07218264
#
# Stress axis : x y z
#
# Youngs Moduli (GPa) = 23.31183 65.57441 60.18637
#
# Poissons Ratio (x) = 0.09272 -0.43529
# Poissons Ratio (y) = 0.03296 0.42780
# Poissons Ratio (z) = -0.16860 0.46610
#
# Static dielectric constant tensor:
#      x y z
#    x 1.761130 0.048970 -0.029060 
#    y 0.048970 1.737580 -0.013470 
#    z -0.029060 -0.013470 1.754090 
# 
# From -- ./inp_files/348264.got.cif
#   From: 2010.05.17/outbox.cif.g08.bks.cpg/sg2_175_cif.got.tgz:348264.got - 2010.06.03 11:33:40.
