data_PCOD9031140
_publ_section_title
;
Structure prediction by ZEFSAII (Michael W. Deem and Ramdas Pophale) SiO2 
 PCOD9031140
Probable space group: P -1
;
_chemical_formula_sum "Si O2"
_cell_formula_units_Z 15
_cell_length_a 18.986306
_cell_length_b 6.505172
_cell_length_c 8.861350
_cell_angle_alpha 109.488997
_cell_angle_beta 143.426045
_cell_angle_gamma 78.439669
_cell_volume 610.320482
_symmetry_space_group_name_H-M "P -1"
_symmetry_group_IT_number 2
_symmetry_cell_setting 'triclinic'
loop_
_space_group_symop_operation_xyz
x,y,z
-x,-y,-z
loop_
_atom_site_type_symbol
_atom_site_label
_atom_site_fract_x
_atom_site_fract_y
_atom_site_fract_z
Si Si1 0.500000 0.000000 0.000000
Si Si2 0.879892 0.581430 0.251427
Si Si3 0.352853 0.319373 0.010940
Si Si4 0.612343 0.283081 0.019827
Si Si5 0.797527 0.128181 0.839390
Si Si6 0.811873 0.356550 0.615078
Si Si7 0.372131 0.069763 0.261209
Si Si8 0.052228 0.210329 0.888272
O O1 0.402817 0.129942 0.955776
O O2 0.503751 0.168741 0.902085
O O3 0.911273 0.761020 0.217470
O O4 0.000000 0.500000 0.500000
O O5 0.788953 0.666346 0.235142
O O6 0.811513 0.361958 0.004392
O O7 0.377403 0.286900 0.223322
O O8 0.420358 0.540189 0.112309
O O9 0.704887 0.389213 0.329254
O O10 0.679540 0.115215 0.994201
O O11 0.765716 0.189447 0.630029
O O12 0.704464 0.958826 0.727812
O O13 0.917882 0.014475 0.039318
O O14 0.916051 0.249678 0.683330
O O15 0.872125 0.584364 0.845725
O O16 0.500000 0.000000 0.500000
#
# Coordination Sequence:
#
# PCOD9031140 Si02
#       8
#     1   2   2   2   2   2   2   2
#     4  10  26  42  66  98 138 182 234 284 342 406
#     4  11  23  41  72 106 143 182 231 289 354 426
#     4  11  23  47  68 103 141 179 237 288 353 418
#     4  11  24  47  71 101 136 182 232 295 352 418
#     4  11  23  43  67 103 138 186 233 287 352 418
#     4  10  24  42  70  99 142 182 235 288 355 421
#     4  11  26  45  70 100 137 183 240 293 351 415
#     4  10  22  43  65 102 139 186 228 289 352 419
#
# _framework density 24.577251
#
# number of rings (size 3 to 8) (size 9 to 14) (size 15 to 20)
#    0.000    1.333    2.667    1.600    3.733    5.333 
#    2.400    0.000    0.000    0.000    0.000    0.000 
#    0.000    0.000    0.000    0.000    0.000    0.000 
#
# Total GULP energy -83678.225746 kJ/mol
# GULP energy per Si atom -5578.548383 kJ/mol
# Density = 2.452131 g / cm^3
# Si number density = 24.577251 Si / 1000 Ang^3
#
#
#
# Elastic Constant Matrix: (Units=GPa)
#
#
# Indices 1 2 3 4 5 6 
#
# 1 159.9900 42.1357 14.5419 -8.4248 -4.1739 9.4518
# 2 42.1357 105.5289 20.9584 -26.8056 -8.0148 11.2996
# 3 14.5419 20.9584 75.9087 -15.1288 -3.3611 11.9668
# 4 -8.4248 -26.8056 -15.1288 27.8191 -0.7087 -7.2670
# 5 -4.1739 -8.0148 -3.3611 -0.7087 20.7118 -21.1087
# 6 9.4518 11.2996 11.9668 -7.2670 -21.1087 61.6899
#
#
#
# Elastic Compliance Matrix: (Units=1/GPa)
#
#
# Indices 1 2 3 4 5 6 
#
# 1 0.007059 -0.002991 -0.000701 -0.001353 -0.000711 -0.000800
# 2 -0.002991 0.014592 -0.000767 0.013476 0.007513 0.002093
# 3 -0.000701 -0.000767 0.015182 0.006871 0.000517 -0.001711
# 4 -0.001353 0.013476 0.006871 0.054926 0.016687 0.008586
# 5 -0.000711 0.007513 0.000517 0.016687 0.080321 0.028082
# 6 -0.000800 0.002093 -0.001711 0.008586 0.028082 0.026902
#
#
# Mechanical properties :
#
#
# Convention : Reuss Voigt Hill
#
# Bulk Modulus (GPa) = 35.82522 55.18886 45.50704
# Shear Modulus (GPa) = 23.01951 39.63025 31.32488
#
# Velocity S-wave (km/s) = 3.06374 4.01992 3.57395
# Velocity P-wave (km/s) = 5.20803 6.63705 5.96548
#
# Compressibility (1/GPa) = 0.02791330
#
# Stress axis : x y z
#
# Youngs Moduli (GPa) = 141.65397 68.52875 65.86775
#
# Poissons Ratio (x) = 0.20500 0.04620
# Poissons Ratio (y) = 0.42374 0.05055
# Poissons Ratio (z) = 0.09937 0.05259
#
# Static dielectric constant tensor:
#      x y z
#    x 1.941450 0.025170 0.029370 
#    y 0.025170 1.979810 0.043150 
#    z 0.029370 0.043150 1.980110 
# 
# From -- ./inp_files/339901.got.cif
#   From: 2010.05.17/outbox.cif.g08.bks.cpg/sg2_170_cif.got.tgz:339901.got - 2010.06.03 11:33:40.
