data_PCOD9031844
_publ_section_title
;
Structure prediction by ZEFSAII (Michael W. Deem and Ramdas Pophale) SiO2 
 PCOD9031844
Probable space group: P -1
;
_chemical_formula_sum "Si O2"
_cell_formula_units_Z 10
_cell_length_a 10.517202
_cell_length_b 15.522725
_cell_length_c 13.891608
_cell_angle_alpha 161.403032
_cell_angle_beta 31.543342
_cell_angle_gamma 148.557112
_cell_volume 364.074131
_symmetry_space_group_name_H-M "P -1"
_symmetry_group_IT_number 2
_symmetry_cell_setting 'triclinic'
loop_
_space_group_symop_operation_xyz
x,y,z
-x,-y,-z
loop_
_atom_site_type_symbol
_atom_site_label
_atom_site_fract_x
_atom_site_fract_y
_atom_site_fract_z
Si Si1 0.202138 0.217397 0.465445
Si Si2 0.760313 0.322258 0.228827
Si Si3 0.526706 0.628281 0.223057
Si Si4 0.685341 0.229488 0.827581
Si Si5 0.830082 0.714997 0.761833
O O1 0.466936 0.223173 0.350323
O O2 0.246472 0.502567 0.677930
O O3 0.948540 0.208280 0.678883
O O4 0.156173 0.954362 0.143132
O O5 0.915701 0.546298 0.442209
O O6 0.274089 0.502898 0.315460
O O7 0.600292 0.960549 0.528073
O O8 0.500000 0.500000 0.000000
O O9 0.719505 0.504944 0.031345
O O10 0.430424 0.218755 0.038798
O O11 0.000000 0.000000 0.000000
#
# Coordination Sequence:
#
# PCOD9031844 Si02
#       5
#     2   2   2   2   2
#     4  10  22  43  68  96 128 179 213 270 327 396
#     4  10  23  42  68  96 134 168 221 269 330 384
#     4  10  23  41  63  95 130 178 219 260 329 390
#     4  10  23  40  65  95 126 177 217 266 327 386
#     4  10  26  43  65 101 133 173 216 280 321 387
#
# _framework density 27.466933000000001
#
# number of rings (size 3 to 8) (size 9 to 14) (size 15 to 20)
#    1.200    0.800    0.000    1.800    5.600    3.200 
#    0.000    1.000    0.000    0.000    0.000    0.000 
#    0.000    0.000    0.000    0.000    0.000    0.000 
#
# Total GULP energy -55959.834128 kJ/mol
# GULP energy per Si atom -5595.983413 kJ/mol
# Density = 2.740442 g / cm^3
# Si number density = 27.466933 Si / 1000 Ang^3
#
#
#
# Elastic Constant Matrix: (Units=GPa)
#
#
# Indices 1 2 3 4 5 6 
#
# 1 77.4068 8.7026 26.9683 -2.6806 1.1304 6.3303
# 2 8.7026 107.4667 35.3459 -10.9841 -5.1069 21.1278
# 3 26.9683 35.3459 181.6463 10.3415 26.4216 17.1871
# 4 -2.6806 -10.9841 10.3415 45.8000 16.4554 -12.8275
# 5 1.1304 -5.1069 26.4216 16.4554 59.4327 2.1030
# 6 6.3303 21.1278 17.1871 -12.8275 2.1030 26.8926
#
#
#
# Elastic Compliance Matrix: (Units=1/GPa)
#
#
# Indices 1 2 3 4 5 6 
#
# 1 0.013766 -0.000044 -0.001982 0.000581 0.000515 -0.001702
# 2 -0.000044 0.011591 -0.001798 0.000217 0.002019 -0.008002
# 3 -0.001982 -0.001798 0.006958 -0.002182 -0.002485 -0.003414
# 4 0.000581 0.000217 -0.002182 0.029648 -0.007792 0.015838
# 5 0.000515 0.002019 -0.002485 -0.007792 0.020444 -0.005435
# 6 -0.001702 -0.008002 -0.003414 0.015838 -0.005435 0.054034
#
#
# Mechanical properties :
#
#
# Convention : Reuss Voigt Hill
#
# Bulk Modulus (GPa) = 40.54043 56.50592 48.52318
# Shear Modulus (GPa) = 32.82732 46.12526 39.47629
#
# Velocity S-wave (km/s) = 3.46086 4.10237 3.79519
# Velocity P-wave (km/s) = 5.54633 6.56173 6.07528
#
# Compressibility (1/GPa) = 0.02466673
#
# Stress axis : x y z
#
# Youngs Moduli (GPa) = 72.64223 86.27125 143.71844
#
# Poissons Ratio (x) = 0.00383 0.28486
# Poissons Ratio (y) = 0.00323 0.25839
# Poissons Ratio (z) = 0.14398 0.15510
#
# Static dielectric constant tensor:
#      x y z
#    x 2.085130 0.087710 -0.042840 
#    y 0.087710 2.274030 -0.102120 
#    z -0.042840 -0.102120 2.082850 
# 
# From -- ./inp_files/15583.got.cif
#   From: 2010.05.17/outbox.cif.g08.bks.cpg/sg2_8_cif.got.tgz:15583.got - 2010.06.03 11:33:40.
