data_PCOD9031184
_publ_section_title
;
Structure prediction by ZEFSAII (Michael W. Deem and Ramdas Pophale) SiO2 
 PCOD9031184
Probable space group: P -1
;
_chemical_formula_sum "Si O2"
_cell_formula_units_Z 12
_cell_length_a 11.513619
_cell_length_b 14.506436
_cell_length_c 11.901329
_cell_angle_alpha 147.752800
_cell_angle_beta 135.974452
_cell_angle_gamma 28.365294
_cell_volume 501.401921
_symmetry_space_group_name_H-M "P -1"
_symmetry_group_IT_number 2
_symmetry_cell_setting 'triclinic'
loop_
_space_group_symop_operation_xyz
x,y,z
-x,-y,-z
loop_
_atom_site_type_symbol
_atom_site_label
_atom_site_fract_x
_atom_site_fract_y
_atom_site_fract_z
Si Si1 0.727881 0.672862 0.033622
Si Si2 0.228404 0.133292 0.069425
Si Si3 0.111335 0.819350 0.284556
Si Si4 0.479102 0.347253 0.747046
Si Si5 0.810282 0.714723 0.371024
Si Si6 0.986017 0.808518 0.779837
O O1 0.727149 0.470760 0.862203
O O2 0.698036 0.807176 0.264809
O O3 0.000000 0.500000 0.000000
O O4 0.520682 0.888656 0.023983
O O5 0.153183 0.151785 0.165457
O O6 0.078961 0.422219 0.240000
O O7 0.099794 0.096631 0.857207
O O8 0.273642 0.827258 0.332400
O O9 0.000000 0.000000 0.500000
O O10 0.262201 0.531618 0.695098
O O11 0.859494 0.842188 0.613343
O O12 0.500000 0.500000 0.000000
O O13 0.634394 0.719008 0.323682
O O14 0.000000 0.000000 0.000000
#
# Coordination Sequence:
#
# PCOD9031184 Si02
#       6
#     2   2   2   2   2   2
#     4  11  25  43  65  97 138 178 229 279 336 414
#     4  10  22  43  65  92 134 182 227 276 335 404
#     4  11  25  42  67 101 139 181 222 281 343 399
#     4  11  19  44  70  93 137 179 227 277 329 407
#     4  10  24  44  67 100 132 179 231 279 339 398
#     4  11  23  39  68 101 134 172 228 288 336 401
#
# _framework density 23.932896
#
# number of rings (size 3 to 8) (size 9 to 14) (size 15 to 20)
#    0.000    1.333    5.000    3.000    0.000    9.333 
#    3.000    0.000    0.000    0.000    0.000    0.000 
#    0.000    0.000    0.000    0.000    0.000    0.000 
#
# Total GULP energy -67166.486323 kJ/mol
# GULP energy per Si atom -5597.207194 kJ/mol
# Density = 2.387842 g / cm^3
# Si number density = 23.932896 Si / 1000 Ang^3
#
#
#
# Elastic Constant Matrix: (Units=GPa)
#
#
# Indices 1 2 3 4 5 6 
#
# 1 91.7638 24.2203 43.1111 -1.6965 -0.2336 -10.1471
# 2 24.2203 196.1870 48.3191 -2.2084 -2.6881 -14.6844
# 3 43.1111 48.3191 165.2068 -31.3590 -6.0693 -13.2493
# 4 -1.6965 -2.2084 -31.3590 37.5797 -2.1131 -4.6381
# 5 -0.2336 -2.6881 -6.0693 -2.1131 48.3410 4.9399
# 6 -10.1471 -14.6844 -13.2493 -4.6381 4.9399 38.1653
#
#
#
# Elastic Compliance Matrix: (Units=1/GPa)
#
#
# Indices 1 2 3 4 5 6 
#
# 1 0.012846 -0.000633 -0.003458 -0.002160 -0.000685 0.001798
# 2 -0.000633 0.005646 -0.001530 -0.000807 -0.000058 0.001382
# 3 -0.003458 -0.001530 0.009105 0.007717 0.001129 0.002445
# 4 -0.002160 -0.000807 0.007717 0.033705 0.001809 0.005657
# 5 -0.000685 -0.000058 0.001129 0.001809 0.021139 -0.002329
# 6 0.001798 0.001382 0.002445 0.005657 -0.002329 0.029049
#
#
# Mechanical properties :
#
#
# Convention : Reuss Voigt Hill
#
# Bulk Modulus (GPa) = 61.14669 76.05098 68.59883
# Shear Modulus (GPa) = 39.00607 47.31766 43.16187
#
# Velocity S-wave (km/s) = 4.04147 4.45128 4.25132
# Velocity P-wave (km/s) = 6.88351 7.63310 7.26798
#
# Compressibility (1/GPa) = 0.01635411
#
# Stress axis : x y z
#
# Youngs Moduli (GPa) = 77.84269 177.12064 109.82520
#
# Poissons Ratio (x) = 0.11220 0.37977
# Poissons Ratio (y) = 0.04931 0.16807
# Poissons Ratio (z) = 0.26918 0.27106
#
# Static dielectric constant tensor:
#      x y z
#    x 1.918320 -0.024020 0.126050 
#    y -0.024020 1.761620 0.317580 
#    z 0.126050 0.317580 1.725080 
# 
# From -- ./inp_files/456496.got.cif
#   From: 2010.05.17/outbox.cif.g08.bks.cpg/sg2_229_cif.got.tgz:456496.got - 2010.06.03 11:33:40.
