data_PCOD9031092
_publ_section_title
;
Structure prediction by ZEFSAII (Michael W. Deem and Ramdas Pophale) SiO2 
 PCOD9031092
Probable space group: P -1
;
_chemical_formula_sum "Si O2"
_cell_formula_units_Z 16
_cell_length_a 19.003878
_cell_length_b 13.066465
_cell_length_c 8.716113
_cell_angle_alpha 96.325488
_cell_angle_beta 118.465930
_cell_angle_gamma 30.448059
_cell_volume 711.354901
_symmetry_space_group_name_H-M "P -1"
_symmetry_group_IT_number 2
_symmetry_cell_setting 'triclinic'
loop_
_space_group_symop_operation_xyz
x,y,z
-x,-y,-z
loop_
_atom_site_type_symbol
_atom_site_label
_atom_site_fract_x
_atom_site_fract_y
_atom_site_fract_z
Si Si1 0.647566 0.265780 0.992916
Si Si2 0.475621 0.718975 0.402203
Si Si3 0.734252 0.019960 0.297560
Si Si4 0.001918 0.621766 0.009992
Si Si5 0.108661 0.628413 0.846444
Si Si6 0.307062 0.597859 0.124063
Si Si7 0.623489 0.761368 0.501328
Si Si8 0.502945 0.882340 0.045875
O O1 0.787428 0.026716 0.207208
O O2 0.500000 0.500000 0.000000
O O3 0.504278 0.364499 0.750924
O O4 0.761852 0.211816 0.991585
O O5 0.581743 0.525265 0.614719
O O6 0.591482 0.689751 0.534958
O O7 0.226746 0.051244 0.197116
O O8 0.897037 0.848753 0.573365
O O9 0.506369 0.323969 0.181465
O O10 0.696750 0.948334 0.188298
O O11 0.129535 0.504506 0.273987
O O12 0.135353 0.510060 0.986797
O O13 0.000000 0.500000 0.000000
O O14 0.288386 0.411124 0.867269
O O15 0.129799 0.718842 0.952550
O O16 0.531332 0.853870 0.252119
O O17 0.500000 0.000000 0.500000
O O18 0.500000 0.000000 0.000000
#
# Coordination Sequence:
#
# PCOD9031092 Si02
#       8
#     2   2   2   2   2   2   2   2
#     4  10  23  44  71  97 132 182 230 280 344 398
#     4  12  23  44  71  98 142 173 229 282 335 402
#     4  10  22  43  64  96 136 170 220 278 337 405
#     4  12  26  41  70 103 137 182 223 274 340 407
#     4  11  24  43  66  98 137 173 225 280 336 408
#     4  10  22  43  69  96 127 178 224 280 338 395
#     4  12  25  44  68  99 138 178 226 277 335 407
#     4  11  26  40  66  97 135 181 222 275 340 402
#
# _framework density 22.492287999999999
#
# number of rings (size 3 to 8) (size 9 to 14) (size 15 to 20)
#    0.000    1.000    5.000    1.125    5.250    1.000 
#    0.000    3.125    0.000    0.000    0.000    0.000 
#    0.000    0.000    0.000    0.000    0.000    0.000 
#
# Total GULP energy -89308.134349 kJ/mol
# GULP energy per Si atom -5581.758397 kJ/mol
# Density = 2.244109 g / cm^3
# Si number density = 22.492288 Si / 1000 Ang^3
#
#
#
# Elastic Constant Matrix: (Units=GPa)
#
#
# Indices 1 2 3 4 5 6 
#
# 1 110.1993 18.2624 51.3065 7.0206 -5.1019 29.1864
# 2 18.2624 57.5112 25.0480 22.2801 6.8464 -0.6231
# 3 51.3065 25.0480 155.4694 15.6281 9.5561 18.8144
# 4 7.0206 22.2801 15.6281 29.6856 -2.6780 2.2021
# 5 -5.1019 6.8464 9.5561 -2.6780 43.8526 4.7657
# 6 29.1864 -0.6231 18.8144 2.2021 4.7657 29.7815
#
#
#
# Elastic Compliance Matrix: (Units=1/GPa)
#
#
# Indices 1 2 3 4 5 6 
#
# 1 0.015206 -0.005740 -0.003078 0.003845 0.005112 -0.014180
# 2 -0.005740 0.028919 -0.001399 -0.020991 -0.007227 0.009823
# 3 -0.003078 -0.001399 0.008264 -0.002616 -0.001912 -0.001734
# 4 0.003845 -0.020991 -0.002616 0.051222 0.008255 -0.007663
# 5 0.005112 -0.007227 -0.001912 0.008255 0.026403 -0.008789
# 6 -0.014180 0.009823 -0.001734 -0.007663 -0.008789 0.050749
#
#
# Mechanical properties :
#
#
# Convention : Reuss Voigt Hill
#
# Bulk Modulus (GPa) = 31.29501 56.93485 44.11493
# Shear Modulus (GPa) = 23.60181 35.90146 29.75164
#
# Velocity S-wave (km/s) = 3.24285 3.99954 3.64091
# Velocity P-wave (km/s) = 5.28822 6.83348 6.10990
#
# Compressibility (1/GPa) = 0.03195397
#
# Stress axis : x y z
#
# Youngs Moduli (GPa) = 65.76312 34.57938 121.01092
#
# Poissons Ratio (x) = 0.19848 0.37249
# Poissons Ratio (y) = 0.37747 0.16934
# Poissons Ratio (z) = 0.20243 0.04839
#
# Static dielectric constant tensor:
#      x y z
#    x 2.036570 0.037320 -0.072940 
#    y 0.037320 1.762250 -0.048030 
#    z -0.072940 -0.048030 1.877450 
# 
# From -- ./inp_files/271015.got.cif
#   From: 2010.05.17/outbox.cif.g08.bks.cpg/sg2_136_cif.got.tgz:271015.got - 2010.06.03 11:33:40.
