data_PCOD9031470
_publ_section_title
;
Structure prediction by ZEFSAII (Michael W. Deem and Ramdas Pophale) SiO2 
 PCOD9031470
Probable space group: P -1
;
_chemical_formula_sum "Si O2"
_cell_formula_units_Z 14
_cell_length_a 12.540499
_cell_length_b 8.875035
_cell_length_c 7.877999
_cell_angle_alpha 97.227821
_cell_angle_beta 81.643401
_cell_angle_gamma 137.277120
_cell_volume 588.315177
_symmetry_space_group_name_H-M "P -1"
_symmetry_group_IT_number 2
_symmetry_cell_setting 'triclinic'
loop_
_space_group_symop_operation_xyz
x,y,z
-x,-y,-z
loop_
_atom_site_type_symbol
_atom_site_label
_atom_site_fract_x
_atom_site_fract_y
_atom_site_fract_z
Si Si1 0.112132 0.691766 0.359364
Si Si2 0.816077 0.366428 0.191233
Si Si3 0.345557 0.107031 0.833044
Si Si4 0.672570 0.503906 0.350725
Si Si5 0.817085 0.773225 0.004667
Si Si6 0.325068 0.187034 0.464505
Si Si7 0.688846 0.345154 0.857402
O O1 0.254471 0.722513 0.296694
O O2 0.000000 0.500000 0.500000
O O3 0.000267 0.587739 0.204919
O O4 0.183290 0.929400 0.416412
O O5 0.728237 0.389143 0.346848
O O6 0.783523 0.156676 0.197536
O O7 0.740623 0.330272 0.023962
O O8 0.284340 0.177085 0.980289
O O9 0.371536 0.200509 0.652139
O O10 0.505307 0.194089 0.870762
O O11 0.764188 0.652523 0.182507
O O12 0.484095 0.315538 0.342604
O O13 0.710998 0.670621 0.506509
O O14 0.777510 0.598276 0.858861
O O15 0.000000 0.000000 0.000000
#
# Coordination Sequence:
#
# PCOD9031470 Si02
#       7
#     2   2   2   2   2   2   2
#     4  12  25  41  68 101 136 179 227 282 339 396
#     4  11  23  43  66  98 137 173 233 276 341 388
#     4  11  22  41  73  98 135 180 226 277 331 414
#     4   9  22  42  66  98 134 180 219 280 334 408
#     4  10  22  43  69 100 135 175 229 280 336 399
#     4  10  22  43  66  98 140 174 227 271 345 405
#     4  11  25  42  65  99 135 179 226 279 338 400
#
# _framework density 23.796766999999999
#
# number of rings (size 3 to 8) (size 9 to 14) (size 15 to 20)
#    0.000    1.429    1.429    3.000    4.000    4.000 
#    0.000   10.000    0.000    0.000    0.000    0.000 
#    0.000    0.000    0.000    0.000    0.000    0.000 
#
# Total GULP energy -78324.873626 kJ/mol
# GULP energy per Si atom -5594.633830 kJ/mol
# Density = 2.374260 g / cm^3
# Si number density = 23.796767 Si / 1000 Ang^3
#
#
#
# Elastic Constant Matrix: (Units=GPa)
#
#
# Indices 1 2 3 4 5 6 
#
# 1 63.5796 -21.6484 10.2221 1.4938 -7.0926 -4.2172
# 2 -21.6484 114.5619 5.0957 9.1762 1.8938 -8.7637
# 3 10.2221 5.0957 43.2827 -8.3415 15.9349 0.3125
# 4 1.4938 9.1762 -8.3415 34.0671 -0.7982 -8.4920
# 5 -7.0926 1.8938 15.9349 -0.7982 42.4386 13.0478
# 6 -4.2172 -8.7637 0.3125 -8.4920 13.0478 43.0435
#
#
#
# Elastic Compliance Matrix: (Units=1/GPa)
#
#
# Indices 1 2 3 4 5 6 
#
# 1 0.019179 0.004197 -0.007877 -0.003689 0.005814 0.000301
# 2 0.004197 0.010026 -0.003135 -0.003241 0.000888 0.001567
# 3 -0.007877 -0.003135 0.032653 0.010036 -0.014723 0.004796
# 4 -0.003689 -0.003241 0.010036 0.034581 -0.005901 0.007517
# 5 0.005814 0.000888 -0.014723 -0.005901 0.033091 -0.010338
# 6 0.000301 0.001567 0.004796 0.007517 -0.010338 0.028163
#
#
# Mechanical properties :
#
#
# Convention : Reuss Voigt Hill
#
# Bulk Modulus (GPa) = 20.73455 23.19588 21.96521
# Shear Modulus (GPa) = 26.68099 39.09348 32.88723
#
# Velocity S-wave (km/s) = 3.35207 4.05755 3.72156
# Velocity P-wave (km/s) = 4.86969 5.63208 5.26470
#
# Compressibility (1/GPa) = 0.04822869
#
# Stress axis : x y z
#
# Youngs Moduli (GPa) = 52.14032 99.73916 30.62488
#
# Poissons Ratio (x) = -0.41860 0.24124
# Poissons Ratio (y) = -0.21883 0.09599
# Poissons Ratio (z) = 0.41072 0.31263
#
# Static dielectric constant tensor:
#      x y z
#    x 1.926480 -0.049390 0.009890 
#    y -0.049390 1.889840 -0.007580 
#    z 0.009890 -0.007580 1.984180 
# 
# From -- ./inp_files/183831.got.cif
#   From: 2010.05.17/outbox.cif.g08.bks.cpg/sg2_92_cif.got.tgz:183831.got - 2010.06.03 11:33:40.
