data_PCOD9031723
_publ_section_title
;
Structure prediction by ZEFSAII (Michael W. Deem and Ramdas Pophale) SiO2 
 PCOD9031723
Probable space group: P -1
;
_chemical_formula_sum "Si O2"
_cell_formula_units_Z 16
_cell_length_a 11.231965
_cell_length_b 7.093410
_cell_length_c 14.020757
_cell_angle_alpha 134.570116
_cell_angle_beta 113.650825
_cell_angle_gamma 82.318196
_cell_volume 709.996015
_symmetry_space_group_name_H-M "P -1"
_symmetry_group_IT_number 2
_symmetry_cell_setting 'triclinic'
loop_
_space_group_symop_operation_xyz
x,y,z
-x,-y,-z
loop_
_atom_site_type_symbol
_atom_site_label
_atom_site_fract_x
_atom_site_fract_y
_atom_site_fract_z
Si Si1 0.140109 0.735874 0.715296
Si Si2 0.679412 0.288464 0.985342
Si Si3 0.613476 0.865171 0.114085
Si Si4 0.022802 0.727174 0.867866
Si Si5 0.342753 0.727974 0.545591
Si Si6 0.355668 0.121056 0.348028
Si Si7 0.967311 0.843554 0.532977
Si Si8 0.191077 0.780190 0.330517
O O1 0.026724 0.742980 0.759873
O O2 0.149071 0.423967 0.613965
O O3 0.088609 0.769607 0.603328
O O4 0.275042 0.958173 0.856857
O O5 0.654991 0.576871 0.040380
O O6 0.831475 0.335625 0.087637
O O7 0.546264 0.195409 0.976101
O O8 0.672371 0.046959 0.819607
O O9 0.634179 0.064971 0.284565
O O10 0.900634 0.516821 0.801753
O O11 0.000000 0.000000 0.000000
O O12 0.303245 0.401827 0.437556
O O13 0.485932 0.774265 0.556366
O O14 0.247876 0.816229 0.468471
O O15 0.302897 0.894577 0.330602
O O16 0.915135 0.039891 0.656242
O O17 0.000000 0.000000 0.500000
#
# Coordination Sequence:
#
# PCOD9031723 Si02
#       8
#     2   2   2   2   2   2   2   2
#     4  11  25  42  68  98 134 177 221 276 345 394
#     4  10  24  46  67  97 137 177 231 274 337 402
#     4  10  22  44  73  96 130 177 226 289 329 398
#     4  12  28  43  63  99 143 182 225 272 327 421
#     4  10  22  43  68 101 132 163 235 282 338 397
#     4  10  23  43  68  95 134 183 215 285 334 403
#     4  11  23  42  65 101 132 165 219 285 343 395
#     4  12  24  38  70  95 131 174 224 278 338 400
#
# _framework density 22.535336999999998
#
# number of rings (size 3 to 8) (size 9 to 14) (size 15 to 20)
#    0.000    1.250    1.250    3.375    8.750    1.000 
#    0.000    1.250    0.000    0.000    0.000    0.000 
#    0.000    0.000    0.000    0.000    0.000    0.000 
#
# Total GULP energy -89200.446409 kJ/mol
# GULP energy per Si atom -5575.027901 kJ/mol
# Density = 2.248405 g / cm^3
# Si number density = 22.535337 Si / 1000 Ang^3
#
#
#
# Elastic Constant Matrix: (Units=GPa)
#
#
# Indices 1 2 3 4 5 6 
#
# 1 69.7878 35.6015 9.2189 11.5376 15.6149 13.5815
# 2 35.6015 102.0112 33.0053 16.3214 18.9052 12.8108
# 3 9.2189 33.0053 73.5336 24.7842 7.6957 7.9352
# 4 11.5376 16.3214 24.7842 38.7902 3.3233 18.2631
# 5 15.6149 18.9052 7.6957 3.3233 43.0304 6.4706
# 6 13.5815 12.8108 7.9352 18.2631 6.4706 39.4364
#
#
#
# Elastic Compliance Matrix: (Units=1/GPa)
#
#
# Indices 1 2 3 4 5 6 
#
# 1 0.018906 -0.005616 0.001774 -0.002539 -0.004032 -0.003206
# 2 -0.005616 0.014166 -0.005129 -0.000277 -0.003097 -0.000999
# 3 0.001774 -0.005129 0.019610 -0.012183 -0.001405 0.002982
# 4 -0.002539 -0.000277 -0.012183 0.041954 0.002450 -0.016415
# 5 -0.004032 -0.003097 -0.001405 0.002450 0.026548 -0.002813
# 6 -0.003206 -0.000999 0.002982 -0.016415 -0.002813 0.034250
#
#
# Mechanical properties :
#
#
# Convention : Reuss Voigt Hill
#
# Bulk Modulus (GPa) = 28.78468 44.55379 36.66923
# Shear Modulus (GPa) = 27.03352 35.41851 31.22601
#
# Velocity S-wave (km/s) = 3.46729 3.96875 3.72647
# Velocity P-wave (km/s) = 5.36939 6.38865 5.90107
#
# Compressibility (1/GPa) = 0.03474071
#
# Stress axis : x y z
#
# Youngs Moduli (GPa) = 52.89445 70.59169 50.99358
#
# Poissons Ratio (x) = 0.39643 -0.09047
# Poissons Ratio (y) = 0.29705 0.26154
# Poissons Ratio (z) = -0.09384 0.36206
#
# Static dielectric constant tensor:
#      x y z
#    x 1.676710 -0.099290 0.055630 
#    y -0.099290 1.800800 -0.033230 
#    z 0.055630 -0.033230 1.780660 
# 
# From -- ./inp_files/511327.got.cif
#   From: 2010.05.17/outbox.cif.g08.bks.cpg/sg2_256_cif.got.tgz:511327.got - 2010.06.03 11:33:40.
