data_PCOD9031846
_publ_section_title
;
Structure prediction by ZEFSAII (Michael W. Deem and Ramdas Pophale) SiO2 
 PCOD9031846
Probable space group: P -1
;
_chemical_formula_sum "Si O2"
_cell_formula_units_Z 12
_cell_length_a 22.308615
_cell_length_b 8.281777
_cell_length_c 11.148046
_cell_angle_alpha 141.450776
_cell_angle_beta 29.217493
_cell_angle_gamma 149.673728
_cell_volume 504.176258
_symmetry_space_group_name_H-M "P -1"
_symmetry_group_IT_number 2
_symmetry_cell_setting 'triclinic'
loop_
_space_group_symop_operation_xyz
x,y,z
-x,-y,-z
loop_
_atom_site_type_symbol
_atom_site_label
_atom_site_fract_x
_atom_site_fract_y
_atom_site_fract_z
Si Si1 0.504407 0.470807 0.272914
Si Si2 0.963601 0.598874 0.998682
Si Si3 0.268023 0.744099 0.992780
Si Si4 0.269429 0.151068 0.702546
Si Si5 0.578597 0.338399 0.823339
Si Si6 0.234566 0.252202 0.459338
O O1 0.388877 0.217371 0.429387
O O2 0.644303 0.765097 0.272456
O O3 0.384795 0.493305 0.418944
O O4 0.575503 0.368250 0.989075
O O5 0.909022 0.817368 0.260660
O O6 0.822637 0.308673 0.001100
O O7 0.000000 0.500000 0.000000
O O8 0.112678 0.801259 0.773836
O O9 0.230318 0.939199 0.259469
O O10 0.230321 0.406775 0.903092
O O11 0.451639 0.973223 0.795669
O O12 0.736740 0.550606 0.599371
O O13 0.500000 0.500000 0.000000
#
# Coordination Sequence:
#
# PCOD9031846 Si02
#       6
#     2   2   2   2   2   2
#     4   9  20  41  68  94 132 167 217 271 316 387
#     4  12  28  43  64  97 136 177 219 267 331 394
#     4  10  22  43  68  96 130 178 213 271 331 373
#     4  11  23  41  68 102 133 168 223 268 327 396
#     4   8  19  39  66  97 127 163 222 262 320 383
#     4  10  23  44  70  97 134 169 222 271 325 392
#
# _framework density 23.801200999999999
#
# number of rings (size 3 to 8) (size 9 to 14) (size 15 to 20)
#    0.000    2.333    1.667    0.500    7.000    7.333 
#    3.000    0.000    0.000    0.000    0.000    0.000 
#    0.000    0.000    0.000    0.000    0.000    0.000 
#
# Total GULP energy -66958.729618 kJ/mol
# GULP energy per Si atom -5579.894135 kJ/mol
# Density = 2.374703 g / cm^3
# Si number density = 23.801201 Si / 1000 Ang^3
#
#
#
# Elastic Constant Matrix: (Units=GPa)
#
#
# Indices 1 2 3 4 5 6 
#
# 1 113.8080 13.2705 30.9507 11.0675 12.9483 20.5698
# 2 13.2705 38.9692 17.7288 -5.8705 13.7308 -2.2900
# 3 30.9507 17.7288 78.9961 2.7181 8.5048 1.4299
# 4 11.0675 -5.8705 2.7181 38.3685 -11.1156 2.2444
# 5 12.9483 13.7308 8.5048 -11.1156 39.6911 8.0030
# 6 20.5698 -2.2900 1.4299 2.2444 8.0030 24.5672
#
#
#
# Elastic Compliance Matrix: (Units=1/GPa)
#
#
# Indices 1 2 3 4 5 6 
#
# 1 0.012424 -0.003245 -0.003714 -0.003583 -0.001166 -0.009782
# 2 -0.003245 0.033988 -0.005484 0.002903 -0.010605 0.009394
# 3 -0.003714 -0.005484 0.015457 -0.001275 -0.000991 0.002138
# 4 -0.003583 0.002903 -0.001275 0.030532 0.009500 -0.002539
# 5 -0.001166 -0.010605 -0.000991 0.009500 0.034552 -0.012078
# 6 -0.009782 0.009394 0.002138 -0.002539 -0.012078 0.053813
#
#
# Mechanical properties :
#
#
# Convention : Reuss Voigt Hill
#
# Bulk Modulus (GPa) = 27.04034 39.51925 33.27979
# Shear Modulus (GPa) = 22.93806 31.84692 27.39249
#
# Velocity S-wave (km/s) = 3.10778 3.66189 3.39615
# Velocity P-wave (km/s) = 4.92578 5.87530 5.42137
#
# Compressibility (1/GPa) = 0.03698178
#
# Stress axis : x y z
#
# Youngs Moduli (GPa) = 80.48876 29.42256 64.69729
#
# Poissons Ratio (x) = 0.09548 0.24026
# Poissons Ratio (y) = 0.26120 0.35482
# Poissons Ratio (z) = 0.29890 0.16136
#
# Static dielectric constant tensor:
#      x y z
#    x 1.933140 -0.057510 0.034150 
#    y -0.057510 1.944400 -0.012590 
#    z 0.034150 -0.012590 1.984410 
# 
# From -- ./inp_files/474433.got.cif
#   From: 2010.05.17/outbox.cif.g08.bks.cpg/sg2_238_cif.got.tgz:474433.got - 2010.06.03 11:33:40.
