data_PCOD9031990
_publ_section_title
;
Structure prediction by ZEFSAII (Michael W. Deem and Ramdas Pophale) SiO2 
 PCOD9031990
Probable space group: P -1
;
_chemical_formula_sum "Si O2"
_cell_formula_units_Z 13
_cell_length_a 9.001209
_cell_length_b 9.379404
_cell_length_c 15.885408
_cell_angle_alpha 138.097814
_cell_angle_beta 143.420325
_cell_angle_gamma 48.254145
_cell_volume 525.898992
_symmetry_space_group_name_H-M "P -1"
_symmetry_group_IT_number 2
_symmetry_cell_setting 'triclinic'
loop_
_space_group_symop_operation_xyz
x,y,z
-x,-y,-z
loop_
_atom_site_type_symbol
_atom_site_label
_atom_site_fract_x
_atom_site_fract_y
_atom_site_fract_z
Si Si1 0.518428 0.694711 0.167005
Si Si2 0.049886 0.476300 0.261798
Si Si3 0.696092 0.801494 0.466798
Si Si4 0.252512 0.631678 0.598301
Si Si5 0.500000 0.000000 0.000000
Si Si6 0.665545 0.932308 0.882836
Si Si7 0.860509 0.592793 0.060711
O O1 0.631623 0.816733 0.346499
O O2 0.756644 0.511841 0.170917
O O3 0.444123 0.866545 0.135911
O O4 0.297902 0.588569 0.060084
O O5 0.194758 0.554198 0.442904
O O6 0.158691 0.235628 0.172428
O O7 0.042191 0.618918 0.234811
O O8 0.650928 0.580019 0.394847
O O9 0.002204 0.763611 0.587269
O O10 0.500000 0.000000 0.500000
O O11 0.454817 0.791891 0.759452
O O12 0.745464 0.001673 0.041282
O O13 0.667743 0.804510 0.042197
O O14 0.000000 0.500000 0.000000
#
# Coordination Sequence:
#
# PCOD9031990 Si02
#       7
#     2   2   2   2   1   2   2
#     4  11  26  45  70 101 141 180 232 289 343 414
#     4  11  24  44  72 102 138 182 227 288 344 407
#     4  10  22  43  69 102 138 186 228 285 346 405
#     4  10  24  44  69 104 141 177 237 283 339 416
#     4  12  26  44  68 104 136 182 230 286 344 408
#     4  12  25  44  71 104 142 185 230 285 347 414
#     4  12  26  48  70 101 139 183 233 288 348 413
#
# _framework density 24.719577000000001
#
# number of rings (size 3 to 8) (size 9 to 14) (size 15 to 20)
#    0.000    0.923    3.077    2.769    0.000    6.769 
#    0.000    0.000    0.000    0.000    0.000    0.000 
#    0.000    0.000    0.000    0.000    0.000    0.000 
#
# Total GULP energy -72470.296110 kJ/mol
# GULP energy per Si atom -5574.638162 kJ/mol
# Density = 2.466331 g / cm^3
# Si number density = 24.719577 Si / 1000 Ang^3
#
#
#
# Elastic Constant Matrix: (Units=GPa)
#
#
# Indices 1 2 3 4 5 6 
#
# 1 133.4093 31.9976 3.3287 12.4360 -19.3806 -6.8306
# 2 31.9976 169.9431 19.8060 -2.6661 -13.7030 4.6570
# 3 3.3287 19.8060 22.8299 -1.2197 -10.3653 4.2722
# 4 12.4360 -2.6661 -1.2197 25.5764 3.6226 -24.0181
# 5 -19.3806 -13.7030 -10.3653 3.6226 43.7013 6.1427
# 6 -6.8306 4.6570 4.2722 -24.0181 6.1427 61.2551
#
#
#
# Elastic Compliance Matrix: (Units=1/GPa)
#
#
# Indices 1 2 3 4 5 6 
#
# 1 0.009151 -0.001650 0.002484 -0.007590 0.005113 -0.002516
# 2 -0.001650 0.006872 -0.005749 0.001559 -0.000115 0.000317
# 3 0.002484 -0.005749 0.056033 -0.008773 0.014453 -0.008083
# 4 -0.007590 0.001559 -0.008773 0.072440 -0.015119 0.029567
# 5 0.005113 -0.000115 0.014453 -0.015119 0.031128 -0.009479
# 6 -0.002516 0.000317 -0.008083 0.029567 -0.009479 0.029128
#
#
# Mechanical properties :
#
#
# Convention : Reuss Voigt Hill
#
# Bulk Modulus (GPa) = 16.07051 48.49411 32.28231
# Shear Modulus (GPa) = 21.24733 44.17654 32.71193
#
# Velocity S-wave (km/s) = 2.93496 4.23201 3.64169
# Velocity P-wave (km/s) = 4.24271 6.59849 5.54710
#
# Compressibility (1/GPa) = 0.06222579
#
# Stress axis : x y z
#
# Youngs Moduli (GPa) = 109.27728 145.52665 17.84653
#
# Poissons Ratio (x) = 0.24017 -0.04433
# Poissons Ratio (y) = 0.18035 0.10260
# Poissons Ratio (z) = -0.27147 0.83662
#
# Static dielectric constant tensor:
#      x y z
#    x 1.385110 0.083860 1.447330 
#    y 0.083860 1.889270 -0.387510 
#    z 1.447330 -0.387510 -1.160680 
# 
# From -- ./inp_files/341340.got.cif
#   From: 2010.05.17/outbox.cif.g08.bks.cpg/sg2_171_cif.got.tgz:341340.got - 2010.06.03 11:33:40.
