data_PCOD9031548
_publ_section_title
;
Structure prediction by ZEFSAII (Michael W. Deem and Ramdas Pophale) SiO2 
 PCOD9031548
Probable space group: P -1
;
_chemical_formula_sum "Si O2"
_cell_formula_units_Z 14
_cell_length_a 16.211733
_cell_length_b 12.838669
_cell_length_c 8.709512
_cell_angle_alpha 121.124765
_cell_angle_beta 121.360957
_cell_angle_gamma 24.075923
_cell_volume 626.924067
_symmetry_space_group_name_H-M "P -1"
_symmetry_group_IT_number 2
_symmetry_cell_setting 'triclinic'
loop_
_space_group_symop_operation_xyz
x,y,z
-x,-y,-z
loop_
_atom_site_type_symbol
_atom_site_label
_atom_site_fract_x
_atom_site_fract_y
_atom_site_fract_z
Si Si1 0.565494 0.633802 0.474722
Si Si2 0.506432 0.004831 0.328114
Si Si3 0.829818 0.477991 0.109513
Si Si4 0.319242 0.716173 0.162815
Si Si5 0.846193 0.769709 0.985230
Si Si6 0.481229 0.707687 0.787152
Si Si7 0.115433 0.783659 0.770514
O O1 0.537082 0.807542 0.607444
O O2 0.405154 0.756496 0.289602
O O3 0.517021 0.629126 0.587641
O O4 0.782751 0.364572 0.403539
O O5 0.334033 0.107818 0.173011
O O6 0.500000 0.000000 0.500000
O O7 0.720028 0.721139 0.250629
O O8 0.865750 0.349290 0.191294
O O9 0.029319 0.290101 0.064087
O O10 0.666217 0.592525 0.928414
O O11 0.491733 0.435165 0.180873
O O12 0.237361 0.757734 0.953187
O O13 0.122092 0.921373 0.238398
O O14 0.000000 0.500000 0.000000
O O15 0.731314 0.986320 0.158255
#
# Coordination Sequence:
#
# PCOD9031548 Si02
#       7
#     2   2   2   2   2   2   2
#     4  12  23  40  66  92 133 165 212 272 318 377
#     4  11  24  41  64 102 132 164 216 268 325 381
#     4  10  22  43  67  91 134 169 211 265 325 380
#     4  10  24  42  63  91 130 170 216 259 326 379
#     4  11  24  43  69  95 131 177 216 259 328 389
#     4  10  24  43  65  97 127 171 216 265 317 388
#     4  10  23  41  64  97 121 169 218 263 320 388
#
# _framework density 22.331251999999999
#
# number of rings (size 3 to 8) (size 9 to 14) (size 15 to 20)
#    0.000    1.429    1.429    2.571    2.000   10.286 
#    0.000    0.000    0.000    0.000    0.000    0.000 
#    0.000    0.000    0.000    0.000    0.000    0.000 
#
# Total GULP energy -78332.187628 kJ/mol
# GULP energy per Si atom -5595.156259 kJ/mol
# Density = 2.228042 g / cm^3
# Si number density = 22.331252 Si / 1000 Ang^3
#
#
#
# Elastic Constant Matrix: (Units=GPa)
#
#
# Indices 1 2 3 4 5 6 
#
# 1 83.9945 34.3290 25.1327 16.6331 -2.9272 -24.5294
# 2 34.3290 111.7321 31.7506 30.3371 -16.2326 -3.7891
# 3 25.1327 31.7506 69.1217 30.6431 -0.5235 -9.6421
# 4 16.6331 30.3371 30.6431 37.2277 -2.6725 -5.1865
# 5 -2.9272 -16.2326 -0.5235 -2.6725 33.4251 3.2585
# 6 -24.5294 -3.7891 -9.6421 -5.1865 3.2585 22.6966
#
#
#
# Elastic Compliance Matrix: (Units=1/GPa)
#
#
# Indices 1 2 3 4 5 6 
#
# 1 0.020882 -0.005419 -0.001906 -0.000611 -0.002942 0.021136
# 2 -0.005419 0.013990 -0.001852 -0.007981 0.006339 -0.007041
# 3 -0.001906 -0.001852 0.024190 -0.017122 -0.002481 0.004350
# 4 -0.000611 -0.007981 -0.017122 0.047940 -0.000537 0.001765
# 5 -0.002942 0.006339 -0.002481 -0.000537 0.033446 -0.008100
# 6 0.021136 -0.007041 0.004350 0.001765 -0.008100 0.069141
#
#
# Mechanical properties :
#
#
# Convention : Reuss Voigt Hill
#
# Bulk Modulus (GPa) = 24.56557 49.69699 37.13128
# Shear Modulus (GPa) = 20.70287 30.24563 25.47425
#
# Velocity S-wave (km/s) = 3.04810 3.68422 3.38115
# Velocity P-wave (km/s) = 4.83863 6.35616 5.64859
#
# Compressibility (1/GPa) = 0.04070738
#
# Stress axis : x y z
#
# Youngs Moduli (GPa) = 47.88912 71.47793 41.33958
#
# Poissons Ratio (x) = 0.38731 0.07881
# Poissons Ratio (y) = 0.25949 0.07657
# Poissons Ratio (z) = 0.09130 0.13239
#
# Static dielectric constant tensor:
#      x y z
#    x 1.837330 0.050660 0.001080 
#    y 0.050660 1.824150 0.010280 
#    z 0.001080 0.010280 1.797710 
# 
# From -- ./inp_files/26806.got.cif
#   From: 2010.05.17/outbox.cif.g08.bks.cpg/sg2_14_cif.got.tgz:26806.got - 2010.06.03 11:33:40.
