data_PCOD9031242
_publ_section_title
;
Structure prediction by ZEFSAII (Michael W. Deem and Ramdas Pophale) SiO2 
 PCOD9031242
Probable space group: P -1
;
_chemical_formula_sum "Si O2"
_cell_formula_units_Z 14
_cell_length_a 8.583017
_cell_length_b 10.708508
_cell_length_c 9.466248
_cell_angle_alpha 69.247817
_cell_angle_beta 122.434436
_cell_angle_gamma 134.517187
_cell_volume 523.267114
_symmetry_space_group_name_H-M "P -1"
_symmetry_group_IT_number 2
_symmetry_cell_setting 'triclinic'
loop_
_space_group_symop_operation_xyz
x,y,z
-x,-y,-z
loop_
_atom_site_type_symbol
_atom_site_label
_atom_site_fract_x
_atom_site_fract_y
_atom_site_fract_z
Si Si1 0.711254 0.198581 0.420765
Si Si2 0.717977 0.907856 0.404969
Si Si3 0.328310 0.271041 0.828418
Si Si4 0.793967 0.392333 0.140836
Si Si5 0.812584 0.075767 0.778572
Si Si6 0.446714 0.400800 0.367397
Si Si7 0.942498 0.263001 0.043258
O O1 0.862255 0.376682 0.335947
O O2 0.782566 0.191121 0.615264
O O3 0.715214 0.059458 0.391942
O O4 0.434759 0.116296 0.296191
O O5 0.631409 0.815990 0.245545
O O6 0.576001 0.757080 0.514979
O O7 0.000000 0.000000 0.500000
O O8 0.365849 0.437895 0.713045
O O9 0.065163 0.134090 0.824540
O O10 0.538428 0.345856 0.014005
O O11 0.983174 0.580055 0.086281
O O12 0.792211 0.258142 0.097378
O O13 0.820448 0.107071 0.936116
O O14 0.500000 0.500000 0.500000
O O15 0.184686 0.315175 0.208691
#
# Coordination Sequence:
#
# PCOD9031242 Si02
#       7
#     2   2   2   2   2   2   2
#     4  11  25  45  62  98 135 175 217 263 331 390
#     4  11  20  39  68  93 127 176 218 260 316 392
#     4  10  22  43  65  96 128 170 221 271 321 383
#     4  10  23  43  71  92 126 172 223 265 317 400
#     4  11  25  45  61  98 140 167 216 272 333 381
#     4   9  21  39  67  98 125 166 222 268 312 386
#     4  10  22  44  69  98 127 169 221 272 323 380
#
# _framework density 26.754977
#
# number of rings (size 3 to 8) (size 9 to 14) (size 15 to 20)
#    0.000    1.714    1.429    1.714    2.000    8.000 
#   10.286    0.000    0.000    0.000    0.000    0.000 
#    0.000    0.000    0.000    0.000    0.000    0.000 
#
# Total GULP energy -78352.092870 kJ/mol
# GULP energy per Si atom -5596.578062 kJ/mol
# Density = 2.669408 g / cm^3
# Si number density = 26.754977 Si / 1000 Ang^3
#
#
#
# Elastic Constant Matrix: (Units=GPa)
#
#
# Indices 1 2 3 4 5 6 
#
# 1 93.0287 14.8378 -3.1282 7.0813 1.2730 -0.9638
# 2 14.8378 63.2661 22.3483 -17.9340 -6.1815 -10.2950
# 3 -3.1282 22.3483 133.1179 -10.9482 -19.5705 -10.6028
# 4 7.0813 -17.9340 -10.9482 61.8965 -3.0067 -7.5289
# 5 1.2730 -6.1815 -19.5705 -3.0067 20.2878 7.7161
# 6 -0.9638 -10.2950 -10.6028 -7.5289 7.7161 30.6773
#
#
#
# Elastic Compliance Matrix: (Units=1/GPa)
#
#
# Indices 1 2 3 4 5 6 
#
# 1 0.011595 -0.003920 0.000411 -0.002593 -0.001504 -0.001067
# 2 -0.003920 0.020938 -0.001998 0.007186 0.003019 0.007217
# 3 0.000411 -0.001998 0.009254 0.001513 0.008193 0.000852
# 4 -0.002593 0.007186 0.001513 0.019817 0.004217 0.006656
# 5 -0.001504 0.003019 0.008193 0.004217 0.063024 -0.011020
# 6 -0.001067 0.007217 0.000852 0.006656 -0.011020 0.039685
#
#
# Mechanical properties :
#
#
# Convention : Reuss Voigt Hill
#
# Bulk Modulus (GPa) = 32.49490 39.72538 36.11014
# Shear Modulus (GPa) = 26.94201 39.59597 33.26899
#
# Velocity S-wave (km/s) = 3.17675 3.85118 3.53011
# Velocity P-wave (km/s) = 5.06235 5.88690 5.49013
#
# Compressibility (1/GPa) = 0.03077406
#
# Stress axis : x y z
#
# Youngs Moduli (GPa) = 86.24171 47.76063 108.06356
#
# Poissons Ratio (x) = 0.18723 -0.04445
# Poissons Ratio (y) = 0.33809 0.21586
# Poissons Ratio (z) = -0.03548 0.09540
#
# Static dielectric constant tensor:
#      x y z
#    x 1.851870 0.234070 -0.602980 
#    y 0.234070 1.857090 0.567330 
#    z -0.602980 0.567330 0.866490 
# 
# From -- ./inp_files/158965.got.cif
#   From: 2010.05.17/outbox.cif.g08.bks.cpg/sg2_80_cif.got.tgz:158965.got - 2010.06.03 11:33:40.
