data_PCOD9031542
_publ_section_title
;
Structure prediction by ZEFSAII (Michael W. Deem and Ramdas Pophale) SiO2 
 PCOD9031542
Probable space group: P -1
;
_chemical_formula_sum "Si O2"
_cell_formula_units_Z 16
_cell_length_a 15.231254
_cell_length_b 17.983983
_cell_length_c 7.270040
_cell_angle_alpha 128.921608
_cell_angle_beta 104.737097
_cell_angle_gamma 35.245078
_cell_volume 730.718076
_symmetry_space_group_name_H-M "P -1"
_symmetry_group_IT_number 2
_symmetry_cell_setting 'triclinic'
loop_
_space_group_symop_operation_xyz
x,y,z
-x,-y,-z
loop_
_atom_site_type_symbol
_atom_site_label
_atom_site_fract_x
_atom_site_fract_y
_atom_site_fract_z
Si Si1 0.462024 0.422462 0.349231
Si Si2 0.847061 0.712819 0.827294
Si Si3 0.835670 0.766818 0.506527
Si Si4 0.903992 0.858469 0.224385
Si Si5 0.591149 0.141254 0.751142
Si Si6 0.920300 0.194627 0.421187
Si Si7 0.752910 0.673185 0.038005
Si Si8 0.189235 0.918493 0.798765
O O1 0.500000 0.500000 0.500000
O O2 0.548348 0.288599 0.012834
O O3 0.242537 0.612508 0.495917
O O4 0.589757 0.265185 0.339366
O O5 0.765197 0.828090 0.773596
O O6 0.720723 0.771252 0.995085
O O7 0.000000 0.500000 0.500000
O O8 0.221628 0.275078 0.702046
O O9 0.059202 0.557272 0.272636
O O10 0.746360 0.942062 0.642576
O O11 0.908430 0.920518 0.144398
O O12 0.685372 0.054158 0.468187
O O13 0.020238 0.798444 0.359352
O O14 0.950237 0.705623 0.972870
O O15 0.407838 0.249746 0.866814
O O16 0.846031 0.159443 0.396420
O O17 0.090968 0.018582 0.100786
#
# Coordination Sequence:
#
# PCOD9031542 Si02
#       8
#     2   2   2   2   2   2   2   2
#     4  10  23  44  67  97 133 172 219 275 332 394
#     4  10  23  40  65  96 128 173 221 271 326 393
#     4  10  22  43  67  89 133 171 221 277 328 388
#     4  12  24  41  70 101 135 174 225 273 332 401
#     4  12  24  40  67  96 132 175 219 271 334 393
#     4  10  23  44  73  96 132 178 218 276 342 392
#     4  10  23  43  64  94 128 173 220 275 333 385
#     4  10  22  47  70  99 134 171 223 280 333 396
#
# _framework density 21.896269
#
# number of rings (size 3 to 8) (size 9 to 14) (size 15 to 20)
#    0.000    1.500    2.500    1.500    1.750    1.500 
#    4.500    1.250    0.000    0.000    0.000    0.000 
#    0.000    0.000    0.000    0.000    0.000    0.000 
#
# Total GULP energy -89260.454665 kJ/mol
# GULP energy per Si atom -5578.778417 kJ/mol
# Density = 2.184643 g / cm^3
# Si number density = 21.896269 Si / 1000 Ang^3
#
#
#
# Elastic Constant Matrix: (Units=GPa)
#
#
# Indices 1 2 3 4 5 6 
#
# 1 103.3877 24.7386 48.0005 -9.7501 15.2806 -12.2197
# 2 24.7386 61.5828 13.8443 -5.8928 -4.9592 -6.1054
# 3 48.0005 13.8443 68.2773 2.2980 17.1827 -14.4517
# 4 -9.7501 -5.8928 2.2980 37.8428 0.1791 2.3195
# 5 15.2806 -4.9592 17.1827 0.1791 42.0892 -3.8512
# 6 -12.2197 -6.1054 -14.4517 2.3195 -3.8512 25.9038
#
#
#
# Elastic Compliance Matrix: (Units=1/GPa)
#
#
# Indices 1 2 3 4 5 6 
#
# 1 0.015987 -0.003933 -0.009950 0.004098 -0.002189 0.000371
# 2 -0.003933 0.019000 -0.001870 0.001909 0.004613 0.002095
# 3 -0.009950 -0.001870 0.025588 -0.004909 -0.006241 0.008653
# 4 0.004098 0.001909 -0.004909 0.028248 0.000362 -0.002831
# 5 -0.002189 0.004613 -0.006241 0.000362 0.027704 0.000659
# 6 0.000371 0.002095 0.008653 -0.002831 0.000659 0.044452
#
#
# Mechanical properties :
#
#
# Convention : Reuss Voigt Hill
#
# Bulk Modulus (GPa) = 34.39993 45.15716 39.77854
# Shear Modulus (GPa) = 24.73110 30.94477 27.83793
#
# Velocity S-wave (km/s) = 3.36440 3.76339 3.56947
# Velocity P-wave (km/s) = 5.55309 6.28905 5.93249
#
# Compressibility (1/GPa) = 0.02906983
#
# Stress axis : x y z
#
# Youngs Moduli (GPa) = 62.55133 52.63090 39.08088
#
# Poissons Ratio (x) = 0.20697 0.38887
# Poissons Ratio (y) = 0.24598 0.07307
# Poissons Ratio (z) = 0.62241 0.09841
#
# Static dielectric constant tensor:
#      x y z
#    x 1.846290 -0.008800 -0.005880 
#    y -0.008800 1.872150 0.024970 
#    z -0.005880 0.024970 1.813440 
# 
# From -- ./inp_files/315579.got.cif
#   From: 2010.05.17/outbox.cif.g08.bks.cpg/sg2_158_cif.got.tgz:315579.got - 2010.06.03 11:33:40.
