data_PCOD9031180
_publ_section_title
;
Structure prediction by ZEFSAII (Michael W. Deem and Ramdas Pophale) SiO2 
 PCOD9031180
Probable space group: P -1
;
_chemical_formula_sum "Si O2"
_cell_formula_units_Z 14
_cell_length_a 20.554572
_cell_length_b 5.229449
_cell_length_c 5.008950
_cell_angle_alpha 103.540234
_cell_angle_beta 88.973385
_cell_angle_gamma 98.542278
_cell_volume 517.556424
_symmetry_space_group_name_H-M "P -1"
_symmetry_group_IT_number 2
_symmetry_cell_setting 'triclinic'
loop_
_space_group_symop_operation_xyz
x,y,z
-x,-y,-z
loop_
_atom_site_type_symbol
_atom_site_label
_atom_site_fract_x
_atom_site_fract_y
_atom_site_fract_z
Si Si1 0.175407 0.879192 0.363259
Si Si2 0.954422 0.538435 0.762830
Si Si3 0.552015 0.773687 0.264246
Si Si4 0.580100 0.210965 0.914997
Si Si5 0.846990 0.806944 0.053578
Si Si6 0.689029 0.884791 0.458940
Si Si7 0.285345 0.457972 0.126826
O O1 0.177449 0.974449 0.081229
O O2 0.250525 0.872026 0.455431
O O3 0.111290 0.665110 0.347258
O O4 0.156088 0.116231 0.619465
O O5 0.918788 0.785060 0.925682
O O6 0.000000 0.500000 0.500000
O O7 0.000000 0.500000 0.000000
O O8 0.562406 0.468145 0.150497
O O9 0.566253 0.951110 0.037965
O O10 0.474338 0.775604 0.311781
O O11 0.611089 0.895729 0.487179
O O12 0.657544 0.300503 0.881151
O O13 0.697221 0.769526 0.136391
O O14 0.704928 0.663140 0.613267
O O15 0.791704 0.548892 0.941548
#
# Coordination Sequence:
#
# PCOD9031180 Si02
#       7
#     2   2   2   2   2   2   2
#     4  10  22  43  65  92 130 171 218 271 332 398
#     4  12  26  42  64 100 129 166 219 266 338 408
#     4   9  18  36  60  92 132 175 224 278 336 398
#     4   9  18  36  60  92 132 175 224 278 336 398
#     4  10  22  43  65  92 130 171 218 271 332 398
#     4   9  19  39  62  91 125 169 222 271 331 398
#     4   9  19  39  62  91 125 169 222 271 331 398
#
# _framework density 27.050193
#
# number of rings (size 3 to 8) (size 9 to 14) (size 15 to 20)
#    0.000    2.286    0.000    1.714    0.000    4.000 
#   28.286    0.000    0.000   15.429    0.000    0.000 
#    0.000    0.000    0.000    0.000    0.000    0.000 
#
# Total GULP energy -78245.628718 kJ/mol
# GULP energy per Si atom -5588.973480 kJ/mol
# Density = 2.698863 g / cm^3
# Si number density = 27.050193 Si / 1000 Ang^3
#
#
#
# Elastic Constant Matrix: (Units=GPa)
#
#
# Indices 1 2 3 4 5 6 
#
# 1 252.8695 28.5637 40.4580 -4.2088 -4.2091 2.0556
# 2 28.5637 74.6882 13.7485 -9.4906 6.0069 19.7994
# 3 40.4580 13.7485 97.3800 -16.5516 5.4395 4.1500
# 4 -4.2088 -9.4906 -16.5516 39.5176 20.0240 16.8098
# 5 -4.2091 6.0069 5.4395 20.0240 52.6337 -4.4133
# 6 2.0556 19.7994 4.1500 16.8098 -4.4133 42.2004
#
#
#
# Elastic Compliance Matrix: (Units=1/GPa)
#
#
# Indices 1 2 3 4 5 6 
#
# 1 0.004639 -0.002940 -0.002507 -0.004097 0.002803 0.003325
# 2 -0.002940 0.023916 0.003608 0.023640 -0.014204 -0.022334
# 3 -0.002507 0.003608 0.014307 0.015256 -0.008730 -0.009968
# 4 -0.004097 0.023640 0.015256 0.075519 -0.037220 -0.046366
# 5 0.002803 -0.014204 -0.008730 -0.037220 0.038103 0.026197
# 6 0.003325 -0.022334 -0.009968 -0.046366 0.026197 0.056202
#
#
# Mechanical properties :
#
#
# Convention : Reuss Voigt Hill
#
# Bulk Modulus (GPa) = 25.52055 65.60869 45.56462
# Shear Modulus (GPa) = 21.79351 49.68149 35.73750
#
# Velocity S-wave (km/s) = 2.84151 4.29025 3.63871
# Velocity P-wave (km/s) = 4.49673 6.98919 5.87662
#
# Compressibility (1/GPa) = 0.03918410
#
# Stress axis : x y z
#
# Youngs Moduli (GPa) = 215.55092 41.81265 69.89780
#
# Poissons Ratio (x) = 0.12294 0.17523
# Poissons Ratio (y) = 0.63377 -0.25221
# Poissons Ratio (z) = 0.54038 -0.15087
#
# Static dielectric constant tensor:
#      x y z
#    x 2.232140 -0.083600 -0.098430 
#    y -0.083600 2.202120 0.216100 
#    z -0.098430 0.216100 2.118260 
# 
# From -- ./inp_files/114252.got.cif
#   From: 2010.05.17/outbox.cif.g08.bks.cpg/sg2_58_cif.got.tgz:114252.got - 2010.06.03 11:33:40.
