data_PCOD9031555
_publ_section_title
;
Structure prediction by ZEFSAII (Michael W. Deem and Ramdas Pophale) SiO2 
 PCOD9031555
Probable space group: P -1
;
_chemical_formula_sum "Si O2"
_cell_formula_units_Z 14
_cell_length_a 7.882241
_cell_length_b 8.987947
_cell_length_c 11.869553
_cell_angle_alpha 120.272592
_cell_angle_beta 127.441246
_cell_angle_gamma 82.365860
_cell_volume 557.821032
_symmetry_space_group_name_H-M "P -1"
_symmetry_group_IT_number 2
_symmetry_cell_setting 'triclinic'
loop_
_space_group_symop_operation_xyz
x,y,z
-x,-y,-z
loop_
_atom_site_type_symbol
_atom_site_label
_atom_site_fract_x
_atom_site_fract_y
_atom_site_fract_z
Si Si1 0.084626 0.362203 0.401756
Si Si2 0.472238 0.181170 0.006021
Si Si3 0.981882 0.302248 0.083327
Si Si4 0.829107 0.854504 0.448191
Si Si5 0.495835 0.343234 0.307256
Si Si6 0.580165 0.041096 0.760153
Si Si7 0.754384 0.604467 0.122093
O O1 0.960850 0.293502 0.209302
O O2 0.097044 0.194155 0.418979
O O3 0.331945 0.478790 0.514393
O O4 0.000000 0.500000 0.500000
O O5 0.546344 0.155644 0.899557
O O6 0.247071 0.236513 0.904270
O O7 0.569892 0.313465 0.197370
O O8 0.500000 0.000000 0.000000
O O9 0.242865 0.344215 0.189456
O O10 0.890939 0.472510 0.081404
O O11 0.843437 0.128214 0.892578
O O12 0.594530 0.908486 0.377023
O O13 0.823444 0.682344 0.302605
O O14 0.000000 0.000000 0.500000
O O15 0.489425 0.166783 0.312997
O O16 0.500000 0.500000 0.000000
#
# Coordination Sequence:
#
# PCOD9031555 Si02
#       7
#     2   2   2   2   2   2   2
#     4  12  24  43  68  94 129 175 223 267 329 397
#     4   9  19  37  64  91 123 168 222 261 311 384
#     4  12  24  40  67  99 139 171 214 279 331 385
#     4  11  23  42  68  98 123 167 230 275 317 385
#     4  11  24  41  66  99 135 172 220 268 336 387
#     4  10  22  43  67  92 131 175 222 270 317 396
#     4  11  20  40  65  95 130 166 224 272 317 386
#
# _framework density 25.097655
#
# number of rings (size 3 to 8) (size 9 to 14) (size 15 to 20)
#    0.000    1.143    4.286    3.429    0.000    5.143 
#    0.000    0.714    0.000    0.000    0.000    0.000 
#    0.000    0.000    0.000    0.000    0.000    0.000 
#
# Total GULP energy -78134.345223 kJ/mol
# GULP energy per Si atom -5581.024659 kJ/mol
# Density = 2.504053 g / cm^3
# Si number density = 25.097655 Si / 1000 Ang^3
#
#
#
# Elastic Constant Matrix: (Units=GPa)
#
#
# Indices 1 2 3 4 5 6 
#
# 1 71.9109 17.7093 8.0722 1.9573 16.0804 -0.5280
# 2 17.7093 182.4404 47.1725 -16.9240 13.6110 -4.8080
# 3 8.0722 47.1725 89.1698 -1.4423 8.7198 7.7891
# 4 1.9573 -16.9240 -1.4423 42.9222 3.4174 4.2953
# 5 16.0804 13.6110 8.7198 3.4174 35.4403 0.0088
# 6 -0.5280 -4.8080 7.7891 4.2953 0.0088 17.8294
#
#
#
# Elastic Compliance Matrix: (Units=1/GPa)
#
#
# Indices 1 2 3 4 5 6 
#
# 1 0.015682 -0.001000 -0.000298 -0.000643 -0.006596 0.000483
# 2 -0.001000 0.006941 -0.003636 0.002501 -0.001560 0.002829
# 3 -0.000298 -0.003636 0.013966 -0.000093 -0.001894 -0.007067
# 4 -0.000643 0.002501 -0.000093 0.025090 -0.003064 -0.005347
# 5 -0.006596 -0.001560 -0.001894 -0.003064 0.032570 0.000934
# 6 0.000483 0.002829 -0.007067 -0.005347 0.000934 0.061239
#
#
# Mechanical properties :
#
#
# Convention : Reuss Voigt Hill
#
# Bulk Modulus (GPa) = 37.42304 54.38099 45.90201
# Shear Modulus (GPa) = 28.69237 37.27618 32.98428
#
# Velocity S-wave (km/s) = 3.38484 3.85807 3.62917
# Velocity P-wave (km/s) = 5.49723 6.44679 5.99085
#
# Compressibility (1/GPa) = 0.02672151
#
# Stress axis : x y z
#
# Youngs Moduli (GPa) = 63.76802 144.06529 71.60278
#
# Poissons Ratio (x) = 0.14405 0.02135
# Poissons Ratio (y) = 0.06376 0.26032
# Poissons Ratio (z) = 0.01902 0.52378
#
# Static dielectric constant tensor:
#      x y z
#    x 2.332780 0.050160 0.044060 
#    y 0.050160 2.045620 -0.004120 
#    z 0.044060 -0.004120 2.019840 
# 
# From -- ./inp_files/495662.got.cif
#   From: 2010.05.17/outbox.cif.g08.bks.cpg/sg2_248_cif.got.tgz:495662.got - 2010.06.03 11:33:40.
