data_PCOD9031139
_publ_section_title
;
Structure prediction by ZEFSAII (Michael W. Deem and Ramdas Pophale) SiO2 
 PCOD9031139
Probable space group: P -1
;
_chemical_formula_sum "Si O2"
_cell_formula_units_Z 12
_cell_length_a 10.958137
_cell_length_b 9.047521
_cell_length_c 10.300683
_cell_angle_alpha 151.017541
_cell_angle_beta 107.512030
_cell_angle_gamma 79.337124
_cell_volume 465.099270
_symmetry_space_group_name_H-M "P -1"
_symmetry_group_IT_number 2
_symmetry_cell_setting 'triclinic'
loop_
_space_group_symop_operation_xyz
x,y,z
-x,-y,-z
loop_
_atom_site_type_symbol
_atom_site_label
_atom_site_fract_x
_atom_site_fract_y
_atom_site_fract_z
Si Si1 0.906629 0.931062 0.733000
Si Si2 0.416717 0.275775 0.701819
Si Si3 0.167765 0.801952 0.837933
Si Si4 0.526226 0.391327 0.568769
Si Si5 0.142787 0.965148 0.476583
Si Si6 0.685468 0.973744 0.182354
O O1 0.878578 0.558502 0.420940
O O2 0.055033 0.966716 0.859801
O O3 0.891673 0.149184 0.771618
O O4 0.813740 0.024392 0.886545
O O5 0.416751 0.386587 0.638138
O O6 0.500000 0.000000 0.500000
O O7 0.272472 0.201893 0.656269
O O8 0.500000 0.500000 0.000000
O O9 0.283191 0.854141 0.811901
O O10 0.500000 0.500000 0.500000
O O11 0.565511 0.064285 0.293032
O O12 0.647879 0.616213 0.851298
O O13 0.197621 0.891233 0.579237
O O14 0.000000 0.000000 0.500000
#
# Coordination Sequence:
#
# PCOD9031139 Si02
#       6
#     2   2   2   2   2   2
#     4  10  23  42  67  98 145 185 236 287 362 425
#     4  12  26  51  73 105 150 196 244 309 365 439
#     4  10  22  43  65 102 138 188 232 298 349 426
#     4  12  27  49  74 108 139 196 247 309 368 439
#     4  12  26  49  75 114 150 204 246 305 376 448
#     4  12  25  47  74 105 149 181 251 303 366 440
#
# _framework density 25.800944000000001
#
# number of rings (size 3 to 8) (size 9 to 14) (size 15 to 20)
#    0.000    0.667    5.000    1.500    4.667    2.667 
#    0.000    5.833    0.000    0.000    0.000    0.000 
#    0.000    0.000    0.000    0.000    0.000    0.000 
#
# Total GULP energy -66831.909011 kJ/mol
# GULP energy per Si atom -5569.325751 kJ/mol
# Density = 2.574222 g / cm^3
# Si number density = 25.800944 Si / 1000 Ang^3
#
#
#
# Elastic Constant Matrix: (Units=GPa)
#
#
# Indices 1 2 3 4 5 6 
#
# 1 134.0219 35.0038 42.1906 -11.4729 -6.4803 38.3689
# 2 35.0038 104.2996 32.5939 -38.4921 -27.6324 20.3838
# 3 42.1906 32.5939 125.5524 -19.6475 -36.6617 -7.9591
# 4 -11.4729 -38.4921 -19.6475 46.1584 11.2696 -7.6438
# 5 -6.4803 -27.6324 -36.6617 11.2696 41.1723 -13.3317
# 6 38.3689 20.3838 -7.9591 -7.6438 -13.3317 46.6700
#
#
#
# Elastic Compliance Matrix: (Units=1/GPa)
#
#
# Indices 1 2 3 4 5 6 
#
# 1 0.015376 -0.003268 -0.009658 -0.002621 -0.013178 -0.017055
# 2 -0.003268 0.016969 0.000978 0.011646 0.008484 -0.000227
# 3 -0.009658 0.000978 0.018554 0.004254 0.020029 0.017096
# 4 -0.002621 0.011646 0.004254 0.032321 0.003685 0.004140
# 5 -0.013178 0.008484 0.020029 0.003685 0.053272 0.026365
# 6 -0.017055 -0.000227 0.017096 0.004140 0.026365 0.046673
#
#
# Mechanical properties :
#
#
# Convention : Reuss Voigt Hill
#
# Bulk Modulus (GPa) = 37.03104 64.82785 50.92944
# Shear Modulus (GPa) = 23.14159 43.73918 33.44039
#
# Velocity S-wave (km/s) = 2.99812 4.12181 3.60403
# Velocity P-wave (km/s) = 5.13505 6.91615 6.09106
#
# Compressibility (1/GPa) = 0.02700437
#
# Stress axis : x y z
#
# Youngs Moduli (GPa) = 65.03467 58.93249 53.89562
#
# Poissons Ratio (x) = 0.19257 0.52053
# Poissons Ratio (y) = 0.21251 -0.05273
# Poissons Ratio (z) = 0.62811 -0.05765
#
# Static dielectric constant tensor:
#      x y z
#    x 2.013850 -0.004720 0.079760 
#    y -0.004720 2.144480 -0.004970 
#    z 0.079760 -0.004970 2.042260 
# 
# From -- ./inp_files/246278.got.cif
#   From: 2010.05.17/outbox.cif.g08.bks.cpg/sg2_124_cif.got.tgz:246278.got - 2010.06.03 11:33:40.
