data_PCOD9031786
_publ_section_title
;
Structure prediction by ZEFSAII (Michael W. Deem and Ramdas Pophale) SiO2 
 PCOD9031786
Probable space group: P -1
;
_chemical_formula_sum "Si O2"
_cell_formula_units_Z 14
_cell_length_a 10.483261
_cell_length_b 12.932308
_cell_length_c 8.425620
_cell_angle_alpha 83.582020
_cell_angle_beta 83.985765
_cell_angle_gamma 147.738718
_cell_volume 561.513502
_symmetry_space_group_name_H-M "P -1"
_symmetry_group_IT_number 2
_symmetry_cell_setting 'triclinic'
loop_
_space_group_symop_operation_xyz
x,y,z
-x,-y,-z
loop_
_atom_site_type_symbol
_atom_site_label
_atom_site_fract_x
_atom_site_fract_y
_atom_site_fract_z
Si Si1 0.069663 0.262154 0.315510
Si Si2 0.259079 0.486284 0.822202
Si Si3 0.430176 0.066267 0.738486
Si Si4 0.680701 0.813746 0.450777
Si Si5 0.402265 0.159035 0.055736
Si Si6 0.863690 0.205000 0.664011
Si Si7 0.326533 0.303793 0.854509
O O1 0.037925 0.306499 0.471674
O O2 0.366180 0.467304 0.198228
O O3 0.864557 0.165478 0.233501
O O4 0.951573 0.064004 0.399627
O O5 0.513940 0.658139 0.646438
O O6 0.341943 0.618670 0.930636
O O7 0.200218 0.325240 0.903082
O O8 0.028594 0.363050 0.762925
O O9 0.483309 0.205059 0.600291
O O10 0.626378 0.112518 0.671970
O O11 0.451000 0.117857 0.907958
O O12 0.709380 0.751677 0.315678
O O13 0.248042 0.984817 0.234413
O O14 0.258163 0.158824 0.002125
#
# Coordination Sequence:
#
# PCOD9031786 Si02
#       7
#     2   2   2   2   2   2   2
#     4  10  22  43  68  92 129 166 212 267 310 373
#     4  12  25  40  68  99 127 169 214 261 321 379
#     4   9  23  45  65  93 131 166 214 260 321 377
#     4   9  21  42  62  99 123 163 216 257 318 365
#     4  11  25  46  60  97 132 172 210 260 322 379
#     4  12  24  43  68  95 131 165 214 268 314 377
#     4  11  24  44  65  95 131 167 218 258 317 381
#
# _framework density 24.932615999999999
#
# number of rings (size 3 to 8) (size 9 to 14) (size 15 to 20)
#    0.857    0.571    2.857    1.714    2.000    3.429 
#    5.143    0.000    0.000    0.000    0.000    0.000 
#    0.000    0.000    0.000    0.000    0.000    0.000 
#
# Total GULP energy -78423.324182 kJ/mol
# GULP energy per Si atom -5601.666013 kJ/mol
# Density = 2.487587 g / cm^3
# Si number density = 24.932616 Si / 1000 Ang^3
#
#
#
# Elastic Constant Matrix: (Units=GPa)
#
#
# Indices 1 2 3 4 5 6 
#
# 1 88.5831 19.7356 20.1980 -9.0124 7.4797 21.9399
# 2 19.7356 98.5318 7.0199 15.2157 3.7384 -0.8905
# 3 20.1980 7.0199 68.3560 8.3237 3.5850 -10.4529
# 4 -9.0124 15.2157 8.3237 51.0824 -1.7965 2.3350
# 5 7.4797 3.7384 3.5850 -1.7965 4.9253 1.9128
# 6 21.9399 -0.8905 -10.4529 2.3350 1.9128 29.5761
#
#
#
# Elastic Compliance Matrix: (Units=1/GPa)
#
#
# Indices 1 2 3 4 5 6 
#
# 1 0.020276 -0.004179 -0.008467 0.006594 -0.012101 -0.017897
# 2 -0.004179 0.011991 0.001805 -0.005109 -0.007879 0.005012
# 3 -0.008467 0.001805 0.020625 -0.006483 -0.011672 0.014891
# 4 0.006594 -0.005109 -0.006483 0.024170 0.011273 -0.009974
# 5 -0.012101 -0.007879 -0.011672 0.011273 0.244699 -0.012102
# 6 -0.017897 0.005012 0.014891 -0.009974 -0.012102 0.054071
#
#
# Mechanical properties :
#
#
# Convention : Reuss Voigt Hill
#
# Bulk Modulus (GPa) = 32.04163 38.81979 35.43071
# Shear Modulus (GPa) = 12.25742 31.01791 21.63766
#
# Velocity S-wave (km/s) = 2.21966 3.53096 2.94912
# Velocity P-wave (km/s) = 4.41003 5.67691 5.08309
#
# Compressibility (1/GPa) = 0.03120939
#
# Stress axis : x y z
#
# Youngs Moduli (GPa) = 49.31999 83.39850 48.48582
#
# Poissons Ratio (x) = 0.34851 0.41053
# Poissons Ratio (y) = 0.20610 -0.08752
# Poissons Ratio (z) = 0.41760 -0.15055
#
# Static dielectric constant tensor:
#      x y z
#    x 1.890380 -0.005750 0.062880 
#    y -0.005750 1.995810 0.010440 
#    z 0.062880 0.010440 2.007600 
# 
# From -- ./inp_files/267872.got.cif
#   From: 2010.05.17/outbox.cif.g08.bks.cpg/sg2_134_cif.got.tgz:267872.got - 2010.06.03 11:33:40.
