data_PCOD9031855
_publ_section_title
;
Structure prediction by ZEFSAII (Michael W. Deem and Ramdas Pophale) SiO2 
 PCOD9031855
Probable space group: P -1
;
_chemical_formula_sum "Si O2"
_cell_formula_units_Z 16
_cell_length_a 15.431501
_cell_length_b 12.422450
_cell_length_c 8.967902
_cell_angle_alpha 47.279359
_cell_angle_beta 39.279709
_cell_angle_gamma 36.000650
_cell_volume 633.423007
_symmetry_space_group_name_H-M "P -1"
_symmetry_group_IT_number 2
_symmetry_cell_setting 'triclinic'
loop_
_space_group_symop_operation_xyz
x,y,z
-x,-y,-z
loop_
_atom_site_type_symbol
_atom_site_label
_atom_site_fract_x
_atom_site_fract_y
_atom_site_fract_z
Si Si1 0.540367 0.145906 0.343342
Si Si2 0.862332 0.695913 0.578062
Si Si3 0.464716 0.288713 0.639864
Si Si4 0.328908 0.693817 0.402192
Si Si5 0.138611 0.015505 0.155072
Si Si6 0.653366 0.574867 0.893994
Si Si7 0.022446 0.827907 0.064866
Si Si8 0.136812 0.303249 0.085751
O O1 0.544305 0.191093 0.467144
O O2 0.384138 0.349932 0.293984
O O3 0.500000 0.000000 0.500000
O O4 0.703449 0.084091 0.081716
O O5 0.692987 0.706004 0.795508
O O6 0.867531 0.828437 0.335576
O O7 0.917236 0.693586 0.674888
O O8 0.000000 0.500000 0.500000
O O9 0.345999 0.513351 0.590282
O O10 0.617993 0.230870 0.604722
O O11 0.326032 0.252948 0.890618
O O12 0.489262 0.610169 0.154078
O O13 0.166537 0.853862 0.371127
O O14 0.977437 0.150227 0.133664
O O15 0.154326 0.144978 0.117322
O O16 0.808477 0.362770 0.918775
O O17 0.000000 0.000000 0.000000
O O18 0.000000 0.500000 0.000000
#
# Coordination Sequence:
#
# PCOD9031855 Si02
#       8
#     2   2   2   2   2   2   2   2
#     4  11  23  41  74 104 138 183 248 295 355 431
#     4  10  22  43  68  96 136 186 234 285 353 422
#     4  11  25  45  74 103 146 189 240 298 371 420
#     4  10  25  47  71 105 144 192 240 300 366 428
#     4  11  26  45  67 108 139 186 246 294 362 434
#     4  10  22  43  70  99 141 187 235 295 353 430
#     4  11  26  44  69 104 143 187 242 296 362 426
#     4  12  25  44  73 105 147 191 238 298 362 430
#
# _framework density 25.259582999999999
#
# number of rings (size 3 to 8) (size 9 to 14) (size 15 to 20)
#    0.000    1.250    2.500    2.250    7.000    3.500 
#    2.250    1.250    0.000    0.000    0.000    0.000 
#    0.000    0.000    0.000    0.000    0.000    0.000 
#
# Total GULP energy -89568.849034 kJ/mol
# GULP energy per Si atom -5598.053065 kJ/mol
# Density = 2.520209 g / cm^3
# Si number density = 25.259583 Si / 1000 Ang^3
#
#
#
# Elastic Constant Matrix: (Units=GPa)
#
#
# Indices 1 2 3 4 5 6 
#
# 1 90.7370 52.2095 39.3115 -5.0345 23.1284 19.7082
# 2 52.2095 118.6470 29.0547 -8.8879 21.4503 -5.4805
# 3 39.3115 29.0547 58.8202 -18.5310 19.9653 6.9510
# 4 -5.0345 -8.8879 -18.5310 47.9088 -0.0371 4.9051
# 5 23.1284 21.4503 19.9653 -0.0371 60.2864 -0.8993
# 6 19.7082 -5.4805 6.9510 4.9051 -0.8993 50.6149
#
#
#
# Elastic Compliance Matrix: (Units=1/GPa)
#
#
# Indices 1 2 3 4 5 6 
#
# 1 0.021573 -0.007142 -0.009731 -0.002037 -0.002628 -0.007686
# 2 -0.007142 0.012322 -0.001207 0.000638 -0.001181 0.004198
# 3 -0.009731 -0.001207 0.029412 0.010277 -0.005593 -0.001476
# 4 -0.002037 0.000638 0.010277 0.025060 -0.002878 -0.003029
# 5 -0.002628 -0.001181 -0.005593 -0.002878 0.019901 0.002296
# 6 -0.007686 0.004198 -0.001476 -0.003029 0.002296 0.023741
#
#
# Mechanical properties :
#
#
# Convention : Reuss Voigt Hill
#
# Bulk Modulus (GPa) = 36.83991 56.59507 46.71749
# Shear Modulus (GPa) = 28.21357 41.60393 34.90875
#
# Velocity S-wave (km/s) = 3.34570 4.06280 3.72156
# Velocity P-wave (km/s) = 5.43517 6.66802 6.08291
#
# Compressibility (1/GPa) = 0.02714448
#
# Stress axis : x y z
#
# Youngs Moduli (GPa) = 46.35431 81.15387 34.00020
#
# Poissons Ratio (x) = 0.57964 0.33087
# Poissons Ratio (y) = 0.33108 0.04105
# Poissons Ratio (z) = 0.45109 0.09799
#
# Static dielectric constant tensor:
#      x y z
#    x 2.040670 -0.113310 -0.068080 
#    y -0.113310 2.017220 0.077790 
#    z -0.068080 0.077790 2.005560 
# 
# From -- ./inp_files/306437.got.cif
#   From: 2010.05.17/outbox.cif.g08.bks.cpg/sg2_154_cif.got.tgz:306437.got - 2010.06.03 11:33:40.
