data_PCOD9031031
_publ_section_title
;
Structure prediction by ZEFSAII (Michael W. Deem and Ramdas Pophale) SiO2 
 PCOD9031031
Probable space group: P -1
;
_chemical_formula_sum "Si O2"
_cell_formula_units_Z 14
_cell_length_a 10.863954
_cell_length_b 5.884186
_cell_length_c 12.866279
_cell_angle_alpha 99.909182
_cell_angle_beta 43.144543
_cell_angle_gamma 104.926370
_cell_volume 543.313517
_symmetry_space_group_name_H-M "P -1"
_symmetry_group_IT_number 2
_symmetry_cell_setting 'triclinic'
loop_
_space_group_symop_operation_xyz
x,y,z
-x,-y,-z
loop_
_atom_site_type_symbol
_atom_site_label
_atom_site_fract_x
_atom_site_fract_y
_atom_site_fract_z
Si Si1 0.455930 0.439973 0.353900
Si Si2 0.539599 0.644105 0.880662
Si Si3 0.116002 0.611376 0.654612
Si Si4 0.375414 0.911518 0.671713
Si Si5 0.819876 0.717977 0.154412
Si Si6 0.839563 0.323781 0.936862
Si Si7 0.039223 0.230423 0.420188
O O1 0.474179 0.513489 0.228330
O O2 0.257189 0.462136 0.511899
O O3 0.495009 0.186169 0.335298
O O4 0.624899 0.604660 0.322475
O O5 0.753052 0.762080 0.748139
O O6 0.500000 0.500000 0.000000
O O7 0.371836 0.783133 0.971297
O O8 0.210216 0.724617 0.709020
O O9 0.924606 0.449787 0.789321
O O10 0.090332 0.807616 0.603836
O O11 0.500000 0.000000 0.500000
O O12 0.251991 0.058342 0.825335
O O13 0.995068 0.789412 0.126684
O O14 0.839716 0.527231 0.040463
O O15 0.000000 0.500000 0.500000
O O16 0.000000 0.000000 0.500000
#
# Coordination Sequence:
#
# PCOD9031031 Si02
#       7
#     2   2   2   2   2   2   2
#     4  11  23  43  72 102 149 192 251 319 377 462
#     4  11  24  49  76 105 148 203 266 322 394 463
#     4  12  23  44  73 109 147 197 258 311 388 457
#     4  12  24  38  69 108 144 194 251 310 389 462
#     4  10  22  43  64 101 151 190 241 307 384 457
#     4  10  22  43  70 101 153 195 245 316 389 462
#     4  12  29  54  80 110 153 207 266 325 385 460
#
# _framework density 25.767814000000001
#
# number of rings (size 3 to 8) (size 9 to 14) (size 15 to 20)
#    0.000    0.857    5.714    1.286    2.000    1.714 
#    0.000    0.714    0.000    0.000    0.000    0.000 
#    0.000    0.000    0.000    0.000    0.000    0.000 
#
# Total GULP energy -77981.023217 kJ/mol
# GULP energy per Si atom -5570.073087 kJ/mol
# Density = 2.570916 g / cm^3
# Si number density = 25.767814 Si / 1000 Ang^3
#
#
#
# Elastic Constant Matrix: (Units=GPa)
#
#
# Indices 1 2 3 4 5 6 
#
# 1 133.9942 41.1373 39.6276 1.6034 -23.1604 -45.5876
# 2 41.1373 65.9788 46.4674 4.7647 -3.1390 -29.9793
# 3 39.6276 46.4674 142.5267 -16.4835 -23.6880 -25.1141
# 4 1.6034 4.7647 -16.4835 49.1325 -6.7515 -1.6448
# 5 -23.1604 -3.1390 -23.6880 -6.7515 57.4311 2.6021
# 6 -45.5876 -29.9793 -25.1141 -1.6448 2.6021 37.8373
#
#
#
# Elastic Compliance Matrix: (Units=1/GPa)
#
#
# Indices 1 2 3 4 5 6 
#
# 1 0.014028 -0.001877 0.000402 0.001081 0.005151 0.015374
# 2 -0.001877 0.028809 -0.007267 -0.005124 -0.003496 0.015759
# 3 0.000402 -0.007267 0.011004 0.005110 0.004817 0.001920
# 4 0.001081 -0.005124 0.005110 0.023251 0.004938 0.001306
# 5 0.005151 -0.003496 0.004817 0.004938 0.021623 0.005361
# 6 0.015374 0.015759 0.001920 0.001306 0.005361 0.058401
#
#
# Mechanical properties :
#
#
# Convention : Reuss Voigt Hill
#
# Bulk Modulus (GPa) = 27.50581 66.32937 46.91759
# Shear Modulus (GPa) = 26.77803 43.23133 35.00468
#
# Velocity S-wave (km/s) = 3.22717 4.10045 3.68974
# Velocity P-wave (km/s) = 4.95821 6.94372 6.03320
#
# Compressibility (1/GPa) = 0.03635596
#
# Stress axis : x y z
#
# Youngs Moduli (GPa) = 71.28363 34.71140 90.87732
#
# Poissons Ratio (x) = 0.06515 -0.03650
# Poissons Ratio (y) = 0.13379 0.66045
# Poissons Ratio (z) = -0.02863 0.25226
#
# Static dielectric constant tensor:
#      x y z
#    x 2.113980 0.044990 -0.043840 
#    y 0.044990 2.475730 -0.218190 
#    z -0.043840 -0.218190 2.505370 
# 
# From -- ./inp_files/39927.got.cif
#   From: 2010.05.17/outbox.cif.g08.bks.cpg/sg2_20_cif.got.tgz:39927.got - 2010.06.03 11:33:40.
