data_PCOD9031283
_publ_section_title
;
Structure prediction by ZEFSAII (Michael W. Deem and Ramdas Pophale) SiO2 
 PCOD9031283
Probable space group: P -1
;
_chemical_formula_sum "Si O2"
_cell_formula_units_Z 14
_cell_length_a 11.659220
_cell_length_b 13.999173
_cell_length_c 9.795897
_cell_angle_alpha 118.876586
_cell_angle_beta 49.979572
_cell_angle_gamma 150.932789
_cell_volume 581.265363
_symmetry_space_group_name_H-M "P -1"
_symmetry_group_IT_number 2
_symmetry_cell_setting 'triclinic'
loop_
_space_group_symop_operation_xyz
x,y,z
-x,-y,-z
loop_
_atom_site_type_symbol
_atom_site_label
_atom_site_fract_x
_atom_site_fract_y
_atom_site_fract_z
Si Si1 0.543505 0.597883 0.396455
Si Si2 0.400105 0.847383 0.263942
Si Si3 0.922207 0.492425 0.896722
Si Si4 0.143903 0.014284 0.138939
Si Si5 0.177035 0.760621 0.650069
Si Si6 0.242458 0.322691 0.181503
Si Si7 0.536926 0.265887 0.249412
O O1 0.500000 0.500000 0.500000
O O2 0.325182 0.430577 0.335002
O O3 0.510712 0.699182 0.552656
O O4 0.838823 0.779463 0.220781
O O5 0.185779 0.694229 0.198057
O O6 0.258636 0.738738 0.442617
O O7 0.552729 0.052542 0.333564
O O8 0.652170 0.928352 0.074300
O O9 0.950857 0.567853 0.784169
O O10 0.219280 0.671087 0.864537
O O11 0.707898 0.429519 0.108555
O O12 0.167900 0.152073 0.158751
O O13 0.260375 0.071186 0.245053
O O14 0.033973 0.785272 0.730640
O O15 0.500000 0.500000 0.000000
#
# Coordination Sequence:
#
# PCOD9031283 Si02
#       7
#     2   2   2   2   2   2   2
#     4  12  26  44  71 101 137 185 231 283 348 410
#     4  10  23  42  65  97 130 180 222 278 340 398
#     4  10  22  43  67  95 140 174 227 280 340 406
#     4  11  25  45  68 102 141 176 236 288 340 408
#     4  11  24  42  67  99 134 180 228 278 339 416
#     4  12  26  44  71 105 142 182 228 285 348 408
#     4  10  22  43  66 100 133 181 223 285 340 404
#
# _framework density 24.085384000000001
#
# number of rings (size 3 to 8) (size 9 to 14) (size 15 to 20)
#    0.000    1.143    1.429    4.286    2.000    6.857 
#    2.571    2.143    0.000    0.000    0.000    0.000 
#    0.000    0.000    0.000    0.000    0.000    0.000 
#
# Total GULP energy -78062.643824 kJ/mol
# GULP energy per Si atom -5575.903130 kJ/mol
# Density = 2.403056 g / cm^3
# Si number density = 24.085384 Si / 1000 Ang^3
#
#
#
# Elastic Constant Matrix: (Units=GPa)
#
#
# Indices 1 2 3 4 5 6 
#
# 1 29.4610 29.5380 -0.5319 6.2627 10.4994 12.9810
# 2 29.5380 73.2488 6.1190 4.5805 17.2822 9.3986
# 3 -0.5319 6.1190 135.9989 3.0011 22.2131 -4.8654
# 4 6.2627 4.5805 3.0011 52.6538 11.7422 11.8892
# 5 10.4994 17.2822 22.2131 11.7422 30.3255 1.3305
# 6 12.9810 9.3986 -4.8654 11.8892 1.3305 23.2770
#
#
#
# Elastic Compliance Matrix: (Units=1/GPa)
#
#
# Indices 1 2 3 4 5 6 
#
# 1 0.077365 -0.023706 0.002531 0.003786 -0.015099 -0.034114
# 2 -0.023706 0.024200 -0.000091 0.001410 -0.006198 0.003064
# 3 0.002531 -0.000091 0.008579 0.000773 -0.007428 0.000448
# 4 0.003786 0.001410 0.000773 0.024120 -0.011398 -0.014188
# 5 -0.015099 -0.006198 -0.007428 -0.011398 0.051051 0.012274
# 6 -0.034114 0.003064 0.000448 -0.014188 0.012274 0.067387
#
#
# Mechanical properties :
#
#
# Convention : Reuss Voigt Hill
#
# Bulk Modulus (GPa) = 14.79014 34.32877 24.55946
# Shear Modulus (GPa) = 15.73459 34.82350 25.27904
#
# Velocity S-wave (km/s) = 2.55871 3.80654 3.24321
# Velocity P-wave (km/s) = 3.85790 5.79686 4.92377
#
# Compressibility (1/GPa) = 0.06761260
#
# Stress axis : x y z
#
# Youngs Moduli (GPa) = 12.92582 41.32169 116.56154
#
# Poissons Ratio (x) = 0.97958 -0.29505
# Poissons Ratio (y) = 0.30642 0.01058
# Poissons Ratio (z) = -0.03272 0.00375
#
# Static dielectric constant tensor:
#      x y z
#    x 1.982600 -0.010370 0.042510 
#    y -0.010370 2.015560 -0.041270 
#    z 0.042510 -0.041270 1.953250 
# 
# From -- ./inp_files/243454.got.cif
#   From: 2010.05.17/outbox.cif.g08.bks.cpg/sg2_122_cif.got.tgz:243454.got - 2010.06.03 11:33:40.
