data_PCOD9031499
_publ_section_title
;
Structure prediction by ZEFSAII (Michael W. Deem and Ramdas Pophale) SiO2 
 PCOD9031499
Probable space group: P -1
;
_chemical_formula_sum "Si O2"
_cell_formula_units_Z 14
_cell_length_a 5.217614
_cell_length_b 29.507893
_cell_length_c 8.683621
_cell_angle_alpha 32.833133
_cell_angle_beta 59.159539
_cell_angle_gamma 69.261995
_cell_volume 613.883579
_symmetry_space_group_name_H-M "P -1"
_symmetry_group_IT_number 2
_symmetry_cell_setting 'triclinic'
loop_
_space_group_symop_operation_xyz
x,y,z
-x,-y,-z
loop_
_atom_site_type_symbol
_atom_site_label
_atom_site_fract_x
_atom_site_fract_y
_atom_site_fract_z
Si Si1 0.559316 0.766406 0.634503
Si Si2 0.879448 0.474800 0.279244
Si Si3 0.038613 0.304159 0.844798
Si Si4 0.789366 0.955240 0.061257
Si Si5 0.654023 0.812932 0.116314
Si Si6 0.217484 0.923244 0.778737
Si Si7 0.760475 0.604967 0.167670
O O1 0.750962 0.854054 0.387573
O O2 0.550292 0.783291 0.405935
O O3 0.654964 0.674114 0.888575
O O4 0.268148 0.760597 0.850550
O O5 0.962967 0.548479 0.171846
O O6 0.518027 0.452694 0.490455
O O7 0.993530 0.387631 0.528912
O O8 0.000000 0.500000 0.000000
O O9 0.286975 0.260980 0.806485
O O10 0.089000 0.336349 0.911098
O O11 0.962008 0.965767 0.818852
O O12 0.500000 0.000000 0.000000
O O13 0.000000 0.000000 0.000000
O O14 0.377379 0.852306 0.016682
O O15 0.990159 0.872090 0.865162
O O16 0.500000 0.000000 0.500000
#
# Coordination Sequence:
#
# PCOD9031499 Si02
#       7
#     2   2   2   2   2   2   2
#     4  10  25  43  64 102 139 183 239 295 357 432
#     4  10  22  43  67 101 141 181 232 290 363 428
#     4  11  25  40  71 102 138 192 232 300 360 427
#     4  11  25  42  70 100 137 187 239 296 360 418
#     4  11  26  44  69 102 144 189 241 295 364 428
#     4  11  26  45  69 102 141 187 243 305 362 427
#     4  10  23  41  68 100 141 179 238 292 352 435
#
# _framework density 22.805624000000002
#
# number of rings (size 3 to 8) (size 9 to 14) (size 15 to 20)
#    0.000    1.429    0.000    3.429   14.000    1.714 
#    0.000    0.000    0.000    0.000    0.000    0.000 
#    0.000    0.000    0.000    0.000    0.000    0.000 
#
# Total GULP energy -77939.074558 kJ/mol
# GULP energy per Si atom -5567.076754 kJ/mol
# Density = 2.275372 g / cm^3
# Si number density = 22.805624 Si / 1000 Ang^3
#
#
#
# Elastic Constant Matrix: (Units=GPa)
#
#
# Indices 1 2 3 4 5 6 
#
# 1 82.8687 27.1301 25.8782 5.6034 -5.1982 -5.3474
# 2 27.1301 144.6629 90.1383 49.2632 -31.8200 7.0638
# 3 25.8782 90.1383 58.0672 -43.7098 52.5011 -38.2274
# 4 5.6034 49.2632 -43.7098 -45.4099 56.2372 -34.6607
# 5 -5.1982 -31.8200 52.5011 56.2372 -17.9737 24.0946
# 6 -5.3474 7.0638 -38.2274 -34.6607 24.0946 24.1344
#
#
#
# Elastic Compliance Matrix: (Units=1/GPa)
#
#
# Indices 1 2 3 4 5 6 
#
# 1 0.013287 -0.001717 -0.001885 0.001629 0.001088 0.001715
# 2 -0.001717 0.006652 -0.002419 0.003916 -0.002911 0.002372
# 3 -0.001885 -0.002419 0.011429 -0.011621 0.001768 -0.000061
# 4 0.001629 0.003916 -0.011621 0.022051 0.018976 -0.006468
# 5 0.001088 -0.002911 0.001768 0.018976 0.023733 0.007453
# 6 0.001715 0.002372 -0.000061 -0.006468 0.007453 0.024293
#
#
# Mechanical properties :
#
#
# Convention : Reuss Voigt Hill
#
# Bulk Modulus (GPa) = 51.73936 63.54354 57.64145
# Shear Modulus (GPa) = 41.69207 1.64696 21.66952
#
# Velocity S-wave (km/s) = 4.28032 0.85073 3.08585
# Velocity P-wave (km/s) = 6.86765 5.37481 6.16657
#
# Compressibility (1/GPa) = 0.01932765
#
# Stress axis : x y z
#
# Youngs Moduli (GPa) = 75.26397 150.33479 87.49643
#
# Poissons Ratio (x) = 0.25809 0.16489
# Poissons Ratio (y) = 0.12921 0.21162
# Poissons Ratio (z) = 0.14184 0.36360
#
# Static dielectric constant tensor:
#      x y z
#    x 2.221800 0.427700 -0.188600 
#    y 0.427700 2.321490 -0.135860 
#    z -0.188600 -0.135860 2.010750 
# 
# From -- ./inp_files/143310.got.cif
#   From: 2010.05.17/outbox.cif.g08.bks.cpg/sg2_72_cif.got.tgz:143310.got - 2010.06.03 11:33:40.
