data_PCOD9031480
_publ_section_title
;
Structure prediction by ZEFSAII (Michael W. Deem and Ramdas Pophale) SiO2 
 PCOD9031480
Probable space group: P -1
;
_chemical_formula_sum "Si O2"
_cell_formula_units_Z 14
_cell_length_a 9.325109
_cell_length_b 10.833027
_cell_length_c 15.650719
_cell_angle_alpha 141.168975
_cell_angle_beta 134.452622
_cell_angle_gamma 41.330039
_cell_volume 628.761140
_symmetry_space_group_name_H-M "P -1"
_symmetry_group_IT_number 2
_symmetry_cell_setting 'triclinic'
loop_
_space_group_symop_operation_xyz
x,y,z
-x,-y,-z
loop_
_atom_site_type_symbol
_atom_site_label
_atom_site_fract_x
_atom_site_fract_y
_atom_site_fract_z
Si Si1 0.163342 0.085452 0.074283
Si Si2 0.498512 0.190914 0.661911
Si Si3 0.406454 0.119558 0.770433
Si Si4 0.241181 0.180905 0.976701
Si Si5 0.952278 0.556927 0.309634
Si Si6 0.717016 0.279891 0.503033
Si Si7 0.168264 0.678278 0.229496
O O1 0.423228 0.904649 0.097017
O O2 0.117170 0.148739 0.990977
O O3 0.125701 0.304580 0.229813
O O4 0.000000 0.000000 0.000000
O O5 0.240763 0.389389 0.671351
O O6 0.671351 0.267985 0.737018
O O7 0.500000 0.000000 0.500000
O O8 0.543842 0.096889 0.726823
O O9 0.329349 0.928826 0.640110
O O10 0.191016 0.354099 0.790407
O O11 0.227427 0.422364 0.105873
O O12 0.092518 0.179786 0.832973
O O13 0.500000 0.000000 0.000000
O O14 0.076332 0.709954 0.456066
O O15 0.500000 0.500000 0.500000
O O16 0.774363 0.287915 0.631163
#
# Coordination Sequence:
#
# PCOD9031480 Si02
#       7
#     2   2   2   2   2   2   2
#     4  12  25  45  65 100 135 173 235 271 317 416
#     4  10  22  43  67 100 132 178 209 274 349 390
#     4  10  23  40  70  95 135 167 225 265 345 389
#     4  11  27  43  68  97 129 184 223 272 337 382
#     4  10  24  41  67  99 127 183 216 269 345 382
#     4  12  21  44  71  99 133 172 222 279 336 406
#     4  11  23  47  66  94 143 164 227 279 326 402
#
# _framework density 22.266007999999999
#
# number of rings (size 3 to 8) (size 9 to 14) (size 15 to 20)
#    0.857    0.286    4.286    1.286    4.000    0.571 
#    5.143    1.429    0.000    0.000    0.000    0.000 
#    0.000    0.000    0.000    0.000    0.000    0.000 
#
# Total GULP energy -78218.907169 kJ/mol
# GULP energy per Si atom -5587.064798 kJ/mol
# Density = 2.221533 g / cm^3
# Si number density = 22.266008 Si / 1000 Ang^3
#
#
#
# Elastic Constant Matrix: (Units=GPa)
#
#
# Indices 1 2 3 4 5 6 
#
# 1 128.1428 33.3835 56.1079 -0.1573 21.8870 11.5803
# 2 33.3835 114.9621 25.5264 -21.7111 9.5417 -3.4359
# 3 56.1079 25.5264 83.8205 -19.3872 17.2659 12.3131
# 4 -0.1573 -21.7111 -19.3872 34.2657 3.1389 6.8049
# 5 21.8870 9.5417 17.2659 3.1389 47.0465 -0.9441
# 6 11.5803 -3.4359 12.3131 6.8049 -0.9441 36.6656
#
#
#
# Elastic Compliance Matrix: (Units=1/GPa)
#
#
# Indices 1 2 3 4 5 6 
#
# 1 0.012665 -0.002828 -0.008750 -0.006498 -0.001677 -0.000164
# 2 -0.002828 0.010918 0.000522 0.007274 -0.001569 0.000350
# 3 -0.008750 0.000522 0.023760 0.015926 -0.005984 -0.008277
# 4 -0.006498 0.007274 0.015926 0.045710 -0.007573 -0.011293
# 5 -0.001677 -0.001569 -0.005984 -0.007573 0.025144 0.004445
# 6 -0.000164 0.000350 -0.008277 -0.011293 0.004445 0.032348
#
#
# Mechanical properties :
#
#
# Convention : Reuss Voigt Hill
#
# Bulk Modulus (GPa) = 39.63220 61.88456 50.75838
# Shear Modulus (GPa) = 27.61391 37.72272 32.66831
#
# Velocity S-wave (km/s) = 3.52544 4.12051 3.83454
# Velocity P-wave (km/s) = 5.86598 7.10576 6.51542
#
# Compressibility (1/GPa) = 0.02523201
#
# Stress axis : x y z
#
# Youngs Moduli (GPa) = 78.95792 91.59002 42.08698
#
# Poissons Ratio (x) = 0.25900 0.36826
# Poissons Ratio (y) = 0.22328 -0.02197
# Poissons Ratio (z) = 0.69088 -0.04781
#
# Static dielectric constant tensor:
#      x y z
#    x 1.890990 -0.012200 -0.031470 
#    y -0.012200 1.828540 -0.033310 
#    z -0.031470 -0.033310 1.791470 
# 
# From -- ./inp_files/559341.got.cif
#   From: 2010.05.17/outbox.cif.g08.bks.cpg/sg2_280_cif.got.tgz:559341.got - 2010.06.03 11:33:40.
