data_PCOD9031545
_publ_section_title
;
Structure prediction by ZEFSAII (Michael W. Deem and Ramdas Pophale) SiO2 
 PCOD9031545
Probable space group: P -1
;
_chemical_formula_sum "Si O2"
_cell_formula_units_Z 14
_cell_length_a 11.926995
_cell_length_b 11.519820
_cell_length_c 8.552514
_cell_angle_alpha 43.102139
_cell_angle_beta 75.576129
_cell_angle_gamma 49.030860
_cell_volume 542.914510
_symmetry_space_group_name_H-M "P -1"
_symmetry_group_IT_number 2
_symmetry_cell_setting 'triclinic'
loop_
_space_group_symop_operation_xyz
x,y,z
-x,-y,-z
loop_
_atom_site_type_symbol
_atom_site_label
_atom_site_fract_x
_atom_site_fract_y
_atom_site_fract_z
Si Si1 0.552172 0.716944 0.410088
Si Si2 0.149117 0.077977 0.877703
Si Si3 0.184409 0.132832 0.130748
Si Si4 0.654660 0.333743 0.997771
Si Si5 0.852504 0.302553 0.194777
Si Si6 0.406011 0.140832 0.232890
Si Si7 0.855689 0.273486 0.583105
O O1 0.636286 0.515815 0.713579
O O2 0.675335 0.552660 0.388079
O O3 0.363499 0.845790 0.334638
O O4 0.528335 0.936984 0.256053
O O5 0.308382 0.872664 0.914601
O O6 0.136663 0.915034 0.143669
O O7 0.990905 0.246841 0.652832
O O8 0.156511 0.209765 0.881822
O O9 0.243270 0.201740 0.176217
O O10 0.010937 0.240123 0.142160
O O11 0.500000 0.500000 0.000000
O O12 0.810153 0.199991 0.187413
O O13 0.878461 0.223018 0.441602
O O14 0.681289 0.589049 0.978895
O O15 0.500000 0.000000 0.500000
#
# Coordination Sequence:
#
# PCOD9031545 Si02
#       7
#     2   2   2   2   2   2   2
#     4   9  22  42  62  89 128 169 203 255 323 369
#     4  10  23  42  60  91 135 167 203 257 325 371
#     4  10  23  40  69  91 124 171 209 256 320 372
#     4  11  25  39  65  98 128 167 209 261 314 382
#     4  12  23  40  67  98 124 162 223 260 303 378
#     4  10  22  43  67  91 125 167 213 262 316 369
#     4  10  23  40  64  93 130 168 205 260 318 374
#
# _framework density 25.786749
#
# number of rings (size 3 to 8) (size 9 to 14) (size 15 to 20)
#    0.857    0.857    1.429    3.000    6.000    2.857 
#    0.000    0.714    0.000    0.000    0.000    0.000 
#    0.000    0.000    0.000    0.000    0.000    0.000 
#
# Total GULP energy -78148.396878 kJ/mol
# GULP energy per Si atom -5582.028348 kJ/mol
# Density = 2.572806 g / cm^3
# Si number density = 25.786749 Si / 1000 Ang^3
#
#
#
# Elastic Constant Matrix: (Units=GPa)
#
#
# Indices 1 2 3 4 5 6 
#
# 1 91.9972 45.0558 27.3466 9.7833 33.0720 10.7204
# 2 45.0558 120.7864 28.3775 6.4123 9.4078 -10.6971
# 3 27.3466 28.3775 113.5522 -3.6385 30.2922 14.6549
# 4 9.7833 6.4123 -3.6385 52.2817 15.0141 4.7200
# 5 33.0720 9.4078 30.2922 15.0141 38.3822 2.3340
# 6 10.7204 -10.6971 14.6549 4.7200 2.3340 38.8530
#
#
#
# Elastic Compliance Matrix: (Units=1/GPa)
#
#
# Indices 1 2 3 4 5 6 
#
# 1 0.022035 -0.008465 0.003644 0.003951 -0.020784 -0.009016
# 2 -0.008465 0.012659 -0.004493 -0.003428 0.008627 0.007414
# 3 0.003644 -0.004493 0.014228 0.005869 -0.015113 -0.007414
# 4 0.003951 -0.003428 0.005869 0.024488 -0.016396 -0.006238
# 5 -0.020784 0.008627 -0.015113 -0.016396 0.059445 0.012231
# 6 -0.009016 0.007414 -0.007414 -0.006238 0.012231 0.033087
#
#
# Mechanical properties :
#
#
# Convention : Reuss Voigt Hill
#
# Bulk Modulus (GPa) = 33.01037 58.65506 45.83272
# Shear Modulus (GPa) = 25.68471 40.94044 33.31258
#
# Velocity S-wave (km/s) = 3.15944 3.98886 3.59813
# Velocity P-wave (km/s) = 5.11258 6.63402 5.92236
#
# Compressibility (1/GPa) = 0.03029351
#
# Stress axis : x y z
#
# Youngs Moduli (GPa) = 45.38294 78.99599 70.28217
#
# Poissons Ratio (x) = 0.66869 -0.25609
# Poissons Ratio (y) = 0.38416 0.31578
# Poissons Ratio (z) = -0.16536 0.35494
#
# Static dielectric constant tensor:
#      x y z
#    x 2.149580 0.062490 -0.020050 
#    y 0.062490 2.112260 0.006770 
#    z -0.020050 0.006770 2.060470 
# 
# From -- ./inp_files/262055.got.cif
#   From: 2010.05.17/outbox.cif.g08.bks.cpg/sg2_132_cif.got.tgz:262055.got - 2010.06.03 11:33:40.
