data_PCOD9031390
_publ_section_title
;
Structure prediction by ZEFSAII (Michael W. Deem and Ramdas Pophale) SiO2 
 PCOD9031390
Probable space group: P -1
;
_chemical_formula_sum "Si O2"
_cell_formula_units_Z 16
_cell_length_a 11.518801
_cell_length_b 8.853698
_cell_length_c 13.195927
_cell_angle_alpha 49.385231
_cell_angle_beta 71.643426
_cell_angle_gamma 108.748735
_cell_volume 661.977650
_symmetry_space_group_name_H-M "P -1"
_symmetry_group_IT_number 2
_symmetry_cell_setting 'triclinic'
loop_
_space_group_symop_operation_xyz
x,y,z
-x,-y,-z
loop_
_atom_site_type_symbol
_atom_site_label
_atom_site_fract_x
_atom_site_fract_y
_atom_site_fract_z
Si Si1 0.710000 0.824378 0.418007
Si Si2 0.027543 0.175100 0.289548
Si Si3 0.561291 0.281125 0.067975
Si Si4 0.836616 0.874742 0.030069
Si Si5 0.482404 0.770051 0.661807
Si Si6 0.956065 0.644723 0.587773
Si Si7 0.435292 0.175519 0.743533
Si Si8 0.219335 0.908989 0.220667
O O1 0.625437 0.792957 0.561012
O O2 0.629403 0.511133 0.552871
O O3 0.629387 0.868579 0.334347
O O4 0.922151 0.102802 0.248234
O O5 0.006020 0.317587 0.319704
O O6 0.239472 0.394911 0.128573
O O7 0.934654 0.855337 0.484376
O O8 0.494999 0.198053 0.238102
O O9 0.567867 0.058901 0.129309
O O10 0.420415 0.213530 0.059687
O O11 0.713856 0.546487 0.172790
O O12 0.703928 0.863288 0.134225
O O13 0.882652 0.054387 0.838124
O O14 0.000000 0.000000 0.000000
O O15 0.500000 0.000000 0.500000
O O16 0.794836 0.315577 0.737619
O O17 0.117879 0.769247 0.416473
#
# Coordination Sequence:
#
# PCOD9031390 Si02
#       8
#     2   2   2   2   2   2   2   2
#     4  10  22  43  66  94 140 181 227 267 340 406
#     4  11  24  40  68 105 135 175 225 290 333 401
#     4  12  25  42  72 106 137 175 229 284 344 393
#     4  11  27  45  70 101 137 178 230 282 339 400
#     4  11  24  44  67 102 138 182 218 282 340 406
#     4  10  24  44  67  99 130 184 221 274 344 403
#     4  10  23  42  68  98 131 188 223 275 333 408
#     4  11  25  47  69  98 138 182 226 280 337 416
#
# _framework density 24.170000999999999
#
# number of rings (size 3 to 8) (size 9 to 14) (size 15 to 20)
#    0.000    1.250    1.250    3.000    3.500   12.500 
#    0.000    0.000    0.000    0.000    0.000    0.000 
#    0.000    0.000    0.000    0.000    0.000    0.000 
#
# Total GULP energy -89560.269496 kJ/mol
# GULP energy per Si atom -5597.516844 kJ/mol
# Density = 2.411499 g / cm^3
# Si number density = 24.170001 Si / 1000 Ang^3
#
#
#
# Elastic Constant Matrix: (Units=GPa)
#
#
# Indices 1 2 3 4 5 6 
#
# 1 93.4435 52.7518 32.3423 -25.5147 -7.0628 25.2791
# 2 52.7518 140.3283 34.5880 -7.6084 -15.2819 13.9970
# 3 32.3423 34.5880 73.4274 -11.2013 -7.3483 16.1460
# 4 -25.5147 -7.6084 -11.2013 41.4585 4.5299 -6.3333
# 5 -7.0628 -15.2819 -7.3483 4.5299 36.7388 -15.5030
# 6 25.2791 13.9970 16.1460 -6.3333 -15.5030 44.2233
#
#
#
# Elastic Compliance Matrix: (Units=1/GPa)
#
#
# Indices 1 2 3 4 5 6 
#
# 1 0.019394 -0.005635 -0.003058 0.009240 -0.003829 -0.008205
# 2 -0.005635 0.009968 -0.002654 -0.002455 0.003666 0.001968
# 3 -0.003058 -0.002654 0.017246 0.001757 0.000096 -0.003423
# 4 0.009240 -0.002455 0.001757 0.029892 -0.003456 -0.002077
# 5 -0.003829 0.003666 0.000096 -0.003456 0.033640 0.012291
# 6 -0.008205 0.001968 -0.003423 -0.002077 0.012291 0.031941
#
#
# Mechanical properties :
#
#
# Convention : Reuss Voigt Hill
#
# Bulk Modulus (GPa) = 41.81267 60.72928 51.27098
# Shear Modulus (GPa) = 28.94411 36.98525 32.96468
#
# Velocity S-wave (km/s) = 3.46428 3.91604 3.69706
# Velocity P-wave (km/s) = 5.77396 6.75482 6.28356
#
# Compressibility (1/GPa) = 0.02391620
#
# Stress axis : x y z
#
# Youngs Moduli (GPa) = 51.56145 100.31883 57.98291
#
# Poissons Ratio (x) = 0.56525 0.17729
# Poissons Ratio (y) = 0.29052 0.15390
# Poissons Ratio (z) = 0.15766 0.26627
#
# Static dielectric constant tensor:
#      x y z
#    x 1.929880 0.003520 -0.017550 
#    y 0.003520 1.949140 0.034400 
#    z -0.017550 0.034400 1.946900 
# 
# From -- ./inp_files/515056.got.cif
#   From: 2010.05.17/outbox.cif.g08.bks.cpg/sg2_258_cif.got.tgz:515056.got - 2010.06.03 11:33:40.
