data_PCOD9031168
_publ_section_title
;
Structure prediction by ZEFSAII (Michael W. Deem and Ramdas Pophale) SiO2 
 PCOD9031168
Probable space group: P -1
;
_chemical_formula_sum "Si O2"
_cell_formula_units_Z 14
_cell_length_a 7.020453
_cell_length_b 7.135459
_cell_length_c 15.024847
_cell_angle_alpha 91.832341
_cell_angle_beta 106.351953
_cell_angle_gamma 128.378528
_cell_volume 544.352034
_symmetry_space_group_name_H-M "P -1"
_symmetry_group_IT_number 2
_symmetry_cell_setting 'triclinic'
loop_
_space_group_symop_operation_xyz
x,y,z
-x,-y,-z
loop_
_atom_site_type_symbol
_atom_site_label
_atom_site_fract_x
_atom_site_fract_y
_atom_site_fract_z
Si Si1 0.908839 0.936024 0.843304
Si Si2 0.300371 0.299574 0.366444
Si Si3 0.364128 0.655799 0.796523
Si Si4 0.126641 0.683649 0.602969
Si Si5 0.311961 0.151777 0.550654
Si Si6 0.223762 0.440359 0.963935
Si Si7 0.527431 0.913250 0.096118
O O1 0.821363 0.909369 0.728262
O O2 0.624432 0.687497 0.835191
O O3 0.991482 0.147587 0.927846
O O4 0.181140 0.994502 0.867982
O O5 0.400429 0.237260 0.461304
O O6 0.531153 0.587699 0.373365
O O7 0.076870 0.306283 0.371277
O O8 0.215011 0.579920 0.683263
O O9 0.202631 0.516164 0.862748
O O10 0.471105 0.935411 0.824097
O O11 0.000000 0.500000 0.500000
O O12 0.336722 0.964471 0.595637
O O13 0.000000 0.000000 0.500000
O O14 0.500000 0.500000 0.000000
O O15 0.279277 0.619229 0.053500
O O16 0.500000 0.000000 0.000000
#
# Coordination Sequence:
#
# PCOD9031168 Si02
#       7
#     2   2   2   2   2   2   2
#     4  11  23  40  67  99 126 172 218 261 341 387
#     4  10  22  43  65  90 134 178 213 274 322 388
#     4  11  24  41  66  98 134 169 221 274 323 394
#     4  11  25  41  64  98 133 173 222 272 325 388
#     4   9  22  41  64  90 127 175 221 262 324 385
#     4   9  22  42  67  94 128 168 214 273 328 390
#     4   9  20  44  64  91 131 165 211 273 324 387
#
# _framework density 25.71865
#
# number of rings (size 3 to 8) (size 9 to 14) (size 15 to 20)
#    0.000    2.000    1.429    0.000    8.000    8.571 
#    0.000    0.000    0.000    0.000    0.000    0.000 
#    0.000    0.000    0.000    0.000    0.000    0.000 
#
# Total GULP energy -78099.795986 kJ/mol
# GULP energy per Si atom -5578.556856 kJ/mol
# Density = 2.566011 g / cm^3
# Si number density = 25.718650 Si / 1000 Ang^3
#
#
#
# Elastic Constant Matrix: (Units=GPa)
#
#
# Indices 1 2 3 4 5 6 
#
# 1 76.3435 9.5746 4.4658 6.7391 4.1046 8.1434
# 2 9.5746 91.0582 47.9043 -4.9754 4.3858 -4.4903
# 3 4.4658 47.9043 152.8938 10.5510 0.3566 -13.9437
# 4 6.7391 -4.9754 10.5510 38.5441 -11.0383 2.0908
# 5 4.1046 4.3858 0.3566 -11.0383 41.8271 12.6815
# 6 8.1434 -4.4903 -13.9437 2.0908 12.6815 31.3253
#
#
#
# Elastic Compliance Matrix: (Units=1/GPa)
#
#
# Indices 1 2 3 4 5 6 
#
# 1 0.013963 -0.001755 0.000032 -0.002757 -0.000909 -0.003315
# 2 -0.001755 0.013708 -0.004413 0.003100 -0.000553 0.000474
# 3 0.000032 -0.004413 0.008559 -0.003672 -0.001844 0.004161
# 4 -0.002757 0.003100 -0.003672 0.031120 0.010217 -0.006687
# 5 -0.000909 -0.000553 -0.001844 0.010217 0.030977 -0.013886
# 6 -0.003315 0.000474 0.004161 -0.006687 -0.013886 0.040773
#
#
# Mechanical properties :
#
#
# Convention : Reuss Voigt Hill
#
# Bulk Modulus (GPa) = 41.74090 49.35386 45.54738
# Shear Modulus (GPa) = 31.37581 39.56267 35.46924
#
# Velocity S-wave (km/s) = 3.49659 3.92636 3.71769
# Velocity P-wave (km/s) = 5.70671 6.30766 6.01470
#
# Compressibility (1/GPa) = 0.02395732
#
# Stress axis : x y z
#
# Youngs Moduli (GPa) = 71.61861 72.95239 116.83116
#
# Poissons Ratio (x) = 0.12807 -0.00377
# Poissons Ratio (y) = 0.12573 0.51557
# Poissons Ratio (z) = -0.00231 0.32194
#
# Static dielectric constant tensor:
#      x y z
#    x 2.154170 -0.027990 -0.015210 
#    y -0.027990 1.928070 0.046810 
#    z -0.015210 0.046810 1.982670 
# 
# From -- ./inp_files/494931.got.cif
#   From: 2010.05.17/outbox.cif.g08.bks.cpg/sg2_248_cif.got.tgz:494931.got - 2010.06.03 11:33:40.
