data_PCOD9031745
_publ_section_title
;
Structure prediction by ZEFSAII (Michael W. Deem and Ramdas Pophale) SiO2 
 PCOD9031745
Probable space group: P -1
;
_chemical_formula_sum "Si O2"
_cell_formula_units_Z 15
_cell_length_a 9.290382
_cell_length_b 9.550764
_cell_length_c 20.813468
_cell_angle_alpha 41.883338
_cell_angle_beta 57.102672
_cell_angle_gamma 92.754515
_cell_volume 611.228598
_symmetry_space_group_name_H-M "P -1"
_symmetry_group_IT_number 2
_symmetry_cell_setting 'triclinic'
loop_
_space_group_symop_operation_xyz
x,y,z
-x,-y,-z
loop_
_atom_site_type_symbol
_atom_site_label
_atom_site_fract_x
_atom_site_fract_y
_atom_site_fract_z
Si Si1 0.625087 0.392185 0.510839
Si Si2 0.275512 0.717730 0.750451
Si Si3 0.079852 0.287666 0.531238
Si Si4 0.425072 0.644045 0.932373
Si Si5 0.102154 0.714522 0.191907
Si Si6 0.000000 0.500000 0.000000
Si Si7 0.477967 0.015012 0.897140
Si Si8 0.232556 0.980810 0.548664
O O1 0.500000 0.500000 0.500000
O O2 0.805918 0.564289 0.474214
O O3 0.833127 0.561438 0.341647
O O4 0.379850 0.962830 0.706825
O O5 0.990616 0.365535 0.976839
O O6 0.279938 0.887149 0.633313
O O7 0.485795 0.749579 0.659072
O O8 0.278534 0.621629 0.323522
O O9 0.132063 0.103860 0.556508
O O10 0.742548 0.013354 0.700775
O O11 0.176727 0.453895 0.006694
O O12 0.345125 0.711615 0.987931
O O13 0.500000 0.500000 0.000000
O O14 0.353583 0.951931 0.101319
O O15 0.997567 0.375160 0.316635
O O16 0.239188 0.924151 0.020410
#
# Coordination Sequence:
#
# PCOD9031745 Si02
#       8
#     2   2   2   2   2   1   2   2
#     4  11  22  41  72 100 136 190 237 289 366 435
#     4  10  22  43  68 102 146 186 241 301 363 440
#     4  12  24  44  72 106 141 189 248 305 362 440
#     4  12  27  48  76 110 149 195 245 309 371 441
#     4  10  23  43  68  95 144 193 234 297 369 433
#     4  12  26  44  74 108 140 186 248 302 360 436
#     4  11  24  45  70 102 142 188 244 304 366 434
#     4  10  22  43  69 101 145 194 236 298 373 432
#
# _framework density 24.54074
#
# number of rings (size 3 to 8) (size 9 to 14) (size 15 to 20)
#    0.000    1.067    2.667    3.600    3.733    0.533 
#    7.200    0.667    0.000    0.000    0.000    0.000 
#    0.000    0.000    0.000    0.000    0.000    0.000 
#
# Total GULP energy -83589.786432 kJ/mol
# GULP energy per Si atom -5572.652429 kJ/mol
# Density = 2.448488 g / cm^3
# Si number density = 24.540740 Si / 1000 Ang^3
#
#
#
# Elastic Constant Matrix: (Units=GPa)
#
#
# Indices 1 2 3 4 5 6 
#
# 1 128.0805 57.2832 40.3631 12.4158 -16.0636 3.2885
# 2 57.2832 143.8736 30.0596 30.2683 -10.0797 -5.2170
# 3 40.3631 30.0596 119.3245 46.6342 -7.9024 -13.0640
# 4 12.4158 30.2683 46.6342 47.6264 1.2310 -2.4709
# 5 -16.0636 -10.0797 -7.9024 1.2310 32.9059 4.0844
# 6 3.2885 -5.2170 -13.0640 -2.4709 4.0844 37.5100
#
#
#
# Elastic Compliance Matrix: (Units=1/GPa)
#
#
# Indices 1 2 3 4 5 6 
#
# 1 0.011199 -0.004221 -0.004305 0.003725 0.003397 -0.003193
# 2 -0.004221 0.009872 0.002005 -0.007081 0.001485 0.001813
# 3 -0.004305 0.002005 0.016231 -0.015846 0.002382 0.005006
# 4 0.003725 -0.007081 -0.015846 0.039988 -0.005201 -0.003630
# 5 0.003397 0.001485 0.002382 -0.005201 0.033675 -0.003271
# 6 -0.003193 0.001813 0.005006 -0.003630 -0.003271 0.029052
#
#
# Mechanical properties :
#
#
# Convention : Reuss Voigt Hill
#
# Bulk Modulus (GPa) = 41.22138 71.85448 56.53793
# Shear Modulus (GPa) = 31.02779 41.17997 36.10388
#
# Velocity S-wave (km/s) = 3.55961 4.10081 3.83976
# Velocity P-wave (km/s) = 5.80758 7.19482 6.53810
#
# Compressibility (1/GPa) = 0.02425925
#
# Stress axis : x y z
#
# Youngs Moduli (GPa) = 89.29311 101.30009 61.61210
#
# Poissons Ratio (x) = 0.42758 0.26527
# Poissons Ratio (y) = 0.37690 -0.12355
# Poissons Ratio (z) = 0.38445 -0.20314
#
# Static dielectric constant tensor:
#      x y z
#    x 1.974430 0.021380 0.011380 
#    y 0.021380 1.963070 -0.044290 
#    z 0.011380 -0.044290 1.620700 
# 
# From -- ./inp_files/556851.got.cif
#   From: 2010.05.17/outbox.cif.g08.bks.cpg/sg2_279_cif.got.tgz:556851.got - 2010.06.03 11:33:40.
