data_PCOD9031771
_publ_section_title
;
Structure prediction by ZEFSAII (Michael W. Deem and Ramdas Pophale) SiO2 
 PCOD9031771
Probable space group: P -1
;
_chemical_formula_sum "Si O2"
_cell_formula_units_Z 16
_cell_length_a 5.493396
_cell_length_b 12.828856
_cell_length_c 11.181136
_cell_angle_alpha 68.074965
_cell_angle_beta 108.972317
_cell_angle_gamma 92.143700
_cell_volume 688.101580
_symmetry_space_group_name_H-M "P -1"
_symmetry_group_IT_number 2
_symmetry_cell_setting 'triclinic'
loop_
_space_group_symop_operation_xyz
x,y,z
-x,-y,-z
loop_
_atom_site_type_symbol
_atom_site_label
_atom_site_fract_x
_atom_site_fract_y
_atom_site_fract_z
Si Si1 0.701047 0.600284 0.125264
Si Si2 0.752097 0.016320 0.103904
Si Si3 0.000142 0.032850 0.622640
Si Si4 0.167744 0.636109 0.872582
Si Si5 0.303127 0.513672 0.574157
Si Si6 0.260054 0.173813 0.217915
Si Si7 0.284852 0.748868 0.595297
Si Si8 0.069845 0.174952 0.953551
O O1 0.842084 0.491864 0.122176
O O2 0.630858 0.563646 0.264500
O O3 0.432322 0.632457 0.994497
O O4 0.896086 0.697442 0.130970
O O5 0.847440 0.134657 0.023066
O O6 0.736999 0.987671 0.253291
O O7 0.500000 0.000000 0.000000
O O8 0.938335 0.910900 0.121199
O O9 0.889747 0.161274 0.547933
O O10 0.849715 0.940827 0.706998
O O11 0.000000 0.000000 0.500000
O O12 0.174285 0.709668 0.720683
O O13 0.922495 0.705591 0.865708
O O14 0.500000 0.500000 0.500000
O O15 0.337371 0.638276 0.573935
O O16 0.000000 0.500000 0.500000
O O17 0.470842 0.193326 0.342087
O O18 0.313973 0.154728 0.093842
#
# Coordination Sequence:
#
# PCOD9031771 Si02
#       8
#     2   2   2   2   2   2   2   2
#     4  10  23  45  73 102 143 186 242 307 378 447
#     4  10  25  46  68 100 142 191 247 306 366 459
#     4  11  24  43  71 101 141 196 242 313 387 443
#     4  10  22  43  68 108 135 181 242 303 372 446
#     4  11  29  52  74 107 154 203 252 312 382 463
#     4  11  23  41  73 101 140 186 242 310 371 448
#     4  11  24  46  69 103 147 183 252 310 367 455
#     4  10  23  43  66 103 140 183 241 299 367 440
#
# _framework density 23.252382000000001
#
# number of rings (size 3 to 8) (size 9 to 14) (size 15 to 20)
#    0.000    1.500    2.500    0.375   10.500    1.500 
#    2.250    0.000    0.000    0.000    0.000    0.000 
#    0.000    0.000    0.000    0.000    0.000    0.000 
#
# Total GULP energy -89198.464406 kJ/mol
# GULP energy per Si atom -5574.904025 kJ/mol
# Density = 2.319946 g / cm^3
# Si number density = 23.252382 Si / 1000 Ang^3
#
#
#
# Elastic Constant Matrix: (Units=GPa)
#
#
# Indices 1 2 3 4 5 6 
#
# 1 39.5994 21.5512 33.2704 -6.2754 -0.4229 -3.8941
# 2 21.5512 103.4702 46.2829 -13.6459 -14.2305 14.0869
# 3 33.2704 46.2829 130.3919 0.9147 -6.9158 2.2081
# 4 -6.2754 -13.6459 0.9147 50.7925 2.1882 -9.1235
# 5 -0.4229 -14.2305 -6.9158 2.1882 40.3540 2.1948
# 6 -3.8941 14.0869 2.2081 -9.1235 2.1948 29.3576
#
#
#
# Elastic Compliance Matrix: (Units=1/GPa)
#
#
# Indices 1 2 3 4 5 6 
#
# 1 0.036423 -0.005238 -0.007828 0.005151 -0.003620 0.009805
# 2 -0.005238 0.014047 -0.003298 0.001731 0.004620 -0.006994
# 3 -0.007828 -0.003298 0.010914 -0.002272 0.000805 -0.001043
# 4 0.005151 0.001731 -0.002272 0.022144 -0.001307 0.007003
# 5 -0.003620 0.004620 0.000805 -0.001307 0.026862 -0.005172
# 6 0.009805 -0.006994 -0.001043 0.007003 -0.005172 0.041361
#
#
# Mechanical properties :
#
#
# Convention : Reuss Voigt Hill
#
# Bulk Modulus (GPa) = 34.89904 52.85230 43.87567
# Shear Modulus (GPa) = 25.76914 35.59127 30.68020
#
# Velocity S-wave (km/s) = 3.33263 3.91660 3.63636
# Velocity P-wave (km/s) = 5.46351 6.57512 6.04492
#
# Compressibility (1/GPa) = 0.02865408
#
# Stress axis : x y z
#
# Youngs Moduli (GPa) = 27.45553 71.19089 91.62849
#
# Poissons Ratio (x) = 0.37289 0.71731
# Poissons Ratio (y) = 0.14381 0.30220
# Poissons Ratio (z) = 0.21493 0.23479
#
# Static dielectric constant tensor:
#      x y z
#    x 2.111780 -0.062520 0.099660 
#    y -0.062520 2.061270 -0.030420 
#    z 0.099660 -0.030420 2.001990 
# 
# From -- ./inp_files/364121.got.cif
#   From: 2010.05.17/outbox.cif.g08.bks.cpg/sg2_183_cif.got.tgz:364121.got - 2010.06.03 11:33:40.
