data_PCOD9031012
_publ_section_title
;
Structure prediction by ZEFSAII (Michael W. Deem and Ramdas Pophale) SiO2 
 PCOD9031012
Probable space group: P -1
;
_chemical_formula_sum "Si O2"
_cell_formula_units_Z 14
_cell_length_a 14.597418
_cell_length_b 7.942159
_cell_length_c 13.869609
_cell_angle_alpha 69.949600
_cell_angle_beta 151.005039
_cell_angle_gamma 127.129622
_cell_volume 545.493771
_symmetry_space_group_name_H-M "P -1"
_symmetry_group_IT_number 2
_symmetry_cell_setting 'triclinic'
loop_
_space_group_symop_operation_xyz
x,y,z
-x,-y,-z
loop_
_atom_site_type_symbol
_atom_site_label
_atom_site_fract_x
_atom_site_fract_y
_atom_site_fract_z
Si Si1 0.268650 0.116926 0.431403
Si Si2 0.725633 0.208113 0.390300
Si Si3 0.538983 0.646743 0.637865
Si Si4 0.739314 0.884792 0.982560
Si Si5 0.998842 0.563133 0.877464
Si Si6 0.233521 0.011816 0.717648
Si Si7 0.213537 0.632921 0.867859
O O1 0.433186 0.376925 0.582344
O O2 0.279240 0.181549 0.316751
O O3 0.379618 0.993557 0.583753
O O4 0.973632 0.916783 0.231876
O O5 0.528159 0.244877 0.186788
O O6 0.754481 0.101875 0.345141
O O7 0.990799 0.445045 0.626883
O O8 0.660373 0.764481 0.828524
O O9 0.285478 0.601425 0.393245
O O10 0.881484 0.164989 0.057881
O O11 0.143632 0.546149 0.930727
O O12 0.000000 0.500000 0.000000
O O13 0.220822 0.855919 0.821254
O O14 0.000000 0.000000 0.500000
O O15 0.514088 0.274904 0.926955
#
# Coordination Sequence:
#
# PCOD9031012 Si02
#       7
#     2   2   2   2   2   2   2
#     4  10  25  40  64 104 143 184 238 284 345 419
#     4  12  25  43  74 104 134 185 236 288 363 413
#     4  10  22  43  63  97 148 192 231 288 341 415
#     4  11  23  42  67  97 145 186 233 282 346 417
#     4  11  23  40  71 106 143 185 232 284 349 422
#     4  11  28  49  77  99 140 185 238 298 356 414
#     4  11  26  49  71 107 143 181 237 294 348 425
#
# _framework density 25.664821
#
# number of rings (size 3 to 8) (size 9 to 14) (size 15 to 20)
#    0.000    1.143    2.857    1.714    6.000    4.000 
#    0.000    0.000    0.000    0.000    0.000    0.000 
#    0.000    0.000    0.000    0.000    0.000    0.000 
#
# Total GULP energy -78415.986049 kJ/mol
# GULP energy per Si atom -5601.141861 kJ/mol
# Density = 2.560641 g / cm^3
# Si number density = 25.664821 Si / 1000 Ang^3
#
#
#
# Elastic Constant Matrix: (Units=GPa)
#
#
# Indices 1 2 3 4 5 6 
#
# 1 115.6128 13.9412 62.2474 7.5107 -4.9166 -6.0944
# 2 13.9412 36.2355 29.2692 0.4107 6.7990 5.6280
# 3 62.2474 29.2692 175.1531 -2.0869 22.8426 -0.2519
# 4 7.5107 0.4107 -2.0869 43.1586 -13.9342 0.0573
# 5 -4.9166 6.7990 22.8426 -13.9342 63.0773 -0.5575
# 6 -6.0944 5.6280 -0.2519 0.0573 -0.5575 26.9107
#
#
#
# Elastic Compliance Matrix: (Units=1/GPa)
#
#
# Indices 1 2 3 4 5 6 
#
# 1 0.011410 -0.002016 -0.004028 -0.001430 0.002276 0.003018
# 2 -0.002016 0.033759 -0.004635 -0.000958 -0.002396 -0.007608
# 3 -0.004028 -0.004635 0.008278 0.000256 -0.002755 0.000077
# 4 -0.001430 -0.000958 0.000256 0.025206 0.005467 -0.000062
# 5 0.002276 -0.002396 -0.002755 0.005467 0.018507 0.001363
# 6 0.003018 -0.007608 0.000077 -0.000062 0.001363 0.039464
#
#
# Mechanical properties :
#
#
# Convention : Reuss Voigt Hill
#
# Bulk Modulus (GPa) = 31.16285 59.76857 45.46571
# Shear Modulus (GPa) = 29.64274 41.39891 35.52082
#
# Velocity S-wave (km/s) = 3.40221 4.02065 3.72429
# Velocity P-wave (km/s) = 5.25376 6.70021 6.02058
#
# Compressibility (1/GPa) = 0.03208949
#
# Stress axis : x y z
#
# Youngs Moduli (GPa) = 87.64251 29.62202 120.80891
#
# Poissons Ratio (x) = 0.05972 0.48657
# Poissons Ratio (y) = 0.17671 0.55990
# Poissons Ratio (z) = 0.35299 0.13729
#
# Static dielectric constant tensor:
#      x y z
#    x 2.085200 0.003880 0.089860 
#    y 0.003880 2.024910 -0.015140 
#    z 0.089860 -0.015140 2.031810 
# 
# From -- ./inp_files/528522.got.cif
#   From: 2010.05.17/outbox.cif.g08.bks.cpg/sg2_265_cif.got.tgz:528522.got - 2010.06.03 11:33:40.
