data_PCOD9031386
_publ_section_title
;
Structure prediction by ZEFSAII (Michael W. Deem and Ramdas Pophale) SiO2 
 PCOD9031386
Probable space group: P -1
;
_chemical_formula_sum "Si O2"
_cell_formula_units_Z 15
_cell_length_a 18.515601
_cell_length_b 8.446162
_cell_length_c 12.769892
_cell_angle_alpha 60.420072
_cell_angle_beta 141.275339
_cell_angle_gamma 144.979305
_cell_volume 655.617973
_symmetry_space_group_name_H-M "P -1"
_symmetry_group_IT_number 2
_symmetry_cell_setting 'triclinic'
loop_
_space_group_symop_operation_xyz
x,y,z
-x,-y,-z
loop_
_atom_site_type_symbol
_atom_site_label
_atom_site_fract_x
_atom_site_fract_y
_atom_site_fract_z
Si Si1 0.524657 0.702084 0.207126
Si Si2 0.000000 0.000000 0.500000
Si Si3 0.330933 0.781548 0.463136
Si Si4 0.187266 0.135934 0.876185
Si Si5 0.221334 0.282923 0.404156
Si Si6 0.061248 0.567121 0.881508
Si Si7 0.368818 0.670208 0.245632
Si Si8 0.107355 0.713964 0.652114
O O1 0.673994 0.759273 0.418451
O O2 0.394170 0.621826 0.175991
O O3 0.666158 0.011276 0.203839
O O4 0.386228 0.425574 0.061292
O O5 0.958869 0.161763 0.440710
O O6 0.164742 0.180868 0.718598
O O7 0.245528 0.469885 0.462540
O O8 0.163935 0.705020 0.261358
O O9 0.500000 0.000000 0.500000
O O10 0.434130 0.974104 0.621994
O O11 0.148483 0.871005 0.914663
O O12 0.006255 0.002327 0.775155
O O13 0.329699 0.478689 0.357421
O O14 0.067565 0.559497 0.765553
O O15 0.185585 0.570115 0.074602
O O16 0.000000 0.500000 0.500000
#
# Coordination Sequence:
#
# PCOD9031386 Si02
#       8
#     2   1   2   2   2   2   2   2
#     4  12  25  42  66 101 132 184 230 275 343 419
#     4  10  22  46  72  94 136 180 218 292 350 394
#     4   9  20  40  67  93 127 175 225 280 329 406
#     4  10  23  43  67  97 132 177 233 281 346 411
#     4  10  22  43  66  94 136 180 221 286 338 403
#     4  10  23  42  63 101 131 180 223 283 349 397
#     4  11  24  39  65 100 138 175 226 281 341 408
#     4  11  25  46  71  98 142 180 231 292 340 416
#
# _framework density 22.879178
#
# number of rings (size 3 to 8) (size 9 to 14) (size 15 to 20)
#    0.000    1.600    1.333    2.000    1.867   11.200 
#    9.600    0.000    0.000    0.000    0.000    0.000 
#    0.000    0.000    0.000    0.000    0.000    0.000 
#
# Total GULP energy -83632.501659 kJ/mol
# GULP energy per Si atom -5575.500111 kJ/mol
# Density = 2.282710 g / cm^3
# Si number density = 22.879178 Si / 1000 Ang^3
#
#
#
# Elastic Constant Matrix: (Units=GPa)
#
#
# Indices 1 2 3 4 5 6 
#
# 1 82.9400 10.6739 20.3139 11.0553 -12.7095 3.3487
# 2 10.6739 23.6253 23.3370 14.4049 -3.3273 10.6234
# 3 20.3139 23.3370 79.4346 14.2687 5.0690 1.6413
# 4 11.0553 14.4049 14.2687 41.7760 -6.5945 3.5479
# 5 -12.7095 -3.3273 5.0690 -6.5945 44.1104 3.6125
# 6 3.3487 10.6234 1.6413 3.5479 3.6125 25.0990
#
#
#
# Elastic Compliance Matrix: (Units=1/GPa)
#
#
# Indices 1 2 3 4 5 6 
#
# 1 0.013877 -0.000732 -0.003304 -0.001475 0.004244 -0.001728
# 2 -0.000732 0.098476 -0.024941 -0.020361 0.010196 -0.038541
# 3 -0.003304 -0.024941 0.020834 0.000525 -0.006003 0.010424
# 4 -0.001475 -0.020361 0.000525 0.031190 0.002311 0.004039
# 5 0.004244 0.010196 -0.006003 0.002311 0.026403 -0.008616
# 6 -0.001728 -0.038541 0.010424 0.004039 -0.008616 0.056373
#
#
# Mechanical properties :
#
#
# Convention : Reuss Voigt Hill
#
# Bulk Modulus (GPa) = 13.29198 32.73883 23.01540
# Shear Modulus (GPa) = 15.14300 30.97541 23.05921
#
# Velocity S-wave (km/s) = 2.57547 3.68349 3.17814
# Velocity P-wave (km/s) = 3.82966 5.69485 4.85271
#
# Compressibility (1/GPa) = 0.07523335
#
# Stress axis : x y z
#
# Youngs Moduli (GPa) = 72.06178 10.15480 47.99739
#
# Poissons Ratio (x) = 0.00744 0.15858
# Poissons Ratio (y) = 0.05277 1.19709
# Poissons Ratio (z) = 0.23808 0.25327
#
# Static dielectric constant tensor:
#      x y z
#    x 1.922930 0.035580 -0.005000 
#    y 0.035580 2.563430 0.215760 
#    z -0.005000 0.215760 1.877630 
# 
# From -- ./inp_files/428972.got.cif
#   From: 2010.05.17/outbox.cif.g08.bks.cpg/sg2_215_cif.got.tgz:428972.got - 2010.06.03 11:33:40.
