data_PCOD9031335
_publ_section_title
;
Structure prediction by ZEFSAII (Michael W. Deem and Ramdas Pophale) SiO2 
 PCOD9031335
Probable space group: P -1
;
_chemical_formula_sum "Si O2"
_cell_formula_units_Z 16
_cell_length_a 13.690245
_cell_length_b 6.823710
_cell_length_c 17.873185
_cell_angle_alpha 133.050324
_cell_angle_beta 138.462999
_cell_angle_gamma 68.818307
_cell_volume 769.521163
_symmetry_space_group_name_H-M "P -1"
_symmetry_group_IT_number 2
_symmetry_cell_setting 'triclinic'
loop_
_space_group_symop_operation_xyz
x,y,z
-x,-y,-z
loop_
_atom_site_type_symbol
_atom_site_label
_atom_site_fract_x
_atom_site_fract_y
_atom_site_fract_z
Si Si1 0.027574 0.148253 0.883965
Si Si2 0.482604 0.478532 0.696983
Si Si3 0.958241 0.116876 0.430524
Si Si4 0.248396 0.738021 0.166844
Si Si5 0.453179 0.662583 0.896154
Si Si6 0.721683 0.538616 0.112762
Si Si7 0.752408 0.988557 0.914895
Si Si8 0.863320 0.670789 0.553997
O O1 0.870248 0.221822 0.828528
O O2 0.981712 0.877826 0.733572
O O3 0.159677 0.423945 0.000785
O O4 0.103145 0.099375 0.993481
O O5 0.588132 0.271458 0.709959
O O6 0.444641 0.545366 0.777470
O O7 0.313557 0.368825 0.534485
O O8 0.596093 0.760926 0.797312
O O9 0.894462 0.373056 0.482716
O O10 0.829898 0.856019 0.252316
O O11 0.903288 0.800989 0.528129
O O12 0.000000 0.000000 0.500000
O O13 0.261466 0.966416 0.169251
O O14 0.308674 0.549580 0.839996
O O15 0.574929 0.550865 0.983098
O O16 0.500000 0.000000 0.000000
O O17 0.774890 0.291043 0.043686
#
# Coordination Sequence:
#
# PCOD9031335 Si02
#       8
#     2   2   2   2   2   2   2   2
#     4  10  23  42  66  89 118 161 202 260 310 362
#     4  11  23  38  60  90 128 159 197 258 308 361
#     4  11  24  40  59  88 129 168 204 242 302 371
#     4  10  22  43  66  90 116 154 214 259 306 359
#     4  11  21  35  55  90 124 155 197 251 296 351
#     4  11  22  34  62  89 116 163 208 241 294 361
#     4  11  21  38  64  92 119 155 209 257 301 358
#     4  11  25  41  60  90 130 163 201 248 312 366
#
# _framework density 20.792152000000002
#
# number of rings (size 3 to 8) (size 9 to 14) (size 15 to 20)
#    0.000    1.250    2.500    3.375    3.500    3.500 
#    0.000    0.625    0.000    0.000    0.000    0.000 
#    0.000    0.000    0.000    0.000    0.000    0.000 
#
# Total GULP energy -89310.816047 kJ/mol
# GULP energy per Si atom -5581.926003 kJ/mol
# Density = 2.074483 g / cm^3
# Si number density = 20.792152 Si / 1000 Ang^3
#
#
#
# Elastic Constant Matrix: (Units=GPa)
#
#
# Indices 1 2 3 4 5 6 
#
# 1 49.8835 14.0994 2.6985 4.8196 19.2897 2.6798
# 2 14.0994 78.4758 9.8078 9.4306 3.2118 11.3332
# 3 2.6985 9.8078 63.2228 5.6268 16.0732 1.0445
# 4 4.8196 9.4306 5.6268 24.6646 1.1116 -0.1256
# 5 19.2897 3.2118 16.0732 1.1116 17.9836 -3.0338
# 6 2.6798 11.3332 1.0445 -0.1256 -3.0338 38.7808
#
#
#
# Elastic Compliance Matrix: (Units=1/GPa)
#
#
# Indices 1 2 3 4 5 6 
#
# 1 0.046739 -0.005839 0.016009 -0.007699 -0.064103 -0.006994
# 2 -0.005839 0.014929 -0.003204 -0.004130 0.006142 -0.003406
# 3 0.016009 -0.003204 0.026586 -0.006156 -0.040670 -0.004087
# 4 -0.007699 -0.004130 -0.006156 0.044495 0.012255 0.003008
# 5 -0.064103 0.006142 -0.040670 0.012255 0.161630 0.016414
# 6 -0.006994 -0.003406 -0.004087 0.003008 0.016414 0.028668
#
#
# Mechanical properties :
#
#
# Convention : Reuss Voigt Hill
#
# Bulk Modulus (GPa) = 9.78620 27.19928 18.49274
# Shear Modulus (GPa) = 14.56965 27.28424 20.92694
#
# Velocity S-wave (km/s) = 2.65000 3.62641 3.17595
# Velocity P-wave (km/s) = 3.75236 5.53574 4.72888
#
# Compressibility (1/GPa) = 0.10218474
#
# Stress axis : x y z
#
# Youngs Moduli (GPa) = 21.39531 66.98271 37.61388
#
# Poissons Ratio (x) = 0.39113 -0.60215
# Poissons Ratio (y) = 0.12493 0.12053
# Poissons Ratio (z) = -0.34251 0.21463
#
# Static dielectric constant tensor:
#      x y z
#    x 1.728790 0.011260 -0.141870 
#    y 0.011260 1.756640 0.028480 
#    z -0.141870 0.028480 0.887760 
# 
# From -- ./inp_files/459015.got.cif
#   From: 2010.05.17/outbox.cif.g08.bks.cpg/sg2_230_cif.got.tgz:459015.got - 2010.06.03 11:33:40.
