data_PCOD9031971
_publ_section_title
;
Structure prediction by ZEFSAII (Michael W. Deem and Ramdas Pophale) SiO2 
 PCOD9031971
Probable space group: P -1
;
_chemical_formula_sum "Si O2"
_cell_formula_units_Z 14
_cell_length_a 21.369546
_cell_length_b 8.377162
_cell_length_c 15.284486
_cell_angle_alpha 137.778412
_cell_angle_beta 27.432332
_cell_angle_gamma 149.469070
_cell_volume 637.004856
_symmetry_space_group_name_H-M "P -1"
_symmetry_group_IT_number 2
_symmetry_cell_setting 'triclinic'
loop_
_space_group_symop_operation_xyz
x,y,z
-x,-y,-z
loop_
_atom_site_type_symbol
_atom_site_label
_atom_site_fract_x
_atom_site_fract_y
_atom_site_fract_z
Si Si1 0.641327 0.542290 0.274239
Si Si2 0.817542 0.691040 0.558784
Si Si3 0.235406 0.140066 0.934997
Si Si4 0.364072 0.873107 0.306638
Si Si5 0.488330 0.585270 0.949687
Si Si6 0.851939 0.897404 0.309154
Si Si7 0.714578 0.316309 0.357118
O O1 0.500000 0.500000 0.500000
O O2 0.654749 0.644739 0.199474
O O3 0.824720 0.825354 0.209863
O O4 0.560263 0.185397 0.224567
O O5 0.733739 0.407258 0.616094
O O6 0.687432 0.769532 0.741085
O O7 0.804209 0.532210 0.420334
O O8 0.000000 0.000000 0.500000
O O9 0.358370 0.285453 0.927240
O O10 0.185259 0.811526 0.843140
O O11 0.061889 0.104340 0.152015
O O12 0.239333 0.962886 0.488492
O O13 0.409798 0.759727 0.121804
O O14 0.500000 0.500000 0.000000
O O15 0.744588 0.554160 0.345423
O O16 0.500000 0.000000 0.500000
#
# Coordination Sequence:
#
# PCOD9031971 Si02
#       7
#     2   2   2   2   2   2   2
#     4  10  22  43  69 101 138 182 231 292 365 417
#     4  11  25  45  72 102 136 190 242 292 356 424
#     4  12  25  44  72 105 137 190 242 290 355 432
#     4  10  23  46  67  96 147 182 228 293 356 420
#     4  10  25  44  69  96 143 186 237 284 362 417
#     4  11  25  41  71 107 139 182 238 298 353 419
#     4  12  23  44  72 101 142 185 244 290 354 424
#
# _framework density 21.977855000000002
#
# number of rings (size 3 to 8) (size 9 to 14) (size 15 to 20)
#    0.000    1.143    1.429    5.143    6.000    3.429 
#    0.000    0.000    0.000    0.000    0.000    0.000 
#    0.000    0.000    0.000    0.000    0.000    0.000 
#
# Total GULP energy -78108.073462 kJ/mol
# GULP energy per Si atom -5579.148104 kJ/mol
# Density = 2.192783 g / cm^3
# Si number density = 21.977855 Si / 1000 Ang^3
#
#
#
# Elastic Constant Matrix: (Units=GPa)
#
#
# Indices 1 2 3 4 5 6 
#
# 1 94.4024 46.4128 41.5172 2.7239 3.5955 18.7343
# 2 46.4128 91.5975 49.7926 18.6948 9.2930 8.8700
# 3 41.5172 49.7926 137.8347 25.3813 -16.8702 10.7594
# 4 2.7239 18.6948 25.3813 38.8400 6.4808 -0.5826
# 5 3.5955 9.2930 -16.8702 6.4808 33.3069 3.4874
# 6 18.7343 8.8700 10.7594 -0.5826 3.4874 54.2058
#
#
#
# Elastic Compliance Matrix: (Units=1/GPa)
#
#
# Indices 1 2 3 4 5 6 
#
# 1 0.015948 -0.006735 -0.003141 0.004442 -0.001919 -0.003615
# 2 -0.006735 0.018207 -0.004505 -0.004363 -0.005846 0.000572
# 3 -0.003141 -0.004505 0.012444 -0.007343 0.009468 -0.001335
# 4 0.004442 -0.004363 -0.007343 0.033988 -0.009765 0.001630
# 5 -0.001919 -0.005846 0.009468 -0.009765 0.038858 -0.002864
# 6 -0.003615 0.000572 -0.001335 0.001630 -0.002864 0.020071
#
#
# Mechanical properties :
#
#
# Convention : Reuss Voigt Hill
#
# Bulk Modulus (GPa) = 56.06762 66.58665 61.32713
# Shear Modulus (GPa) = 28.69855 37.67800 33.18827
#
# Velocity S-wave (km/s) = 3.61750 4.14498 3.89019
# Velocity P-wave (km/s) = 6.55856 7.29868 6.93850
#
# Compressibility (1/GPa) = 0.01783561
#
# Stress axis : x y z
#
# Youngs Moduli (GPa) = 62.70301 54.92257 80.35991
#
# Poissons Ratio (x) = 0.36991 0.25245
# Poissons Ratio (y) = 0.42232 0.36205
# Poissons Ratio (z) = 0.19698 0.24745
#
# Static dielectric constant tensor:
#      x y z
#    x 2.058490 0.113380 0.073190 
#    y 0.113380 1.860190 0.027050 
#    z 0.073190 0.027050 1.911330 
# 
# From -- ./inp_files/540320.got.cif
#   From: 2010.05.17/outbox.cif.g08.bks.cpg/sg2_271_cif.got.tgz:540320.got - 2010.06.03 11:33:40.
