data_PCOD9031165
_publ_section_title
;
Structure prediction by ZEFSAII (Michael W. Deem and Ramdas Pophale) SiO2 
 PCOD9031165
Probable space group: P -1
;
_chemical_formula_sum "Si O2"
_cell_formula_units_Z 14
_cell_length_a 15.582128
_cell_length_b 9.429795
_cell_length_c 8.227552
_cell_angle_alpha 54.772065
_cell_angle_beta 124.755057
_cell_angle_gamma 145.861956
_cell_volume 542.756634
_symmetry_space_group_name_H-M "P -1"
_symmetry_group_IT_number 2
_symmetry_cell_setting 'triclinic'
loop_
_space_group_symop_operation_xyz
x,y,z
-x,-y,-z
loop_
_atom_site_type_symbol
_atom_site_label
_atom_site_fract_x
_atom_site_fract_y
_atom_site_fract_z
Si Si1 0.076202 0.868371 0.217087
Si Si2 0.664720 0.122759 0.150570
Si Si3 0.614643 0.756716 0.841218
Si Si4 0.887028 0.626682 0.863623
Si Si5 0.163308 0.574256 0.532255
Si Si6 0.210406 0.995194 0.825303
Si Si7 0.318938 0.501155 0.527495
O O1 0.099314 0.684881 0.344425
O O2 0.974386 0.730874 0.361574
O O3 0.248026 0.155160 0.178719
O O4 0.972000 0.806657 0.995527
O O5 0.725040 0.259647 0.299469
O O6 0.690880 0.951476 0.258218
O O7 0.795376 0.348398 0.014814
O O8 0.500000 0.000000 0.000000
O O9 0.501495 0.712271 0.622028
O O10 0.500000 0.500000 0.000000
O O11 0.706665 0.970202 0.942697
O O12 0.753021 0.580810 0.674562
O O13 0.024198 0.748335 0.805457
O O14 0.262572 0.607660 0.479189
O O15 0.236855 0.235233 0.697182
#
# Coordination Sequence:
#
# PCOD9031165 Si02
#       7
#     2   2   2   2   2   2   2
#     4   9  21  41  62  89 131 171 211 263 320 376
#     4  11  24  42  66  94 130 165 213 263 321 374
#     4   9  20  39  63  91 125 168 212 260 315 377
#     4  10  23  40  65  95 124 171 215 257 312 384
#     4  10  23  39  65  95 126 168 215 264 319 376
#     4  10  22  43  65  90 130 169 206 259 316 384
#     4  11  23  39  68  98 124 163 220 262 312 378
#
# _framework density 25.794250000000002
#
# number of rings (size 3 to 8) (size 9 to 14) (size 15 to 20)
#    0.000    2.000    0.000    1.714   12.000    0.571 
#    0.000   15.000    0.000    0.000    0.000    0.000 
#    0.000    0.000    0.000    0.000    0.000    0.000 
#
# Total GULP energy -78205.809519 kJ/mol
# GULP energy per Si atom -5586.129251 kJ/mol
# Density = 2.573554 g / cm^3
# Si number density = 25.794250 Si / 1000 Ang^3
#
#
#
# Elastic Constant Matrix: (Units=GPa)
#
#
# Indices 1 2 3 4 5 6 
#
# 1 78.7550 18.5719 5.5559 15.3748 1.6589 -1.7526
# 2 18.5719 91.9290 40.4591 25.9353 -4.5110 18.4296
# 3 5.5559 40.4591 115.6102 32.8783 0.5902 11.1710
# 4 15.3748 25.9353 32.8783 63.8200 10.4983 2.6489
# 5 1.6589 -4.5110 0.5902 10.4983 28.0081 2.0918
# 6 -1.7526 18.4296 11.1710 2.6489 2.0918 25.3449
#
#
#
# Elastic Compliance Matrix: (Units=1/GPa)
#
#
# Indices 1 2 3 4 5 6 
#
# 1 0.013962 -0.003148 0.000850 -0.002551 -0.000635 0.003199
# 2 -0.003148 0.016804 -0.003332 -0.004820 0.005586 -0.010926
# 3 0.000850 -0.003332 0.011334 -0.004788 0.001126 -0.002107
# 4 -0.002551 -0.004820 -0.004788 0.022041 -0.009076 0.003884
# 5 -0.000635 0.005586 0.001126 -0.009076 0.040542 -0.006999
# 6 0.003199 -0.010926 -0.002107 0.003884 -0.006999 0.048722
#
#
# Mechanical properties :
#
#
# Convention : Reuss Voigt Hill
#
# Bulk Modulus (GPa) = 32.42259 46.16311 39.29285
# Shear Modulus (GPa) = 28.58041 38.21507 33.39774
#
# Velocity S-wave (km/s) = 3.33230 3.85325 3.60220
# Velocity P-wave (km/s) = 5.23475 6.14265 5.70678
#
# Compressibility (1/GPa) = 0.03084270
#
# Stress axis : x y z
#
# Youngs Moduli (GPa) = 71.62069 59.50819 88.22773
#
# Poissons Ratio (x) = 0.18731 -0.07501
# Poissons Ratio (y) = 0.22544 0.29395
# Poissons Ratio (z) = -0.06089 0.19827
#
# Static dielectric constant tensor:
#      x y z
#    x 2.209960 -0.184160 0.096330 
#    y -0.184160 2.203240 -0.104170 
#    z 0.096330 -0.104170 2.115990 
# 
# From -- ./inp_files/331633.got.cif
#   From: 2010.05.17/outbox.cif.g08.bks.cpg/sg2_166_cif.got.tgz:331633.got - 2010.06.03 11:33:40.
