data_PCOD9031148
_publ_section_title
;
Structure prediction by ZEFSAII (Michael W. Deem and Ramdas Pophale) SiO2 
 PCOD9031148
Probable space group: P -1
;
_chemical_formula_sum "Si O2"
_cell_formula_units_Z 16
_cell_length_a 17.572375
_cell_length_b 12.749544
_cell_length_c 14.762856
_cell_angle_alpha 19.374104
_cell_angle_beta 130.652891
_cell_angle_gamma 129.564104
_cell_volume 829.123349
_symmetry_space_group_name_H-M "P -1"
_symmetry_group_IT_number 2
_symmetry_cell_setting 'triclinic'
loop_
_space_group_symop_operation_xyz
x,y,z
-x,-y,-z
loop_
_atom_site_type_symbol
_atom_site_label
_atom_site_fract_x
_atom_site_fract_y
_atom_site_fract_z
Si Si1 0.491005 0.211320 0.911660
Si Si2 0.388255 0.211009 0.540236
Si Si3 0.106120 0.439533 0.089779
Si Si4 0.249223 0.510898 0.316287
Si Si5 0.875545 0.286124 0.664462
Si Si6 0.890196 0.571549 0.250293
Si Si7 0.740324 0.761133 0.270322
Si Si8 0.180757 0.799189 0.672556
O O1 0.572808 0.513550 0.722324
O O2 0.379633 0.318452 0.748847
O O3 0.500000 0.000000 0.000000
O O4 0.521895 0.992517 0.195691
O O5 0.353235 0.399144 0.448926
O O6 0.292762 0.976551 0.625669
O O7 0.181258 0.487238 0.193878
O O8 0.109775 0.072006 0.366464
O O9 0.143213 0.651333 0.860092
O O10 0.000000 0.500000 0.000000
O O11 0.216913 0.275499 0.564586
O O12 0.249418 0.874441 0.051158
O O13 0.875583 0.333752 0.517220
O O14 0.797267 0.515226 0.456871
O O15 0.988961 0.386519 0.706306
O O16 0.856802 0.914382 0.974094
O O17 0.831449 0.454187 0.210556
#
# Coordination Sequence:
#
# PCOD9031148 Si02
#       8
#     2   2   2   2   2   2   2   2
#     4  12  21  36  60  86 124 166 194 243 296 358
#     4  11  21  38  56  87 123 157 207 230 284 374
#     4  11  24  36  55  89 125 160 195 240 286 374
#     4  11  21  35  53  85 126 159 191 235 289 359
#     4  10  23  40  62  91 113 147 210 258 294 363
#     4  10  22  43  65  83 114 157 202 255 307 346
#     4  12  23  35  61  87 122 160 192 253 305 342
#     4  11  23  40  63  84 117 166 201 242 301 358
#
# _framework density 19.29749
#
# number of rings (size 3 to 8) (size 9 to 14) (size 15 to 20)
#    0.000    1.000    2.500    6.000    3.500    0.000 
#    0.000    0.000    0.000    4.500    0.000    0.000 
#    0.000    0.000    0.000    0.000    0.000    0.000 
#
# Total GULP energy -89344.547069 kJ/mol
# GULP energy per Si atom -5584.034192 kJ/mol
# Density = 1.925357 g / cm^3
# Si number density = 19.297490 Si / 1000 Ang^3
#
#
#
# Elastic Constant Matrix: (Units=GPa)
#
#
# Indices 1 2 3 4 5 6 
#
# 1 56.4675 25.9402 23.0314 -2.1854 20.8296 4.1353
# 2 25.9402 75.1543 19.3247 -2.1143 3.0437 1.5486
# 3 23.0314 19.3247 97.8576 3.6169 3.9349 6.0218
# 4 -2.1854 -2.1143 3.6169 19.4254 -5.6297 1.9559
# 5 20.8296 3.0437 3.9349 -5.6297 43.0619 2.5204
# 6 4.1353 1.5486 6.0218 1.9559 2.5204 11.2350
#
#
#
# Elastic Compliance Matrix: (Units=1/GPa)
#
#
# Indices 1 2 3 4 5 6 
#
# 1 0.027958 -0.007974 -0.004252 -0.000092 -0.012342 -0.004128
# 2 -0.007974 0.016389 -0.001588 0.002027 0.003081 0.000483
# 3 -0.004252 -0.001588 0.011841 -0.002098 0.001072 -0.004438
# 4 -0.000092 0.002027 -0.002098 0.055450 0.007960 -0.010560
# 5 -0.012342 0.003081 0.001072 0.007960 0.030187 -0.004614
# 6 -0.004128 0.000483 -0.004438 -0.010560 -0.004614 0.095712
#
#
# Mechanical properties :
#
#
# Convention : Reuss Voigt Hill
#
# Bulk Modulus (GPa) = 35.01473 40.67467 37.84470
# Shear Modulus (GPa) = 18.20259 25.49000 21.84630
#
# Velocity S-wave (km/s) = 3.07459 3.63836 3.36829
# Velocity P-wave (km/s) = 5.54871 6.22685 5.89754
#
# Compressibility (1/GPa) = 0.02855941
#
# Stress axis : x y z
#
# Youngs Moduli (GPa) = 35.76773 61.01629 84.45428
#
# Poissons Ratio (x) = 0.48657 0.35907
# Poissons Ratio (y) = 0.28523 0.13413
# Poissons Ratio (z) = 0.15207 0.09690
#
# Static dielectric constant tensor:
#      x y z
#    x 1.691620 0.038470 0.015540 
#    y 0.038470 1.698560 0.009310 
#    z 0.015540 0.009310 1.702640 
# 
# From -- ./inp_files/535065.got.cif
#   From: 2010.05.17/outbox.cif.g08.bks.cpg/sg2_268_cif.got.tgz:535065.got - 2010.06.03 11:33:40.
