data_PCOD9031783
_publ_section_title
;
Structure prediction by ZEFSAII (Michael W. Deem and Ramdas Pophale) SiO2 
 PCOD9031783
Probable space group: P -1
;
_chemical_formula_sum "Si O2"
_cell_formula_units_Z 14
_cell_length_a 12.211540
_cell_length_b 8.308044
_cell_length_c 13.003384
_cell_angle_alpha 69.393962
_cell_angle_beta 34.599767
_cell_angle_gamma 89.054888
_cell_volume 601.473927
_symmetry_space_group_name_H-M "P -1"
_symmetry_group_IT_number 2
_symmetry_cell_setting 'triclinic'
loop_
_space_group_symop_operation_xyz
x,y,z
-x,-y,-z
loop_
_atom_site_type_symbol
_atom_site_label
_atom_site_fract_x
_atom_site_fract_y
_atom_site_fract_z
Si Si1 0.070138 0.279100 0.611553
Si Si2 0.080953 0.389161 0.037022
Si Si3 0.353298 0.094505 0.053935
Si Si4 0.372464 0.257592 0.215576
Si Si5 0.874647 0.532160 0.781848
Si Si6 0.276030 0.872588 0.485966
Si Si7 0.529142 0.390448 0.670134
O O1 0.201921 0.295460 0.402452
O O2 0.260758 0.381703 0.530664
O O3 0.955176 0.410873 0.679199
O O4 0.856959 0.054201 0.821823
O O5 0.296201 0.382544 0.831067
O O6 0.141647 0.506097 0.073130
O O7 0.000000 0.500000 0.000000
O O8 0.868200 0.175008 0.286973
O O9 0.280718 0.153900 0.200559
O O10 0.497188 0.290348 0.829980
O O11 0.500000 0.000000 0.000000
O O12 0.404158 0.099241 0.298468
O O13 0.620632 0.447131 0.969052
O O14 0.083808 0.757567 0.572663
O O15 0.407999 0.750112 0.413908
#
# Coordination Sequence:
#
# PCOD9031783 Si02
#       7
#     2   2   2   2   2   2   2
#     4  11  22  38  61  87 127 170 204 243 308 354
#     4  10  22  43  68  92 117 156 212 263 309 366
#     4  12  24  37  62  96 129 165 208 247 290 371
#     4  12  21  40  61  91 130 166 202 247 302 363
#     4   9  21  39  60  89 124 155 205 261 296 366
#     4   9  21  37  63  88 123 161 196 254 308 358
#     4  11  22  42  63  89 127 166 202 254 308 358
#
# _framework density 23.276156
#
# number of rings (size 3 to 8) (size 9 to 14) (size 15 to 20)
#    0.857    0.571    4.286    1.286    0.000    2.857 
#    0.000    0.714    0.000    4.286    0.000    0.000 
#    0.000    0.000    0.000    0.000    0.000    0.000 
#
# Total GULP energy -78131.949191 kJ/mol
# GULP energy per Si atom -5580.853514 kJ/mol
# Density = 2.322318 g / cm^3
# Si number density = 23.276156 Si / 1000 Ang^3
#
#
#
# Elastic Constant Matrix: (Units=GPa)
#
#
# Indices 1 2 3 4 5 6 
#
# 1 69.0005 24.1231 11.5686 9.4621 -20.2043 -30.2112
# 2 24.1231 100.9816 39.7158 20.3248 -21.8979 -16.7478
# 3 11.5686 39.7158 82.0934 14.5280 -32.3362 -11.4892
# 4 9.4621 20.3248 14.5280 50.6285 -11.8832 -14.2912
# 5 -20.2043 -21.8979 -32.3362 -11.8832 22.3460 9.5144
# 6 -30.2112 -16.7478 -11.4892 -14.2912 9.5144 31.8188
#
#
#
# Elastic Compliance Matrix: (Units=1/GPa)
#
#
# Indices 1 2 3 4 5 6 
#
# 1 0.040995 -0.002191 0.019621 0.009655 0.054432 0.032916
# 2 -0.002191 0.013571 -0.004477 -0.002701 0.002810 0.001393
# 3 0.019621 -0.004477 0.038816 0.006500 0.067424 0.013048
# 4 0.009655 -0.002701 0.006500 0.026938 0.023336 0.015213
# 5 0.054432 0.002810 0.067424 0.023336 0.193922 0.030001
# 6 0.032916 0.001393 0.013048 0.015213 0.030001 0.065987
#
#
# Mechanical properties :
#
#
# Convention : Reuss Voigt Hill
#
# Bulk Modulus (GPa) = 8.38298 44.76561 26.57429
# Shear Modulus (GPa) = 12.68763 32.73654 22.71209
#
# Velocity S-wave (km/s) = 2.33725 3.75432 3.12711
# Velocity P-wave (km/s) = 3.30046 6.16988 4.94775
#
# Compressibility (1/GPa) = 0.11928934
#
# Stress axis : x y z
#
# Youngs Moduli (GPa) = 24.39313 73.68684 25.76280
#
# Poissons Ratio (x) = 0.16143 -0.50550
# Poissons Ratio (y) = 0.05344 0.11534
# Poissons Ratio (z) = -0.47863 0.32988
#
# Static dielectric constant tensor:
#      x y z
#    x 1.862700 -0.026400 -0.034410 
#    y -0.026400 1.924390 -0.009110 
#    z -0.034410 -0.009110 1.918320 
# 
# From -- ./inp_files/246167.got.cif
#   From: 2010.05.17/outbox.cif.g08.bks.cpg/sg2_124_cif.got.tgz:246167.got - 2010.06.03 11:33:40.
