data_PCOD9031065
_publ_section_title
;
Structure prediction by ZEFSAII (Michael W. Deem and Ramdas Pophale) SiO2 
 PCOD9031065
Probable space group: P -1
;
_chemical_formula_sum "Si O2"
_cell_formula_units_Z 14
_cell_length_a 21.002296
_cell_length_b 6.737061
_cell_length_c 14.639943
_cell_angle_alpha 84.447846
_cell_angle_beta 156.463808
_cell_angle_gamma 82.606167
_cell_volume 689.243120
_symmetry_space_group_name_H-M "P -1"
_symmetry_group_IT_number 2
_symmetry_cell_setting 'triclinic'
loop_
_space_group_symop_operation_xyz
x,y,z
-x,-y,-z
loop_
_atom_site_type_symbol
_atom_site_label
_atom_site_fract_x
_atom_site_fract_y
_atom_site_fract_z
Si Si1 0.262069 0.093937 0.127800
Si Si2 0.846310 0.317044 0.498792
Si Si3 0.614218 0.619929 0.613176
Si Si4 0.790680 0.112928 0.258303
Si Si5 0.795959 0.170849 0.768929
Si Si6 0.379288 0.176777 0.915428
Si Si7 0.439117 0.630159 0.727167
O O1 0.299450 0.295908 0.198888
O O2 0.453088 0.870650 0.344018
O O3 0.235644 0.978353 0.190164
O O4 0.069586 0.192193 0.814950
O O5 0.800822 0.168044 0.376117
O O6 0.762586 0.567359 0.327611
O O7 0.728323 0.361721 0.434605
O O8 0.500000 0.500000 0.500000
O O9 0.777112 0.405731 0.776821
O O10 0.731444 0.926043 0.178260
O O11 0.000000 0.000000 0.500000
O O12 0.626932 0.363227 0.987802
O O13 0.635934 0.272136 0.476017
O O14 0.000000 0.000000 0.000000
O O15 0.507100 0.208176 0.154023
O O16 0.500000 0.000000 0.000000
#
# Coordination Sequence:
#
# PCOD9031065 Si02
#       7
#     2   2   2   2   2   2   2
#     4  10  22  43  64  93 127 172 216 258 324 383
#     4  11  22  40  68  94 123 165 218 260 321 394
#     4   9  22  43  60  85 130 171 213 263 312 376
#     4  11  25  44  64  96 127 166 217 271 323 375
#     4  11  23  40  64  97 132 164 209 263 320 384
#     4  11  21  42  68  89 125 173 209 264 328 375
#     4  11  23  41  64  96 129 164 215 261 319 393
#
# _framework density 20.312135999999999
#
# number of rings (size 3 to 8) (size 9 to 14) (size 15 to 20)
#    0.000    1.429    4.286    0.857    2.000    7.429 
#   10.286    0.000    0.000    0.000    0.000    0.000 
#    0.000    0.000    0.000    0.000    0.000    0.000 
#
# Total GULP energy -78190.746618 kJ/mol
# GULP energy per Si atom -5585.053330 kJ/mol
# Density = 2.026591 g / cm^3
# Si number density = 20.312136 Si / 1000 Ang^3
#
#
#
# Elastic Constant Matrix: (Units=GPa)
#
#
# Indices 1 2 3 4 5 6 
#
# 1 33.6685 10.0160 -1.3643 -11.1383 -1.8229 0.4548
# 2 10.0160 132.7413 28.6049 8.1601 -0.5695 -9.7343
# 3 -1.3643 28.6049 95.3768 2.9517 -4.4686 -7.8220
# 4 -11.1383 8.1601 2.9517 24.4927 -9.0213 12.0685
# 5 -1.8229 -0.5695 -4.4686 -9.0213 48.4897 0.4770
# 6 0.4548 -9.7343 -7.8220 12.0685 0.4770 20.6944
#
#
#
# Elastic Compliance Matrix: (Units=1/GPa)
#
#
# Indices 1 2 3 4 5 6 
#
# 1 0.047320 -0.008351 -0.000164 0.042905 0.009946 -0.030280
# 2 -0.008351 0.010402 -0.001875 -0.014604 -0.003209 0.012959
# 3 -0.000164 -0.001875 0.011619 -0.003436 0.000349 0.005509
# 4 0.042905 -0.014604 -0.003436 0.110299 0.022373 -0.073951
# 5 0.009946 -0.003209 0.000349 0.022373 0.025304 -0.015227
# 6 -0.030280 0.012959 0.005509 -0.073951 -0.015227 0.100643
#
#
# Mechanical properties :
#
#
# Convention : Reuss Voigt Hill
#
# Bulk Modulus (GPa) = 20.59174 37.36663 28.97919
# Shear Modulus (GPa) = 14.59628 33.70401 24.15014
#
# Velocity S-wave (km/s) = 2.68358 4.07787 3.45186
# Velocity P-wave (km/s) = 4.44542 6.37246 5.49409
#
# Compressibility (1/GPa) = 0.04856315
#
# Stress axis : x y z
#
# Youngs Moduli (GPa) = 21.13253 96.13672 86.06453
#
# Poissons Ratio (x) = 0.80280 0.01409
# Poissons Ratio (y) = 0.17647 0.16135
# Poissons Ratio (z) = 0.00346 0.18023
#
# Static dielectric constant tensor:
#      x y z
#    x 1.770130 -0.014060 0.036680 
#    y -0.014060 1.718760 -0.003400 
#    z 0.036680 -0.003400 1.715180 
# 
# From -- ./inp_files/578703.got.cif
#   From: 2010.05.17/outbox.cif.g08.bks.cpg/sg2_290_cif.got.tgz:578703.got - 2010.06.03 11:33:40.
