data_PCOD9031187
_publ_section_title
;
Structure prediction by ZEFSAII (Michael W. Deem and Ramdas Pophale) SiO2 
 PCOD9031187
Probable space group: P -1
;
_chemical_formula_sum "Si O2"
_cell_formula_units_Z 16
_cell_length_a 11.570095
_cell_length_b 7.763737
_cell_length_c 9.309739
_cell_angle_alpha 122.734306
_cell_angle_beta 99.187227
_cell_angle_gamma 89.692968
_cell_volume 691.123777
_symmetry_space_group_name_H-M "P -1"
_symmetry_group_IT_number 2
_symmetry_cell_setting 'triclinic'
loop_
_space_group_symop_operation_xyz
x,y,z
-x,-y,-z
loop_
_atom_site_type_symbol
_atom_site_label
_atom_site_fract_x
_atom_site_fract_y
_atom_site_fract_z
Si Si1 0.245927 0.933380 0.151321
Si Si2 0.984433 0.286103 0.574062
Si Si3 0.264097 0.930778 0.496269
Si Si4 0.570803 0.267584 0.065143
Si Si5 0.879955 0.514248 0.063577
Si Si6 0.377963 0.596946 0.549412
Si Si7 0.336817 0.308597 0.890251
Si Si8 0.860038 0.683633 0.653588
O O1 0.272461 0.954207 0.336800
O O2 0.174035 0.121318 0.177610
O O3 0.365473 0.909403 0.080507
O O4 0.168467 0.717471 0.012154
O O5 0.874455 0.128233 0.523178
O O6 0.925953 0.502526 0.653663
O O7 0.087447 0.336229 0.729999
O O8 0.048909 0.238228 0.418658
O O9 0.337812 0.745467 0.482602
O O10 0.310054 0.126966 0.688373
O O11 0.603839 0.279637 0.242934
O O12 0.617961 0.486464 0.098985
O O13 0.434097 0.249474 0.993469
O O14 0.775598 0.620667 0.015252
O O15 0.000000 0.500000 0.000000
O O16 0.500000 0.500000 0.500000
O O17 0.266113 0.427348 0.473112
#
# Coordination Sequence:
#
# PCOD9031187 Si02
#       8
#     2   2   2   2   2   2   2   2
#     4  11  23  41  70  97 132 169 223 263 329 389
#     4  10  22  43  65  92 139 169 217 265 327 384
#     4  11  24  41  67 102 123 177 219 265 322 395
#     4  10  24  46  64  95 136 172 208 281 327 382
#     4  11  22  38  62  97 128 166 212 272 316 377
#     4  11  26  44  68  94 133 173 217 269 326 390
#     4  10  24  41  69  91 133 172 219 264 328 388
#     4  10  23  43  67  95 128 178 212 267 326 397
#
# _framework density 23.150700000000001
#
# number of rings (size 3 to 8) (size 9 to 14) (size 15 to 20)
#    0.000    1.500    1.250    3.000    8.750    2.500 
#    2.250    0.000    0.000    0.000    0.000    0.000 
#    0.000    0.000    0.000    0.000    0.000    0.000 
#
# Total GULP energy -89510.494307 kJ/mol
# GULP energy per Si atom -5594.405894 kJ/mol
# Density = 2.309801 g / cm^3
# Si number density = 23.150700 Si / 1000 Ang^3
#
#
#
# Elastic Constant Matrix: (Units=GPa)
#
#
# Indices 1 2 3 4 5 6 
#
# 1 144.3981 39.1048 23.3969 14.4459 -11.1470 -30.0544
# 2 39.1048 86.1371 23.2824 16.0550 -7.8972 -9.5329
# 3 23.3969 23.2824 59.2937 15.2713 -0.5322 1.1352
# 4 14.4459 16.0550 15.2713 38.3349 -2.8892 -8.8945
# 5 -11.1470 -7.8972 -0.5322 -2.8892 38.1262 8.1523
# 6 -30.0544 -9.5329 1.1352 -8.8945 8.1523 27.0612
#
#
#
# Elastic Compliance Matrix: (Units=1/GPa)
#
#
# Indices 1 2 3 4 5 6 
#
# 1 0.010464 -0.002767 -0.003574 0.001240 0.000144 0.011160
# 2 -0.002767 0.014762 -0.003846 -0.003320 0.001804 0.000654
# 3 -0.003574 -0.003846 0.021971 -0.007844 -0.000259 -0.008746
# 4 0.001240 -0.003320 -0.007844 0.032754 -0.000395 0.011421
# 5 0.000144 0.001804 -0.000259 -0.000395 0.028288 -0.007846
# 6 0.011160 0.000654 -0.008746 0.011421 -0.007846 0.056063
#
#
# Mechanical properties :
#
#
# Convention : Reuss Voigt Hill
#
# Bulk Modulus (GPa) = 37.28229 51.26635 44.27432
# Shear Modulus (GPa) = 25.82433 34.30745 30.06589
#
# Velocity S-wave (km/s) = 3.34352 3.85375 3.60766
# Velocity P-wave (km/s) = 5.57177 6.48032 6.04314
#
# Compressibility (1/GPa) = 0.02682238
#
# Stress axis : x y z
#
# Youngs Moduli (GPa) = 95.56834 67.74344 45.51477
#
# Poissons Ratio (x) = 0.18745 0.16268
# Poissons Ratio (y) = 0.26444 0.17504
# Poissons Ratio (z) = 0.34157 0.26052
#
# Static dielectric constant tensor:
#      x y z
#    x 1.867700 0.020940 -0.018420 
#    y 0.020940 1.895810 -0.001840 
#    z -0.018420 -0.001840 1.734090 
# 
# From -- ./inp_files/246068.got.cif
#   From: 2010.05.17/outbox.cif.g08.bks.cpg/sg2_124_cif.got.tgz:246068.got - 2010.06.03 11:33:40.
