data_PCOD9031024
_publ_section_title
;
Structure prediction by ZEFSAII (Michael W. Deem and Ramdas Pophale) SiO2 
 PCOD9031024
Probable space group: P -1
;
_chemical_formula_sum "Si O2"
_cell_formula_units_Z 16
_cell_length_a 9.149106
_cell_length_b 10.260066
_cell_length_c 15.293063
_cell_angle_alpha 70.430755
_cell_angle_beta 139.063703
_cell_angle_gamma 85.034642
_cell_volume 740.160853
_symmetry_space_group_name_H-M "P -1"
_symmetry_group_IT_number 2
_symmetry_cell_setting 'triclinic'
loop_
_space_group_symop_operation_xyz
x,y,z
-x,-y,-z
loop_
_atom_site_type_symbol
_atom_site_label
_atom_site_fract_x
_atom_site_fract_y
_atom_site_fract_z
Si Si1 0.554002 0.653309 0.768757
Si Si2 0.976295 0.415732 0.700118
Si Si3 0.775458 0.666585 0.412814
Si Si4 0.806530 0.939717 0.165651
Si Si5 0.208558 0.828106 0.022845
Si Si6 0.519771 0.559154 0.090365
Si Si7 0.993261 0.902218 0.436006
Si Si8 0.997832 0.661128 0.067758
O O1 0.413094 0.588006 0.781107
O O2 0.304571 0.796048 0.571369
O O3 0.770100 0.504525 0.839389
O O4 0.716858 0.699433 0.895771
O O5 0.013642 0.258802 0.701878
O O6 0.253971 0.403247 0.819374
O O7 0.765672 0.589790 0.519124
O O8 0.954330 0.383330 0.798922
O O9 0.494695 0.751617 0.216365
O O10 0.000000 0.500000 0.500000
O O11 0.865462 0.796018 0.426772
O O12 0.829208 0.008436 0.253281
O O13 0.500000 0.000000 0.000000
O O14 0.889524 0.998901 0.105289
O O15 0.263266 0.712669 0.987805
O O16 0.027385 0.807625 0.013788
O O17 0.500000 0.500000 0.000000
O O18 0.000000 0.000000 0.500000
#
# Coordination Sequence:
#
# PCOD9031024 Si02
#       8
#     2   2   2   2   2   2   2   2
#     4  10  22  43  63  99 142 171 224 286 348 397
#     4  12  23  38  71 100 127 180 237 279 341 403
#     4  12  20  43  67 101 132 174 232 297 330 393
#     4  12  24  43  67 100 134 180 228 287 343 403
#     4  11  24  42  64  92 140 180 227 277 345 407
#     4  11  19  33  67  95 120 167 230 281 319 398
#     4  12  26  41  72 106 140 174 228 300 345 397
#     4  10  24  42  67  96 139 186 221 282 341 424
#
# _framework density 21.616923
#
# number of rings (size 3 to 8) (size 9 to 14) (size 15 to 20)
#    0.000    0.750    7.500    0.750    3.500    1.000 
#    0.000    0.625    0.000    0.000    0.000    0.000 
#    0.000    0.000    0.000    0.000    0.000    0.000 
#
# Total GULP energy -89359.858724 kJ/mol
# GULP energy per Si atom -5584.991170 kJ/mol
# Density = 2.156772 g / cm^3
# Si number density = 21.616923 Si / 1000 Ang^3
#
#
#
# Elastic Constant Matrix: (Units=GPa)
#
#
# Indices 1 2 3 4 5 6 
#
# 1 98.3387 35.5462 34.5658 7.1124 -36.0221 21.8543
# 2 35.5462 94.5248 30.8584 10.9188 -18.6588 22.0327
# 3 34.5658 30.8584 105.0516 7.2355 -28.1001 8.6200
# 4 7.1124 10.9188 7.2355 30.1247 -1.0730 -14.7814
# 5 -36.0221 -18.6588 -28.1001 -1.0730 39.5672 -3.7875
# 6 21.8543 22.0327 8.6200 -14.7814 -3.7875 32.7770
#
#
#
# Elastic Compliance Matrix: (Units=1/GPa)
#
#
# Indices 1 2 3 4 5 6 
#
# 1 0.022005 0.002080 -0.000117 -0.015516 0.018510 -0.020898
# 2 0.002080 0.018081 -0.001371 -0.016083 0.007134 -0.019609
# 3 -0.000117 -0.001371 0.012546 -0.003725 0.007761 -0.003083
# 4 -0.015516 -0.016083 -0.003725 0.067821 -0.017665 0.050680
# 5 0.018510 0.007134 0.007761 -0.017665 0.048459 -0.021545
# 6 -0.020898 -0.019609 -0.003083 0.050680 -0.021545 0.078801
#
#
# Mechanical properties :
#
#
# Convention : Reuss Voigt Hill
#
# Bulk Modulus (GPa) = 18.58140 55.53953 37.06047
# Shear Modulus (GPa) = 18.90599 33.62344 26.26472
#
# Velocity S-wave (km/s) = 2.96056 3.94816 3.48948
# Velocity P-wave (km/s) = 4.50566 6.82146 5.78072
#
# Compressibility (1/GPa) = 0.05381726
#
# Stress axis : x y z
#
# Youngs Moduli (GPa) = 45.44471 55.30625 79.70821
#
# Poissons Ratio (x) = -0.11506 0.00931
# Poissons Ratio (y) = -0.09454 0.10926
# Poissons Ratio (z) = 0.00531 0.07581
#
# Static dielectric constant tensor:
#      x y z
#    x 1.803390 -0.020140 -0.027770 
#    y -0.020140 1.861110 -0.031270 
#    z -0.027770 -0.031270 1.827930 
# 
# From -- ./inp_files/499017.got.cif
#   From: 2010.05.17/outbox.cif.g08.bks.cpg/sg2_250_cif.got.tgz:499017.got - 2010.06.03 11:33:40.
