data_PCOD9031362
_publ_section_title
;
Structure prediction by ZEFSAII (Michael W. Deem and Ramdas Pophale) SiO2 
 PCOD9031362
Probable space group: P -1
;
_chemical_formula_sum "Si O2"
_cell_formula_units_Z 16
_cell_length_a 11.179697
_cell_length_b 12.360856
_cell_length_c 11.597829
_cell_angle_alpha 55.273645
_cell_angle_beta 145.758714
_cell_angle_gamma 111.402096
_cell_volume 721.446489
_symmetry_space_group_name_H-M "P -1"
_symmetry_group_IT_number 2
_symmetry_cell_setting 'triclinic'
loop_
_space_group_symop_operation_xyz
x,y,z
-x,-y,-z
loop_
_atom_site_type_symbol
_atom_site_label
_atom_site_fract_x
_atom_site_fract_y
_atom_site_fract_z
Si Si1 0.246689 0.737497 0.451124
Si Si2 0.739239 0.569241 0.370032
Si Si3 0.964870 0.800785 0.782541
Si Si4 0.595277 0.378275 0.734271
Si Si5 0.995685 0.760952 0.561917
Si Si6 0.475904 0.660558 0.902040
Si Si7 0.475230 0.835043 0.360371
Si Si8 0.863346 0.948183 0.136815
O O1 0.187936 0.590697 0.496021
O O2 0.440477 0.726696 0.707287
O O3 0.329026 0.775239 0.370755
O O4 0.038553 0.849921 0.256819
O O5 0.511836 0.587849 0.247553
O O6 0.906969 0.626754 0.546746
O O7 0.677716 0.656878 0.150997
O O8 0.718675 0.808728 0.616910
O O9 0.971659 0.811042 0.642883
O O10 0.042815 0.921801 0.833377
O O11 0.143625 0.663165 0.034155
O O12 0.500000 0.500000 0.500000
O O13 0.517002 0.249473 0.700104
O O14 0.247612 0.728413 0.741839
O O15 0.854849 0.871875 0.296558
O O16 0.500000 0.500000 0.000000
O O17 0.362580 0.989516 0.146180
#
# Coordination Sequence:
#
# PCOD9031362 Si02
#       8
#     2   2   2   2   2   2   2   2
#     4  10  22  43  66  92 135 174 211 269 320 390
#     4  11  21  41  69  98 128 162 215 272 330 379
#     4  11  24  42  66  96 130 172 219 264 323 382
#     4  11  22  42  65  99 134 163 207 276 328 385
#     4  11  22  41  68  97 127 171 217 267 324 379
#     4   9  21  39  60  93 132 165 206 260 317 382
#     4  11  23  43  66  98 128 175 220 260 327 381
#     4  10  25  42  63  93 134 175 220 266 309 383
#
# _framework density 22.177668000000001
#
# number of rings (size 3 to 8) (size 9 to 14) (size 15 to 20)
#    0.000    1.500    3.750    0.750    0.000    8.000 
#    4.500    6.250    0.000    0.000    0.000    0.000 
#    0.000    0.000    0.000    0.000    0.000    0.000 
#
# Total GULP energy -89406.458362 kJ/mol
# GULP energy per Si atom -5587.903648 kJ/mol
# Density = 2.212719 g / cm^3
# Si number density = 22.177668 Si / 1000 Ang^3
#
#
#
# Elastic Constant Matrix: (Units=GPa)
#
#
# Indices 1 2 3 4 5 6 
#
# 1 58.9030 2.7478 31.2592 -9.2905 0.9026 -12.1813
# 2 2.7478 51.6305 28.6165 -9.6917 20.2713 -16.5737
# 3 31.2592 28.6165 127.6472 -23.3741 7.0062 1.4699
# 4 -9.2905 -9.6917 -23.3741 36.9593 -0.2185 -0.7380
# 5 0.9026 20.2713 7.0062 -0.2185 27.1863 -3.4983
# 6 -12.1813 -16.5737 1.4699 -0.7380 -3.4983 26.1359
#
#
#
# Elastic Compliance Matrix: (Units=1/GPa)
#
#
# Indices 1 2 3 4 5 6 
#
# 1 0.025673 0.012632 -0.008127 0.004989 -0.005586 0.019827
# 2 0.012632 0.049343 -0.011157 0.009562 -0.029875 0.034076
# 3 -0.008127 -0.011157 0.012771 0.002912 0.003909 -0.010976
# 4 0.004989 0.009562 0.002912 0.032785 -0.006721 0.008251
# 5 -0.005586 -0.029875 0.003909 -0.006721 0.056328 -0.014418
# 6 0.019827 0.034076 -0.010976 0.008251 -0.014418 0.068032
#
#
# Mechanical properties :
#
#
# Convention : Reuss Voigt Hill
#
# Bulk Modulus (GPa) = 13.42590 40.38085 26.90337
# Shear Modulus (GPa) = 17.66390 29.76013 23.71201
#
# Velocity S-wave (km/s) = 2.82525 3.66716 3.27339
# Velocity P-wave (km/s) = 4.08774 6.01483 5.14236
#
# Compressibility (1/GPa) = 0.07448292
#
# Stress axis : x y z
#
# Youngs Moduli (GPa) = 38.95071 20.26629 78.30474
#
# Poissons Ratio (x) = -0.25601 0.63640
# Poissons Ratio (y) = -0.49203 0.87365
# Poissons Ratio (z) = 0.31656 0.22611
#
# Static dielectric constant tensor:
#      x y z
#    x 1.782890 -0.014240 -0.006910 
#    y -0.014240 1.825880 0.019330 
#    z -0.006910 0.019330 1.853370 
# 
# From -- ./inp_files/66785.got.cif
#   From: 2010.05.17/outbox.cif.g08.bks.cpg/sg2_34_cif.got.tgz:66785.got - 2010.06.03 11:33:40.
