data_PCOD9031963
_publ_section_title
;
Structure prediction by ZEFSAII (Michael W. Deem and Ramdas Pophale) SiO2 
 PCOD9031963
Probable space group: P -1
;
_chemical_formula_sum "Si O2"
_cell_formula_units_Z 14
_cell_length_a 5.108442
_cell_length_b 15.306482
_cell_length_c 17.504627
_cell_angle_alpha 31.940956
_cell_angle_beta 128.440855
_cell_angle_gamma 136.678230
_cell_volume 496.778067
_symmetry_space_group_name_H-M "P -1"
_symmetry_group_IT_number 2
_symmetry_cell_setting 'triclinic'
loop_
_space_group_symop_operation_xyz
x,y,z
-x,-y,-z
loop_
_atom_site_type_symbol
_atom_site_label
_atom_site_fract_x
_atom_site_fract_y
_atom_site_fract_z
Si Si1 0.942218 0.114870 0.469356
Si Si2 0.038858 0.496362 0.211230
Si Si3 0.058716 0.404280 0.459462
Si Si4 0.987518 0.337283 0.062663
Si Si5 0.090872 0.269382 0.796781
Si Si6 0.922950 0.927662 0.916019
Si Si7 0.029565 0.026683 0.701587
O O1 0.032502 0.315539 0.305472
O O2 0.500000 0.000000 0.500000
O O3 0.000000 0.000000 0.500000
O O4 0.207539 0.143165 0.570104
O O5 0.951011 0.435127 0.328832
O O6 0.465595 0.660819 0.167730
O O7 0.848329 0.569902 0.060356
O O8 0.500000 0.500000 0.500000
O O9 0.940588 0.549448 0.368863
O O10 0.896913 0.177725 0.598081
O O11 0.527173 0.198754 0.087318
O O12 0.143833 0.184636 0.211814
O O13 0.000000 0.500000 0.000000
O O14 0.940974 0.179762 0.919885
O O15 0.948935 0.108983 0.827661
O O16 0.156863 0.985217 0.836875
#
# Coordination Sequence:
#
# PCOD9031963 Si02
#       7
#     2   2   2   2   2   2   2
#     4  11  27  47  71 103 148 195 246 303 370 435
#     4  10  24  42  69  98 139 188 241 300 365 431
#     4  11  23  40  65 102 139 188 234 295 367 439
#     4  11  24  44  67  98 138 184 248 300 364 437
#     4  10  22  43  69 100 148 184 242 296 367 444
#     4  10  23  42  69 103 138 191 236 305 363 426
#     4  11  25  40  68  99 138 180 244 299 358 435
#
# _framework density 28.181601000000001
#
# number of rings (size 3 to 8) (size 9 to 14) (size 15 to 20)
#    0.000    1.429    0.000    3.429    8.000    4.000 
#    0.000    5.714    0.000    0.000    0.000    0.000 
#    0.000    0.000    0.000    0.000    0.000    0.000 
#
# Total GULP energy -78049.361168 kJ/mol
# GULP energy per Si atom -5574.954369 kJ/mol
# Density = 2.811746 g / cm^3
# Si number density = 28.181601 Si / 1000 Ang^3
#
#
#
# Elastic Constant Matrix: (Units=GPa)
#
#
# Indices 1 2 3 4 5 6 
#
# 1 108.9214 51.4872 36.9598 -3.8291 18.9311 -19.1747
# 2 51.4872 140.3794 64.5416 -29.0315 24.9228 -7.7595
# 3 36.9598 64.5416 222.0267 -18.8022 27.2317 -38.4544
# 4 -3.8291 -29.0315 -18.8022 79.0836 -28.1036 1.0041
# 5 18.9311 24.9228 27.2317 -28.1036 35.0546 -9.5416
# 6 -19.1747 -7.7595 -38.4544 1.0041 -9.5416 36.3277
#
#
#
# Elastic Compliance Matrix: (Units=1/GPa)
#
#
# Indices 1 2 3 4 5 6 
#
# 1 0.012688 -0.004218 0.000348 -0.002658 -0.004907 0.004949
# 2 -0.004218 0.010497 -0.002428 0.002276 -0.002355 -0.003236
# 3 0.000348 -0.002428 0.006407 -0.000102 -0.001901 0.005951
# 4 -0.002658 0.002276 -0.000102 0.018890 0.015745 0.002588
# 5 -0.004907 -0.002355 -0.001901 0.015745 0.048942 0.007314
# 6 0.004949 -0.003236 0.005951 0.002588 0.007314 0.037597
#
#
# Mechanical properties :
#
#
# Convention : Reuss Voigt Hill
#
# Bulk Modulus (GPa) = 58.84204 86.36721 72.60463
# Shear Modulus (GPa) = 32.61962 51.31577 41.96770
#
# Velocity S-wave (km/s) = 3.40587 4.27183 3.86319
# Velocity P-wave (km/s) = 6.03254 7.41920 6.76151
#
# Compressibility (1/GPa) = 0.01699465
#
# Stress axis : x y z
#
# Youngs Moduli (GPa) = 78.81771 95.26502 156.07930
#
# Poissons Ratio (x) = 0.40187 -0.05433
# Poissons Ratio (y) = 0.33249 0.37898
# Poissons Ratio (z) = -0.02744 0.23131
#
# Static dielectric constant tensor:
#      x y z
#    x 2.271190 0.027410 0.020010 
#    y 0.027410 2.287840 0.059170 
#    z 0.020010 0.059170 2.228750 
# 
# From -- ./inp_files/36750.got.cif
#   From: 2010.05.17/outbox.cif.g08.bks.cpg/sg2_19_cif.got.tgz:36750.got - 2010.06.03 11:33:40.
