data_PCOD9031673
_publ_section_title
;
Structure prediction by ZEFSAII (Michael W. Deem and Ramdas Pophale) SiO2 
 PCOD9031673
Probable space group: P -1
;
_chemical_formula_sum "Si O2"
_cell_formula_units_Z 16
_cell_length_a 14.408260
_cell_length_b 9.220400
_cell_length_c 8.252208
_cell_angle_alpha 47.387237
_cell_angle_beta 86.349859
_cell_angle_gamma 108.578884
_cell_volume 700.765808
_symmetry_space_group_name_H-M "P -1"
_symmetry_group_IT_number 2
_symmetry_cell_setting 'triclinic'
loop_
_space_group_symop_operation_xyz
x,y,z
-x,-y,-z
loop_
_atom_site_type_symbol
_atom_site_label
_atom_site_fract_x
_atom_site_fract_y
_atom_site_fract_z
Si Si1 0.756506 0.089054 0.554591
Si Si2 0.227409 0.072331 0.966097
Si Si3 0.033046 0.638601 0.157607
Si Si4 0.445771 0.160884 0.717945
Si Si5 0.360657 0.663423 0.181218
Si Si6 0.421509 0.337052 0.266165
Si Si7 0.981972 0.208710 0.304583
Si Si8 0.186125 0.483671 0.599559
O O1 0.858295 0.135696 0.402021
O O2 0.758333 0.321478 0.418628
O O3 0.651641 0.906490 0.617545
O O4 0.767801 0.992143 0.799935
O O5 0.344388 0.165130 0.805820
O O6 0.192996 0.262212 0.808141
O O7 0.139896 0.849571 0.051048
O O8 0.042550 0.424000 0.255159
O O9 0.935840 0.568463 0.347552
O O10 0.994149 0.714859 0.941998
O O11 0.544843 0.261718 0.752762
O O12 0.476719 0.302474 0.443477
O O13 0.400886 0.892412 0.900814
O O14 0.352523 0.453047 0.243633
O O15 0.252840 0.588940 0.348912
O O16 0.500000 0.500000 0.000000
O O17 0.000000 0.000000 0.500000
#
# Coordination Sequence:
#
# PCOD9031673 Si02
#       8
#     2   2   2   2   2   2   2   2
#     4  11  26  44  65 105 139 179 234 281 349 408
#     4  12  23  43  73 100 137 181 237 287 336 414
#     4  10  24  42  68 106 138 180 235 283 340 411
#     4  11  25  46  72 103 134 181 233 289 343 420
#     4  11  25  47  74  99 138 180 236 286 348 415
#     4  12  27  45  70 103 139 179 228 288 354 413
#     4  10  22  43  67  98 145 184 221 285 347 410
#     4  11  24  43  72 100 137 182 229 288 338 411
#
# _framework density 22.832165
#
# number of rings (size 3 to 8) (size 9 to 14) (size 15 to 20)
#    0.000    1.000    2.500    3.000    3.500    5.500 
#    0.000    0.000    0.000    0.000    0.000    0.000 
#    0.000    0.000    0.000    0.000    0.000    0.000 
#
# Total GULP energy -89649.765734 kJ/mol
# GULP energy per Si atom -5603.110358 kJ/mol
# Density = 2.278020 g / cm^3
# Si number density = 22.832165 Si / 1000 Ang^3
#
#
#
# Elastic Constant Matrix: (Units=GPa)
#
#
# Indices 1 2 3 4 5 6 
#
# 1 88.9451 46.1773 42.7920 -5.2346 0.6181 -15.3005
# 2 46.1773 81.1246 43.5876 -21.1415 7.5466 -6.0645
# 3 42.7920 43.5876 125.2485 -1.6176 -0.7521 -10.6621
# 4 -5.2346 -21.1415 -1.6176 43.9380 -16.2588 1.5725
# 5 0.6181 7.5466 -0.7521 -16.2588 46.0661 -12.4606
# 6 -15.3005 -6.0645 -10.6621 1.5725 -12.4606 28.2584
#
#
#
# Elastic Compliance Matrix: (Units=1/GPa)
#
#
# Indices 1 2 3 4 5 6 
#
# 1 0.018610 -0.009368 -0.002369 -0.001569 0.003016 0.008589
# 2 -0.009368 0.022509 -0.004786 0.009192 -0.001235 -0.003103
# 3 -0.002369 -0.004786 0.010627 -0.001939 0.000901 0.002205
# 4 -0.001569 0.009192 -0.001939 0.030557 0.010122 0.003154
# 5 0.003016 -0.001235 0.000901 0.010122 0.029256 0.014045
# 6 0.008589 -0.003103 0.002205 0.003154 0.014045 0.046222
#
#
# Mechanical properties :
#
#
# Convention : Reuss Voigt Hill
#
# Bulk Modulus (GPa) = 53.47254 62.27023 57.87139
# Shear Modulus (GPa) = 25.37303 34.50325 29.93814
#
# Velocity S-wave (km/s) = 3.33721 3.89159 3.62501
# Velocity P-wave (km/s) = 6.19031 6.89383 6.55152
#
# Compressibility (1/GPa) = 0.01870119
#
# Stress axis : x y z
#
# Youngs Moduli (GPa) = 53.73341 44.42753 94.09875
#
# Poissons Ratio (x) = 0.41618 0.22295
# Poissons Ratio (y) = 0.50335 0.45032
# Poissons Ratio (z) = 0.12731 0.21261
#
# Static dielectric constant tensor:
#      x y z
#    x 1.832620 -0.017590 0.010720 
#    y -0.017590 1.833810 0.005220 
#    z 0.010720 0.005220 1.854960 
# 
# From -- ./inp_files/297452.got.cif
#   From: 2010.05.17/outbox.cif.g08.bks.cpg/sg2_149_cif.got.tgz:297452.got - 2010.06.03 11:33:40.
