data_PCOD9031395
_publ_section_title
;
Structure prediction by ZEFSAII (Michael W. Deem and Ramdas Pophale) SiO2 
 PCOD9031395
Probable space group: P -1
;
_chemical_formula_sum "Si O2"
_cell_formula_units_Z 16
_cell_length_a 14.097459
_cell_length_b 13.715526
_cell_length_c 13.350541
_cell_angle_alpha 135.420332
_cell_angle_beta 145.455499
_cell_angle_gamma 29.436073
_cell_volume 719.249816
_symmetry_space_group_name_H-M "P -1"
_symmetry_group_IT_number 2
_symmetry_cell_setting 'triclinic'
loop_
_space_group_symop_operation_xyz
x,y,z
-x,-y,-z
loop_
_atom_site_type_symbol
_atom_site_label
_atom_site_fract_x
_atom_site_fract_y
_atom_site_fract_z
Si Si1 0.189834 0.137644 0.862430
Si Si2 0.074471 0.341807 0.723660
Si Si3 0.844572 0.128060 0.558750
Si Si4 0.550219 0.210218 0.014400
Si Si5 0.357685 0.276542 0.251389
Si Si6 0.127089 0.281701 0.417865
Si Si7 0.104103 0.766296 0.667268
Si Si8 0.382440 0.043343 0.273262
O O1 0.210971 0.146893 0.768865
O O2 0.923106 0.240404 0.729113
O O3 0.352058 0.922842 0.897596
O O4 0.266303 0.234863 0.051298
O O5 0.877518 0.517685 0.754941
O O6 0.936549 0.344572 0.518197
O O7 0.271696 0.336074 0.857333
O O8 0.567403 0.260539 0.399428
O O9 0.000000 0.000000 0.500000
O O10 0.940846 0.979912 0.627502
O O11 0.635095 0.318384 0.167686
O O12 0.677251 0.056245 0.918505
O O13 0.446756 0.119786 0.302065
O O14 0.185347 0.221382 0.307625
O O15 0.000000 0.500000 0.500000
O O16 0.981389 0.236740 0.301930
O O17 0.383130 0.128953 0.584579
#
# Coordination Sequence:
#
# PCOD9031395 Si02
#       8
#     2   2   2   2   2   2   2   2
#     4  10  23  37  60  89 126 178 218 258 317 382
#     4  12  22  38  62  94 137 171 219 265 315 387
#     4  11  22  39  62  88 124 171 217 260 320 386
#     4  10  23  39  66  93 129 174 216 262 322 383
#     4  11  24  40  62  91 133 172 213 274 326 378
#     4  11  22  42  74  97 124 171 215 271 337 382
#     4  11  22  41  66  94 128 169 218 262 325 384
#     4  10  22  43  66  95 131 164 219 272 325 393
#
# _framework density 22.245401000000001
#
# number of rings (size 3 to 8) (size 9 to 14) (size 15 to 20)
#    0.000    1.250    3.750    2.250    3.500    2.000 
#    0.000    0.625    0.000    0.000    0.000    0.000 
#    0.000    0.000    0.000    0.000    0.000    0.000 
#
# Total GULP energy -89387.746509 kJ/mol
# GULP energy per Si atom -5586.734157 kJ/mol
# Density = 2.219477 g / cm^3
# Si number density = 22.245401 Si / 1000 Ang^3
#
#
#
# Elastic Constant Matrix: (Units=GPa)
#
#
# Indices 1 2 3 4 5 6 
#
# 1 138.1450 29.5082 67.4100 2.4810 12.0958 -19.2769
# 2 29.5082 74.7092 29.4737 -5.3806 5.7781 -16.3418
# 3 67.4100 29.4737 170.9218 -6.2815 43.3617 -23.2352
# 4 2.4810 -5.3806 -6.2815 12.1918 -0.4621 -0.4292
# 5 12.0958 5.7781 43.3617 -0.4621 47.2021 -6.7114
# 6 -19.2769 -16.3418 -23.2352 -0.4292 -6.7114 33.6545
#
#
#
# Elastic Compliance Matrix: (Units=1/GPa)
#
#
# Indices 1 2 3 4 5 6 
#
# 1 0.009823 -0.002412 -0.003715 -0.004848 0.001444 0.002116
# 2 -0.002412 0.016562 -0.000867 0.007586 0.000347 0.006228
# 3 -0.003715 -0.000867 0.009999 0.005336 -0.007664 0.002894
# 4 -0.004848 0.007586 0.005336 0.089174 -0.002986 0.005132
# 5 0.001444 0.000347 -0.007664 -0.002986 0.027960 0.001243
# 6 0.002116 0.006228 0.002894 0.005132 0.001243 0.036261
#
#
# Mechanical properties :
#
#
# Convention : Reuss Voigt Hill
#
# Bulk Modulus (GPa) = 44.65297 70.72887 57.69092
# Shear Modulus (GPa) = 23.67059 35.76864 29.71962
#
# Velocity S-wave (km/s) = 3.26554 4.01423 3.65908
# Velocity P-wave (km/s) = 5.85959 7.30405 6.62133
#
# Compressibility (1/GPa) = 0.02239493
#
# Stress axis : x y z
#
# Youngs Moduli (GPa) = 101.80515 60.37995 100.00916
#
# Poissons Ratio (x) = 0.14564 0.37152
# Poissons Ratio (y) = 0.24556 0.08674
# Poissons Ratio (z) = 0.37820 0.05237
#
# Static dielectric constant tensor:
#      x y z
#    x 1.842190 0.007660 -0.005480 
#    y 0.007660 1.894390 -0.010000 
#    z -0.005480 -0.010000 1.866610 
# 
# From -- ./inp_files/534476.got.cif
#   From: 2010.05.17/outbox.cif.g08.bks.cpg/sg2_268_cif.got.tgz:534476.got - 2010.06.03 11:33:40.
