data_PCOD9031741
_publ_section_title
;
Structure prediction by ZEFSAII (Michael W. Deem and Ramdas Pophale) SiO2 
 PCOD9031741
Probable space group: P -1
;
_chemical_formula_sum "Si O2"
_cell_formula_units_Z 16
_cell_length_a 8.691774
_cell_length_b 14.889114
_cell_length_c 8.860066
_cell_angle_alpha 138.612955
_cell_angle_beta 94.181697
_cell_angle_gamma 75.160519
_cell_volume 719.920332
_symmetry_space_group_name_H-M "P -1"
_symmetry_group_IT_number 2
_symmetry_cell_setting 'triclinic'
loop_
_space_group_symop_operation_xyz
x,y,z
-x,-y,-z
loop_
_atom_site_type_symbol
_atom_site_label
_atom_site_fract_x
_atom_site_fract_y
_atom_site_fract_z
Si Si1 0.842044 0.634705 0.624426
Si Si2 0.198654 0.370670 0.716182
Si Si3 0.441605 0.070471 0.420971
Si Si4 0.778946 0.096870 0.471745
Si Si5 0.174996 0.609713 0.248223
Si Si6 0.694121 0.167070 0.896173
Si Si7 0.009133 0.113417 0.014650
Si Si8 0.414966 0.432866 0.280544
O O1 0.759469 0.616368 0.437978
O O2 0.708946 0.643922 0.753943
O O3 0.000000 0.500000 0.500000
O O4 0.900316 0.774184 0.789295
O O5 0.298964 0.218842 0.601387
O O6 0.007440 0.386975 0.721586
O O7 0.227411 0.496478 0.974164
O O8 0.600248 0.101411 0.408096
O O9 0.500000 0.000000 0.500000
O O10 0.377741 0.951908 0.186690
O O11 0.824519 0.235749 0.604272
O O12 0.772171 0.100445 0.658028
O O13 0.901100 0.966423 0.228871
O O14 0.301310 0.554505 0.321380
O O15 0.827531 0.193799 0.049073
O O16 0.550841 0.313068 0.047647
O O17 0.000000 0.000000 0.000000
O O18 0.500000 0.500000 0.500000
#
# Coordination Sequence:
#
# PCOD9031741 Si02
#       8
#     2   2   2   2   2   2   2   2
#     4  12  26  48  73 107 148 199 243 300 378 434
#     4  11  25  45  73 103 145 188 245 305 353 446
#     4  10  22  43  68 102 141 181 242 299 366 423
#     4  11  25  43  73 101 144 189 245 296 365 438
#     4  11  25  45  70 107 143 192 246 295 367 434
#     4  11  25  45  69 102 142 192 240 301 364 434
#     4  12  27  46  75 106 150 188 246 304 366 441
#     4  12  28  46  72 107 152 191 245 305 370 439
#
# _framework density 22.224681
#
# number of rings (size 3 to 8) (size 9 to 14) (size 15 to 20)
#    0.000    0.750    1.250    5.625    7.000    3.000 
#    0.000    2.500    0.000    0.000    0.000    0.000 
#    0.000    0.000    0.000    0.000    0.000    0.000 
#
# Total GULP energy -89537.126615 kJ/mol
# GULP energy per Si atom -5596.070413 kJ/mol
# Density = 2.217410 g / cm^3
# Si number density = 22.224681 Si / 1000 Ang^3
#
#
#
# Elastic Constant Matrix: (Units=GPa)
#
#
# Indices 1 2 3 4 5 6 
#
# 1 64.0260 -2.6108 15.7381 -10.0680 4.8035 -11.9041
# 2 -2.6108 61.1183 14.3772 -7.2035 -8.3077 -16.7291
# 3 15.7381 14.3772 85.1559 5.2480 1.6732 -6.6747
# 4 -10.0680 -7.2035 5.2480 32.5407 -2.0103 1.3964
# 5 4.8035 -8.3077 1.6732 -2.0103 40.2780 8.8791
# 6 -11.9041 -16.7291 -6.6747 1.3964 8.8791 42.2874
#
#
#
# Elastic Compliance Matrix: (Units=1/GPa)
#
#
# Indices 1 2 3 4 5 6 
#
# 1 0.019357 0.004153 -0.004146 0.007141 -0.002402 0.006706
# 2 0.004153 0.020784 -0.004090 0.006357 0.002513 0.008008
# 3 -0.004146 -0.004090 0.013470 -0.004414 -0.001065 -0.000290
# 4 0.007141 0.006357 -0.004414 0.035079 0.001893 0.002273
# 5 -0.002402 0.002513 -0.001065 0.001893 0.027001 -0.005582
# 6 0.006706 0.008008 -0.000290 0.002273 -0.005582 0.029755
#
#
# Mechanical properties :
#
#
# Convention : Reuss Voigt Hill
#
# Bulk Modulus (GPa) = 22.00454 29.47881 25.74168
# Shear Modulus (GPa) = 29.62776 35.20759 32.41767
#
# Velocity S-wave (km/s) = 3.65513 3.98448 3.82335
# Velocity P-wave (km/s) = 5.26647 5.87034 5.57658
#
# Compressibility (1/GPa) = 0.04544516
#
# Stress axis : x y z
#
# Youngs Moduli (GPa) = 51.66098 48.11374 74.23806
#
# Poissons Ratio (x) = -0.19981 0.30778
# Poissons Ratio (y) = -0.21454 0.30364
# Poissons Ratio (z) = 0.21418 0.19679
#
# Static dielectric constant tensor:
#      x y z
#    x 1.862110 0.004270 -0.002660 
#    y 0.004270 1.836910 -0.071180 
#    z -0.002660 -0.071180 1.849000 
# 
# From -- ./inp_files/209451.got.cif
#   From: 2010.05.17/outbox.cif.g08.bks.cpg/sg2_105_cif.got.tgz:209451.got - 2010.06.03 11:33:40.
