data_PCOD9031632
_publ_section_title
;
Structure prediction by ZEFSAII (Michael W. Deem and Ramdas Pophale) SiO2 
 PCOD9031632
Probable space group: P -1
;
_chemical_formula_sum "Si O2"
_cell_formula_units_Z 14
_cell_length_a 6.792037
_cell_length_b 22.203779
_cell_length_c 5.290326
_cell_angle_alpha 102.712671
_cell_angle_beta 47.105832
_cell_angle_gamma 102.314429
_cell_volume 567.915520
_symmetry_space_group_name_H-M "P -1"
_symmetry_group_IT_number 2
_symmetry_cell_setting 'triclinic'
loop_
_space_group_symop_operation_xyz
x,y,z
-x,-y,-z
loop_
_atom_site_type_symbol
_atom_site_label
_atom_site_fract_x
_atom_site_fract_y
_atom_site_fract_z
Si Si1 0.696030 0.374193 0.704941
Si Si2 0.960979 0.039750 0.822004
Si Si3 0.782074 0.803438 0.789535
Si Si4 0.747722 0.233120 0.997722
Si Si5 0.461564 0.117229 0.290610
Si Si6 0.127459 0.299271 0.062575
Si Si7 0.736238 0.455185 0.245323
O O1 0.934082 0.328143 0.461232
O O2 0.765802 0.422068 0.458725
O O3 0.410447 0.338525 0.840057
O O4 0.679829 0.407962 0.017629
O O5 0.198376 0.095522 0.658795
O O6 0.669962 0.065792 0.081453
O O7 0.000000 0.000000 0.500000
O O8 0.000000 0.000000 0.000000
O O9 0.538603 0.753481 0.857004
O O10 0.653053 0.866122 0.874590
O O11 0.831038 0.772766 0.984634
O O12 0.059519 0.801534 0.391056
O O13 0.634515 0.182114 0.259757
O O14 0.929134 0.291982 0.991321
O O15 0.500000 0.500000 0.500000
O O16 0.000000 0.500000 0.000000
#
# Coordination Sequence:
#
# PCOD9031632 Si02
#       7
#     2   2   2   2   2   2   2
#     4  12  28  43  78 107 146 187 232 307 350 416
#     4  12  26  47  70 101 136 179 240 313 348 412
#     4  10  22  43  67  96 146 179 235 276 345 449
#     4  10  22  43  67  96 146 179 235 276 345 449
#     4  10  22  47  66 101 134 190 236 276 372 416
#     4  12  26  42  70 112 144 186 232 286 370 412
#     4  12  26  51  74 103 142 192 250 290 350 412
#
# _framework density 24.651557
#
# number of rings (size 3 to 8) (size 9 to 14) (size 15 to 20)
#    0.857    0.000    1.429    5.143    6.000    1.143 
#    5.143    0.000    0.000    0.000    0.000    0.000 
#    0.000    0.000    0.000    0.000    0.000    0.000 
#
# Total GULP energy -78241.103988 kJ/mol
# GULP energy per Si atom -5588.650285 kJ/mol
# Density = 2.459545 g / cm^3
# Si number density = 24.651557 Si / 1000 Ang^3
#
#
#
# Elastic Constant Matrix: (Units=GPa)
#
#
# Indices 1 2 3 4 5 6 
#
# 1 92.7712 46.2008 47.8664 -22.2305 -8.6768 -3.9507
# 2 46.2008 99.1727 36.6843 -3.2277 2.6235 -25.3486
# 3 47.8664 36.6843 119.6307 -1.0484 -30.0628 -8.7285
# 4 -22.2305 -3.2277 -1.0484 51.1385 2.5757 -10.5440
# 5 -8.6768 2.6235 -30.0628 2.5757 62.4567 -10.7118
# 6 -3.9507 -25.3486 -8.7285 -10.5440 -10.7118 47.3969
#
#
#
# Elastic Compliance Matrix: (Units=1/GPa)
#
#
# Indices 1 2 3 4 5 6 
#
# 1 0.018655 -0.006804 -0.005514 0.007262 -0.000344 -0.001562
# 2 -0.006804 0.015813 -0.001936 -0.000463 -0.001298 0.007137
# 3 -0.005514 -0.001936 0.012724 -0.002207 0.005817 0.001672
# 4 0.007262 -0.000463 -0.002207 0.023715 -0.000120 0.005200
# 5 -0.000344 -0.001298 0.005817 -0.000120 0.019639 0.004760
# 6 -0.001562 0.007137 0.001672 0.005200 0.004760 0.027326
#
#
# Mechanical properties :
#
#
# Convention : Reuss Voigt Hill
#
# Bulk Modulus (GPa) = 53.52829 63.67529 58.60179
# Shear Modulus (GPa) = 32.76364 44.25329 38.50846
#
# Velocity S-wave (km/s) = 3.64960 4.24152 3.95664
# Velocity P-wave (km/s) = 6.28653 7.06212 6.68558
#
# Compressibility (1/GPa) = 0.01868171
#
# Stress axis : x y z
#
# Youngs Moduli (GPa) = 53.60633 63.23919 78.59405
#
# Poissons Ratio (x) = 0.43031 0.43339
# Poissons Ratio (y) = 0.36476 0.15216
# Poissons Ratio (z) = 0.29560 0.12243
#
# Static dielectric constant tensor:
#      x y z
#    x 2.006750 0.009910 0.065160 
#    y 0.009910 2.022320 0.005550 
#    z 0.065160 0.005550 1.944030 
# 
# From -- ./inp_files/14468.got.cif
#   From: 2010.05.17/outbox.cif.g08.bks.cpg/sg2_8_cif.got.tgz:14468.got - 2010.06.03 11:33:40.
