data_PCOD9031877
_publ_section_title
;
Structure prediction by ZEFSAII (Michael W. Deem and Ramdas Pophale) SiO2 
 PCOD9031877
Probable space group: P -1
;
_chemical_formula_sum "Si O2"
_cell_formula_units_Z 16
_cell_length_a 8.781946
_cell_length_b 10.004284
_cell_length_c 15.911153
_cell_angle_alpha 110.091817
_cell_angle_beta 37.040207
_cell_angle_gamma 112.052409
_cell_volume 778.051106
_symmetry_space_group_name_H-M "P -1"
_symmetry_group_IT_number 2
_symmetry_cell_setting 'triclinic'
loop_
_space_group_symop_operation_xyz
x,y,z
-x,-y,-z
loop_
_atom_site_type_symbol
_atom_site_label
_atom_site_fract_x
_atom_site_fract_y
_atom_site_fract_z
Si Si1 0.723289 0.904169 0.369639
Si Si2 0.814131 0.861472 0.517070
Si Si3 0.568060 0.395569 0.644001
Si Si4 0.150022 0.592096 0.881248
Si Si5 0.102089 0.084677 0.108688
Si Si6 0.681645 0.093754 0.150349
Si Si7 0.211979 0.417507 0.120751
Si Si8 0.961549 0.426053 0.617501
O O1 0.793984 0.867307 0.425990
O O2 0.593112 0.757580 0.346989
O O3 0.500000 0.000000 0.500000
O O4 0.962691 0.990675 0.228004
O O5 0.554884 0.875239 0.683273
O O6 0.918829 0.718100 0.466034
O O7 0.000000 0.000000 0.500000
O O8 0.390099 0.515899 0.736797
O O9 0.685576 0.396455 0.685958
O O10 0.831265 0.446256 0.487582
O O11 0.231688 0.757918 0.906521
O O12 0.952362 0.595044 0.893773
O O13 0.000000 0.500000 0.000000
O O14 0.190164 0.253380 0.129202
O O15 0.882278 0.071929 0.130546
O O16 0.327942 0.027834 0.943843
O O17 0.079572 0.517354 0.260797
O O18 0.500000 0.500000 0.000000
#
# Coordination Sequence:
#
# PCOD9031877 Si02
#       8
#     2   2   2   2   2   2   2   2
#     4  12  23  42  70 101 133 179 231 276 340 414
#     4  12  26  43  68 102 141 179 224 284 344 404
#     4  11  24  42  70  96 133 178 226 284 334 403
#     4  11  22  42  67  99 130 177 229 272 341 408
#     4  10  23  43  69 101 133 180 228 273 339 413
#     4  10  22  43  68  97 137 178 222 279 337 406
#     4  11  25  43  69  98 140 179 221 284 343 406
#     4  11  25  43  66 102 135 175 229 286 341 395
#
# _framework density 20.564202000000002
#
# number of rings (size 3 to 8) (size 9 to 14) (size 15 to 20)
#    0.000    1.000    2.500    3.750    3.500    3.000 
#    2.250    0.625    0.000    0.000    0.000    0.000 
#    0.000    0.000    0.000    0.000    0.000    0.000 
#
# Total GULP energy -89325.950397 kJ/mol
# GULP energy per Si atom -5582.871900 kJ/mol
# Density = 2.051740 g / cm^3
# Si number density = 20.564202 Si / 1000 Ang^3
#
#
#
# Elastic Constant Matrix: (Units=GPa)
#
#
# Indices 1 2 3 4 5 6 
#
# 1 52.9994 26.6450 -0.9309 -8.7842 -5.8420 2.0314
# 2 26.6450 101.2041 21.2715 -1.4039 4.0090 8.0152
# 3 -0.9309 21.2715 79.7162 -0.6717 4.4993 4.2226
# 4 -8.7842 -1.4039 -0.6717 39.1360 -8.6466 1.5566
# 5 -5.8420 4.0090 4.4993 -8.6466 24.6591 0.4139
# 6 2.0314 8.0152 4.2226 1.5566 0.4139 28.8515
#
#
#
# Elastic Compliance Matrix: (Units=1/GPa)
#
#
# Indices 1 2 3 4 5 6 
#
# 1 0.024746 -0.007105 0.001752 0.007407 0.009305 -0.000558
# 2 -0.007105 0.012730 -0.003153 -0.001939 -0.003817 -0.002415
# 3 0.001752 -0.003153 0.013554 0.000243 -0.001440 -0.001224
# 4 0.007407 -0.001939 0.000243 0.030000 0.012576 -0.001817
# 5 0.009305 -0.003817 -0.001440 0.012576 0.048063 -0.000752
# 6 -0.000558 -0.002415 -0.001224 -0.001817 -0.000752 0.035659
#
#
# Mechanical properties :
#
#
# Convention : Reuss Voigt Hill
#
# Bulk Modulus (GPa) = 29.39631 36.43232 32.91432
# Shear Modulus (GPa) = 25.89302 30.99158 28.44230
#
# Velocity S-wave (km/s) = 3.55227 3.88630 3.72304
# Velocity P-wave (km/s) = 5.58129 6.15570 5.87552
#
# Compressibility (1/GPa) = 0.03401787
#
# Stress axis : x y z
#
# Youngs Moduli (GPa) = 40.41131 78.55558 73.77698
#
# Poissons Ratio (x) = 0.55812 -0.12923
# Poissons Ratio (y) = 0.28711 0.23260
# Poissons Ratio (z) = -0.07079 0.24767
#
# Static dielectric constant tensor:
#      x y z
#    x 1.792760 -0.110390 -0.383970 
#    y -0.110390 1.855360 0.565010 
#    z -0.383970 0.565010 4.846730 
# 
# From -- ./inp_files/403217.got.cif
#   From: 2010.05.17/outbox.cif.g08.bks.cpg/sg2_202_cif.got.tgz:403217.got - 2010.06.03 11:33:40.
