data_PCOD9031691
_publ_section_title
;
Structure prediction by ZEFSAII (Michael W. Deem and Ramdas Pophale) SiO2 
 PCOD9031691
Probable space group: P -1
;
_chemical_formula_sum "Si O2"
_cell_formula_units_Z 14
_cell_length_a 9.470758
_cell_length_b 7.892515
_cell_length_c 17.007337
_cell_angle_alpha 102.081410
_cell_angle_beta 133.282371
_cell_angle_gamma 115.405345
_cell_volume 537.808190
_symmetry_space_group_name_H-M "P -1"
_symmetry_group_IT_number 2
_symmetry_cell_setting 'triclinic'
loop_
_space_group_symop_operation_xyz
x,y,z
-x,-y,-z
loop_
_atom_site_type_symbol
_atom_site_label
_atom_site_fract_x
_atom_site_fract_y
_atom_site_fract_z
Si Si1 0.182546 0.329092 0.215107
Si Si2 0.155046 0.688674 0.805279
Si Si3 0.211917 0.460640 0.499302
Si Si4 0.024286 0.198840 0.663938
Si Si5 0.324550 0.534125 0.117530
Si Si6 0.356508 0.943290 0.632043
Si Si7 0.140548 0.215540 0.874361
O O1 0.528995 0.504679 0.393014
O O2 0.181327 0.339534 0.121482
O O3 0.927359 0.004684 0.122074
O O4 0.086703 0.441476 0.228531
O O5 0.147517 0.485165 0.754148
O O6 0.019396 0.700830 0.680675
O O7 0.500000 0.000000 0.000000
O O8 0.406156 0.781940 0.610054
O O9 0.979254 0.292337 0.469383
O O10 0.922856 0.061400 0.698278
O O11 0.732320 0.006520 0.472537
O O12 0.681771 0.704099 0.251216
O O13 0.385852 0.776402 0.187344
O O14 0.124865 0.357869 0.945222
O O15 0.500000 0.500000 0.000000
#
# Coordination Sequence:
#
# PCOD9031691 Si02
#       7
#     2   2   2   2   2   2   2
#     4  12  25  45  71 110 141 184 241 300 343 418
#     4  11  25  43  70 104 148 187 232 289 363 420
#     4  10  24  44  72 109 142 185 240 294 346 425
#     4  10  22  43  67  99 139 190 233 281 352 429
#     4  11  23  43  73 105 140 188 239 294 348 421
#     4  10  22  43  72 102 142 187 236 288 359 420
#     4  10  24  43  68 101 143 188 228 290 360 419
#
# _framework density 26.031586000000001
#
# number of rings (size 3 to 8) (size 9 to 14) (size 15 to 20)
#    0.000    1.429    1.429    3.000    6.000    2.286 
#    0.000    4.286    0.000    0.000    0.000    0.000 
#    0.000    0.000    0.000    0.000    0.000    0.000 
#
# Total GULP energy -78466.054944 kJ/mol
# GULP energy per Si atom -5604.718210 kJ/mol
# Density = 2.597234 g / cm^3
# Si number density = 26.031586 Si / 1000 Ang^3
#
#
#
# Elastic Constant Matrix: (Units=GPa)
#
#
# Indices 1 2 3 4 5 6 
#
# 1 152.8654 43.4619 55.6919 -8.1622 -15.5712 1.6661
# 2 43.4619 109.8486 29.3979 -0.8133 -10.0398 11.0270
# 3 55.6919 29.3979 122.6192 1.4208 -20.4860 5.6960
# 4 -8.1622 -0.8133 1.4208 40.8124 6.4212 -11.7032
# 5 -15.5712 -10.0398 -20.4860 6.4212 50.3526 -4.1625
# 6 1.6661 11.0270 5.6960 -11.7032 -4.1625 57.7472
#
#
#
# Elastic Compliance Matrix: (Units=1/GPa)
#
#
# Indices 1 2 3 4 5 6 
#
# 1 0.008620 -0.002565 -0.003260 0.001972 0.000660 0.001010
# 2 -0.002565 0.010696 -0.001158 -0.000960 0.000826 -0.001989
# 3 -0.003260 -0.001158 0.010507 -0.001788 0.003193 -0.000853
# 4 0.001972 -0.000960 -0.001788 0.027050 -0.003300 0.005547
# 5 0.000660 0.000826 0.003193 -0.003300 0.021984 0.000424
# 6 0.001010 -0.001989 -0.000853 0.005547 0.000424 0.018906
#
#
# Mechanical properties :
#
#
# Convention : Reuss Voigt Hill
#
# Bulk Modulus (GPa) = 63.05595 71.38186 67.21890
# Shear Modulus (GPa) = 42.72978 46.90118 44.81548
#
# Velocity S-wave (km/s) = 4.05589 4.24925 4.15370
# Velocity P-wave (km/s) = 6.79773 7.18023 6.99159
#
# Compressibility (1/GPa) = 0.01585893
#
# Stress axis : x y z
#
# Youngs Moduli (GPa) = 116.01010 93.49163 95.17143
#
# Poissons Ratio (x) = 0.23977 0.31023
# Poissons Ratio (y) = 0.29752 0.11021
# Poissons Ratio (z) = 0.37816 0.10826
#
# Static dielectric constant tensor:
#      x y z
#    x 1.996850 -0.005060 0.023490 
#    y -0.005060 2.067930 0.025570 
#    z 0.023490 0.025570 2.085890 
# 
# From -- ./inp_files/557512.got.cif
#   From: 2010.05.17/outbox.cif.g08.bks.cpg/sg2_279_cif.got.tgz:557512.got - 2010.06.03 11:33:40.
