data_PCOD9031814
_publ_section_title
;
Structure prediction by ZEFSAII (Michael W. Deem and Ramdas Pophale) SiO2 
 PCOD9031814
Probable space group: P -1
;
_chemical_formula_sum "Si O2"
_cell_formula_units_Z 16
_cell_length_a 15.265267
_cell_length_b 9.167554
_cell_length_c 8.142518
_cell_angle_alpha 104.728548
_cell_angle_beta 95.583915
_cell_angle_gamma 41.876936
_cell_volume 728.155705
_symmetry_space_group_name_H-M "P -1"
_symmetry_group_IT_number 2
_symmetry_cell_setting 'triclinic'
loop_
_space_group_symop_operation_xyz
x,y,z
-x,-y,-z
loop_
_atom_site_type_symbol
_atom_site_label
_atom_site_fract_x
_atom_site_fract_y
_atom_site_fract_z
Si Si1 0.549243 0.811747 0.652709
Si Si2 0.672820 0.573572 0.948379
Si Si3 0.318891 0.038110 0.221071
Si Si4 0.110856 0.939814 0.109667
Si Si5 0.702681 0.118169 0.124456
Si Si6 0.750624 0.767495 0.197556
Si Si7 0.020779 0.359030 0.316157
Si Si8 0.450314 0.391805 0.716169
O O1 0.587179 0.689482 0.799623
O O2 0.623668 0.876183 0.689808
O O3 0.588582 0.659248 0.461515
O O4 0.391344 0.045630 0.682468
O O5 0.794684 0.304594 0.862221
O O6 0.722714 0.679967 0.024849
O O7 0.611770 0.594691 0.119797
O O8 0.160958 0.240478 0.238127
O O9 0.390469 0.825971 0.294459
O O10 0.364647 0.916668 0.019046
O O11 0.197272 0.919063 0.983911
O O12 0.051658 0.141255 0.279087
O O13 0.000000 0.000000 0.000000
O O14 0.601775 0.371668 0.245937
O O15 0.773954 0.914065 0.202835
O O16 0.884597 0.540442 0.242212
O O17 0.000000 0.500000 0.500000
#
# Coordination Sequence:
#
# PCOD9031814 Si02
#       8
#     2   2   2   2   2   2   2   2
#     4  12  25  41  74 105 130 181 236 274 339 410
#     4  11  23  43  73  97 135 177 230 280 332 402
#     4  11  22  42  66 101 131 181 225 273 341 407
#     4  10  22  43  68  94 132 190 225 265 347 409
#     4  10  24  40  66 102 135 174 225 285 348 389
#     4  12  23  43  68  96 139 178 224 280 342 404
#     4  11  26  40  64  98 139 174 224 283 338 398
#     4  11  24  43  70 100 139 174 228 288 333 400
#
# _framework density 21.973323000000001
#
# number of rings (size 3 to 8) (size 9 to 14) (size 15 to 20)
#    0.000    1.000    3.750    2.625    1.750    6.500 
#    0.000    0.000    0.000    3.750    0.000    0.000 
#    0.000    0.000    0.000    0.000    0.000    0.000 
#
# Total GULP energy -89258.397266 kJ/mol
# GULP energy per Si atom -5578.649829 kJ/mol
# Density = 2.192331 g / cm^3
# Si number density = 21.973323 Si / 1000 Ang^3
#
#
#
# Elastic Constant Matrix: (Units=GPa)
#
#
# Indices 1 2 3 4 5 6 
#
# 1 68.8034 62.3793 28.6152 8.2697 13.8761 2.7330
# 2 62.3793 165.7954 71.3584 24.2443 11.9791 1.3899
# 3 28.6152 71.3584 137.1760 22.8678 29.0860 0.2999
# 4 8.2697 24.2443 22.8678 35.2867 9.8538 12.1027
# 5 13.8761 11.9791 29.0860 9.8538 24.6725 2.7077
# 6 2.7330 1.3899 0.2999 12.1027 2.7077 40.0690
#
#
#
# Elastic Compliance Matrix: (Units=1/GPa)
#
#
# Indices 1 2 3 4 5 6 
#
# 1 0.024801 -0.009817 0.002048 0.003775 -0.012925 -0.001633
# 2 -0.009817 0.012079 -0.004923 -0.005371 0.007451 0.001406
# 3 0.002048 -0.004923 0.012485 -0.002109 -0.012796 0.001439
# 4 0.003775 -0.005371 -0.002109 0.039608 -0.011615 -0.011234
# 5 -0.012925 0.007451 -0.012796 -0.011615 0.063916 -0.000092
# 6 -0.001633 0.001406 0.001439 -0.011234 -0.000092 0.028408
#
#
# Mechanical properties :
#
#
# Convention : Reuss Voigt Hill
#
# Bulk Modulus (GPa) = 41.70030 77.38673 59.54352
# Shear Modulus (GPa) = 23.29093 33.96710 28.62902
#
# Velocity S-wave (km/s) = 3.25924 3.93597 3.61348
# Velocity P-wave (km/s) = 5.76042 7.48003 6.67582
#
# Compressibility (1/GPa) = 0.02398064
#
# Stress axis : x y z
#
# Youngs Moduli (GPa) = 40.32175 82.78562 80.09334
#
# Poissons Ratio (x) = 0.81270 -0.16404
# Poissons Ratio (y) = 0.39584 0.39433
# Poissons Ratio (z) = -0.08258 0.40759
#
# Static dielectric constant tensor:
#      x y z
#    x 1.932270 -0.053340 -0.098360 
#    y -0.053340 1.889480 0.019260 
#    z -0.098360 0.019260 1.897770 
# 
# From -- ./inp_files/299225.got.cif
#   From: 2010.05.17/outbox.cif.g08.bks.cpg/sg2_150_cif.got.tgz:299225.got - 2010.06.03 11:33:40.
