data_PCOD9031439
_publ_section_title
;
Structure prediction by ZEFSAII (Michael W. Deem and Ramdas Pophale) SiO2 
 PCOD9031439
Probable space group: P -1
;
_chemical_formula_sum "Si O2"
_cell_formula_units_Z 16
_cell_length_a 15.411570
_cell_length_b 12.414086
_cell_length_c 9.987505
_cell_angle_alpha 143.560549
_cell_angle_beta 44.168493
_cell_angle_gamma 121.137881
_cell_volume 782.474041
_symmetry_space_group_name_H-M "P -1"
_symmetry_group_IT_number 2
_symmetry_cell_setting 'triclinic'
loop_
_space_group_symop_operation_xyz
x,y,z
-x,-y,-z
loop_
_atom_site_type_symbol
_atom_site_label
_atom_site_fract_x
_atom_site_fract_y
_atom_site_fract_z
Si Si1 0.129343 0.067086 0.891657
Si Si2 0.374347 0.091575 0.303612
Si Si3 0.897371 0.856740 0.477413
Si Si4 0.677353 0.554870 0.124904
Si Si5 0.628694 0.166077 0.700453
Si Si6 0.940811 0.628863 0.947237
Si Si7 0.412730 0.343148 0.961596
Si Si8 0.833173 0.670658 0.641744
O O1 0.239868 0.897591 0.582838
O O2 0.104908 0.190306 0.908690
O O3 0.157031 0.193117 0.110197
O O4 0.000000 0.000000 0.000000
O O5 0.243860 0.070993 0.350556
O O6 0.372648 0.304979 0.560828
O O7 0.376363 0.982812 0.330283
O O8 0.500000 0.000000 0.000000
O O9 0.870614 0.772630 0.567895
O O10 0.950443 0.694642 0.154070
O O11 0.000000 0.000000 0.500000
O O12 0.625624 0.363566 0.972974
O O13 0.826917 0.511286 0.939638
O O14 0.650637 0.660965 0.118269
O O15 0.512580 0.177556 0.738998
O O16 0.067818 0.513231 0.639272
O O17 0.307015 0.379366 0.230600
O O18 0.500000 0.500000 0.000000
#
# Coordination Sequence:
#
# PCOD9031439 Si02
#       8
#     2   2   2   2   2   2   2   2
#     4  12  24  39  70 102 127 176 228 278 346 407
#     4  11  24  45  68  95 135 185 234 273 342 423
#     4  11  25  46  63 101 139 179 230 285 350 403
#     4  10  22  43  66  97 135 175 223 284 340 398
#     4  11  23  43  68  94 140 172 225 281 340 406
#     4  11  23  44  67  97 137 176 227 278 349 405
#     4  10  23  41  65 103 134 172 227 280 342 404
#     4  12  24  41  69  99 136 178 227 284 342 406
#
# _framework density 20.447962
#
# number of rings (size 3 to 8) (size 9 to 14) (size 15 to 20)
#    0.000    1.000    3.750    3.000    5.250    3.500 
#    4.500    0.000    0.000    0.000    0.000    0.000 
#    0.000    0.000    0.000    0.000    0.000    0.000 
#
# Total GULP energy -89276.944726 kJ/mol
# GULP energy per Si atom -5579.809045 kJ/mol
# Density = 2.040142 g / cm^3
# Si number density = 20.447962 Si / 1000 Ang^3
#
#
#
# Elastic Constant Matrix: (Units=GPa)
#
#
# Indices 1 2 3 4 5 6 
#
# 1 89.9340 28.3919 57.7634 1.2522 -4.3221 9.5691
# 2 28.3919 68.4786 25.2253 -2.9830 9.8614 6.4360
# 3 57.7634 25.2253 138.4855 -4.9952 -15.4544 17.0058
# 4 1.2522 -2.9830 -4.9952 29.8079 -1.8806 -2.9586
# 5 -4.3221 9.8614 -15.4544 -1.8806 41.8193 -0.9563
# 6 9.5691 6.4360 17.0058 -2.9586 -0.9563 37.9354
#
#
#
# Elastic Compliance Matrix: (Units=1/GPa)
#
#
# Indices 1 2 3 4 5 6 
#
# 1 0.016614 -0.004777 -0.005977 -0.002231 0.000515 -0.000862
# 2 -0.004777 0.018159 -0.001730 0.001275 -0.005384 -0.001136
# 3 -0.005977 -0.001730 0.010871 0.001860 0.003827 -0.002830
# 4 -0.002231 0.001275 0.001860 0.034414 0.001755 0.002241
# 5 0.000515 -0.005384 0.003827 0.001755 0.026725 -0.000121
# 6 -0.000862 -0.001136 -0.002830 0.002241 -0.000121 0.028211
#
#
# Mechanical properties :
#
#
# Convention : Reuss Voigt Hill
#
# Bulk Modulus (GPa) = 48.36719 57.73990 53.05355
# Shear Modulus (GPa) = 29.96634 34.28035 32.12334
#
# Velocity S-wave (km/s) = 3.83233 4.09891 3.96786
# Velocity P-wave (km/s) = 6.57932 7.12041 6.85521
#
# Compressibility (1/GPa) = 0.02067517
#
# Stress axis : x y z
#
# Youngs Moduli (GPa) = 60.19180 55.06997 91.98940
#
# Poissons Ratio (x) = 0.26306 0.54979
# Poissons Ratio (y) = 0.28752 0.15918
# Poissons Ratio (z) = 0.35975 0.09530
#
# Static dielectric constant tensor:
#      x y z
#    x 1.758880 0.034450 -0.029640 
#    y 0.034450 1.763280 0.006320 
#    z -0.029640 0.006320 1.727870 
# 
# From -- ./inp_files/308672.got.cif
#   From: 2010.05.17/outbox.cif.g08.bks.cpg/sg2_155_cif.got.tgz:308672.got - 2010.06.03 11:33:40.
