data_PCOD9031262
_publ_section_title
;
Structure prediction by ZEFSAII (Michael W. Deem and Ramdas Pophale) SiO2 
 PCOD9031262
Probable space group: P -1
;
_chemical_formula_sum "Si O2"
_cell_formula_units_Z 14
_cell_length_a 7.101394
_cell_length_b 5.053111
_cell_length_c 18.636716
_cell_angle_alpha 120.493217
_cell_angle_beta 68.042771
_cell_angle_gamma 113.072335
_cell_volume 517.083545
_symmetry_space_group_name_H-M "P -1"
_symmetry_group_IT_number 2
_symmetry_cell_setting 'triclinic'
loop_
_space_group_symop_operation_xyz
x,y,z
-x,-y,-z
loop_
_atom_site_type_symbol
_atom_site_label
_atom_site_fract_x
_atom_site_fract_y
_atom_site_fract_z
Si Si1 0.819093 0.715972 0.899039
Si Si2 0.800034 0.282186 0.404798
Si Si3 0.989843 0.412363 0.706566
Si Si4 0.452945 0.755926 0.857710
Si Si5 0.536890 0.646487 0.335846
Si Si6 0.185948 0.215641 0.427395
Si Si7 0.229877 0.278234 0.931114
O O1 0.887219 0.466711 0.803017
O O2 0.633448 0.821201 0.899843
O O3 0.012059 0.022479 0.917130
O O4 0.758987 0.601838 0.972386
O O5 0.780027 0.633485 0.477314
O O6 0.944366 0.286563 0.314585
O O7 0.947236 0.217098 0.438469
O O8 0.580855 0.027519 0.389531
O O9 0.224288 0.375865 0.684124
O O10 0.832148 0.142684 0.644988
O O11 0.507054 0.528270 0.757929
O O12 0.398762 0.062537 0.873017
O O13 0.260572 0.543690 0.902371
O O14 0.362101 0.457009 0.388802
#
# Coordination Sequence:
#
# PCOD9031262 Si02
#       7
#     2   2   2   2   2   2   2
#     4  11  25  45  74 101 148 186 240 298 364 420
#     4  10  22  43  65  97 137 181 233 295 353 427
#     4  11  23  42  65 102 137 183 234 297 355 428
#     4  12  26  47  74 105 148 186 246 292 366 425
#     4  11  24  40  67  99 141 182 239 290 355 431
#     4  10  23  41  67  97 134 183 235 288 363 424
#     4  11  27  49  71 110 141 193 241 301 354 438
#
# _framework density 27.074932
#
# number of rings (size 3 to 8) (size 9 to 14) (size 15 to 20)
#    0.000    1.143    1.429    3.429    2.000    6.286 
#    5.143    0.000    0.000    0.000    0.000    0.000 
#    0.000    0.000    0.000    0.000    0.000    0.000 
#
# Total GULP energy -78444.218136 kJ/mol
# GULP energy per Si atom -5603.158438 kJ/mol
# Density = 2.701331 g / cm^3
# Si number density = 27.074932 Si / 1000 Ang^3
#
#
#
# Elastic Constant Matrix: (Units=GPa)
#
#
# Indices 1 2 3 4 5 6 
#
# 1 68.0175 15.1692 10.5441 11.9097 -4.3118 10.1800
# 2 15.1692 130.9668 46.2765 2.3760 0.5433 24.0026
# 3 10.5441 46.2765 171.2734 1.2597 -2.0339 6.8188
# 4 11.9097 2.3760 1.2597 33.6653 2.8927 -0.9643
# 5 -4.3118 0.5433 -2.0339 2.8927 39.6002 2.2278
# 6 10.1800 24.0026 6.8188 -0.9643 2.2278 43.4405
#
#
#
# Elastic Compliance Matrix: (Units=1/GPa)
#
#
# Indices 1 2 3 4 5 6 
#
# 1 0.016776 -0.000996 -0.000547 -0.006157 0.002462 -0.003558
# 2 -0.000996 0.009414 -0.002297 -0.000352 -0.000070 -0.004612
# 3 -0.000547 -0.002297 0.006481 0.000100 0.000277 0.000368
# 4 -0.006157 -0.000352 0.000100 0.032246 -0.003157 0.002500
# 5 0.002462 -0.000070 0.000277 -0.003157 0.025878 -0.001979
# 6 -0.003558 -0.004612 0.000368 0.002500 -0.001979 0.026501
#
#
# Mechanical properties :
#
#
# Convention : Reuss Voigt Hill
#
# Bulk Modulus (GPa) = 40.01580 57.13748 48.57664
# Shear Modulus (GPa) = 37.50723 43.22572 40.36648
#
# Velocity S-wave (km/s) = 3.72602 3.99998 3.86543
# Velocity P-wave (km/s) = 5.77258 6.51786 6.15650
#
# Compressibility (1/GPa) = 0.02499013
#
# Stress axis : x y z
#
# Youngs Moduli (GPa) = 59.60949 106.21928 154.30084
#
# Poissons Ratio (x) = 0.10580 0.08448
# Poissons Ratio (y) = 0.05937 0.35443
# Poissons Ratio (z) = 0.03263 0.24399
#
# Static dielectric constant tensor:
#      x y z
#    x 2.177290 -0.102960 -0.067890 
#    y -0.102960 2.162140 0.051880 
#    z -0.067890 0.051880 2.089530 
# 
# From -- ./inp_files/553828.got.cif
#   From: 2010.05.17/outbox.cif.g08.bks.cpg/sg2_277_cif.got.tgz:553828.got - 2010.06.03 11:33:40.
