data_PCOD9031468
_publ_section_title
;
Structure prediction by ZEFSAII (Michael W. Deem and Ramdas Pophale) SiO2 
 PCOD9031468
Probable space group: P -1
;
_chemical_formula_sum "Si O2"
_cell_formula_units_Z 14
_cell_length_a 8.888346
_cell_length_b 16.914340
_cell_length_c 6.095009
_cell_angle_alpha 90.360284
_cell_angle_beta 87.220121
_cell_angle_gamma 43.551854
_cell_volume 629.471854
_symmetry_space_group_name_H-M "P -1"
_symmetry_group_IT_number 2
_symmetry_cell_setting 'triclinic'
loop_
_space_group_symop_operation_xyz
x,y,z
-x,-y,-z
loop_
_atom_site_type_symbol
_atom_site_label
_atom_site_fract_x
_atom_site_fract_y
_atom_site_fract_z
Si Si1 0.713305 0.301791 0.973291
Si Si2 0.251888 0.893558 0.045540
Si Si3 0.193842 0.159332 0.868787
Si Si4 0.462692 0.091539 0.248278
Si Si5 0.098445 0.480616 0.739449
Si Si6 0.643598 0.466870 0.281298
Si Si7 0.401672 0.223717 0.658159
O O1 0.680500 0.222044 0.019489
O O2 0.520865 0.419295 0.858320
O O3 0.950557 0.222822 0.844200
O O4 0.724071 0.352187 0.186596
O O5 0.344218 0.872485 0.285001
O O6 0.387248 0.908469 0.910949
O O7 0.000000 0.000000 0.000000
O O8 0.236302 0.234837 0.819034
O O9 0.366114 0.043516 0.709529
O O10 0.275375 0.121487 0.114783
O O11 0.380450 0.184798 0.433680
O O12 0.151198 0.553072 0.719523
O O13 0.316011 0.344422 0.696861
O O14 0.000000 0.500000 0.500000
O O15 0.000000 0.500000 0.000000
O O16 0.500000 0.500000 0.500000
#
# Coordination Sequence:
#
# PCOD9031468 Si02
#       7
#     2   2   2   2   2   2   2
#     4  11  24  45  69  93 148 181 247 300 383 435
#     4  11  23  44  67 100 140 190 231 303 369 449
#     4  10  22  43  66  98 137 183 233 297 368 443
#     4  10  23  41  67  99 137 181 235 295 363 449
#     4  12  30  50  79 112 151 202 257 313 383 450
#     4  11  28  46  70 105 141 198 252 316 372 446
#     4  11  25  42  70  99 142 183 247 301 367 446
#
# _framework density 22.240867999999999
#
# number of rings (size 3 to 8) (size 9 to 14) (size 15 to 20)
#    0.000    1.143    2.857    1.286   14.000    0.571 
#    2.571    0.000    0.000    0.000    0.000    0.000 
#    0.000    0.000    0.000    0.000    0.000    0.000 
#
# Total GULP energy -77949.027779 kJ/mol
# GULP energy per Si atom -5567.787698 kJ/mol
# Density = 2.219025 g / cm^3
# Si number density = 22.240868 Si / 1000 Ang^3
#
#
#
# Elastic Constant Matrix: (Units=GPa)
#
#
# Indices 1 2 3 4 5 6 
#
# 1 102.7192 7.0138 16.8215 -3.3670 13.1583 18.3096
# 2 7.0138 83.7458 14.1956 5.9062 16.5362 8.5172
# 3 16.8215 14.1956 80.3250 20.5222 13.4803 -2.8793
# 4 -3.3670 5.9062 20.5222 28.3694 4.4673 9.2315
# 5 13.1583 16.5362 13.4803 4.4673 27.2301 -2.4937
# 6 18.3096 8.5172 -2.8793 9.2315 -2.4937 53.5132
#
#
#
# Elastic Compliance Matrix: (Units=1/GPa)
#
#
# Indices 1 2 3 4 5 6 
#
# 1 0.012414 0.000995 -0.003678 0.006933 -0.006478 -0.006102
# 2 0.000995 0.014111 -0.001536 0.000701 -0.008697 -0.003195
# 3 -0.003678 -0.001536 0.017803 -0.014000 -0.003374 0.004719
# 4 0.006933 0.000701 -0.014000 0.051071 -0.006354 -0.012343
# 5 -0.006478 -0.008697 -0.003374 -0.006354 0.048469 0.006774
# 6 -0.006102 -0.003195 0.004719 -0.012343 0.006774 0.023982
#
#
# Mechanical properties :
#
#
# Convention : Reuss Voigt Hill
#
# Bulk Modulus (GPa) = 27.86371 38.09463 32.97917
# Shear Modulus (GPa) = 26.55994 37.07314 31.81654
#
# Velocity S-wave (km/s) = 3.45946 4.08719 3.78636
# Velocity P-wave (km/s) = 5.33971 6.28004 5.82887
#
# Compressibility (1/GPa) = 0.03588898
#
# Stress axis : x y z
#
# Youngs Moduli (GPa) = 80.55103 70.86792 56.16879
#
# Poissons Ratio (x) = -0.07048 0.20661
# Poissons Ratio (y) = -0.08011 0.08628
# Poissons Ratio (z) = 0.29630 0.10886
#
# Static dielectric constant tensor:
#      x y z
#    x 1.759430 -0.023560 0.062610 
#    y -0.023560 1.869990 -0.045380 
#    z 0.062610 -0.045380 1.935040 
# 
# From -- ./inp_files/27115.got.cif
#   From: 2010.05.17/outbox.cif.g08.bks.cpg/sg2_14_cif.got.tgz:27115.got - 2010.06.03 11:33:40.
