data_PCOD9031223
_publ_section_title
;
Structure prediction by ZEFSAII (Michael W. Deem and Ramdas Pophale) SiO2 
 PCOD9031223
Probable space group: P -1
;
_chemical_formula_sum "Si O2"
_cell_formula_units_Z 16
_cell_length_a 15.863087
_cell_length_b 12.639158
_cell_length_c 9.062416
_cell_angle_alpha 129.297046
_cell_angle_beta 133.216044
_cell_angle_gamma 36.889320
_cell_volume 779.468190
_symmetry_space_group_name_H-M "P -1"
_symmetry_group_IT_number 2
_symmetry_cell_setting 'triclinic'
loop_
_space_group_symop_operation_xyz
x,y,z
-x,-y,-z
loop_
_atom_site_type_symbol
_atom_site_label
_atom_site_fract_x
_atom_site_fract_y
_atom_site_fract_z
Si Si1 0.050770 0.891052 0.314993
Si Si2 0.225509 0.101482 0.093942
Si Si3 0.424190 0.144521 0.169035
Si Si4 0.519277 0.142332 0.602795
Si Si5 0.976593 0.141585 0.207113
Si Si6 0.720787 0.500713 0.880329
Si Si7 0.016752 0.373690 0.289671
Si Si8 0.370168 0.498005 0.902398
O O1 0.202351 0.684735 0.281717
O O2 0.000000 0.000000 0.500000
O O3 0.057746 0.021058 0.339024
O O4 0.911616 0.894120 0.111100
O O5 0.314414 0.111950 0.080998
O O6 0.149939 0.284974 0.254885
O O7 0.331794 0.936822 0.190284
O O8 0.516544 0.134604 0.414203
O O9 0.353711 0.332346 0.170729
O O10 0.500000 0.000000 0.000000
O O11 0.395007 0.339106 0.699278
O O12 0.500000 0.000000 0.500000
O O13 0.798638 0.313842 0.165086
O O14 0.051118 0.213381 0.284351
O O15 0.000000 0.000000 0.000000
O O16 0.623504 0.529250 0.934648
O O17 0.861875 0.468493 0.100100
O O18 0.000000 0.500000 0.500000
O O19 0.500000 0.500000 0.000000
#
# Coordination Sequence:
#
# PCOD9031223 Si02
#       8
#     2   2   2   2   2   2   2   2
#     4  11  24  42  67  95 134 177 212 283 334 398
#     4  10  22  43  65  95 130 171 234 258 333 406
#     4  11  25  42  64  95 138 171 209 287 337 387
#     4  10  23  41  69  92 128 177 221 265 326 398
#     4  11  21  43  64  93 132 174 220 270 329 389
#     4  10  23  43  62  99 134 161 226 275 336 389
#     4  10  23  36  71  97 123 167 223 280 321 395
#     4  11  23  41  71  94 128 176 223 272 326 406
#
# _framework density 20.526814999999999
#
# number of rings (size 3 to 8) (size 9 to 14) (size 15 to 20)
#    0.000    1.500    3.750    2.250   10.500    3.000 
#    2.250    0.625    0.000    0.000    0.000    0.000 
#    0.000    0.000    0.000    0.000    0.000    0.000 
#
# Total GULP energy -89100.984625 kJ/mol
# GULP energy per Si atom -5568.811539 kJ/mol
# Density = 2.048009 g / cm^3
# Si number density = 20.526815 Si / 1000 Ang^3
#
#
#
# Elastic Constant Matrix: (Units=GPa)
#
#
# Indices 1 2 3 4 5 6 
#
# 1 137.2217 59.5534 42.3753 5.4595 -31.0561 -1.9186
# 2 59.5534 140.1249 52.7188 23.3967 -24.6798 10.9602
# 3 42.3753 52.7188 103.5911 36.8492 -34.7632 0.3746
# 4 5.4595 23.3967 36.8492 36.0115 -2.0028 -13.4632
# 5 -31.0561 -24.6798 -34.7632 -2.0028 44.3159 0.4786
# 6 -1.9186 10.9602 0.3746 -13.4632 0.4786 43.5929
#
#
#
# Elastic Compliance Matrix: (Units=1/GPa)
#
#
# Indices 1 2 3 4 5 6 
#
# 1 0.010482 -0.003910 -0.003553 0.005961 0.002615 0.003287
# 2 -0.003910 0.011252 0.000149 -0.008844 0.003306 -0.005770
# 3 -0.003553 0.000149 0.028648 -0.031736 0.018744 -0.010447
# 4 0.005961 -0.008844 -0.031736 0.073431 -0.022602 0.025685
# 5 0.002615 0.003306 0.018744 -0.022602 0.040011 -0.008297
# 6 0.003287 -0.005770 -0.010447 0.025685 -0.008297 0.032648
#
#
# Mechanical properties :
#
#
# Convention : Reuss Voigt Hill
#
# Bulk Modulus (GPa) = 27.96779 76.69251 52.33015
# Shear Modulus (GPa) = 22.41967 39.87008 31.14488
#
# Velocity S-wave (km/s) = 3.30845 4.41198 3.89945
# Velocity P-wave (km/s) = 5.31498 7.96224 6.76928
#
# Compressibility (1/GPa) = 0.03575542
#
# Stress axis : x y z
#
# Youngs Moduli (GPa) = 95.39930 88.86926 34.90694
#
# Poissons Ratio (x) = 0.34750 0.12401
# Poissons Ratio (y) = 0.37303 -0.00521
# Poissons Ratio (z) = 0.33892 -0.01327
#
# Static dielectric constant tensor:
#      x y z
#    x 1.705260 -0.029910 0.049450 
#    y -0.029910 1.773190 -0.030400 
#    z 0.049450 -0.030400 1.740080 
# 
# From -- ./inp_files/308609.got.cif
#   From: 2010.05.17/outbox.cif.g08.bks.cpg/sg2_155_cif.got.tgz:308609.got - 2010.06.03 11:33:40.
