data_PCOD9031026
_publ_section_title
;
Structure prediction by ZEFSAII (Michael W. Deem and Ramdas Pophale) SiO2 
 PCOD9031026
Probable space group: P -1
;
_chemical_formula_sum "Si O2"
_cell_formula_units_Z 16
_cell_length_a 18.020473
_cell_length_b 14.219205
_cell_length_c 14.951864
_cell_angle_alpha 133.795743
_cell_angle_beta 156.576486
_cell_angle_gamma 30.366954
_cell_volume 668.690875
_symmetry_space_group_name_H-M "P -1"
_symmetry_group_IT_number 2
_symmetry_cell_setting 'triclinic'
loop_
_space_group_symop_operation_xyz
x,y,z
-x,-y,-z
loop_
_atom_site_type_symbol
_atom_site_label
_atom_site_fract_x
_atom_site_fract_y
_atom_site_fract_z
Si Si1 0.036889 0.828750 0.448963
Si Si2 0.191934 0.065906 0.548087
Si Si3 0.298136 0.305333 0.261708
Si Si4 0.198890 0.492411 0.663848
Si Si5 0.408161 0.536220 0.525078
Si Si6 0.997498 0.310875 0.087874
Si Si7 0.835451 0.079016 0.028620
Si Si8 0.708225 0.395419 0.990468
O O1 0.071461 0.748230 0.334308
O O2 0.787841 0.950386 0.332820
O O3 0.365576 0.593742 0.698992
O O4 0.000000 0.000000 0.500000
O O5 0.018845 0.296975 0.495757
O O6 0.993589 0.057009 0.277324
O O7 0.485396 0.899433 0.698157
O O8 0.460056 0.355660 0.489812
O O9 0.200644 0.291487 0.238026
O O10 0.000000 0.500000 0.000000
O O11 0.335598 0.512099 0.902832
O O12 0.000000 0.500000 0.500000
O O13 0.472971 0.275360 0.772568
O O14 0.500000 0.500000 0.500000
O O15 0.637862 0.521774 0.804250
O O16 0.962774 0.330252 0.169245
O O17 0.066192 0.122632 0.014218
O O18 0.852954 0.174604 0.029921
#
# Coordination Sequence:
#
# PCOD9031026 Si02
#       8
#     2   2   2   2   2   2   2   2
#     4  11  23  39  71  98 129 178 226 272 333 407
#     4  11  22  43  65  98 129 177 227 275 341 401
#     4  12  25  43  67  96 137 178 231 275 333 407
#     4  11  22  40  67  98 138 173 220 287 339 406
#     4  11  23  44  67  95 136 182 220 274 337 395
#     4  11  24  40  69  97 133 178 224 281 331 402
#     4  11  20  43  70  93 134 179 224 278 345 403
#     4  10  22  43  64 100 132 174 229 276 342 404
#
# _framework density 23.927349
#
# number of rings (size 3 to 8) (size 9 to 14) (size 15 to 20)
#    0.000    1.000    5.000    2.625    1.750    1.000 
#    2.250    3.750    0.000    0.000    0.000    0.000 
#    0.000    0.000    0.000    0.000    0.000    0.000 
#
# Total GULP energy -89154.780408 kJ/mol
# GULP energy per Si atom -5572.173776 kJ/mol
# Density = 2.387289 g / cm^3
# Si number density = 23.927349 Si / 1000 Ang^3
#
#
#
# Elastic Constant Matrix: (Units=GPa)
#
#
# Indices 1 2 3 4 5 6 
#
# 1 188.3535 23.6679 21.4739 3.2020 49.4047 -0.0352
# 2 23.6679 72.9279 7.1177 -0.8351 11.6275 -4.5662
# 3 21.4739 7.1177 45.3211 -1.9524 23.0250 4.3184
# 4 3.2020 -0.8351 -1.9524 24.3985 -0.9026 15.8631
# 5 49.4047 11.6275 23.0250 -0.9026 39.4703 -3.4238
# 6 -0.0352 -4.5662 4.3184 15.8631 -3.4238 39.0907
#
#
#
# Elastic Compliance Matrix: (Units=1/GPa)
#
#
# Indices 1 2 3 4 5 6 
#
# 1 0.008166 -0.001141 0.002074 -0.000666 -0.011202 -0.001066
# 2 -0.001141 0.014633 -0.000826 -0.000734 -0.002253 0.001900
# 3 0.002074 -0.000826 0.033911 0.007286 -0.022731 -0.008788
# 4 -0.000666 -0.000734 0.007286 0.057448 -0.004017 -0.024556
# 5 -0.011202 -0.002253 -0.022731 -0.004017 0.053935 0.008592
# 6 -0.001066 0.001900 -0.008788 -0.024556 0.008592 0.037491
#
#
# Mechanical properties :
#
#
# Convention : Reuss Voigt Hill
#
# Bulk Modulus (GPa) = 17.56677 45.68015 31.62346
# Shear Modulus (GPa) = 22.28738 37.54811 29.91774
#
# Velocity S-wave (km/s) = 3.05529 3.96568 3.53988
# Velocity P-wave (km/s) = 4.45018 6.33257 5.47291
#
# Compressibility (1/GPa) = 0.05692566
#
# Stress axis : x y z
#
# Youngs Moduli (GPa) = 122.46623 68.33983 29.48879
#
# Poissons Ratio (x) = 0.07796 -0.06117
# Poissons Ratio (y) = 0.13970 0.02434
# Poissons Ratio (z) = -0.25404 0.05642
#
# Static dielectric constant tensor:
#      x y z
#    x 2.001710 0.009400 -0.069130 
#    y 0.009400 1.903490 -0.008610 
#    z -0.069130 -0.008610 2.031050 
# 
# From -- ./inp_files/256045.got.cif
#   From: 2010.05.17/outbox.cif.g08.bks.cpg/sg2_129_cif.got.tgz:256045.got - 2010.06.03 11:33:40.
