data_PCOD9031224
_publ_section_title
;
Structure prediction by ZEFSAII (Michael W. Deem and Ramdas Pophale) SiO2 
 PCOD9031224
Probable space group: P -1
;
_chemical_formula_sum "Si O2"
_cell_formula_units_Z 13
_cell_length_a 7.157998
_cell_length_b 9.798746
_cell_length_c 17.595658
_cell_angle_alpha 147.111207
_cell_angle_beta 88.013164
_cell_angle_gamma 107.184665
_cell_volume 583.543845
_symmetry_space_group_name_H-M "P -1"
_symmetry_group_IT_number 2
_symmetry_cell_setting 'triclinic'
loop_
_space_group_symop_operation_xyz
x,y,z
-x,-y,-z
loop_
_atom_site_type_symbol
_atom_site_label
_atom_site_fract_x
_atom_site_fract_y
_atom_site_fract_z
Si Si1 0.211650 0.047130 0.324668
Si Si2 0.043998 0.553440 0.761368
Si Si3 0.236429 0.346208 0.784306
Si Si4 0.845277 0.434701 0.402080
Si Si5 0.402838 0.804488 0.335261
Si Si6 0.500000 0.000000 0.000000
Si Si7 0.429957 0.989508 0.149992
O O1 0.333638 0.951458 0.338538
O O2 0.956470 0.853631 0.251409
O O3 0.267625 0.371122 0.493284
O O4 0.266973 0.997240 0.215447
O O5 0.122837 0.352374 0.710081
O O6 0.024618 0.488379 0.642222
O O7 0.242491 0.870703 0.922102
O O8 0.818984 0.473812 0.765497
O O9 0.417517 0.262434 0.730471
O O10 0.353140 0.679672 0.966691
O O11 0.653721 0.108356 0.246279
O O12 0.000000 0.500000 0.500000
O O13 0.500000 0.000000 0.500000
O O14 0.520354 0.827942 0.842807
#
# Coordination Sequence:
#
# PCOD9031224 Si02
#       7
#     2   2   2   2   2   1   2
#     4  11  24  42  67  96 132 172 221 269 325 387
#     4   9  20  42  65  93 128 168 217 266 325 380
#     4  10  22  44  70  97 130 168 220 278 320 386
#     4  11  24  43  63  96 134 175 216 268 325 393
#     4  11  23  39  70 102 130 171 218 269 332 388
#     4   8  18  42  64  84 130 168 210 264 320 378
#     4  10  22  43  65  95 130 173 216 271 328 383
#
# _framework density 22.277674000000001
#
# number of rings (size 3 to 8) (size 9 to 14) (size 15 to 20)
#    0.000    1.846    0.000    2.769    4.308    3.077 
#   16.615    3.846    0.000    0.000    0.000    0.000 
#    0.000    0.000    0.000    0.000    0.000    0.000 
#
# Total GULP energy -72375.438599 kJ/mol
# GULP energy per Si atom -5567.341431 kJ/mol
# Density = 2.222697 g / cm^3
# Si number density = 22.277674 Si / 1000 Ang^3
#
#
#
# Elastic Constant Matrix: (Units=GPa)
#
#
# Indices 1 2 3 4 5 6 
#
# 1 136.5679 51.1808 34.5162 -20.0111 4.0737 24.5715
# 2 51.1808 109.9873 72.8879 -41.5288 15.7571 38.8896
# 3 34.5162 72.8879 166.6411 -34.5733 35.3750 27.3652
# 4 -20.0111 -41.5288 -34.5733 45.1628 3.3038 -4.5384
# 5 4.0737 15.7571 35.3750 3.3038 47.3687 8.9930
# 6 24.5715 38.8896 27.3652 -4.5384 8.9930 41.0856
#
#
#
# Elastic Compliance Matrix: (Units=1/GPa)
#
#
# Indices 1 2 3 4 5 6 
#
# 1 0.009042 -0.003030 -0.000119 0.000820 0.000743 -0.002532
# 2 -0.003030 0.027389 -0.003266 0.019759 -0.004214 -0.018833
# 3 -0.000119 -0.003266 0.010147 0.005028 -0.006526 -0.001612
# 4 0.000820 0.019759 0.005028 0.043745 -0.010524 -0.015406
# 5 0.000743 -0.004214 -0.006526 -0.010524 0.027940 0.000613
# 6 -0.002532 -0.018833 -0.001612 -0.015406 0.000613 0.042918
#
#
# Mechanical properties :
#
#
# Convention : Reuss Voigt Hill
#
# Bulk Modulus (GPa) = 29.63083 81.15180 55.39131
# Shear Modulus (GPa) = 26.98908 43.69751 35.34330
#
# Velocity S-wave (km/s) = 3.48442 4.43368 3.98740
# Velocity P-wave (km/s) = 5.43303 7.91938 6.79096
#
# Compressibility (1/GPa) = 0.03374863
#
# Stress axis : x y z
#
# Youngs Moduli (GPa) = 110.60052 36.51069 98.54946
#
# Poissons Ratio (x) = 0.11062 0.01176
# Poissons Ratio (y) = 0.33509 0.32183
# Poissons Ratio (z) = 0.01320 0.11923
#
# Static dielectric constant tensor:
#      x y z
#    x 1.795750 0.095980 0.033030 
#    y 0.095980 1.515980 -0.039760 
#    z 0.033030 -0.039760 1.784080 
# 
# From -- ./inp_files/26533.got.cif
#   From: 2010.05.17/outbox.cif.g08.bks.cpg/sg2_14_cif.got.tgz:26533.got - 2010.06.03 11:33:40.
