data_PCOD9031513
_publ_section_title
;
Structure prediction by ZEFSAII (Michael W. Deem and Ramdas Pophale) SiO2 
 PCOD9031513
Probable space group: P -1
;
_chemical_formula_sum "Si O2"
_cell_formula_units_Z 16
_cell_length_a 10.006285
_cell_length_b 14.070831
_cell_length_c 14.138539
_cell_angle_alpha 46.196712
_cell_angle_beta 73.437355
_cell_angle_gamma 109.494292
_cell_volume 882.562693
_symmetry_space_group_name_H-M "P -1"
_symmetry_group_IT_number 2
_symmetry_cell_setting 'triclinic'
loop_
_space_group_symop_operation_xyz
x,y,z
-x,-y,-z
loop_
_atom_site_type_symbol
_atom_site_label
_atom_site_fract_x
_atom_site_fract_y
_atom_site_fract_z
Si Si1 0.339223 0.033732 0.150051
Si Si2 0.973876 0.314757 0.251838
Si Si3 0.577626 0.216670 0.169767
Si Si4 0.079592 0.233198 0.476828
Si Si5 0.272128 0.098818 0.477744
Si Si6 0.586575 0.190780 0.484894
Si Si7 0.712958 0.394825 0.708422
Si Si8 0.825741 0.381743 0.499633
O O1 0.504643 0.182613 0.099894
O O2 0.268687 0.829775 0.304307
O O3 0.474391 0.169043 0.937250
O O4 0.117673 0.943773 0.290001
O O5 0.772774 0.269783 0.323243
O O6 0.992926 0.267338 0.387372
O O7 0.916641 0.148664 0.312981
O O8 0.190692 0.549601 0.023074
O O9 0.406428 0.163024 0.311161
O O10 0.558269 0.045516 0.305928
O O11 0.176726 0.174618 0.449908
O O12 0.251040 0.440537 0.360275
O O13 0.437976 0.191122 0.465969
O O14 0.712801 0.326569 0.460248
O O15 0.759378 0.432110 0.561723
O O16 0.912093 0.446738 0.672345
#
# Coordination Sequence:
#
# PCOD9031513 Si02
#       8
#     2   2   2   2   2   2   2   2
#     4  10  17  32  53  80 106 130 169 224 263 298
#     4  11  19  36  56  75 105 138 181 218 251 304
#     4  10  19  33  58  77 100 140 179 216 256 300
#     4  11  21  35  51  79 110 138 174 214 257 311
#     4  11  24  34  50  76 114 145 169 207 262 312
#     4  10  20  38  52  78 108 136 174 217 258 309
#     4  10  18  33  56  81 102 131 174 223 261 303
#     4   9  18  33  56  80 102 130 176 219 265 300
#
# _framework density 18.129024000000001
#
# number of rings (size 3 to 8) (size 9 to 14) (size 15 to 20)
#    0.000    1.750    6.250    2.250    0.000    3.500 
#    0.000    0.625    0.000    0.750    0.000    0.000 
#    0.000    0.000    0.000    0.000    0.000    0.000 
#
# Total GULP energy -89225.637322 kJ/mol
# GULP energy per Si atom -5576.602333 kJ/mol
# Density = 1.808776 g / cm^3
# Si number density = 18.129024 Si / 1000 Ang^3
#
#
#
# Elastic Constant Matrix: (Units=GPa)
#
#
# Indices 1 2 3 4 5 6 
#
# 1 36.2326 3.5631 7.4861 1.2238 -3.9118 -0.1848
# 2 3.5631 68.3576 -9.0055 -1.0356 2.5917 5.9474
# 3 7.4861 -9.0055 81.2483 -5.6976 -17.4802 -0.0450
# 4 1.2238 -1.0356 -5.6976 24.5008 2.7261 -5.7536
# 5 -3.9118 2.5917 -17.4802 2.7261 7.8870 0.1608
# 6 -0.1848 5.9474 -0.0450 -5.7536 0.1608 12.4587
#
#
#
# Elastic Compliance Matrix: (Units=1/GPa)
#
#
# Indices 1 2 3 4 5 6 
#
# 1 0.029756 -0.002171 0.000694 -0.003538 0.018240 -0.000389
# 2 -0.002171 0.015685 0.001202 -0.000380 -0.003279 -0.007649
# 3 0.000694 0.001202 0.023654 -0.000687 0.052640 -0.001474
# 4 -0.003538 -0.000380 -0.000687 0.048423 -0.020352 0.022752
# 5 0.018240 -0.003279 0.052640 -0.020352 0.260836 -0.010738
# 6 -0.000389 -0.007649 -0.001474 0.022752 -0.010738 0.094551
#
#
# Mechanical properties :
#
#
# Convention : Reuss Voigt Hill
#
# Bulk Modulus (GPa) = 14.58918 21.10288 17.84603
# Shear Modulus (GPa) = 10.07448 21.22229 15.64838
#
# Velocity S-wave (km/s) = 2.35991 3.42515 2.94116
# Velocity P-wave (km/s) = 3.93579 5.22569 4.62592
#
# Compressibility (1/GPa) = 0.06854397
#
# Stress axis : x y z
#
# Youngs Moduli (GPa) = 33.60622 63.75720 42.27682
#
# Poissons Ratio (x) = 0.13841 -0.02932
# Poissons Ratio (y) = 0.07296 -0.05082
# Poissons Ratio (z) = -0.02331 -0.07664
#
# Static dielectric constant tensor:
#      x y z
#    x 1.600440 0.019840 -0.007560 
#    y 0.019840 1.657670 0.006290 
#    z -0.007560 0.006290 1.644240 
# 
# From -- ./inp_files/101570.got.cif
#   From: 2010.05.17/outbox.cif.g08.bks.cpg/sg2_51_cif.got.tgz:101570.got - 2010.06.03 11:33:40.
