data_PCOD9031842
_publ_section_title
;
Structure prediction by ZEFSAII (Michael W. Deem and Ramdas Pophale) SiO2 
 PCOD9031842
Probable space group: P -1
;
_chemical_formula_sum "Si O2"
_cell_formula_units_Z 16
_cell_length_a 15.133018
_cell_length_b 30.099466
_cell_length_c 9.469182
_cell_angle_alpha 32.524428
_cell_angle_beta 145.419504
_cell_angle_gamma 161.860342
_cell_volume 715.685235
_symmetry_space_group_name_H-M "P -1"
_symmetry_group_IT_number 2
_symmetry_cell_setting 'triclinic'
loop_
_space_group_symop_operation_xyz
x,y,z
-x,-y,-z
loop_
_atom_site_type_symbol
_atom_site_label
_atom_site_fract_x
_atom_site_fract_y
_atom_site_fract_z
Si Si1 0.831181 0.357373 0.976864
Si Si2 0.096285 0.336044 0.184286
Si Si3 0.275309 0.305048 0.938738
Si Si4 0.183375 0.673313 0.638604
Si Si5 0.707269 0.879941 0.239629
Si Si6 0.325013 0.128853 0.456018
Si Si7 0.185045 0.900292 0.350250
Si Si8 0.167946 0.353891 0.914477
O O1 0.564092 0.284532 0.746375
O O2 0.085239 0.535225 0.856329
O O3 0.758564 0.291126 0.214443
O O4 0.924281 0.327167 0.073200
O O5 0.430456 0.510788 0.177062
O O6 0.991435 0.202115 0.467825
O O7 0.022172 0.302932 0.010113
O O8 0.135162 0.257909 0.033843
O O9 0.037489 0.227432 0.721869
O O10 0.343020 0.238103 0.187519
O O11 0.450916 0.807602 0.529046
O O12 0.930599 0.618489 0.395680
O O13 0.633790 0.876883 0.310668
O O14 0.005999 0.967489 0.416610
O O15 0.764740 0.982349 0.937038
O O16 0.500000 0.000000 0.500000
O O17 0.500000 0.500000 0.000000
#
# Coordination Sequence:
#
# PCOD9031842 Si02
#       8
#     2   2   2   2   2   2   2   2
#     4  11  23  40  68  98 128 171 212 271 318 379
#     4  11  21  41  67  95 125 173 212 264 323 371
#     4  10  22  43  68  96 128 164 218 272 317 377
#     4  11  24  41  67  98 130 164 222 264 321 383
#     4  10  23  41  65  92 132 172 215 258 319 388
#     4  10  22  44  70  94 127 172 215 263 322 380
#     4  11  22  38  63  94 130 173 211 252 326 387
#     4  10  24  41  64 102 126 163 215 273 321 375
#
# _framework density 22.356197999999999
#
# number of rings (size 3 to 8) (size 9 to 14) (size 15 to 20)
#    0.000    1.500    2.500    1.875    3.500    2.500 
#    4.500    4.375    0.000    0.000    0.000    0.000 
#    0.000    0.000    0.000    0.000    0.000    0.000 
#
# Total GULP energy -89324.635944 kJ/mol
# GULP energy per Si atom -5582.789747 kJ/mol
# Density = 2.230531 g / cm^3
# Si number density = 22.356198 Si / 1000 Ang^3
#
#
#
# Elastic Constant Matrix: (Units=GPa)
#
#
# Indices 1 2 3 4 5 6 
#
# 1 103.8265 29.2185 26.6221 15.1632 -18.4082 8.6250
# 2 29.2185 89.8832 27.3333 18.6103 -19.9641 9.2800
# 3 26.6221 27.3333 93.3532 10.8350 -16.0657 0.3671
# 4 15.1632 18.6103 10.8350 42.0311 -6.2493 -9.6859
# 5 -18.4082 -19.9641 -16.0657 -6.2493 33.1802 6.9631
# 6 8.6250 9.2800 0.3671 -9.6859 6.9631 18.6939
#
#
#
# Elastic Compliance Matrix: (Units=1/GPa)
#
#
# Indices 1 2 3 4 5 6 
#
# 1 0.013422 0.000773 -0.001775 -0.006467 0.008581 -0.013089
# 2 0.000773 0.018604 -0.002166 -0.010628 0.012727 -0.019796
# 3 -0.001775 -0.002166 0.012623 -0.001186 0.003671 -0.000335
# 4 -0.006467 -0.010628 -0.001186 0.036801 -0.010159 0.031135
# 5 0.008581 0.012727 0.003671 -0.010159 0.049572 -0.034077
# 6 -0.013089 -0.019796 -0.000335 0.031135 -0.034077 0.098191
#
#
# Mechanical properties :
#
#
# Convention : Reuss Voigt Hill
#
# Bulk Modulus (GPa) = 26.10101 50.37897 38.23999
# Shear Modulus (GPa) = 20.13529 32.37365 26.25447
#
# Velocity S-wave (km/s) = 3.00435 3.80950 3.43063
# Velocity P-wave (km/s) = 4.87188 6.47559 5.73012
#
# Compressibility (1/GPa) = 0.03831269
#
# Stress axis : x y z
#
# Youngs Moduli (GPa) = 74.50311 53.75187 79.21927
#
# Poissons Ratio (x) = -0.04154 0.14063
# Poissons Ratio (y) = -0.05758 0.17159
# Poissons Ratio (z) = 0.13226 0.11643
#
# Static dielectric constant tensor:
#      x y z
#    x 1.831560 0.007610 0.008560 
#    y 0.007610 1.860020 0.007650 
#    z 0.008560 0.007650 1.878530 
# 
# From -- ./inp_files/321053.got.cif
#   From: 2010.05.17/outbox.cif.g08.bks.cpg/sg2_161_cif.got.tgz:321053.got - 2010.06.03 11:33:40.
