data_PCOD9031465
_publ_section_title
;
Structure prediction by ZEFSAII (Michael W. Deem and Ramdas Pophale) SiO2 
 PCOD9031465
Probable space group: P -1
;
_chemical_formula_sum "Si O2"
_cell_formula_units_Z 15
_cell_length_a 16.092362
_cell_length_b 9.039169
_cell_length_c 9.043673
_cell_angle_alpha 46.700043
_cell_angle_beta 137.934763
_cell_angle_gamma 119.591436
_cell_volume 641.112179
_symmetry_space_group_name_H-M "P -1"
_symmetry_group_IT_number 2
_symmetry_cell_setting 'triclinic'
loop_
_space_group_symop_operation_xyz
x,y,z
-x,-y,-z
loop_
_atom_site_type_symbol
_atom_site_label
_atom_site_fract_x
_atom_site_fract_y
_atom_site_fract_z
Si Si1 0.872741 0.911751 0.450957
Si Si2 0.494232 0.741540 0.326822
Si Si3 0.841757 0.128582 0.559456
Si Si4 0.942043 0.688030 0.113105
Si Si5 0.000000 0.500000 0.000000
Si Si6 0.677680 0.706891 0.823742
Si Si7 0.424956 0.706243 0.931065
Si Si8 0.352417 0.072375 0.077068
O O1 0.772501 0.892321 0.204207
O O2 0.831285 0.072531 0.411513
O O3 0.000000 0.000000 0.500000
O O4 0.903888 0.691762 0.709881
O O5 0.500000 0.500000 0.500000
O O6 0.627747 0.785133 0.544770
O O7 0.453938 0.798697 0.069179
O O8 0.401130 0.847978 0.247779
O O9 0.706256 0.217400 0.362217
O O10 0.951259 0.276785 0.649875
O O11 0.888742 0.914864 0.841369
O O12 0.996319 0.563428 0.131225
O O13 0.812957 0.600649 0.059427
O O14 0.589928 0.532639 0.892196
O O15 0.673158 0.885995 0.814454
O O16 0.540541 0.778713 0.938860
#
# Coordination Sequence:
#
# PCOD9031465 Si02
#       8
#     2   2   2   2   1   2   2   2
#     4  11  25  44  69 102 139 187 240 290 361 426
#     4  10  23  42  66  99 133 182 232 284 349 417
#     4  10  22  43  66  98 135 179 228 289 355 417
#     4  10  23  44  69  98 137 181 231 296 352 415
#     4  10  26  44  70 106 138 186 238 296 354 430
#     4  11  25  42  67 103 137 183 237 287 353 423
#     4  11  24  42  67  99 137 183 229 287 350 425
#     4  12  24  44  68 102 141 183 235 292 355 422
#
# _framework density 23.396841999999999
#
# number of rings (size 3 to 8) (size 9 to 14) (size 15 to 20)
#    0.000    1.333    1.333    2.800    7.467    0.533 
#    2.400    0.000    0.000    0.000    0.000    0.000 
#    0.000    0.000    0.000    0.000    0.000    0.000 
#
# Total GULP energy -83556.378736 kJ/mol
# GULP energy per Si atom -5570.425249 kJ/mol
# Density = 2.334359 g / cm^3
# Si number density = 23.396842 Si / 1000 Ang^3
#
#
#
# Elastic Constant Matrix: (Units=GPa)
#
#
# Indices 1 2 3 4 5 6 
#
# 1 63.3652 33.8848 23.9124 22.0732 15.5724 -15.2263
# 2 33.8848 112.6256 41.6876 15.5999 4.7336 -31.8162
# 3 23.9124 41.6876 134.5033 34.8418 15.2649 -1.8654
# 4 22.0732 15.5999 34.8418 49.2446 3.8142 -3.1181
# 5 15.5724 4.7336 15.2649 3.8142 28.2317 3.9375
# 6 -15.2263 -31.8162 -1.8654 -3.1181 3.9375 45.2734
#
#
#
# Elastic Compliance Matrix: (Units=1/GPa)
#
#
# Indices 1 2 3 4 5 6 
#
# 1 0.025957 -0.004522 0.000839 -0.009354 -0.013603 0.006125
# 2 -0.004522 0.013674 -0.003608 0.000674 0.000959 0.007903
# 3 0.000839 -0.003608 0.010559 -0.006480 -0.004430 -0.001879
# 4 -0.009354 0.000674 -0.006480 0.028401 0.004910 -0.001410
# 5 -0.013603 0.000959 -0.004430 0.004910 0.045571 -0.007709
# 6 0.006125 0.007903 -0.001879 -0.001410 -0.007709 0.030198
#
#
# Mechanical properties :
#
#
# Convention : Reuss Voigt Hill
#
# Bulk Modulus (GPa) = 28.08435 56.60706 42.34570
# Shear Modulus (GPa) = 27.65324 38.61723 33.13523
#
# Velocity S-wave (km/s) = 3.44164 4.06708 3.76736
# Velocity P-wave (km/s) = 5.27472 6.80454 6.08787
#
# Compressibility (1/GPa) = 0.03560702
#
# Stress axis : x y z
#
# Youngs Moduli (GPa) = 38.52571 73.13250 94.70558
#
# Poissons Ratio (x) = 0.33072 -0.07945
# Poissons Ratio (y) = 0.17422 0.34169
# Poissons Ratio (z) = -0.03232 0.26386
#
# Static dielectric constant tensor:
#      x y z
#    x 1.929130 0.076760 -0.010670 
#    y 0.076760 1.932370 -0.004220 
#    z -0.010670 -0.004220 1.890750 
# 
# From -- ./inp_files/297735.got.cif
#   From: 2010.05.17/outbox.cif.g08.bks.cpg/sg2_149_cif.got.tgz:297735.got - 2010.06.03 11:33:40.
