data_PCOD9031565
_publ_section_title
;
Structure prediction by ZEFSAII (Michael W. Deem and Ramdas Pophale) SiO2 
 PCOD9031565
Probable space group: P -1
;
_chemical_formula_sum "Si O2"
_cell_formula_units_Z 16
_cell_length_a 9.340492
_cell_length_b 14.701237
_cell_length_c 9.661415
_cell_angle_alpha 71.543801
_cell_angle_beta 136.030068
_cell_angle_gamma 93.134329
_cell_volume 842.964846
_symmetry_space_group_name_H-M "P -1"
_symmetry_group_IT_number 2
_symmetry_cell_setting 'triclinic'
loop_
_space_group_symop_operation_xyz
x,y,z
-x,-y,-z
loop_
_atom_site_type_symbol
_atom_site_label
_atom_site_fract_x
_atom_site_fract_y
_atom_site_fract_z
Si Si1 0.820281 0.058289 0.957006
Si Si2 0.022171 0.769762 0.896906
Si Si3 0.983238 0.564659 0.099957
Si Si4 0.386000 0.045137 0.536867
Si Si5 0.148359 0.429950 0.524136
Si Si6 0.422185 0.400176 0.988872
Si Si7 0.050013 0.939094 0.426026
Si Si8 0.122054 0.723586 0.672464
O O1 0.576773 0.063595 0.751795
O O2 0.850474 0.167243 0.955210
O O3 0.000000 0.000000 0.000000
O O4 0.888415 0.994131 0.171936
O O5 0.798056 0.852671 0.666930
O O6 0.124987 0.736813 0.834065
O O7 0.006169 0.671967 0.015675
O O8 0.762842 0.587108 0.028479
O O9 0.155879 0.498847 0.361744
O O10 0.000000 0.500000 0.000000
O O11 0.500000 0.000000 0.500000
O O12 0.280210 0.957019 0.547773
O O13 0.347826 0.386065 0.785518
O O14 0.000000 0.500000 0.500000
O O15 0.026767 0.349272 0.429178
O O16 0.500000 0.500000 0.000000
O O17 0.640313 0.316216 0.204290
O O18 0.031429 0.829692 0.489142
O O19 0.000000 0.000000 0.500000
#
# Coordination Sequence:
#
# PCOD9031565 Si02
#       8
#     2   2   2   2   2   2   2   2
#     4  11  23  43  69  95 136 171 218 276 327 393
#     4  11  24  44  65  98 135 170 219 274 326 389
#     4  11  22  44  69  94 135 174 211 272 329 386
#     4  11  23  45  66  95 135 172 216 272 333 388
#     4  10  22  43  67  93 133 170 215 266 324 382
#     4  11  23  43  68  95 131 172 219 269 322 388
#     4  11  24  44  66  97 134 171 218 277 325 389
#     4  12  23  44  68  95 134 170 219 273 322 389
#
# _framework density 18.980626000000001
#
# number of rings (size 3 to 8) (size 9 to 14) (size 15 to 20)
#    0.000    1.000    8.750    0.000    1.750    4.500 
#    2.250    1.250    0.000    0.000    0.000    0.000 
#    0.000    0.000    0.000    0.000    0.000    0.000 
#
# Total GULP energy -89116.528127 kJ/mol
# GULP energy per Si atom -5569.783008 kJ/mol
# Density = 1.893742 g / cm^3
# Si number density = 18.980626 Si / 1000 Ang^3
#
#
#
# Elastic Constant Matrix: (Units=GPa)
#
#
# Indices 1 2 3 4 5 6 
#
# 1 91.2048 25.2742 16.7694 1.7307 -17.2462 2.7520
# 2 25.2742 132.0932 38.6411 -0.6999 -13.4102 17.8961
# 3 16.7694 38.6411 96.9917 11.3017 -9.5659 13.6463
# 4 1.7307 -0.6999 11.3017 39.2294 5.9762 -6.1705
# 5 -17.2462 -13.4102 -9.5659 5.9762 37.4679 0.1507
# 6 2.7520 17.8961 13.6463 -6.1705 0.1507 41.7134
#
#
#
# Elastic Compliance Matrix: (Units=1/GPa)
#
#
# Indices 1 2 3 4 5 6 
#
# 1 0.012575 -0.001626 -0.000883 -0.001120 0.005159 -0.000027
# 2 -0.001626 0.009301 -0.002878 0.000336 0.001804 -0.002898
# 3 -0.000883 -0.002878 0.012930 -0.004711 0.002631 -0.003644
# 4 -0.001120 0.000336 -0.004711 0.028753 -0.006207 0.005747
# 5 0.005159 0.001804 0.002631 -0.006207 0.031384 -0.003007
# 6 -0.000027 -0.002898 -0.003644 0.005747 -0.003007 0.027271
#
#
# Mechanical properties :
#
#
# Convention : Reuss Voigt Hill
#
# Bulk Modulus (GPa) = 41.61071 53.51767 47.56419
# Shear Modulus (GPa) = 35.46103 39.65582 37.55843
#
# Velocity S-wave (km/s) = 4.32704 4.57582 4.45317
# Velocity P-wave (km/s) = 6.85089 7.49498 7.18016
#
# Compressibility (1/GPa) = 0.02403227
#
# Stress axis : x y z
#
# Youngs Moduli (GPa) = 79.52270 107.51575 77.33674
#
# Poissons Ratio (x) = 0.17484 0.06830
# Poissons Ratio (y) = 0.12932 0.22256
# Poissons Ratio (z) = 0.07023 0.30941
#
# Static dielectric constant tensor:
#      x y z
#    x 1.673060 -0.007860 0.053870 
#    y -0.007860 1.674080 -0.065140 
#    z 0.053870 -0.065140 2.055490 
# 
# From -- ./inp_files/201074.got.cif
#   From: 2010.05.17/outbox.cif.g08.bks.cpg/sg2_101_cif.got.tgz:201074.got - 2010.06.03 11:33:40.
