data_PCOD9031205
_publ_section_title
;
Structure prediction by ZEFSAII (Michael W. Deem and Ramdas Pophale) SiO2 
 PCOD9031205
Probable space group: P -1
;
_chemical_formula_sum "Si O2"
_cell_formula_units_Z 16
_cell_length_a 19.947372
_cell_length_b 8.966781
_cell_length_c 17.825070
_cell_angle_alpha 29.042767
_cell_angle_beta 152.754293
_cell_angle_gamma 140.550882
_cell_volume 708.400191
_symmetry_space_group_name_H-M "P -1"
_symmetry_group_IT_number 2
_symmetry_cell_setting 'triclinic'
loop_
_space_group_symop_operation_xyz
x,y,z
-x,-y,-z
loop_
_atom_site_type_symbol
_atom_site_label
_atom_site_fract_x
_atom_site_fract_y
_atom_site_fract_z
Si Si1 0.070290 0.461285 0.505835
Si Si2 0.671053 0.550314 0.563884
Si Si3 0.929710 0.270798 0.762083
Si Si4 0.667289 0.578262 0.119523
Si Si5 0.328947 0.720881 0.164922
Si Si6 0.820365 0.073291 0.387205
Si Si7 0.820365 0.347102 0.113394
Si Si8 0.332711 0.986772 0.315443
O O1 0.034335 0.716370 0.295545
O O2 0.241024 0.466749 0.692102
O O3 0.000000 0.500000 0.500000
O O4 0.991471 0.158039 0.530784
O O5 0.500000 0.654725 0.345275
O O6 0.714731 0.519625 0.708189
O O7 0.683020 0.215839 0.685397
O O8 0.764913 0.784258 0.505703
O O9 0.758976 0.213269 0.627881
O O10 0.008529 0.565984 0.745193
O O11 0.000000 0.000000 0.000000
O O12 0.735347 0.360789 0.218265
O O13 0.500000 0.500000 0.000000
O O14 0.683020 0.938808 0.962428
O O15 0.235087 0.709115 0.000925
O O16 0.784109 0.101523 0.250268
O O17 0.735347 0.670332 0.908723
O O18 0.500000 0.000000 0.500000
#
# Coordination Sequence:
#
# PCOD9031205 Si02
#       8
#     2   2   2   2   2   2   2   2
#     4   9  21  40  66  96 130 170 216 266 324 386
#     4  11  24  42  63  95 130 168 216 269 323 383
#     4   9  21  40  66  96 130 170 216 266 324 386
#     4  11  22  41  65  97 128 170 213 266 323 385
#     4  11  24  42  63  95 130 168 216 269 323 383
#     4  10  22  43  65  94 129 166 213 267 322 387
#     4  10  22  43  65  94 129 166 213 267 322 387
#     4  11  22  41  65  97 128 170 213 266 323 385
#
# _framework density 22.586103999999999
#
# number of rings (size 3 to 8) (size 9 to 14) (size 15 to 20)
#    0.000    1.750    2.500    0.750    0.000    9.500 
#    0.000    3.750    0.000    0.000    0.000    0.000 
#    0.000    0.000    0.000    0.000    0.000    0.000 
#
# Total GULP energy -89333.942541 kJ/mol
# GULP energy per Si atom -5583.371409 kJ/mol
# Density = 2.253470 g / cm^3
# Si number density = 22.586104 Si / 1000 Ang^3
#
#
#
# Elastic Constant Matrix: (Units=GPa)
#
#
# Indices 1 2 3 4 5 6 
#
# 1 145.5887 67.2818 75.7859 17.5838 -45.7704 7.0959
# 2 67.2818 117.4709 55.6747 11.8370 -22.9788 9.2017
# 3 75.7859 55.6747 107.5186 9.6097 -30.0783 13.8559
# 4 17.5838 11.8370 9.6097 41.4028 -2.4377 13.8475
# 5 -45.7704 -22.9788 -30.0783 -2.4377 54.7721 -3.4040
# 6 7.0959 9.2017 13.8559 13.8475 -3.4040 34.4656
#
#
#
# Elastic Compliance Matrix: (Units=1/GPa)
#
#
# Indices 1 2 3 4 5 6 
#
# 1 0.014434 -0.003721 -0.006279 -0.004170 0.007048 0.002917
# 2 -0.003721 0.012549 -0.003687 -0.000903 0.000044 -0.000735
# 3 -0.006279 -0.003687 0.016725 0.001596 0.002159 -0.004875
# 4 -0.004170 -0.000903 0.001596 0.029570 -0.002395 -0.011659
# 5 0.007048 0.000044 0.002159 -0.002395 0.025316 0.001132
# 6 0.002917 -0.000735 -0.004875 -0.011659 0.001132 0.035366
#
#
# Mechanical properties :
#
#
# Convention : Reuss Voigt Hill
#
# Bulk Modulus (GPa) = 61.22191 85.34032 73.28112
# Shear Modulus (GPa) = 29.97995 37.58380 33.78188
#
# Velocity S-wave (km/s) = 3.64725 4.08367 3.87161
# Velocity P-wave (km/s) = 6.70085 7.75252 7.24579
#
# Compressibility (1/GPa) = 0.01633402
#
# Stress axis : x y z
#
# Youngs Moduli (GPa) = 69.28133 79.68897 59.78988
#
# Poissons Ratio (x) = 0.29652 0.37540
# Poissons Ratio (y) = 0.25779 0.22047
# Poissons Ratio (z) = 0.43499 0.29384
#
# Static dielectric constant tensor:
#      x y z
#    x 1.898660 -0.018580 0.046390 
#    y -0.018580 1.843760 -0.023750 
#    z 0.046390 -0.023750 1.922000 
# 
# From -- ./inp_files/577170.got.cif
#   From: 2010.05.17/outbox.cif.g08.bks.cpg/sg2_289_cif.got.tgz:577170.got - 2010.06.03 11:33:40.
