data_PCOD9031531
_publ_section_title
;
Structure prediction by ZEFSAII (Michael W. Deem and Ramdas Pophale) SiO2 
 PCOD9031531
Probable space group: P -1
;
_chemical_formula_sum "Si O2"
_cell_formula_units_Z 16
_cell_length_a 11.447053
_cell_length_b 12.914989
_cell_length_c 11.449141
_cell_angle_alpha 110.292276
_cell_angle_beta 44.152252
_cell_angle_gamma 74.205065
_cell_volume 667.197393
_symmetry_space_group_name_H-M "P -1"
_symmetry_group_IT_number 2
_symmetry_cell_setting 'triclinic'
loop_
_space_group_symop_operation_xyz
x,y,z
-x,-y,-z
loop_
_atom_site_type_symbol
_atom_site_label
_atom_site_fract_x
_atom_site_fract_y
_atom_site_fract_z
Si Si1 0.528359 0.759084 0.212082
Si Si2 0.268508 0.071332 0.381109
Si Si3 0.225877 0.662877 0.975199
Si Si4 0.680129 0.633881 0.285515
Si Si5 0.077228 0.397942 0.579769
Si Si6 0.229730 0.534258 0.401252
Si Si7 0.771642 0.144300 0.119946
Si Si8 0.002419 0.115200 0.353696
O O1 0.510544 0.795961 0.376118
O O2 0.275812 0.808512 0.385064
O O3 0.518359 0.867512 0.173814
O O4 0.827066 0.544260 0.906696
O O5 0.154018 0.067888 0.347168
O O6 0.289450 0.187717 0.373262
O O7 0.054606 0.187595 0.689313
O O8 0.334194 0.486314 0.790338
O O9 0.449221 0.601207 0.878248
O O10 0.208126 0.742509 0.900399
O O11 0.523143 0.725338 0.556445
O O12 0.000000 0.500000 0.000000
O O13 0.897264 0.449927 0.618368
O O14 0.193391 0.456907 0.490670
O O15 0.074067 0.732319 0.599903
O O16 0.830988 0.043939 0.921151
O O17 0.000000 0.000000 0.000000
#
# Coordination Sequence:
#
# PCOD9031531 Si02
#       8
#     2   2   2   2   2   2   2   2
#     4  12  22  45  71 103 145 188 241 306 368 435
#     4  11  23  42  74 116 140 188 240 303 388 431
#     4  12  23  45  77  96 143 190 249 306 365 441
#     4  12  28  50  72 103 145 202 253 300 370 436
#     4  10  23  42  68 105 159 179 238 294 374 449
#     4  10  22  43  67 107 140 199 225 299 375 440
#     4  12  25  47  69 106 145 193 256 305 359 435
#     4  11  22  43  75 107 147 184 246 306 362 453
#
# _framework density 23.980910000000002
#
# number of rings (size 3 to 8) (size 9 to 14) (size 15 to 20)
#    0.000    0.750    5.000    1.500    3.500    2.000 
#    4.500    3.125    0.000    0.000    0.000    0.000 
#    0.000    0.000    0.000    0.000    0.000    0.000 
#
# Total GULP energy -89507.474534 kJ/mol
# GULP energy per Si atom -5594.217158 kJ/mol
# Density = 2.392633 g / cm^3
# Si number density = 23.980910 Si / 1000 Ang^3
#
#
#
# Elastic Constant Matrix: (Units=GPa)
#
#
# Indices 1 2 3 4 5 6 
#
# 1 70.1665 37.4239 15.3199 0.9651 0.9241 -15.3546
# 2 37.4239 163.2962 7.0833 6.7871 -2.1849 -25.5506
# 3 15.3199 7.0833 61.8520 -4.3700 9.0803 7.8870
# 4 0.9651 6.7871 -4.3700 33.8196 -1.7160 -3.2202
# 5 0.9241 -2.1849 9.0803 -1.7160 34.1113 -3.1521
# 6 -15.3546 -25.5506 7.8870 -3.2202 -3.1521 34.6852
#
#
#
# Elastic Compliance Matrix: (Units=1/GPa)
#
#
# Indices 1 2 3 4 5 6 
#
# 1 0.018574 -0.002830 -0.005442 0.000125 0.001465 0.007520
# 2 -0.002830 0.007593 -0.001005 -0.001076 0.001199 0.004578
# 3 -0.005442 -0.001005 0.019626 0.001841 -0.005785 -0.007966
# 4 0.000125 -0.001076 0.001841 0.030243 0.001121 0.001754
# 5 0.001465 0.001199 -0.005785 0.001121 0.031486 0.005813
# 6 0.007520 0.004578 -0.007966 0.001754 0.005813 0.038035
#
#
# Mechanical properties :
#
#
# Convention : Reuss Voigt Hill
#
# Bulk Modulus (GPa) = 36.70971 46.10765 41.40868
# Shear Modulus (GPa) = 28.87033 36.22238 32.54635
#
# Velocity S-wave (km/s) = 3.47347 3.89069 3.68799
# Velocity P-wave (km/s) = 5.60605 6.28107 5.95314
#
# Compressibility (1/GPa) = 0.02724075
#
# Stress axis : x y z
#
# Youngs Moduli (GPa) = 53.83953 131.70002 50.95386
#
# Poissons Ratio (x) = 0.37266 0.27727
# Poissons Ratio (y) = 0.15234 0.05119
# Poissons Ratio (z) = 0.29297 0.13230
#
# Static dielectric constant tensor:
#      x y z
#    x 1.958120 -0.025590 0.014840 
#    y -0.025590 1.931980 -0.001490 
#    z 0.014840 -0.001490 1.969410 
# 
# From -- ./inp_files/348829.got.cif
#   From: 2010.05.17/outbox.cif.g08.bks.cpg/sg2_175_cif.got.tgz:348829.got - 2010.06.03 11:33:40.
