data_PCOD9031441
_publ_section_title
;
Structure prediction by ZEFSAII (Michael W. Deem and Ramdas Pophale) SiO2 
 PCOD9031441
Probable space group: P -1
;
_chemical_formula_sum "Si O2"
_cell_formula_units_Z 16
_cell_length_a 13.594530
_cell_length_b 7.529112
_cell_length_c 11.874334
_cell_angle_alpha 141.249580
_cell_angle_beta 122.270558
_cell_angle_gamma 52.986416
_cell_volume 602.386003
_symmetry_space_group_name_H-M "P -1"
_symmetry_group_IT_number 2
_symmetry_cell_setting 'triclinic'
loop_
_space_group_symop_operation_xyz
x,y,z
-x,-y,-z
loop_
_atom_site_type_symbol
_atom_site_label
_atom_site_fract_x
_atom_site_fract_y
_atom_site_fract_z
Si Si1 0.129368 0.271558 0.001702
Si Si2 0.297477 0.903928 0.734338
Si Si3 0.564927 0.822141 0.792485
Si Si4 0.135405 0.068937 0.250910
Si Si5 0.229361 0.736250 0.368265
Si Si6 0.372381 0.577779 0.834298
Si Si7 0.584514 0.993278 0.654819
Si Si8 0.871908 0.311328 0.152910
O O1 0.205664 0.175195 0.884882
O O2 0.118009 0.977994 0.906153
O O3 0.175150 0.466502 0.214842
O O4 0.000000 0.500000 0.000000
O O5 0.428636 0.944436 0.818828
O O6 0.243647 0.869883 0.563125
O O7 0.326958 0.616230 0.694831
O O8 0.639007 0.481905 0.712954
O O9 0.561008 0.791319 0.640506
O O10 0.625936 0.082724 0.973482
O O11 0.150726 0.969374 0.341978
O O12 0.269712 0.087449 0.313937
O O13 0.129253 0.801911 0.031098
O O14 0.004863 0.343945 0.279495
O O15 0.510433 0.343229 0.820551
O O16 0.269073 0.485237 0.795503
O O17 0.500000 0.000000 0.500000
#
# Coordination Sequence:
#
# PCOD9031441 Si02
#       8
#     2   2   2   2   2   2   2   2
#     4  11  23  44  67  96 130 182 225 278 342 400
#     4  11  25  41  67 103 138 173 231 285 340 407
#     4  12  23  42  66 103 137 175 230 281 345 407
#     4  11  23  41  69  97 134 186 221 277 347 404
#     4  12  23  41  71  99 138 176 227 282 346 399
#     4  11  23  43  67  98 134 183 228 281 345 407
#     4  12  25  42  68  98 139 178 230 283 342 403
#     4  10  22  43  66  97 135 177 232 274 339 417
#
# _framework density 26.561043000000002
#
# number of rings (size 3 to 8) (size 9 to 14) (size 15 to 20)
#    0.000    0.750    5.000    3.375    1.750    0.500 
#    0.000    0.625    0.000    0.000    0.000    0.000 
#    0.000    0.000    0.000    0.000    0.000    0.000 
#
# Total GULP energy -89493.228844 kJ/mol
# GULP energy per Si atom -5593.326803 kJ/mol
# Density = 2.650059 g / cm^3
# Si number density = 26.561043 Si / 1000 Ang^3
#
#
#
# Elastic Constant Matrix: (Units=GPa)
#
#
# Indices 1 2 3 4 5 6 
#
# 1 154.5819 25.0847 41.4606 -14.7990 -0.9159 -37.6544
# 2 25.0847 84.4417 39.3628 -23.3324 2.7824 -12.6095
# 3 41.4606 39.3628 143.6628 -34.5002 -9.2965 -10.4994
# 4 -14.7990 -23.3324 -34.5002 36.1944 4.6842 3.6364
# 5 -0.9159 2.7824 -9.2965 4.6842 38.6214 -17.3314
# 6 -37.6544 -12.6095 -10.4994 3.6364 -17.3314 36.9613
#
#
#
# Elastic Compliance Matrix: (Units=1/GPa)
#
#
# Indices 1 2 3 4 5 6 
#
# 1 0.009912 -0.000555 -0.001377 0.000508 0.005231 0.011920
# 2 -0.000555 0.015585 -0.002156 0.007663 -0.001349 0.002753
# 3 -0.001377 -0.002156 0.009848 0.007076 0.002050 0.000924
# 4 0.000508 0.007663 0.007076 0.040109 -0.004008 -0.000683
# 5 0.005231 -0.001349 0.002050 -0.004008 0.037636 0.023493
# 6 0.011920 0.002753 0.000924 -0.000683 0.023493 0.051484
#
#
# Mechanical properties :
#
#
# Convention : Reuss Voigt Hill
#
# Bulk Modulus (GPa) = 36.80476 66.05585 51.43031
# Shear Modulus (GPa) = 27.50195 40.80730 34.15462
#
# Velocity S-wave (km/s) = 3.22129 3.92389 3.58982
# Velocity P-wave (km/s) = 5.26520 6.74186 6.04876
#
# Compressibility (1/GPa) = 0.02717040
#
# Stress axis : x y z
#
# Youngs Moduli (GPa) = 100.89246 64.16328 101.53902
#
# Poissons Ratio (x) = 0.03558 0.13980
# Poissons Ratio (y) = 0.05595 0.21893
# Poissons Ratio (z) = 0.13891 0.13834
#
# Static dielectric constant tensor:
#      x y z
#    x 2.176010 -0.102080 -0.010940 
#    y -0.102080 2.169480 0.009550 
#    z -0.010940 0.009550 2.195880 
# 
# From -- ./inp_files/448410.got.cif
#   From: 2010.05.17/outbox.cif.g08.bks.cpg/sg2_225_cif.got.tgz:448410.got - 2010.06.03 11:33:40.
