data_PCOD9031488
_publ_section_title
;
Structure prediction by ZEFSAII (Michael W. Deem and Ramdas Pophale) SiO2 
 PCOD9031488
Probable space group: P -1
;
_chemical_formula_sum "Si O2"
_cell_formula_units_Z 16
_cell_length_a 17.663744
_cell_length_b 8.671313
_cell_length_c 11.899250
_cell_angle_alpha 78.874736
_cell_angle_beta 138.320325
_cell_angle_gamma 131.660126
_cell_volume 716.842928
_symmetry_space_group_name_H-M "P -1"
_symmetry_group_IT_number 2
_symmetry_cell_setting 'triclinic'
loop_
_space_group_symop_operation_xyz
x,y,z
-x,-y,-z
loop_
_atom_site_type_symbol
_atom_site_label
_atom_site_fract_x
_atom_site_fract_y
_atom_site_fract_z
Si Si1 0.236084 0.102887 0.753754
Si Si2 0.157499 0.909512 0.452559
Si Si3 0.650824 0.433430 0.136274
Si Si4 0.690295 0.213948 0.754664
Si Si5 0.916973 0.517948 0.563781
Si Si6 0.996425 0.690209 0.871880
Si Si7 0.582402 0.308195 0.818498
Si Si8 0.914708 0.872095 0.045388
O O1 0.229987 0.272736 0.770114
O O2 0.194565 0.058507 0.580750
O O3 0.445585 0.261695 0.975493
O O4 0.092736 0.822203 0.687375
O O5 0.067091 0.645890 0.429543
O O6 0.359328 0.090605 0.597547
O O7 0.026017 0.851436 0.227625
O O8 0.741782 0.404350 0.321607
O O9 0.634727 0.356330 0.001465
O O10 0.842027 0.498546 0.825507
O O11 0.639129 0.220448 0.820441
O O12 0.500000 0.000000 0.500000
O O13 0.809713 0.184917 0.898435
O O14 0.905216 0.509970 0.686624
O O15 0.043980 0.923012 0.870349
O O16 0.697211 0.581051 0.854016
O O17 0.000000 0.000000 0.000000
#
# Coordination Sequence:
#
# PCOD9031488 Si02
#       8
#     2   2   2   2   2   2   2   2
#     4  10  22  43  67 100 141 175 223 270 334 412
#     4  11  26  41  66 104 137 180 225 275 342 403
#     4  10  23  42  70 104 135 178 222 274 338 403
#     4  11  25  45  69  93 134 174 224 282 336 393
#     4  12  23  40  70 100 141 175 222 274 337 401
#     4  11  26  44  66 100 128 177 229 272 333 406
#     4  11  24  45  69 100 138 175 227 281 336 406
#     4  12  25  44  69  93 135 178 230 284 332 395
#
# _framework density 22.320091999999999
#
# number of rings (size 3 to 8) (size 9 to 14) (size 15 to 20)
#    0.000    1.000    1.250    4.500    3.500    7.500 
#    0.000    0.000    0.000    0.000    0.000    0.000 
#    0.000    0.000    0.000    0.000    0.000    0.000 
#
# Total GULP energy -89605.232106 kJ/mol
# GULP energy per Si atom -5600.327007 kJ/mol
# Density = 2.226929 g / cm^3
# Si number density = 22.320092 Si / 1000 Ang^3
#
#
#
# Elastic Constant Matrix: (Units=GPa)
#
#
# Indices 1 2 3 4 5 6 
#
# 1 81.4144 5.7376 44.3878 -1.5486 6.3462 -5.6519
# 2 5.7376 81.8510 47.9087 -13.1625 14.8644 -9.3927
# 3 44.3878 47.9087 109.6161 -12.1885 5.2369 -11.2745
# 4 -1.5486 -13.1625 -12.1885 34.2237 0.8751 1.5790
# 5 6.3462 14.8644 5.2369 0.8751 30.3291 9.5477
# 6 -5.6519 -9.3927 -11.2745 1.5790 9.5477 34.8873
#
#
#
# Elastic Compliance Matrix: (Units=1/GPa)
#
#
# Indices 1 2 3 4 5 6 
#
# 1 0.017323 0.005208 -0.008761 -0.000325 -0.005574 0.002918
# 2 0.005208 0.021185 -0.009570 0.004982 -0.012016 0.006518
# 3 -0.008761 -0.009570 0.016944 0.001849 0.003397 0.000467
# 4 -0.000325 0.004982 0.001849 0.031812 -0.004105 0.001570
# 5 -0.005574 -0.012016 0.003397 -0.004105 0.044271 -0.014970
# 6 0.002918 0.006518 0.000467 0.001570 -0.014970 0.035068
#
#
# Mechanical properties :
#
#
# Convention : Reuss Voigt Hill
#
# Bulk Modulus (GPa) = 34.23789 52.10551 43.17170
# Shear Modulus (GPa) = 24.68120 31.54451 28.11285
#
# Velocity S-wave (km/s) = 3.32894 3.76344 3.55284
# Velocity P-wave (km/s) = 5.49077 6.50230 6.01783
#
# Compressibility (1/GPa) = 0.02920741
#
# Stress axis : x y z
#
# Youngs Moduli (GPa) = 57.72627 47.20415 59.01730
#
# Poissons Ratio (x) = -0.24585 0.51705
# Poissons Ratio (y) = -0.30066 0.56477
# Poissons Ratio (z) = 0.50574 0.45173
#
# Static dielectric constant tensor:
#      x y z
#    x 1.854300 0.007590 -0.013100 
#    y 0.007590 1.795510 0.032230 
#    z -0.013100 0.032230 1.804950 
# 
# From -- ./inp_files/462160.got.cif
#   From: 2010.05.17/outbox.cif.g08.bks.cpg/sg2_232_cif.got.tgz:462160.got - 2010.06.03 11:33:40.
