data_PCOD9031105
_publ_section_title
;
Structure prediction by ZEFSAII (Michael W. Deem and Ramdas Pophale) SiO2 
 PCOD9031105
Probable space group: P -1
;
_chemical_formula_sum "Si O2"
_cell_formula_units_Z 14
_cell_length_a 10.333011
_cell_length_b 12.309468
_cell_length_c 7.084216
_cell_angle_alpha 69.494984
_cell_angle_beta 47.808805
_cell_angle_gamma 68.102282
_cell_volume 612.877711
_symmetry_space_group_name_H-M "P -1"
_symmetry_group_IT_number 2
_symmetry_cell_setting 'triclinic'
loop_
_space_group_symop_operation_xyz
x,y,z
-x,-y,-z
loop_
_atom_site_type_symbol
_atom_site_label
_atom_site_fract_x
_atom_site_fract_y
_atom_site_fract_z
Si Si1 0.088823 0.625295 0.055710
Si Si2 0.967330 0.904222 0.433618
Si Si3 0.839600 0.335075 0.594343
Si Si4 0.240444 0.438781 0.733893
Si Si5 0.406143 0.729281 0.573726
Si Si6 0.664000 0.169339 0.038040
Si Si7 0.566626 0.009502 0.716791
O O1 0.118810 0.634268 0.245842
O O2 0.884573 0.646860 0.175715
O O3 0.204810 0.707288 0.782471
O O4 0.169206 0.494981 0.970369
O O5 0.996108 0.769193 0.564618
O O6 0.230566 0.056207 0.469931
O O7 0.124098 0.890345 0.130255
O O8 0.000000 0.000000 0.500000
O O9 0.790856 0.451862 0.449579
O O10 0.443873 0.375117 0.584688
O O11 0.427299 0.739731 0.771744
O O12 0.435314 0.854507 0.398893
O O13 0.319926 0.741572 0.206212
O O14 0.563659 0.061839 0.215526
O O15 0.500000 0.000000 0.000000
#
# Coordination Sequence:
#
# PCOD9031105 Si02
#       7
#     2   2   2   2   2   2   2
#     4  10  24  44  63 103 129 182 221 268 340 386
#     4  10  22  43  64  97 133 172 217 272 327 396
#     4   9  22  46  67  98 134 173 223 267 339 390
#     4  11  24  45  70  94 140 173 222 283 322 404
#     4  11  26  43  65 100 132 170 226 272 334 395
#     4   9  23  43  63 103 125 173 218 267 337 390
#     4  12  24  41  69  98 127 175 221 270 335 398
#
# _framework density 22.843053000000001
#
# number of rings (size 3 to 8) (size 9 to 14) (size 15 to 20)
#    0.857    0.857    1.429    1.286    6.000    6.286 
#    5.143    0.000    0.000    0.000    0.000    0.000 
#    0.000    0.000    0.000    0.000    0.000    0.000 
#
# Total GULP energy -77990.678174 kJ/mol
# GULP energy per Si atom -5570.762727 kJ/mol
# Density = 2.279106 g / cm^3
# Si number density = 22.843053 Si / 1000 Ang^3
#
#
#
# Elastic Constant Matrix: (Units=GPa)
#
#
# Indices 1 2 3 4 5 6 
#
# 1 89.1307 52.6128 33.5376 -6.7491 -24.5388 5.3503
# 2 52.6128 114.1491 31.0164 -14.3948 -7.5563 -2.8955
# 3 33.5376 31.0164 55.8369 -1.2191 -9.6096 -6.7568
# 4 -6.7491 -14.3948 -1.2191 53.3734 12.8950 -7.0707
# 5 -24.5388 -7.5563 -9.6096 12.8950 36.3445 3.1692
# 6 5.3503 -2.8955 -6.7568 -7.0707 3.1692 42.5051
#
#
#
# Elastic Compliance Matrix: (Units=1/GPa)
#
#
# Indices 1 2 3 4 5 6 
#
# 1 0.022661 -0.008086 -0.007642 -0.003550 0.013399 -0.006208
# 2 -0.008086 0.013601 -0.003193 0.004155 -0.005169 0.002513
# 3 -0.007642 -0.003193 0.024916 -0.000819 0.000661 0.004520
# 4 -0.003550 0.004155 -0.000819 0.022527 -0.010187 0.005106
# 5 0.013399 -0.005169 0.000661 -0.010187 0.039851 -0.006600
# 6 -0.006208 0.002513 0.004520 0.005106 -0.006600 0.026539
#
#
# Mechanical properties :
#
#
# Convention : Reuss Voigt Hill
#
# Bulk Modulus (GPa) = 42.85372 54.82780 48.84076
# Shear Modulus (GPa) = 25.54747 35.90794 30.72771
#
# Velocity S-wave (km/s) = 3.34786 3.96907 3.67163
# Velocity P-wave (km/s) = 5.80905 6.71258 6.27709
#
# Compressibility (1/GPa) = 0.02333520
#
# Stress axis : x y z
#
# Youngs Moduli (GPa) = 44.12860 73.52620 40.13561
#
# Poissons Ratio (x) = 0.59457 0.30671
# Poissons Ratio (y) = 0.35684 0.12814
# Poissons Ratio (z) = 0.33722 0.23475
#
# Static dielectric constant tensor:
#      x y z
#    x 2.223330 0.360960 -0.032950 
#    y 0.360960 2.175660 -0.128860 
#    z -0.032950 -0.128860 1.983160 
# 
# From -- ./inp_files/69699.got.cif
#   From: 2010.05.17/outbox.cif.g08.bks.cpg/sg2_35_cif.got.tgz:69699.got - 2010.06.03 11:33:40.
