data_PCOD9031698
_publ_section_title
;
Structure prediction by ZEFSAII (Michael W. Deem and Ramdas Pophale) SiO2 
 PCOD9031698
Probable space group: P -1
;
_chemical_formula_sum "Si O2"
_cell_formula_units_Z 16
_cell_length_a 15.086458
_cell_length_b 9.399892
_cell_length_c 8.218995
_cell_angle_alpha 48.790895
_cell_angle_beta 80.911240
_cell_angle_gamma 111.984964
_cell_volume 662.365074
_symmetry_space_group_name_H-M "P -1"
_symmetry_group_IT_number 2
_symmetry_cell_setting 'triclinic'
loop_
_space_group_symop_operation_xyz
x,y,z
-x,-y,-z
loop_
_atom_site_type_symbol
_atom_site_label
_atom_site_fract_x
_atom_site_fract_y
_atom_site_fract_z
Si Si1 0.888526 0.686658 0.116308
Si Si2 0.820139 0.434629 0.653660
Si Si3 0.034331 0.895393 0.432582
Si Si4 0.557905 0.781578 0.723432
Si Si5 0.141218 0.882403 0.977086
Si Si6 0.828052 0.226498 0.314155
Si Si7 0.430288 0.809969 0.011855
Si Si8 0.599208 0.646322 0.495320
O O1 0.809806 0.518981 0.418361
O O2 0.858280 0.484388 0.145929
O O3 0.022987 0.842392 0.022548
O O4 0.881494 0.880350 0.888053
O O5 0.694700 0.258050 0.909614
O O6 0.914589 0.679355 0.541809
O O7 0.868098 0.285886 0.751753
O O8 0.091901 0.795266 0.578252
O O9 0.000000 0.000000 0.500000
O O10 0.562862 0.766640 0.537943
O O11 0.694543 0.989282 0.573548
O O12 0.500000 0.500000 0.000000
O O13 0.493707 0.861777 0.780965
O O14 0.148933 0.790752 0.867291
O O15 0.267822 0.149127 0.757277
O O16 0.403023 0.557533 0.260977
O O17 0.500000 0.000000 0.000000
O O18 0.500000 0.500000 0.500000
#
# Coordination Sequence:
#
# PCOD9031698 Si02
#       8
#     2   2   2   2   2   2   2   2
#     4  12  24  45  65 106 142 177 230 282 363 419
#     4  12  26  43  66 102 142 179 229 295 344 416
#     4  12  25  42  71 102 138 180 227 289 352 422
#     4   9  22  44  71  97 135 187 232 288 351 424
#     4  11  22  43  70  96 142 183 224 285 354 431
#     4  11  23  45  72 101 136 181 232 284 358 423
#     4  11  23  45  67  98 142 181 241 296 346 420
#     4  10  22  43  68 100 132 186 236 287 360 420
#
# _framework density 24.155864000000001
#
# number of rings (size 3 to 8) (size 9 to 14) (size 15 to 20)
#    0.000    1.000    2.500    4.125    3.500    1.000 
#    4.500    5.625    0.000    0.000    0.000    0.000 
#    0.000    0.000    0.000    0.000    0.000    0.000 
#
# Total GULP energy -89592.235299 kJ/mol
# GULP energy per Si atom -5599.514706 kJ/mol
# Density = 2.410088 g / cm^3
# Si number density = 24.155864 Si / 1000 Ang^3
#
#
#
# Elastic Constant Matrix: (Units=GPa)
#
#
# Indices 1 2 3 4 5 6 
#
# 1 70.2217 31.9992 22.4262 0.4169 -12.3684 -4.5219
# 2 31.9992 134.9568 30.4906 -7.8520 -21.0873 -0.8132
# 3 22.4262 30.4906 118.1412 -5.7092 -8.5163 -6.5286
# 4 0.4169 -7.8520 -5.7092 45.9468 -3.8561 -4.3977
# 5 -12.3684 -21.0873 -8.5163 -3.8561 52.1656 -1.6019
# 6 -4.5219 -0.8132 -6.5286 -4.3977 -1.6019 35.3534
#
#
#
# Elastic Compliance Matrix: (Units=1/GPa)
#
#
# Indices 1 2 3 4 5 6 
#
# 1 0.016909 -0.003175 -0.002152 -0.000598 0.002383 0.001726
# 2 -0.003175 0.009017 -0.001455 0.001608 0.002769 -0.000142
# 3 -0.002152 -0.001455 0.009434 0.001145 0.000576 0.001602
# 4 -0.000598 0.001608 0.001145 0.022691 0.002468 0.003106
# 5 0.002383 0.002769 0.000576 0.002468 0.021184 0.001742
# 6 0.001726 -0.000142 0.001602 0.003106 0.001742 0.029264
#
#
# Mechanical properties :
#
#
# Convention : Reuss Voigt Hill
#
# Bulk Modulus (GPa) = 45.88115 54.79464 50.33789
# Shear Modulus (GPa) = 38.66122 42.58675 40.62398
#
# Velocity S-wave (km/s) = 4.00495 4.20336 4.10536
# Velocity P-wave (km/s) = 6.35777 6.80373 6.58452
#
# Compressibility (1/GPa) = 0.02179544
#
# Stress axis : x y z
#
# Youngs Moduli (GPa) = 59.13933 110.90563 106.00203
#
# Poissons Ratio (x) = 0.35214 0.22813
# Poissons Ratio (y) = 0.18777 0.15422
# Poissons Ratio (z) = 0.12727 0.16136
#
# Static dielectric constant tensor:
#      x y z
#    x 1.897190 -0.090600 -0.020580 
#    y -0.090600 1.948740 0.045830 
#    z -0.020580 0.045830 1.943460 
# 
# From -- ./inp_files/297442.got.cif
#   From: 2010.05.17/outbox.cif.g08.bks.cpg/sg2_149_cif.got.tgz:297442.got - 2010.06.03 11:33:40.
