data_PCOD9031516
_publ_section_title
;
Structure prediction by ZEFSAII (Michael W. Deem and Ramdas Pophale) SiO2 
 PCOD9031516
Probable space group: P -1
;
_chemical_formula_sum "Si O2"
_cell_formula_units_Z 16
_cell_length_a 8.752215
_cell_length_b 10.931028
_cell_length_c 9.431746
_cell_angle_alpha 107.358899
_cell_angle_beta 65.241352
_cell_angle_gamma 71.646117
_cell_volume 673.892845
_symmetry_space_group_name_H-M "P -1"
_symmetry_group_IT_number 2
_symmetry_cell_setting 'triclinic'
loop_
_space_group_symop_operation_xyz
x,y,z
-x,-y,-z
loop_
_atom_site_type_symbol
_atom_site_label
_atom_site_fract_x
_atom_site_fract_y
_atom_site_fract_z
Si Si1 0.603989 0.922161 0.788766
Si Si2 0.956659 0.946371 0.145431
Si Si3 0.001016 0.329131 0.528750
Si Si4 0.140358 0.843126 0.313550
Si Si5 0.546446 0.211832 0.427571
Si Si6 0.523197 0.790812 0.233460
Si Si7 0.942836 0.651868 0.985517
Si Si8 0.224551 0.505646 0.578582
O O1 0.498281 0.850303 0.718837
O O2 0.828789 0.798910 0.678039
O O3 0.586533 0.043531 0.726292
O O4 0.500000 0.000000 0.000000
O O5 0.908639 0.812330 0.109380
O O6 0.134107 0.883427 0.165388
O O7 0.772104 0.097264 0.330617
O O8 0.000000 0.000000 0.000000
O O9 0.957731 0.255362 0.651679
O O10 0.814463 0.413751 0.528883
O O11 0.097153 0.423082 0.578009
O O12 0.358994 0.749025 0.255351
O O13 0.000000 0.000000 0.500000
O O14 0.437660 0.211787 0.614950
O O15 0.445425 0.385103 0.490373
O O16 0.723763 0.698700 0.038915
O O17 0.000000 0.500000 0.000000
O O18 0.111383 0.610408 0.790278
#
# Coordination Sequence:
#
# PCOD9031516 Si02
#       8
#     2   2   2   2   2   2   2   2
#     4  11  22  36  69 103 137 181 244 300 343 419
#     4  12  29  48  73 110 147 186 241 306 362 428
#     4  10  22  43  67 102 147 185 238 293 361 425
#     4  12  25  43  70 104 145 186 234 301 362 426
#     4  11  23  44  71 103 139 192 243 290 353 437
#     4  12  24  41  71 103 139 187 240 288 360 428
#     4  12  25  46  76 105 144 189 245 299 354 430
#     4  10  23  44  74 102 140 192 240 295 356 433
#
# _framework density 23.742647000000002
#
# number of rings (size 3 to 8) (size 9 to 14) (size 15 to 20)
#    0.000    0.750    5.000    1.875    5.250    0.000 
#    2.250    2.500    0.000    0.000    0.000    0.000 
#    0.000    0.000    0.000    0.000    0.000    0.000 
#
# Total GULP energy -89342.093784 kJ/mol
# GULP energy per Si atom -5583.880861 kJ/mol
# Density = 2.368861 g / cm^3
# Si number density = 23.742647 Si / 1000 Ang^3
#
#
#
# Elastic Constant Matrix: (Units=GPa)
#
#
# Indices 1 2 3 4 5 6 
#
# 1 63.3865 29.0164 13.1484 6.4148 -1.7464 -10.3530
# 2 29.0164 124.2035 26.5079 -10.6467 6.7743 -9.6483
# 3 13.1484 26.5079 75.0261 -12.1970 2.5369 -9.7409
# 4 6.4148 -10.6467 -12.1970 39.3298 -15.3038 -6.3597
# 5 -1.7464 6.7743 2.5369 -15.3038 26.0765 -2.0713
# 6 -10.3530 -9.6483 -9.7409 -6.3597 -2.0713 38.8310
#
#
#
# Elastic Compliance Matrix: (Units=1/GPa)
#
#
# Indices 1 2 3 4 5 6 
#
# 1 0.019040 -0.004143 -0.002232 -0.004386 0.000216 0.002780
# 2 -0.004143 0.009839 -0.002173 0.002414 -0.001115 0.001131
# 3 -0.002232 -0.002173 0.015990 0.006589 0.003053 0.004118
# 4 -0.004386 0.002414 0.006589 0.038730 0.021850 0.008592
# 5 0.000216 -0.001115 0.003053 0.021850 0.051726 0.006884
# 6 0.002780 0.001131 0.004118 0.008592 0.006884 0.029582
#
#
# Mechanical properties :
#
#
# Convention : Reuss Voigt Hill
#
# Bulk Modulus (GPa) = 36.00828 44.44018 40.22423
# Shear Modulus (GPa) = 26.14224 33.77702 29.95963
#
# Velocity S-wave (km/s) = 3.32183 3.77587 3.55610
# Velocity P-wave (km/s) = 5.46916 6.14554 5.81719
#
# Compressibility (1/GPa) = 0.02777139
#
# Stress axis : x y z
#
# Youngs Moduli (GPa) = 52.52129 101.63964 62.53824
#
# Poissons Ratio (x) = 0.42114 0.13960
# Poissons Ratio (y) = 0.21762 0.13590
# Poissons Ratio (z) = 0.11724 0.22087
#
# Static dielectric constant tensor:
#      x y z
#    x 2.011210 0.030320 0.021840 
#    y 0.030320 1.917060 0.025590 
#    z 0.021840 0.025590 1.907660 
# 
# From -- ./inp_files/189158.got.cif
#   From: 2010.05.17/outbox.cif.g08.bks.cpg/sg2_95_cif.got.tgz:189158.got - 2010.06.03 11:33:40.
