data_PCOD9031387
_publ_section_title
;
Structure prediction by ZEFSAII (Michael W. Deem and Ramdas Pophale) SiO2 
 PCOD9031387
Probable space group: P -1
;
_chemical_formula_sum "Si O2"
_cell_formula_units_Z 16
_cell_length_a 5.234089
_cell_length_b 25.819252
_cell_length_c 5.867456
_cell_angle_alpha 53.027171
_cell_angle_beta 85.284972
_cell_angle_gamma 87.671100
_cell_volume 631.305527
_symmetry_space_group_name_H-M "P -1"
_symmetry_group_IT_number 2
_symmetry_cell_setting 'triclinic'
loop_
_space_group_symop_operation_xyz
x,y,z
-x,-y,-z
loop_
_atom_site_type_symbol
_atom_site_label
_atom_site_fract_x
_atom_site_fract_y
_atom_site_fract_z
Si Si1 0.493623 0.562741 0.677305
Si Si2 0.354241 0.660853 0.792003
Si Si3 0.294191 0.273232 0.025971
Si Si4 0.415297 0.896542 0.166828
Si Si5 0.995467 0.396357 0.680910
Si Si6 0.314657 0.779327 0.218229
Si Si7 0.007824 0.145813 0.321106
Si Si8 0.214807 0.022978 0.743918
O O1 0.510896 0.622148 0.695134
O O2 0.223192 0.573730 0.541852
O O3 0.735465 0.566113 0.477179
O O4 0.500000 0.500000 0.000000
O O5 0.557312 0.689192 0.883812
O O6 0.209920 0.724424 0.541075
O O7 0.146230 0.611181 0.046327
O O8 0.193147 0.200681 0.269087
O O9 0.508048 0.260382 0.857380
O O10 0.071221 0.320975 0.829403
O O11 0.488715 0.833211 0.190638
O O12 0.189999 0.870640 0.418140
O O13 0.603052 0.932212 0.232288
O O14 0.339330 0.955217 0.845630
O O15 0.116049 0.819817 0.978086
O O16 0.116884 0.075230 0.432621
O O17 0.000000 0.000000 0.000000
#
# Coordination Sequence:
#
# PCOD9031387 Si02
#       8
#     2   2   2   2   2   2   2   2
#     4  12  29  53  83 118 156 202 255 307 377 456
#     4  12  26  48  78 107 158 203 245 321 376 444
#     4  12  25  45  70 107 148 192 256 309 375 450
#     4  10  22  43  66  94 137 190 244 315 385 450
#     4  12  26  53  75 118 155 197 258 310 369 459
#     4  12  24  42  68 105 141 195 251 311 382 449
#     4  11  23  41  65  99 141 184 253 314 372 464
#     4   9  20  41  65  93 135 187 245 311 384 456
#
# _framework density 25.344303
#
# number of rings (size 3 to 8) (size 9 to 14) (size 15 to 20)
#    0.000    0.750    2.500    4.875    1.750    5.500 
#    2.250    8.750    0.000    0.000    0.000    0.000 
#    0.000    0.000    0.000    0.000    0.000    0.000 
#
# Total GULP energy -89531.607273 kJ/mol
# GULP energy per Si atom -5595.725455 kJ/mol
# Density = 2.528662 g / cm^3
# Si number density = 25.344303 Si / 1000 Ang^3
#
#
#
# Elastic Constant Matrix: (Units=GPa)
#
#
# Indices 1 2 3 4 5 6 
#
# 1 104.2258 6.8194 57.5766 -8.7770 6.9865 -5.0964
# 2 6.8194 69.5655 22.5198 -15.1442 16.9368 0.4586
# 3 57.5766 22.5198 168.5541 -48.0319 23.7944 -9.1263
# 4 -8.7770 -15.1442 -48.0319 40.3184 -5.2604 0.2659
# 5 6.9865 16.9368 23.7944 -5.2604 57.0482 -10.8644
# 6 -5.0964 0.4586 -9.1263 0.2659 -10.8644 19.5628
#
#
#
# Elastic Compliance Matrix: (Units=1/GPa)
#
#
# Indices 1 2 3 4 5 6 
#
# 1 0.012183 -0.000486 -0.005151 -0.003583 0.000703 0.001221
# 2 -0.000486 0.016904 0.000061 0.005672 -0.005111 -0.003410
# 3 -0.005151 0.000061 0.011777 0.012567 -0.002664 0.002500
# 4 -0.003583 0.005672 0.012567 0.040825 -0.002141 0.003053
# 5 0.000703 -0.005111 -0.002664 -0.002141 0.022031 0.011324
# 6 0.001221 -0.003410 0.002500 0.003053 0.011324 0.058929
#
#
# Mechanical properties :
#
#
# Convention : Reuss Voigt Hill
#
# Bulk Modulus (GPa) = 33.65677 57.35299 45.50488
# Shear Modulus (GPa) = 27.21753 40.41454 33.81604
#
# Velocity S-wave (km/s) = 3.28061 3.99760 3.65672
# Velocity P-wave (km/s) = 5.25914 6.63223 5.98519
#
# Compressibility (1/GPa) = 0.02971171
#
# Stress axis : x y z
#
# Youngs Moduli (GPa) = 82.08474 59.15592 84.91247
#
# Poissons Ratio (x) = 0.02875 0.43735
# Poissons Ratio (y) = 0.03990 -0.00514
# Poissons Ratio (z) = 0.42278 -0.00358
#
# Static dielectric constant tensor:
#      x y z
#    x 2.050150 -0.034950 0.078200 
#    y -0.034950 1.895030 0.116700 
#    z 0.078200 0.116700 1.893780 
# 
# From -- ./inp_files/14287.got.cif
#   From: 2010.05.17/outbox.cif.g08.bks.cpg/sg2_8_cif.got.tgz:14287.got - 2010.06.03 11:33:40.
