data_PCOD9031446
_publ_section_title
;
Structure prediction by ZEFSAII (Michael W. Deem and Ramdas Pophale) SiO2 
 PCOD9031446
Probable space group: P -1
;
_chemical_formula_sum "Si O2"
_cell_formula_units_Z 12
_cell_length_a 13.681824
_cell_length_b 9.107815
_cell_length_c 12.240454
_cell_angle_alpha 66.272520
_cell_angle_beta 147.445135
_cell_angle_gamma 134.797966
_cell_volume 503.866745
_symmetry_space_group_name_H-M "P -1"
_symmetry_group_IT_number 2
_symmetry_cell_setting 'triclinic'
loop_
_space_group_symop_operation_xyz
x,y,z
-x,-y,-z
loop_
_atom_site_type_symbol
_atom_site_label
_atom_site_fract_x
_atom_site_fract_y
_atom_site_fract_z
Si Si1 0.726666 0.894965 0.075481
Si Si2 0.587382 0.998411 0.250575
Si Si3 0.294681 0.851509 0.453181
Si Si4 0.698340 0.730988 0.378744
Si Si5 0.824902 0.771845 0.977809
Si Si6 0.192506 0.471580 0.618987
O O1 0.658231 0.039709 0.982364
O O2 0.767077 0.837543 0.012295
O O3 0.414789 0.627267 0.878725
O O4 0.024215 0.075282 0.352357
O O5 0.594969 0.967619 0.396498
O O6 0.880588 0.271252 0.421136
O O7 0.586323 0.837155 0.227371
O O8 0.258139 0.651782 0.535296
O O9 0.500000 0.000000 0.500000
O O10 0.005465 0.734598 0.184731
O O11 0.449664 0.464090 0.269456
O O12 0.769328 0.678952 0.352666
O O13 0.000000 0.000000 0.000000
#
# Coordination Sequence:
#
# PCOD9031446 Si02
#       6
#     2   2   2   2   2   2
#     4  10  22  43  66  97 137 176 229 274 337 396
#     4  11  23  46  69 103 138 182 226 281 338 401
#     4  11  22  45  73  96 134 185 224 280 346 398
#     4  11  24  43  68 103 135 178 229 281 337 403
#     4  11  24  46  65  97 142 179 227 282 340 410
#     4  10  24  45  68 102 142 177 228 280 337 403
#
# _framework density 23.815819999999999
#
# number of rings (size 3 to 8) (size 9 to 14) (size 15 to 20)
#    0.000    1.333    1.667    5.500    2.333    2.000 
#   12.000    1.667    0.000    0.000    0.000    0.000 
#    0.000    0.000    0.000    0.000    0.000    0.000 
#
# Total GULP energy -66968.044221 kJ/mol
# GULP energy per Si atom -5580.670352 kJ/mol
# Density = 2.376161 g / cm^3
# Si number density = 23.815820 Si / 1000 Ang^3
#
#
#
# Elastic Constant Matrix: (Units=GPa)
#
#
# Indices 1 2 3 4 5 6 
#
# 1 112.9823 52.4347 59.5926 2.1552 22.3361 -11.2194
# 2 52.4347 136.2732 86.0777 10.9878 11.1310 -6.2874
# 3 59.5926 86.0777 145.8922 1.7736 15.9785 3.9585
# 4 2.1552 10.9878 1.7736 43.5060 -11.9871 14.3604
# 5 22.3361 11.1310 15.9785 -11.9871 44.9303 0.0791
# 6 -11.2194 -6.2874 3.9585 14.3604 0.0791 48.9323
#
#
#
# Elastic Compliance Matrix: (Units=1/GPa)
#
#
# Indices 1 2 3 4 5 6 
#
# 1 0.013250 -0.001832 -0.003795 -0.002879 -0.005559 0.003964
# 2 -0.001832 0.012872 -0.006770 -0.004145 -0.000982 0.002999
# 3 -0.003795 -0.006770 0.012486 0.002479 -0.000209 -0.003477
# 4 -0.002879 -0.004145 0.002479 0.030108 0.009627 -0.010245
# 5 -0.005559 -0.000982 -0.000209 0.009627 0.027913 -0.004254
# 6 0.003964 0.002999 -0.003477 -0.010245 -0.004254 0.025025
#
#
# Mechanical properties :
#
#
# Convention : Reuss Voigt Hill
#
# Bulk Modulus (GPa) = 72.38903 87.92863 80.15883
# Shear Modulus (GPa) = 33.10081 40.60991 36.85536
#
# Velocity S-wave (km/s) = 3.73214 4.13384 3.93812
# Velocity P-wave (km/s) = 7.00237 7.73210 7.37626
#
# Compressibility (1/GPa) = 0.01381425
#
# Stress axis : x y z
#
# Youngs Moduli (GPa) = 75.46925 77.68744 80.09046
#
# Poissons Ratio (x) = 0.14234 0.30395
# Poissons Ratio (y) = 0.13828 0.54219
# Poissons Ratio (z) = 0.28642 0.52592
#
# Static dielectric constant tensor:
#      x y z
#    x 1.931330 0.000550 -0.022480 
#    y 0.000550 2.019390 -0.115150 
#    z -0.022480 -0.115150 2.013360 
# 
# From -- ./inp_files/529591.got.cif
#   From: 2010.05.17/outbox.cif.g08.bks.cpg/sg2_265_cif.got.tgz:529591.got - 2010.06.03 11:33:40.
