data_PCOD9031314
_publ_section_title
;
Structure prediction by ZEFSAII (Michael W. Deem and Ramdas Pophale) SiO2 
 PCOD9031314
Probable space group: P -1
;
_chemical_formula_sum "Si O2"
_cell_formula_units_Z 16
_cell_length_a 14.791047
_cell_length_b 26.850974
_cell_length_c 18.599961
_cell_angle_alpha 20.562562
_cell_angle_beta 19.985785
_cell_angle_gamma 20.007743
_cell_volume 769.168424
_symmetry_space_group_name_H-M "P -1"
_symmetry_group_IT_number 2
_symmetry_cell_setting 'triclinic'
loop_
_space_group_symop_operation_xyz
x,y,z
-x,-y,-z
loop_
_atom_site_type_symbol
_atom_site_label
_atom_site_fract_x
_atom_site_fract_y
_atom_site_fract_z
Si Si1 0.409019 0.366334 0.011105
Si Si2 0.506651 0.829187 0.206493
Si Si3 0.690874 0.596736 0.239929
Si Si4 0.317913 0.293662 0.498597
Si Si5 0.447124 0.839552 0.960591
Si Si6 0.065582 0.885879 0.945044
Si Si7 0.155904 0.988105 0.582235
Si Si8 0.242653 0.447079 0.497706
O O1 0.607273 0.252416 0.083356
O O2 0.046576 0.459523 0.165893
O O3 0.522715 0.250974 0.013077
O O4 0.521147 0.494920 0.736440
O O5 0.609594 0.723808 0.196720
O O6 0.704449 0.702367 0.291369
O O7 0.150044 0.885541 0.399851
O O8 0.500000 0.000000 0.000000
O O9 0.500000 0.500000 0.500000
O O10 0.621672 0.708637 0.069879
O O11 0.310344 0.399415 0.428270
O O12 0.103669 0.404986 0.443623
O O13 0.659623 0.179633 0.372086
O O14 0.154685 0.192995 0.784145
O O15 0.614105 0.942904 0.681184
O O16 0.105274 0.961441 0.079148
O O17 0.080177 0.952309 0.766450
#
# Coordination Sequence:
#
# PCOD9031314 Si02
#       8
#     2   2   2   2   2   2   2   2
#     4  11  24  41  69  96 128 180 223 271 330 401
#     4  12  26  41  68 102 135 176 230 277 325 399
#     4  12  26  46  67  98 137 178 225 279 331 397
#     4   9  22  42  69  94 136 173 208 276 337 392
#     4  11  23  45  68  94 133 175 220 273 339 393
#     4  10  22  43  66 103 132 165 225 270 334 397
#     4  11  23  42  69  95 135 178 208 278 339 390
#     4  10  22  44  63  98 133 169 222 274 329 395
#
# _framework density 20.801684999999999
#
# number of rings (size 3 to 8) (size 9 to 14) (size 15 to 20)
#    0.000    1.250    1.250    3.750    5.250    1.000 
#    2.250    2.500    0.000    0.000    0.000    0.000 
#    0.000    0.000    0.000    0.000    0.000    0.000 
#
# Total GULP energy -89312.129362 kJ/mol
# GULP energy per Si atom -5582.008085 kJ/mol
# Density = 2.075434 g / cm^3
# Si number density = 20.801685 Si / 1000 Ang^3
#
#
#
# Elastic Constant Matrix: (Units=GPa)
#
#
# Indices 1 2 3 4 5 6 
#
# 1 -105.5421 -162.9672 -149.7676 -29.6458 15.1892 18.9046
# 2 -162.9672 -104.1450 -164.6823 -18.6374 21.5820 14.0122
# 3 -149.7676 -164.6823 -123.3369 -44.5989 25.2221 8.8165
# 4 -29.6458 -18.6374 -44.5989 25.5618 0.6361 0.6887
# 5 15.1892 21.5820 25.2221 0.6361 28.7994 -16.5635
# 6 18.9046 14.0122 8.8165 0.6887 -16.5635 40.4257
#
#
#
# Elastic Compliance Matrix: (Units=1/GPa)
#
#
# Indices 1 2 3 4 5 6 
#
# 1 0.017810 -0.002692 -0.014739 -0.007072 0.004387 -0.002263
# 2 -0.002692 0.013758 -0.010785 -0.011896 0.000352 -0.000811
# 3 -0.014739 -0.010785 0.020813 0.011161 0.001014 0.006317
# 4 -0.007072 -0.011896 0.011161 0.041396 0.005786 0.006662
# 5 0.004387 0.000352 0.001014 0.005786 0.038850 0.013424
# 6 -0.002263 -0.000811 0.006317 0.006662 0.013424 0.030085
#
#
# Mechanical properties :
#
#
# Convention : Reuss Voigt Hill
#
# Bulk Modulus (GPa) = -246.80464 -143.09538 -194.95001
# Shear Modulus (GPa) = 22.95751 28.58360 25.77055
#
# Velocity S-wave (km/s) = 3.32571 3.71091 3.52357
# Velocity P-wave (km/s) = 10.20573 7.11186 8.79589
#
# Compressibility (1/GPa) = -0.00405179
#
# Stress axis : x y z
#
# Youngs Moduli (GPa) = 56.14898 72.68537 48.04640
#
# Poissons Ratio (x) = 0.19569 0.70815
# Poissons Ratio (y) = 0.15117 0.51819
# Poissons Ratio (z) = 0.82757 0.78392
#
# Static dielectric constant tensor:
#      x y z
#    x 1.748960 0.029320 -0.023010 
#    y 0.029320 1.798120 -0.035530 
#    z -0.023010 -0.035530 1.730100 
# 
# From -- ./inp_files/364227.got.cif
#   From: 2010.05.17/outbox.cif.g08.bks.cpg/sg2_183_cif.got.tgz:364227.got - 2010.06.03 11:33:40.
