data_PCOD9031112
_publ_section_title
;
Structure prediction by ZEFSAII (Michael W. Deem and Ramdas Pophale) SiO2 
 PCOD9031112
Probable space group: P -1
;
_chemical_formula_sum "Si O2"
_cell_formula_units_Z 14
_cell_length_a 11.769185
_cell_length_b 8.989302
_cell_length_c 11.375554
_cell_angle_alpha 57.432366
_cell_angle_beta 67.405430
_cell_angle_gamma 36.738927
_cell_volume 604.035303
_symmetry_space_group_name_H-M "P -1"
_symmetry_group_IT_number 2
_symmetry_cell_setting 'triclinic'
loop_
_space_group_symop_operation_xyz
x,y,z
-x,-y,-z
loop_
_atom_site_type_symbol
_atom_site_label
_atom_site_fract_x
_atom_site_fract_y
_atom_site_fract_z
Si Si1 0.311751 0.929632 0.389867
Si Si2 0.220644 0.784438 0.272054
Si Si3 0.842828 0.281807 0.134119
Si Si4 0.291665 0.408000 0.706014
Si Si5 0.405003 0.188693 0.154530
Si Si6 0.014141 0.666125 0.494275
Si Si7 0.441677 0.667239 0.834085
O O1 0.276115 0.171395 0.261368
O O2 0.196684 0.037495 0.509409
O O3 0.234142 0.880785 0.344756
O O4 0.542502 0.672570 0.400679
O O5 0.130073 0.692300 0.370604
O O6 0.424913 0.547944 0.231749
O O7 0.069809 0.044961 0.134300
O O8 0.793807 0.380896 0.246597
O O9 0.770400 0.166122 0.177246
O O10 0.720037 0.551072 0.989643
O O11 0.132859 0.516639 0.632652
O O12 0.412956 0.115412 0.841633
O O13 0.500262 0.196971 0.218456
O O14 0.000000 0.500000 0.500000
O O15 0.500000 0.500000 0.000000
#
# Coordination Sequence:
#
# PCOD9031112 Si02
#       7
#     2   2   2   2   2   2   2
#     4  10  23  44  64 100 128 176 223 261 330 391
#     4  12  25  41  69  99 131 176 224 265 332 390
#     4  11  22  42  69  98 135 173 215 277 323 396
#     4  10  23  43  67  93 133 176 218 266 329 390
#     4   9  22  42  65  98 135 168 222 260 338 380
#     4  12  27  45  66  97 134 173 226 275 325 389
#     4  10  22  43  64  98 134 171 217 268 329 387
#
# _framework density 23.177454999999998
#
# number of rings (size 3 to 8) (size 9 to 14) (size 15 to 20)
#    0.857    0.571    2.857    1.714    2.000    5.143 
#    5.143    0.000    0.000    0.000    0.000    0.000 
#    0.000    0.000    0.000    0.000    0.000    0.000 
#
# Total GULP energy -78199.081594 kJ/mol
# GULP energy per Si atom -5585.648685 kJ/mol
# Density = 2.312470 g / cm^3
# Si number density = 23.177455 Si / 1000 Ang^3
#
#
#
# Elastic Constant Matrix: (Units=GPa)
#
#
# Indices 1 2 3 4 5 6 
#
# 1 139.2073 10.5266 17.8644 -16.5755 5.4018 17.1241
# 2 10.5266 31.2981 -14.0136 -4.1931 -0.5103 -2.0167
# 3 17.8644 -14.0136 65.3013 -15.5935 -4.5038 6.7679
# 4 -16.5755 -4.1931 -15.5935 35.0506 -3.0603 2.4721
# 5 5.4018 -0.5103 -4.5038 -3.0603 33.8695 -2.3483
# 6 17.1241 -2.0167 6.7679 2.4721 -2.3483 45.2112
#
#
#
# Elastic Compliance Matrix: (Units=1/GPa)
#
#
# Indices 1 2 3 4 5 6 
#
# 1 0.008553 -0.003790 -0.002296 0.002653 -0.001716 -0.003299
# 2 -0.003790 0.039718 0.011689 0.008390 0.003597 0.001185
# 3 -0.002296 0.011689 0.021439 0.010368 0.004180 -0.002168
# 4 0.002653 0.008390 0.010368 0.036034 0.004065 -0.003942
# 5 -0.001716 0.003597 0.004180 0.004065 0.030885 0.001566
# 6 -0.003299 0.001185 -0.002168 -0.003942 0.001566 0.024042
#
#
# Mechanical properties :
#
#
# Convention : Reuss Voigt Hill
#
# Bulk Modulus (GPa) = 12.35845 29.39573 20.87709
# Shear Modulus (GPa) = 28.33870 37.58821 32.96345
#
# Velocity S-wave (km/s) = 3.50048 4.03147 3.77533
# Velocity P-wave (km/s) = 4.65634 5.86351 5.29445
#
# Compressibility (1/GPa) = 0.08091631
#
# Stress axis : x y z
#
# Youngs Moduli (GPa) = 116.91765 25.17735 46.64386
#
# Poissons Ratio (x) = 0.09542 0.10710
# Poissons Ratio (y) = 0.44311 -0.54522
# Poissons Ratio (z) = 0.26845 -0.29430
#
# Static dielectric constant tensor:
#      x y z
#    x 1.852270 -0.002550 -0.017210 
#    y -0.002550 1.866730 -0.050750 
#    z -0.017210 -0.050750 1.929150 
# 
# From -- ./inp_files/387671.got.cif
#   From: 2010.05.17/outbox.cif.g08.bks.cpg/sg2_194_cif.got.tgz:387671.got - 2010.06.03 11:33:40.
