data_PCOD9031868
_publ_section_title
;
Structure prediction by ZEFSAII (Michael W. Deem and Ramdas Pophale) SiO2 
 PCOD9031868
Probable space group: P -1
;
_chemical_formula_sum "Si O2"
_cell_formula_units_Z 16
_cell_length_a 12.474142
_cell_length_b 12.248795
_cell_length_c 8.773583
_cell_angle_alpha 119.149670
_cell_angle_beta 128.126630
_cell_angle_gamma 93.915003
_cell_volume 776.854736
_symmetry_space_group_name_H-M "P -1"
_symmetry_group_IT_number 2
_symmetry_cell_setting 'triclinic'
loop_
_space_group_symop_operation_xyz
x,y,z
-x,-y,-z
loop_
_atom_site_type_symbol
_atom_site_label
_atom_site_fract_x
_atom_site_fract_y
_atom_site_fract_z
Si Si1 0.608413 0.645417 0.977009
Si Si2 0.235507 0.063901 0.158733
Si Si3 0.906936 0.872173 0.206408
Si Si4 0.917097 0.529348 0.587058
Si Si5 0.872071 0.179058 0.859739
Si Si6 0.309576 0.346264 0.593390
Si Si7 0.385965 0.774550 0.811451
Si Si8 0.467223 0.942153 0.678078
O O1 0.476936 0.469106 0.739955
O O2 0.512392 0.723383 0.900942
O O3 0.765033 0.721463 0.059043
O O4 0.659411 0.674197 0.218331
O O5 0.236874 0.192329 0.340721
O O6 0.415893 0.099239 0.326722
O O7 0.134436 0.912035 0.058813
O O8 0.169413 0.066240 0.936780
O O9 0.025215 0.840670 0.193493
O O10 0.000000 0.000000 0.500000
O O11 0.807261 0.591726 0.476313
O O12 0.791938 0.369958 0.439930
O O13 0.000000 0.500000 0.500000
O O14 0.044254 0.651062 0.899574
O O15 0.689503 0.104345 0.589743
O O16 0.410138 0.858867 0.732903
O O17 0.425085 0.884623 0.062836
#
# Coordination Sequence:
#
# PCOD9031868 Si02
#       8
#     2   2   2   2   2   2   2   2
#     4  10  22  43  68  97 130 178 226 268 337 403
#     4  12  24  44  68  98 134 179 228 270 336 403
#     4  12  25  40  68 101 137 171 222 284 336 391
#     4  11  25  44  67  98 139 179 216 284 346 396
#     4  12  27  43  69 105 138 174 230 284 333 400
#     4  10  23  42  71  97 132 178 223 278 325 414
#     4  10  22  44  66  96 136 176 232 269 338 407
#     4  11  24  42  71  95 132 185 222 283 329 405
#
# _framework density 20.595870000000001
#
# number of rings (size 3 to 8) (size 9 to 14) (size 15 to 20)
#    0.000    1.000    2.500    3.750    3.500    6.000 
#    0.000    0.000    0.000    0.000    0.000    0.000 
#    0.000    0.000    0.000    0.000    0.000    0.000 
#
# Total GULP energy -89505.266355 kJ/mol
# GULP energy per Si atom -5594.079147 kJ/mol
# Density = 2.054899 g / cm^3
# Si number density = 20.595870 Si / 1000 Ang^3
#
#
#
# Elastic Constant Matrix: (Units=GPa)
#
#
# Indices 1 2 3 4 5 6 
#
# 1 125.3129 25.2270 36.0698 12.6799 17.2477 -3.3058
# 2 25.2270 79.8902 48.6338 7.5458 5.4612 12.3370
# 3 36.0698 48.6338 117.8229 10.4449 6.3599 4.0668
# 4 12.6799 7.5458 10.4449 33.6916 -3.4564 -2.8968
# 5 17.2477 5.4612 6.3599 -3.4564 21.7302 0.1925
# 6 -3.3058 12.3370 4.0668 -2.8968 0.1925 21.6113
#
#
#
# Elastic Compliance Matrix: (Units=1/GPa)
#
#
# Indices 1 2 3 4 5 6 
#
# 1 0.010345 -0.001665 -0.001827 -0.003546 -0.007844 0.002471
# 2 -0.001665 0.019056 -0.006670 -0.002641 -0.001846 -0.010216
# 3 -0.001827 -0.006670 0.011927 -0.001485 -0.000610 0.001090
# 4 -0.003546 -0.002641 -0.001485 0.033496 0.009191 0.005653
# 5 -0.007844 -0.001846 -0.000610 0.009191 0.054342 0.000716
# 6 0.002471 -0.010216 0.001090 0.005653 0.000716 0.053028
#
#
# Mechanical properties :
#
#
# Convention : Reuss Voigt Hill
#
# Bulk Modulus (GPa) = 47.60974 60.32080 53.96527
# Shear Modulus (GPa) = 23.86412 29.61299 26.73855
#
# Velocity S-wave (km/s) = 3.40764 3.79596 3.60703
# Velocity P-wave (km/s) = 6.21683 6.96878 6.60352
#
# Compressibility (1/GPa) = 0.02100411
#
# Stress axis : x y z
#
# Youngs Moduli (GPa) = 96.66809 52.47594 83.84498
#
# Poissons Ratio (x) = 0.08735 0.15321
# Poissons Ratio (y) = 0.16092 0.55924
# Poissons Ratio (z) = 0.17664 0.35001
#
# Static dielectric constant tensor:
#      x y z
#    x 1.724920 0.007650 0.012010 
#    y 0.007650 1.713040 0.015400 
#    z 0.012010 0.015400 1.747110 
# 
# From -- ./inp_files/263204.got.cif
#   From: 2010.05.17/outbox.cif.g08.bks.cpg/sg2_132_cif.got.tgz:263204.got - 2010.06.03 11:33:40.
