data_PCOD9031954
_publ_section_title
;
Structure prediction by ZEFSAII (Michael W. Deem and Ramdas Pophale) SiO2 
 PCOD9031954
Probable space group: P -1
;
_chemical_formula_sum "Si O2"
_cell_formula_units_Z 14
_cell_length_a 8.512127
_cell_length_b 11.464735
_cell_length_c 10.016512
_cell_angle_alpha 79.440020
_cell_angle_beta 116.109817
_cell_angle_gamma 56.754142
_cell_volume 605.531433
_symmetry_space_group_name_H-M "P -1"
_symmetry_group_IT_number 2
_symmetry_cell_setting 'triclinic'
loop_
_space_group_symop_operation_xyz
x,y,z
-x,-y,-z
loop_
_atom_site_type_symbol
_atom_site_label
_atom_site_fract_x
_atom_site_fract_y
_atom_site_fract_z
Si Si1 0.455851 0.885534 0.458831
Si Si2 0.434136 0.527582 0.625296
Si Si3 0.709182 0.670611 0.336428
Si Si4 0.032298 0.924155 0.383311
Si Si5 0.466597 0.176739 0.045975
Si Si6 0.822273 0.694280 0.850962
Si Si7 0.318364 0.509969 0.018232
O O1 0.593301 0.797320 0.390030
O O2 0.192086 0.943851 0.353573
O O3 0.615006 0.745443 0.663911
O O4 0.500000 0.000000 0.500000
O O5 0.500000 0.500000 0.500000
O O6 0.407008 0.405113 0.687686
O O7 0.188728 0.727897 0.503473
O O8 0.634785 0.483993 0.811010
O O9 0.644103 0.771035 0.154540
O O10 0.000000 0.500000 0.500000
O O11 0.763181 0.021551 0.200540
O O12 0.000000 0.000000 0.500000
O O13 0.404966 0.337859 0.043814
O O14 0.308698 0.180403 0.097531
O O15 0.024903 0.674216 0.850328
O O16 0.000000 0.500000 0.000000
O O17 0.500000 0.500000 0.000000
#
# Coordination Sequence:
#
# PCOD9031954 Si02
#       7
#     2   2   2   2   2   2   2
#     4  12  28  47  70 105 145 189 234 302 365 423
#     4  12  26  46  72 106 141 191 238 297 356 426
#     4  12  28  47  73 106 144 186 247 300 352 428
#     4  12  24  47  75 103 147 188 239 290 368 430
#     4  11  24  44  71 104 141 190 237 294 361 422
#     4  10  22  43  69 100 140 185 238 286 355 429
#     4  11  22  40  71 104 136 186 239 288 350 427
#
# _framework density 23.120189
#
# number of rings (size 3 to 8) (size 9 to 14) (size 15 to 20)
#    0.000    0.571    5.714    2.571    6.000    0.571 
#    2.571    1.429    0.000    0.000    0.000    0.000 
#    0.000    0.000    0.000    0.000    0.000    0.000 
#
# Total GULP energy -78221.730040 kJ/mol
# GULP energy per Si atom -5587.266431 kJ/mol
# Density = 2.306757 g / cm^3
# Si number density = 23.120189 Si / 1000 Ang^3
#
#
#
# Elastic Constant Matrix: (Units=GPa)
#
#
# Indices 1 2 3 4 5 6 
#
# 1 97.9972 19.6665 6.3972 3.6188 8.6613 -27.3806
# 2 19.6665 109.2698 23.2127 15.5848 6.9672 -11.3615
# 3 6.3972 23.2127 117.4850 10.9330 -8.1911 -32.2517
# 4 3.6188 15.5848 10.9330 45.7980 -15.4159 2.5485
# 5 8.6613 6.9672 -8.1911 -15.4159 34.5408 2.0357
# 6 -27.3806 -11.3615 -32.2517 2.5485 2.0357 47.4192
#
#
#
# Elastic Compliance Matrix: (Units=1/GPa)
#
#
# Indices 1 2 3 4 5 6 
#
# 1 0.013398 -0.001122 0.001993 -0.003227 -0.004643 0.009196
# 2 -0.001122 0.010795 -0.001578 -0.004791 -0.004486 0.001316
# 3 0.001993 -0.001578 0.011373 -0.002517 0.000885 0.008606
# 4 -0.003227 -0.004791 -0.002517 0.029706 0.014847 -0.006957
# 5 -0.004643 -0.004486 0.000885 0.014847 0.038186 -0.005591
# 6 0.009196 0.001316 0.008606 -0.006957 -0.005591 0.033180
#
#
# Mechanical properties :
#
#
# Convention : Reuss Voigt Hill
#
# Bulk Modulus (GPa) = 29.27980 47.03387 38.15683
# Shear Modulus (GPa) = 33.45894 43.91665 38.68780
#
# Velocity S-wave (km/s) = 3.80830 4.36305 4.09508
# Velocity P-wave (km/s) = 5.65944 6.76527 6.23691
#
# Compressibility (1/GPa) = 0.03415324
#
# Stress axis : x y z
#
# Youngs Moduli (GPa) = 74.63572 92.63541 87.92641
#
# Poissons Ratio (x) = 0.10398 -0.17526
# Poissons Ratio (y) = 0.08377 0.13871
# Poissons Ratio (z) = -0.14877 0.14613
#
# Static dielectric constant tensor:
#      x y z
#    x 2.231220 0.071740 -0.120340 
#    y 0.071740 1.946850 -0.083290 
#    z -0.120340 -0.083290 1.954180 
# 
# From -- ./inp_files/188770.got.cif
#   From: 2010.05.17/outbox.cif.g08.bks.cpg/sg2_95_cif.got.tgz:188770.got - 2010.06.03 11:33:40.
