data_PCOD9031606
_publ_section_title
;
Structure prediction by ZEFSAII (Michael W. Deem and Ramdas Pophale) SiO2 
 PCOD9031606
Probable space group: P -1
;
_chemical_formula_sum "Si O2"
_cell_formula_units_Z 12
_cell_length_a 17.710715
_cell_length_b 8.618475
_cell_length_c 5.576128
_cell_angle_alpha 72.909715
_cell_angle_beta 87.387833
_cell_angle_gamma 37.108595
_cell_volume 463.791515
_symmetry_space_group_name_H-M "P -1"
_symmetry_group_IT_number 2
_symmetry_cell_setting 'triclinic'
loop_
_space_group_symop_operation_xyz
x,y,z
-x,-y,-z
loop_
_atom_site_type_symbol
_atom_site_label
_atom_site_fract_x
_atom_site_fract_y
_atom_site_fract_z
Si Si1 0.736244 0.181535 0.266605
Si Si2 0.260824 0.287578 0.949817
Si Si3 0.004653 0.394205 0.297860
Si Si4 0.156111 0.753280 0.103496
Si Si5 0.578792 0.210282 0.502877
Si Si6 0.628654 0.650834 0.367514
O O1 0.803212 0.138505 0.041868
O O2 0.654351 0.157772 0.289533
O O3 0.640258 0.491903 0.235558
O O4 0.857489 0.943949 0.542337
O O5 0.128528 0.475423 0.744009
O O6 0.218863 0.506158 0.034836
O O7 0.376915 0.160645 0.829096
O O8 0.312566 0.047915 0.209700
O O9 0.000000 0.500000 0.500000
O O10 0.000000 0.500000 0.000000
O O11 0.228729 0.599116 0.412024
O O12 0.000000 0.000000 0.000000
O O13 0.500000 0.500000 0.500000
O O14 0.479757 0.231475 0.488409
#
# Coordination Sequence:
#
# PCOD9031606 Si02
#       6
#     2   2   2   2   2   2
#     4  10  23  42  65 101 135 182 232 292 354 424
#     4  11  24  44  66 100 136 180 239 290 358 429
#     4  12  27  43  72 107 145 186 237 301 367 428
#     4  11  24  41  69  99 140 180 231 291 358 428
#     4  10  22  43  67  95 139 181 240 294 354 420
#     4  10  23  42  69  95 136 187 231 293 355 424
#
# _framework density 25.873694
#
# number of rings (size 3 to 8) (size 9 to 14) (size 15 to 20)
#    0.000    1.333    1.667    2.500    7.000    4.000 
#    0.000    3.333    0.000    0.000    0.000    0.000 
#    0.000    0.000    0.000    0.000    0.000    0.000 
#
# Total GULP energy -67142.265479 kJ/mol
# GULP energy per Si atom -5595.188790 kJ/mol
# Density = 2.581480 g / cm^3
# Si number density = 25.873694 Si / 1000 Ang^3
#
#
#
# Elastic Constant Matrix: (Units=GPa)
#
#
# Indices 1 2 3 4 5 6 
#
# 1 175.3595 30.6320 34.1824 7.9646 -38.6606 -26.9169
# 2 30.6320 91.5160 21.2899 -4.7828 -8.6828 -0.4035
# 3 34.1824 21.2899 90.8830 -5.4334 -34.9631 1.1647
# 4 7.9646 -4.7828 -5.4334 40.8284 -7.5700 4.2216
# 5 -38.6606 -8.6828 -34.9631 -7.5700 54.9796 8.3621
# 6 -26.9169 -0.4035 1.1647 4.2216 8.3621 44.8416
#
#
#
# Elastic Compliance Matrix: (Units=1/GPa)
#
#
# Indices 1 2 3 4 5 6 
#
# 1 0.007800 -0.002057 -0.001273 -0.001724 0.003473 0.004212
# 2 -0.002057 0.012146 -0.002165 0.001555 -0.000520 -0.001118
# 3 -0.001273 -0.002165 0.016235 0.004417 0.010232 -0.003529
# 4 -0.001724 0.001555 0.004417 0.027280 0.006342 -0.004886
# 5 0.003473 -0.000520 0.010232 0.006342 0.028553 -0.004108
# 6 0.004212 -0.001118 -0.003529 -0.004886 -0.004108 0.026136
#
#
# Mechanical properties :
#
#
# Convention : Reuss Voigt Hill
#
# Bulk Modulus (GPa) = 39.69468 58.88525 49.28997
# Shear Modulus (GPa) = 36.35386 46.24020 41.29703
#
# Velocity S-wave (km/s) = 3.75247 4.23206 3.99946
# Velocity P-wave (km/s) = 5.84378 6.83290 6.35760
#
# Compressibility (1/GPa) = 0.02519229
#
# Stress axis : x y z
#
# Youngs Moduli (GPa) = 128.19917 82.33149 61.59653
#
# Poissons Ratio (x) = 0.16934 0.07841
# Poissons Ratio (y) = 0.26368 0.13333
# Poissons Ratio (z) = 0.16320 0.17821
#
# Static dielectric constant tensor:
#      x y z
#    x 2.051030 -0.039190 -0.041800 
#    y -0.039190 2.085810 0.044380 
#    z -0.041800 0.044380 2.041020 
# 
# From -- ./inp_files/22220.got.cif
#   From: 2010.05.17/outbox.cif.g08.bks.cpg/sg2_12_cif.got.tgz:22220.got - 2010.06.03 11:33:40.
