data_PCOD9031382
_publ_section_title
;
Structure prediction by ZEFSAII (Michael W. Deem and Ramdas Pophale) SiO2 
 PCOD9031382
Probable space group: P -1
;
_chemical_formula_sum "Si O2"
_cell_formula_units_Z 16
_cell_length_a 8.367436
_cell_length_b 14.691317
_cell_length_c 20.539150
_cell_angle_alpha 19.557689
_cell_angle_beta 102.714502
_cell_angle_gamma 101.749265
_cell_volume 824.427927
_symmetry_space_group_name_H-M "P -1"
_symmetry_group_IT_number 2
_symmetry_cell_setting 'triclinic'
loop_
_space_group_symop_operation_xyz
x,y,z
-x,-y,-z
loop_
_atom_site_type_symbol
_atom_site_label
_atom_site_fract_x
_atom_site_fract_y
_atom_site_fract_z
Si Si1 0.650284 0.376060 0.140115
Si Si2 0.618628 0.339108 0.473837
Si Si3 0.388862 0.426578 0.175938
Si Si4 0.720827 0.509022 0.733179
Si Si5 0.574308 0.924296 0.254853
Si Si6 0.643247 0.911913 0.121851
Si Si7 0.184627 0.174181 0.212688
Si Si8 0.159608 0.075180 0.620849
O O1 0.563526 0.303170 0.249622
O O2 0.724176 0.120972 0.280487
O O3 0.500000 0.500000 0.000000
O O4 0.782415 0.616462 0.985027
O O5 0.447584 0.420932 0.368292
O O6 0.568394 0.210983 0.625073
O O7 0.713822 0.622492 0.299343
O O8 0.711762 0.101619 0.603994
O O9 0.318712 0.385951 0.268801
O O10 0.253777 0.325018 0.181138
O O11 0.425155 0.749013 0.958307
O O12 0.863037 0.665114 0.602802
O O13 0.749320 0.183909 0.955172
O O14 0.570501 0.858083 0.223364
O O15 0.743311 0.839783 0.362897
O O16 0.500000 0.000000 0.000000
O O17 0.999363 0.089351 0.263459
#
# Coordination Sequence:
#
# PCOD9031382 Si02
#       8
#     2   2   2   2   2   2   2   2
#     4  10  17  32  53  78 105 135 179 220 256 298
#     4  10  19  35  55  80 104 137 181 226 259 308
#     4  10  18  33  55  80 108 141 172 227 263 302
#     4   9  20  35  55  79 107 136 182 220 269 305
#     4  10  17  33  58  79 104 135 178 223 265 305
#     4   9  19  35  58  82 101 129 182 233 263 300
#     4  11  21  32  52  80 116 139 181 208 260 325
#     4  11  21  33  52  81 110 149 169 211 265 326
#
# _framework density 19.407398000000001
#
# number of rings (size 3 to 8) (size 9 to 14) (size 15 to 20)
#    0.000    2.000    3.750    3.000    0.000    2.500 
#    0.000    1.250    0.000    0.000    0.000    0.000 
#    0.000    0.000    0.000    0.000    0.000    0.000 
#
# Total GULP energy -89142.879516 kJ/mol
# GULP energy per Si atom -5571.429970 kJ/mol
# Density = 1.936323 g / cm^3
# Si number density = 19.407398 Si / 1000 Ang^3
#
#
#
# Elastic Constant Matrix: (Units=GPa)
#
#
# Indices 1 2 3 4 5 6 
#
# 1 50.1882 7.5201 8.9607 2.6162 -27.1104 2.7409
# 2 7.5201 89.3554 23.6440 3.7400 -8.9123 -7.3072
# 3 8.9607 23.6440 75.0692 -11.2045 -8.6275 -3.8929
# 4 2.6162 3.7400 -11.2045 33.9238 -9.9188 -3.3022
# 5 -27.1104 -8.9123 -8.6275 -9.9188 25.7145 -0.0904
# 6 2.7409 -7.3072 -3.8929 -3.3022 -0.0904 6.1420
#
#
#
# Elastic Compliance Matrix: (Units=1/GPa)
#
#
# Indices 1 2 3 4 5 6 
#
# 1 0.052848 -0.000689 0.002117 0.013122 0.061197 -0.015106
# 2 -0.000689 0.013552 -0.003149 -0.000246 0.002870 0.014345
# 3 0.002117 -0.003149 0.017513 0.010387 0.011065 0.012155
# 4 0.013122 -0.000246 0.010387 0.044413 0.034453 0.024821
# 5 0.061197 0.002870 0.011065 0.034453 0.121417 0.003428
# 6 -0.015106 0.014345 0.012155 0.024821 0.003428 0.207722
#
#
# Mechanical properties :
#
#
# Convention : Reuss Voigt Hill
#
# Bulk Modulus (GPa) = 12.42673 32.76249 22.59461
# Shear Modulus (GPa) = 10.25158 24.78860 17.52009
#
# Velocity S-wave (km/s) = 2.30082 3.57778 3.00784
# Velocity P-wave (km/s) = 3.67088 5.82970 4.87138
#
# Compressibility (1/GPa) = 0.08047167
#
# Stress axis : x y z
#
# Youngs Moduli (GPa) = 18.92206 73.78920 57.10206
#
# Poissons Ratio (x) = 0.05081 -0.12089
# Poissons Ratio (y) = 0.01303 0.17982
# Poissons Ratio (z) = -0.04006 0.23237
#
# Static dielectric constant tensor:
#      x y z
#    x 1.681540 -0.006220 -0.025830 
#    y -0.006220 1.711590 -0.002710 
#    z -0.025830 -0.002710 1.756740 
# 
# From -- ./inp_files/225428.got.cif
#   From: 2010.05.17/outbox.cif.g08.bks.cpg/sg2_113_cif.got.tgz:225428.got - 2010.06.03 11:33:40.
