data_PCOD9031260
_publ_section_title
;
Structure prediction by ZEFSAII (Michael W. Deem and Ramdas Pophale) SiO2 
 PCOD9031260
Probable space group: P -1
;
_chemical_formula_sum "Si O2"
_cell_formula_units_Z 16
_cell_length_a 10.363573
_cell_length_b 8.280074
_cell_length_c 22.156179
_cell_angle_alpha 149.296103
_cell_angle_beta 45.717035
_cell_angle_gamma 127.371403
_cell_volume 694.866282
_symmetry_space_group_name_H-M "P -1"
_symmetry_group_IT_number 2
_symmetry_cell_setting 'triclinic'
loop_
_space_group_symop_operation_xyz
x,y,z
-x,-y,-z
loop_
_atom_site_type_symbol
_atom_site_label
_atom_site_fract_x
_atom_site_fract_y
_atom_site_fract_z
Si Si1 0.901351 0.869269 0.876071
Si Si2 0.751026 0.880091 0.086317
Si Si3 0.537413 0.135263 0.131350
Si Si4 0.826497 0.215938 0.626675
Si Si5 0.817467 0.189137 0.801645
Si Si6 0.442836 0.272130 0.772783
Si Si7 0.892453 0.027364 0.274172
Si Si8 0.039802 0.319825 0.489619
O O1 0.876929 0.510671 0.746985
O O2 0.974621 0.040729 0.846886
O O3 0.060734 0.959530 0.900527
O O4 0.702389 0.970152 0.990283
O O5 0.648404 0.738970 0.134284
O O6 0.633328 0.129415 0.165919
O O7 0.782511 0.564405 0.933691
O O8 0.503320 0.411819 0.181694
O O9 0.346937 0.966250 0.155716
O O10 0.628032 0.090787 0.662441
O O11 0.841951 0.286134 0.572644
O O12 0.000000 0.000000 0.500000
O O13 0.845805 0.983743 0.665085
O O14 0.008008 0.135072 0.755100
O O15 0.298464 0.115930 0.725573
O O16 0.868893 0.403897 0.411002
O O17 0.000000 0.500000 0.500000
#
# Coordination Sequence:
#
# PCOD9031260 Si02
#       8
#     2   2   2   2   2   2   2   2
#     4  10  22  43  65  97 134 170 223 269 332 387
#     4  11  25  42  67 101 135 174 216 279 332 390
#     4  12  24  40  70 101 135 174 218 276 326 400
#     4  11  25  44  70  94 129 177 221 274 328 394
#     4  11  22  39  66  99 137 174 219 270 337 390
#     4  11  24  46  68 101 130 173 226 270 337 388
#     4   9  20  42  67  94 134 177 218 272 329 392
#     4   9  20  41  64  93 129 174 215 266 322 392
#
# _framework density 23.026012000000001
#
# number of rings (size 3 to 8) (size 9 to 14) (size 15 to 20)
#    0.000    1.500    0.000    5.250    3.500    3.500 
#    4.500    5.000    0.000    0.000    0.000    0.000 
#    0.000    0.000    0.000    0.000    0.000    0.000 
#
# Total GULP energy -89087.347413 kJ/mol
# GULP energy per Si atom -5567.959213 kJ/mol
# Density = 2.297360 g / cm^3
# Si number density = 23.026012 Si / 1000 Ang^3
#
#
#
# Elastic Constant Matrix: (Units=GPa)
#
#
# Indices 1 2 3 4 5 6 
#
# 1 116.0856 23.8993 39.3826 -12.8134 -13.5107 4.0664
# 2 23.8993 94.5752 46.6055 -23.6916 -6.7912 8.2663
# 3 39.3826 46.6055 63.0865 -57.2536 -12.9248 13.7146
# 4 -12.8134 -23.6916 -57.2536 12.0577 -6.2626 -14.6396
# 5 -13.5107 -6.7912 -12.9248 -6.2626 30.8810 -3.8684
# 6 4.0664 8.2663 13.7146 -14.6396 -3.8684 45.4029
#
#
#
# Elastic Compliance Matrix: (Units=1/GPa)
#
#
# Indices 1 2 3 4 5 6 
#
# 1 0.010316 -0.000404 -0.002203 0.003671 0.004419 0.001375
# 2 -0.000404 0.014776 -0.005309 0.005651 0.002116 0.000952
# 3 -0.002203 -0.005309 0.000486 -0.022760 -0.007415 -0.006953
# 4 0.003671 0.005651 -0.022760 -0.015813 -0.009937 -0.000428
# 5 0.004419 0.002116 -0.007415 -0.009937 0.029761 0.000790
# 6 0.001375 0.000952 -0.006953 -0.000428 0.000790 0.023758
#
#
# Mechanical properties :
#
#
# Convention : Reuss Voigt Hill
#
# Bulk Modulus (GPa) = 102.61520 54.83579 78.72550
# Shear Modulus (GPa) = 60.70433 28.59231 44.64832
#
# Velocity S-wave (km/s) = 5.14010 3.52766 4.40823
# Velocity P-wave (km/s) = 8.93807 6.36073 7.75719
#
# Compressibility (1/GPa) = 0.00974515
#
# Stress axis : x y z
#
# Youngs Moduli (GPa) = 96.93234 67.67683 2059.49173
#
# Poissons Ratio (x) = 0.02737 4.53794
# Poissons Ratio (y) = 0.03920 10.93307
# Poissons Ratio (z) = 0.21358 0.35927
#
# Static dielectric constant tensor:
#      x y z
#    x 1.964670 -0.108050 -0.001810 
#    y -0.108050 1.870050 0.061950 
#    z -0.001810 0.061950 1.915190 
# 
# From -- ./inp_files/609951.got.cif
#   From: 2010.05.17/outbox.cif.g08.bks.cpg/sg2_305_cif.got.tgz:609951.got - 2010.06.03 11:33:40.
