data_PCOD9031689
_publ_section_title
;
Structure prediction by ZEFSAII (Michael W. Deem and Ramdas Pophale) SiO2 
 PCOD9031689
Probable space group: P -1
;
_chemical_formula_sum "Si O2"
_cell_formula_units_Z 16
_cell_length_a 11.420898
_cell_length_b 13.489458
_cell_length_c 8.301450
_cell_angle_alpha 128.110916
_cell_angle_beta 130.216130
_cell_angle_gamma 42.146650
_cell_volume 630.957374
_symmetry_space_group_name_H-M "P -1"
_symmetry_group_IT_number 2
_symmetry_cell_setting 'triclinic'
loop_
_space_group_symop_operation_xyz
x,y,z
-x,-y,-z
loop_
_atom_site_type_symbol
_atom_site_label
_atom_site_fract_x
_atom_site_fract_y
_atom_site_fract_z
Si Si1 0.096216 0.623130 0.516245
Si Si2 0.770455 0.848331 0.203991
Si Si3 0.479926 0.335097 0.552484
Si Si4 0.785412 0.116893 0.374996
Si Si5 0.000617 0.577111 0.912634
Si Si6 0.097368 0.024479 0.965502
Si Si7 0.772578 0.342400 0.981410
Si Si8 0.569142 0.942322 0.682781
O O1 0.299439 0.496613 0.496553
O O2 0.023521 0.512231 0.341055
O O3 0.144637 0.657021 0.768936
O O4 0.943720 0.762423 0.402298
O O5 0.721735 0.007136 0.253205
O O6 0.579716 0.909594 0.190499
O O7 0.833484 0.746369 0.995604
O O8 0.634884 0.269918 0.485045
O O9 0.439183 0.206775 0.438762
O O10 0.574197 0.366572 0.817194
O O11 0.000000 0.000000 0.500000
O O12 0.794987 0.125734 0.200612
O O13 0.186236 0.563830 0.012366
O O14 0.000000 0.500000 0.000000
O O15 0.233743 0.077391 0.168715
O O16 0.916521 0.170125 0.869842
O O17 0.000000 0.000000 0.000000
O O18 0.500000 0.000000 0.500000
#
# Coordination Sequence:
#
# PCOD9031689 Si02
#       8
#     2   2   2   2   2   2   2   2
#     4  11  25  42  74 104 146 191 244 289 366 425
#     4  10  23  45  72 104 146 190 237 299 357 427
#     4  11  25  44  74 109 144 193 241 298 360 422
#     4  11  23  45  74 103 149 184 238 302 355 423
#     4  10  22  43  67  99 138 194 237 286 359 422
#     4  12  26  44  79 108 142 189 238 296 368 425
#     4  12  23  45  68 102 150 189 242 301 354 426
#     4  11  25  44  72 111 145 182 245 298 357 431
#
# _framework density 25.358293
#
# number of rings (size 3 to 8) (size 9 to 14) (size 15 to 20)
#    0.000    1.000    2.500    3.000    5.250    3.000 
#    0.000    8.125    0.000    0.000    0.000    0.000 
#    0.000    0.000    0.000    0.000    0.000    0.000 
#
# Total GULP energy -89146.002855 kJ/mol
# GULP energy per Si atom -5571.625178 kJ/mol
# Density = 2.530058 g / cm^3
# Si number density = 25.358293 Si / 1000 Ang^3
#
#
#
# Elastic Constant Matrix: (Units=GPa)
#
#
# Indices 1 2 3 4 5 6 
#
# 1 156.7726 41.0442 61.8563 -12.3756 -1.5951 1.5098
# 2 41.0442 94.8605 34.9664 -11.5027 1.6210 -18.0361
# 3 61.8563 34.9664 131.0068 -5.1107 3.8885 -2.5330
# 4 -12.3756 -11.5027 -5.1107 44.0225 -9.6713 -0.1169
# 5 -1.5951 1.6210 3.8885 -9.6713 45.2074 -1.5716
# 6 1.5098 -18.0361 -2.5330 -0.1169 -1.5716 32.9790
#
#
#
# Elastic Compliance Matrix: (Units=1/GPa)
#
#
# Indices 1 2 3 4 5 6 
#
# 1 0.008545 -0.002699 -0.003323 0.001511 0.000935 -0.002073
# 2 -0.002699 0.014396 -0.002318 0.002858 0.000472 0.007851
# 3 -0.003323 -0.002318 0.009819 -0.000627 -0.001027 -0.000413
# 4 0.001511 0.002858 -0.000627 0.025009 0.005417 0.001793
# 5 0.000935 0.000472 -0.001027 0.005417 0.023428 0.001272
# 6 -0.002073 0.007851 -0.000413 0.001793 0.001272 0.034746
#
#
# Mechanical properties :
#
#
# Convention : Reuss Voigt Hill
#
# Bulk Modulus (GPa) = 62.19636 73.15262 67.67449
# Shear Modulus (GPa) = 36.23587 40.75996 38.49791
#
# Velocity S-wave (km/s) = 3.78425 4.01354 3.90058
# Velocity P-wave (km/s) = 6.60866 7.09847 6.85794
#
# Compressibility (1/GPa) = 0.01607811
#
# Stress axis : x y z
#
# Youngs Moduli (GPa) = 117.02295 69.46589 101.84180
#
# Poissons Ratio (x) = 0.18751 0.33844
# Poissons Ratio (y) = 0.31588 0.23612
# Poissons Ratio (z) = 0.38889 0.16106
#
# Static dielectric constant tensor:
#      x y z
#    x 2.060060 0.002540 -0.038820 
#    y 0.002540 2.186830 0.039620 
#    z -0.038820 0.039620 2.110650 
# 
# From -- ./inp_files/274483.got.cif
#   From: 2010.05.17/outbox.cif.g08.bks.cpg/sg2_138_cif.got.tgz:274483.got - 2010.06.03 11:33:40.
