data_PCOD9031683
_publ_section_title
;
Structure prediction by ZEFSAII (Michael W. Deem and Ramdas Pophale) SiO2 
 PCOD9031683
Probable space group: P -1
;
_chemical_formula_sum "Si O2"
_cell_formula_units_Z 16
_cell_length_a 8.141050
_cell_length_b 9.005332
_cell_length_c 12.367260
_cell_angle_alpha 119.329148
_cell_angle_beta 93.534674
_cell_angle_gamma 112.955667
_cell_volume 690.862402
_symmetry_space_group_name_H-M "P -1"
_symmetry_group_IT_number 2
_symmetry_cell_setting 'triclinic'
loop_
_space_group_symop_operation_xyz
x,y,z
-x,-y,-z
loop_
_atom_site_type_symbol
_atom_site_label
_atom_site_fract_x
_atom_site_fract_y
_atom_site_fract_z
Si Si1 0.013648 0.306834 0.305680
Si Si2 0.642461 0.334033 0.635312
Si Si3 0.922147 0.856099 0.548436
Si Si4 0.685597 0.029275 0.633105
Si Si5 0.463782 0.453252 0.108451
Si Si6 0.445936 0.026179 0.169880
Si Si7 0.230176 0.014932 0.961301
Si Si8 0.288367 0.554534 0.706784
O O1 0.226684 0.479876 0.366326
O O2 0.962658 0.203423 0.384246
O O3 0.882243 0.400739 0.302877
O O4 0.962161 0.137654 0.155349
O O5 0.466773 0.157052 0.505901
O O6 0.576515 0.408137 0.763865
O O7 0.760544 0.224630 0.636497
O O8 0.836871 0.967310 0.654390
O O9 0.767814 0.649240 0.422518
O O10 0.000000 0.000000 0.500000
O O11 0.594100 0.064068 0.747075
O O12 0.643537 0.448131 0.169247
O O13 0.500000 0.500000 0.000000
O O14 0.286454 0.238664 0.036659
O O15 0.533849 0.258986 0.270488
O O16 0.604626 0.994715 0.106106
O O17 0.267584 0.957051 0.060438
#
# Coordination Sequence:
#
# PCOD9031683 Si02
#       8
#     2   2   2   2   2   2   2   2
#     4  11  25  43  68  98 140 177 221 285 343 404
#     4  11  25  44  67 102 133 179 227 283 345 396
#     4  12  26  41  67 100 137 179 223 281 350 403
#     4  11  24  43  69  96 137 172 234 285 335 401
#     4  11  23  42  73  99 135 182 234 276 332 406
#     4   9  19  40  69  94 129 179 221 276 332 395
#     4   9  21  40  65  97 133 176 224 267 335 409
#     4  10  22  43  67  99 136 176 231 270 342 405
#
# _framework density 23.159459999999999
#
# number of rings (size 3 to 8) (size 9 to 14) (size 15 to 20)
#    0.000    1.500    1.250    3.375    5.250    6.500 
#    0.000    1.250    0.000    0.000    0.000    0.000 
#    0.000    0.000    0.000    0.000    0.000    0.000 
#
# Total GULP energy -89341.650504 kJ/mol
# GULP energy per Si atom -5583.853157 kJ/mol
# Density = 2.310675 g / cm^3
# Si number density = 23.159460 Si / 1000 Ang^3
#
#
#
# Elastic Constant Matrix: (Units=GPa)
#
#
# Indices 1 2 3 4 5 6 
#
# 1 59.0918 29.8920 15.3438 -14.7297 -2.9257 -16.6435
# 2 29.8920 127.4994 66.9115 -17.2252 6.1502 -9.4883
# 3 15.3438 66.9115 100.7878 -1.5452 -4.6313 -1.7967
# 4 -14.7297 -17.2252 -1.5452 33.5308 0.9646 1.5621
# 5 -2.9257 6.1502 -4.6313 0.9646 26.0184 -3.6727
# 6 -16.6435 -9.4883 -1.7967 1.5621 -3.6727 27.3346
#
#
#
# Elastic Compliance Matrix: (Units=1/GPa)
#
#
# Indices 1 2 3 4 5 6 
#
# 1 0.025353 -0.003507 -0.000905 0.008474 0.005234 0.014379
# 2 -0.003507 0.014726 -0.009389 0.005692 -0.005576 0.001285
# 3 -0.000905 -0.009389 0.016419 -0.004522 0.004953 -0.001807
# 4 0.008474 0.005692 -0.004522 0.036106 -0.001898 0.004520
# 5 0.005234 -0.005576 0.004953 -0.001898 0.042334 0.007373
# 6 0.014379 0.001285 -0.001807 0.004520 0.007373 0.046399
#
#
# Mechanical properties :
#
#
# Convention : Reuss Voigt Hill
#
# Bulk Modulus (GPa) = 34.60526 56.85262 45.72894
# Shear Modulus (GPa) = 22.87610 29.05888 25.96749
#
# Velocity S-wave (km/s) = 3.14628 3.54606 3.35214
# Velocity P-wave (km/s) = 5.30786 6.43177 5.89666
#
# Compressibility (1/GPa) = 0.02889734
#
# Stress axis : x y z
#
# Youngs Moduli (GPa) = 39.44293 67.90663 60.90642
#
# Poissons Ratio (x) = 0.23813 0.05512
# Poissons Ratio (y) = 0.13831 0.57183
# Poissons Ratio (z) = 0.03569 0.63755
#
# Static dielectric constant tensor:
#      x y z
#    x 1.950200 -0.021900 -0.019860 
#    y -0.021900 1.865660 -0.012980 
#    z -0.019860 -0.012980 1.884140 
# 
# From -- ./inp_files/382989.got.cif
#   From: 2010.05.17/outbox.cif.g08.bks.cpg/sg2_192_cif.got.tgz:382989.got - 2010.06.03 11:33:40.
