data_PCOD9031514
_publ_section_title
;
Structure prediction by ZEFSAII (Michael W. Deem and Ramdas Pophale) SiO2 
 PCOD9031514
Probable space group: P -1
;
_chemical_formula_sum "Si O2"
_cell_formula_units_Z 16
_cell_length_a 8.725368
_cell_length_b 5.577405
_cell_length_c 24.985377
_cell_angle_alpha 104.694169
_cell_angle_beta 49.584998
_cell_angle_gamma 74.474470
_cell_volume 725.131519
_symmetry_space_group_name_H-M "P -1"
_symmetry_group_IT_number 2
_symmetry_cell_setting 'triclinic'
loop_
_space_group_symop_operation_xyz
x,y,z
-x,-y,-z
loop_
_atom_site_type_symbol
_atom_site_label
_atom_site_fract_x
_atom_site_fract_y
_atom_site_fract_z
Si Si1 0.043609 0.565465 0.911506
Si Si2 0.711971 0.199442 0.592692
Si Si3 0.359650 0.034506 0.896561
Si Si4 0.550426 0.425212 0.761004
Si Si5 0.394214 0.088495 0.588487
Si Si6 0.621259 0.643045 0.949020
Si Si7 0.275882 0.806657 0.178310
Si Si8 0.741068 0.277394 0.335363
O O1 0.263240 0.545069 0.829979
O O2 0.892632 0.496166 0.902999
O O3 0.186032 0.302357 0.908348
O O4 0.841808 0.883370 0.006518
O O5 0.678905 0.271908 0.667268
O O6 0.595964 0.029677 0.584329
O O7 0.519931 0.531982 0.626661
O O8 0.000000 0.000000 0.500000
O O9 0.512597 0.729523 0.809051
O O10 0.548477 0.106829 0.879440
O O11 0.697166 0.190709 0.763671
O O12 0.219661 0.458650 0.645820
O O13 0.500000 0.000000 0.500000
O O14 0.284723 0.905434 0.621753
O O15 0.628882 0.530240 0.880938
O O16 0.500000 0.500000 0.000000
O O17 0.500000 0.000000 0.000000
O O18 0.994983 0.026137 0.234230
#
# Coordination Sequence:
#
# PCOD9031514 Si02
#       8
#     2   2   2   2   2   2   2   2
#     4  10  23  41  67  98 143 188 244 295 369 427
#     4  10  27  46  71 107 145 193 248 306 374 440
#     4  10  22  43  67 102 142 194 240 300 362 443
#     4  11  25  43  71 102 144 197 248 306 365 443
#     4  10  24  46  75 106 139 188 238 305 372 440
#     4  12  27  43  71 106 146 193 246 304 363 437
#     4  11  26  42  72 106 147 193 253 300 374 436
#     4  10  26  44  76 106 143 187 243 298 375 435
#
# _framework density 22.064962999999999
#
# number of rings (size 3 to 8) (size 9 to 14) (size 15 to 20)
#    0.750    0.750    1.250    1.500    8.750    1.500 
#    0.000    0.000    0.000    0.000    0.000    0.000 
#    0.000    0.000    0.000    0.000    0.000    0.000 
#
# Total GULP energy -89146.517565 kJ/mol
# GULP energy per Si atom -5571.657348 kJ/mol
# Density = 2.201474 g / cm^3
# Si number density = 22.064963 Si / 1000 Ang^3
#
#
#
# Elastic Constant Matrix: (Units=GPa)
#
#
# Indices 1 2 3 4 5 6 
#
# 1 99.3139 36.6451 71.5118 -6.4085 -2.1636 16.1711
# 2 36.6451 97.6775 37.6092 -0.3989 -2.8537 4.3524
# 3 71.5118 37.6092 148.7306 5.4750 9.6868 -5.5284
# 4 -6.4085 -0.3989 5.4750 28.7202 -4.8800 1.0118
# 5 -2.1636 -2.8537 9.6868 -4.8800 48.4149 -0.3403
# 6 16.1711 4.3524 -5.5284 1.0118 -0.3403 20.0883
#
#
#
# Elastic Compliance Matrix: (Units=1/GPa)
#
#
# Indices 1 2 3 4 5 6 
#
# 1 0.024792 -0.003268 -0.012574 0.009415 0.004218 -0.023113
# 2 -0.003268 0.012106 -0.001558 -0.000103 0.000866 -0.000401
# 3 -0.012574 -0.001558 0.014222 -0.006747 -0.004076 0.014644
# 4 0.009415 -0.000103 -0.006747 0.039567 0.005673 -0.011310
# 5 0.004218 0.000866 -0.004076 0.005673 0.022249 -0.004613
# 6 -0.023113 -0.000401 0.014644 -0.011310 -0.004613 0.072995
#
#
# Mechanical properties :
#
#
# Convention : Reuss Voigt Hill
#
# Bulk Modulus (GPa) = 61.27415 70.80603 66.04009
# Shear Modulus (GPa) = 22.10723 32.77505 27.44114
#
# Velocity S-wave (km/s) = 3.16874 3.85826 3.53037
# Velocity P-wave (km/s) = 6.42013 7.21163 6.82736
#
# Compressibility (1/GPa) = 0.01632010
#
# Stress axis : x y z
#
# Youngs Moduli (GPa) = 40.33560 82.60196 70.31589
#
# Poissons Ratio (x) = 0.26994 0.88418
# Poissons Ratio (y) = 0.13182 0.10952
# Poissons Ratio (z) = 0.50719 0.12865
#
# Static dielectric constant tensor:
#      x y z
#    x 1.858360 -0.045460 -0.022530 
#    y -0.045460 1.942880 0.049180 
#    z -0.022530 0.049180 1.843300 
# 
# From -- ./inp_files/616362.got.cif
#   From: 2010.05.17/outbox.cif.g08.bks.cpg/sg2_309_cif.got.tgz:616362.got - 2010.06.03 11:33:40.
