data_PCOD9031267
_publ_section_title
;
Structure prediction by ZEFSAII (Michael W. Deem and Ramdas Pophale) SiO2 
 PCOD9031267
Probable space group: P -1
;
_chemical_formula_sum "Si O2"
_cell_formula_units_Z 16
_cell_length_a 7.849146
_cell_length_b 12.625172
_cell_length_c 8.328351
_cell_angle_alpha 76.917888
_cell_angle_beta 82.554193
_cell_angle_gamma 120.211899
_cell_volume 665.001860
_symmetry_space_group_name_H-M "P -1"
_symmetry_group_IT_number 2
_symmetry_cell_setting 'triclinic'
loop_
_space_group_symop_operation_xyz
x,y,z
-x,-y,-z
loop_
_atom_site_type_symbol
_atom_site_label
_atom_site_fract_x
_atom_site_fract_y
_atom_site_fract_z
Si Si1 0.114700 0.738206 0.287957
Si Si2 0.721068 0.632000 0.224334
Si Si3 0.970185 0.066353 0.325558
Si Si4 0.188608 0.576223 0.072679
Si Si5 0.519083 0.364443 0.447085
Si Si6 0.461820 0.136497 0.714400
Si Si7 0.627051 0.775184 0.967298
Si Si8 0.868523 0.664312 0.659017
O O1 0.152473 0.649958 0.195651
O O2 0.336875 0.864730 0.264557
O O3 0.945351 0.751615 0.211388
O O4 0.988915 0.663349 0.488359
O O5 0.701757 0.496129 0.298872
O O6 0.546465 0.611562 0.377175
O O7 0.676642 0.667521 0.047363
O O8 0.984082 0.198893 0.319643
O O9 0.752987 0.976134 0.294511
O O10 0.000000 0.000000 0.500000
O O11 0.172412 0.110231 0.181536
O O12 0.407460 0.693127 0.933093
O O13 0.207321 0.464266 0.187966
O O14 0.000000 0.500000 0.000000
O O15 0.549447 0.250909 0.529102
O O16 0.320542 0.325197 0.378837
O O17 0.404253 0.174120 0.877164
#
# Coordination Sequence:
#
# PCOD9031267 Si02
#       8
#     2   2   2   2   2   2   2   2
#     4  10  24  40  68  98 138 172 208 267 339 404
#     4   9  18  34  66  98 124 166 214 269 330 393
#     4  12  26  44  68  94 129 180 238 274 308 380
#     4  11  25  43  67 107 136 162 208 280 351 390
#     4   9  17  34  64  96 128 163 219 265 319 397
#     4  10  22  43  65  98 130 180 223 267 323 387
#     4  10  23  44  70  93 131 174 224 275 327 390
#     4  11  23  42  66  99 134 174 217 263 331 404
#
# _framework density 24.060084
#
# number of rings (size 3 to 8) (size 9 to 14) (size 15 to 20)
#    0.000    1.750    2.500    0.750    8.750    3.000 
#    0.000    0.625    0.000    0.000    0.000    0.000 
#    0.000    0.000    0.000    0.000    0.000    0.000 
#
# Total GULP energy -89365.311801 kJ/mol
# GULP energy per Si atom -5585.331988 kJ/mol
# Density = 2.400532 g / cm^3
# Si number density = 24.060084 Si / 1000 Ang^3
#
#
#
# Elastic Constant Matrix: (Units=GPa)
#
#
# Indices 1 2 3 4 5 6 
#
# 1 86.8986 38.6814 33.3701 -4.0654 -11.3201 51.2225
# 2 38.6814 108.9949 11.4611 6.6881 -3.2030 56.3823
# 3 33.3701 11.4611 64.0900 -11.3083 -9.3118 20.7518
# 4 -4.0654 6.6881 -11.3083 30.2212 6.5456 -3.7063
# 5 -11.3201 -3.2030 -9.3118 6.5456 25.8426 -0.4465
# 6 51.2225 56.3823 20.7518 -3.7063 -0.4465 55.3807
#
#
#
# Elastic Compliance Matrix: (Units=1/GPa)
#
#
# Indices 1 2 3 4 5 6 
#
# 1 0.035386 0.010694 -0.005946 -0.008448 0.016101 -0.041824
# 2 0.010694 0.025082 0.001475 -0.010277 0.010295 -0.036584
# 3 -0.005946 0.001475 0.021085 0.005529 0.003715 -0.003502
# 4 -0.008448 -0.010277 0.005529 0.041461 -0.013157 0.018873
# 5 0.016101 0.010295 0.003715 -0.013157 0.051225 -0.027233
# 6 -0.041824 -0.036584 -0.003502 0.018873 -0.027233 0.096342
#
#
# Mechanical properties :
#
#
# Convention : Reuss Voigt Hill
#
# Bulk Modulus (GPa) = 10.63856 47.44542 29.04199
# Shear Modulus (GPa) = 17.27299 34.05363 25.66331
#
# Velocity S-wave (km/s) = 2.68229 3.76621 3.26948
# Velocity P-wave (km/s) = 3.74489 6.21890 5.13317
#
# Compressibility (1/GPa) = 0.09399771
#
# Stress axis : x y z
#
# Youngs Moduli (GPa) = 28.25958 39.86847 47.42777
#
# Poissons Ratio (x) = -0.42634 0.28202
# Poissons Ratio (y) = -0.30220 -0.06995
# Poissons Ratio (z) = 0.16804 -0.05880
#
# Static dielectric constant tensor:
#      x y z
#    x 1.991080 -0.006840 -0.005510 
#    y -0.006840 1.998030 0.030120 
#    z -0.005510 0.030120 1.919580 
# 
# From -- ./inp_files/206888.got.cif
#   From: 2010.05.17/outbox.cif.g08.bks.cpg/sg2_104_cif.got.tgz:206888.got - 2010.06.03 11:33:40.
