data_PCOD9031203
_publ_section_title
;
Structure prediction by ZEFSAII (Michael W. Deem and Ramdas Pophale) SiO2 
 PCOD9031203
Probable space group: P -1
;
_chemical_formula_sum "Si O2"
_cell_formula_units_Z 16
_cell_length_a 8.901742
_cell_length_b 16.526675
_cell_length_c 6.467842
_cell_angle_alpha 119.631562
_cell_angle_beta 81.150439
_cell_angle_gamma 117.682049
_cell_volume 728.852910
_symmetry_space_group_name_H-M "P -1"
_symmetry_group_IT_number 2
_symmetry_cell_setting 'triclinic'
loop_
_space_group_symop_operation_xyz
x,y,z
-x,-y,-z
loop_
_atom_site_type_symbol
_atom_site_label
_atom_site_fract_x
_atom_site_fract_y
_atom_site_fract_z
Si Si1 0.256785 0.377838 0.935680
Si Si2 0.961191 0.284082 0.609620
Si Si3 0.418583 0.079907 0.657795
Si Si4 0.978359 0.602134 0.664159
Si Si5 0.122572 0.927296 0.811790
Si Si6 0.859820 0.963081 0.663481
Si Si7 0.447625 0.550727 0.767717
Si Si8 0.720738 0.300587 0.001155
O O1 0.356223 0.459412 0.838873
O O2 0.099945 0.282991 0.740763
O O3 0.388214 0.361989 0.034392
O O4 0.167162 0.424073 0.169684
O O5 0.058219 0.358399 0.493399
O O6 0.854258 0.170147 0.397798
O O7 0.842628 0.325359 0.804608
O O8 0.320993 0.090285 0.484289
O O9 0.563208 0.189426 0.848743
O O10 0.500000 0.000000 0.500000
O O11 0.270927 0.027310 0.795484
O O12 0.000000 0.500000 0.500000
O O13 0.153432 0.693459 0.832750
O O14 0.936303 0.909614 0.744973
O O15 0.134719 0.943557 0.075343
O O16 0.000000 0.000000 0.500000
O O17 0.500000 0.500000 0.500000
O O18 0.335773 0.610287 0.822925
#
# Coordination Sequence:
#
# PCOD9031203 Si02
#       8
#     2   2   2   2   2   2   2   2
#     4  10  23  41  65  92 126 163 212 272 324 387
#     4  11  23  40  67  94 125 176 219 266 322 389
#     4  11  23  42  65  97 138 168 213 274 324 384
#     4  11  23  42  66  93 127 169 219 268 325 392
#     4  10  22  43  65  94 128 174 223 260 324 384
#     4   9  22  42  65  87 128 172 212 270 316 377
#     4  11  23  44  66  96 131 167 210 277 332 393
#     4  11  25  41  65  97 130 172 218 263 338 384
#
# _framework density 21.952304000000002
#
# number of rings (size 3 to 8) (size 9 to 14) (size 15 to 20)
#    0.000    1.500    1.250    3.000    3.500    5.500 
#   11.250    0.000    0.000    0.000    0.000    0.000 
#    0.000    0.000    0.000    0.000    0.000    0.000 
#
# Total GULP energy -89287.935125 kJ/mol
# GULP energy per Si atom -5580.495945 kJ/mol
# Density = 2.190234 g / cm^3
# Si number density = 21.952304 Si / 1000 Ang^3
#
#
#
# Elastic Constant Matrix: (Units=GPa)
#
#
# Indices 1 2 3 4 5 6 
#
# 1 102.4777 8.4708 46.7394 -3.6222 12.5536 11.1569
# 2 8.4708 43.7535 34.1398 -4.9887 0.4583 13.7437
# 3 46.7394 34.1398 143.5575 -6.5195 1.4698 12.5760
# 4 -3.6222 -4.9887 -6.5195 30.5721 5.0966 -1.4826
# 5 12.5536 0.4583 1.4698 5.0966 49.1671 0.8982
# 6 11.1569 13.7437 12.5760 -1.4826 0.8982 22.5269
#
#
#
# Elastic Compliance Matrix: (Units=1/GPa)
#
#
# Indices 1 2 3 4 5 6 
#
# 1 0.012417 0.002640 -0.004120 0.001287 -0.003109 -0.005252
# 2 0.002640 0.033958 -0.007210 0.003594 -0.000824 -0.017731
# 3 -0.004120 -0.007210 0.009954 0.000373 0.000767 0.000876
# 4 0.001287 0.003594 0.000373 0.034148 -0.003901 -0.000635
# 5 -0.003109 -0.000824 0.000767 -0.003901 0.021513 0.000500
# 6 -0.005252 -0.017731 0.000876 -0.000635 0.000500 0.057259
#
#
# Mechanical properties :
#
#
# Convention : Reuss Voigt Hill
#
# Bulk Modulus (GPa) = 25.67498 52.05431 38.86464
# Shear Modulus (GPa) = 25.04846 33.81581 29.43214
#
# Velocity S-wave (km/s) = 3.38159 3.92908 3.66557
# Velocity P-wave (km/s) = 5.19308 6.65939 5.97141
#
# Compressibility (1/GPa) = 0.03894843
#
# Stress axis : x y z
#
# Youngs Moduli (GPa) = 80.53213 29.44805 100.45887
#
# Poissons Ratio (x) = -0.07774 0.41392
# Poissons Ratio (y) = -0.21259 0.72434
# Poissons Ratio (z) = 0.33182 0.21233
#
# Static dielectric constant tensor:
#      x y z
#    x 1.895430 0.031230 0.034220 
#    y 0.031230 1.780480 0.017840 
#    z 0.034220 0.017840 1.818280 
# 
# From -- ./inp_files/46204.got.cif
#   From: 2010.05.17/outbox.cif.g08.bks.cpg/sg2_24_cif.got.tgz:46204.got - 2010.06.03 11:33:40.
