data_PCOD9031020
_publ_section_title
;
Structure prediction by ZEFSAII (Michael W. Deem and Ramdas Pophale) SiO2 
 PCOD9031020
Probable space group: P -1
;
_chemical_formula_sum "Si O2"
_cell_formula_units_Z 14
_cell_length_a 9.094154
_cell_length_b 13.685512
_cell_length_c 7.959112
_cell_angle_alpha 126.032370
_cell_angle_beta 105.963828
_cell_angle_gamma 51.360944
_cell_volume 618.994704
_symmetry_space_group_name_H-M "P -1"
_symmetry_group_IT_number 2
_symmetry_cell_setting 'triclinic'
loop_
_space_group_symop_operation_xyz
x,y,z
-x,-y,-z
loop_
_atom_site_type_symbol
_atom_site_label
_atom_site_fract_x
_atom_site_fract_y
_atom_site_fract_z
Si Si1 0.263742 0.318660 0.981436
Si Si2 0.432710 0.665024 0.100597
Si Si3 0.269594 0.110015 0.256100
Si Si4 0.995234 0.343537 0.655763
Si Si5 0.452649 0.871570 0.822056
Si Si6 0.881751 0.059511 0.850856
Si Si7 0.779454 0.198272 0.490829
O O1 0.398375 0.205707 0.056125
O O2 0.111387 0.479041 0.183770
O O3 0.392379 0.340657 0.921024
O O4 0.153889 0.274820 0.784574
O O5 0.255819 0.760905 0.013387
O O6 0.329245 0.767642 0.335246
O O7 0.500000 0.500000 0.000000
O O8 0.097033 0.270043 0.435407
O O9 0.447811 0.116268 0.297053
O O10 0.252488 0.998010 0.253151
O O11 0.284374 0.037890 0.005460
O O12 0.849837 0.302174 0.600001
O O13 0.373537 0.776596 0.666780
O O14 0.036445 0.970000 0.662943
O O15 0.000000 0.000000 0.000000
#
# Coordination Sequence:
#
# PCOD9031020 Si02
#       7
#     2   2   2   2   2   2   2
#     4  11  23  46  64  95 137 181 223 277 338 406
#     4  12  24  44  66 102 136 180 224 278 337 408
#     4  10  22  43  63  99 127 175 222 281 330 398
#     4  10  24  42  66  94 137 174 226 276 343 398
#     4  11  23  43  69  97 134 174 229 280 336 403
#     4  11  22  45  68 100 136 174 224 285 332 401
#     4  11  23  44  66 103 134 176 226 278 343 399
#
# _framework density 22.617317
#
# number of rings (size 3 to 8) (size 9 to 14) (size 15 to 20)
#    0.000    1.143    4.286    1.286    0.000    2.857 
#   15.429    0.000    0.000    0.000    0.000    0.000 
#    0.000    0.000    0.000    0.000    0.000    0.000 
#
# Total GULP energy -78050.610466 kJ/mol
# GULP energy per Si atom -5575.043605 kJ/mol
# Density = 2.256584 g / cm^3
# Si number density = 22.617317 Si / 1000 Ang^3
#
#
#
# Elastic Constant Matrix: (Units=GPa)
#
#
# Indices 1 2 3 4 5 6 
#
# 1 134.9992 34.1329 57.8107 -2.3626 -3.5692 4.5329
# 2 34.1329 95.0896 37.8061 0.8874 7.0978 -2.0623
# 3 57.8107 37.8061 102.3936 4.4687 -11.3579 -6.0356
# 4 -2.3626 0.8874 4.4687 31.1056 -11.4853 -0.6394
# 5 -3.5692 7.0978 -11.3579 -11.4853 63.2338 2.4081
# 6 4.5329 -2.0623 -6.0356 -0.6394 2.4081 18.6853
#
#
#
# Elastic Compliance Matrix: (Units=1/GPa)
#
#
# Indices 1 2 3 4 5 6 
#
# 1 0.010394 -0.001647 -0.005569 0.001632 0.000238 -0.004477
# 2 -0.001647 0.012916 -0.004027 -0.000800 -0.002442 0.000812
# 3 -0.005569 -0.004027 0.015043 -0.001485 0.002364 0.005410
# 4 0.001632 -0.000800 -0.001485 0.034808 0.006260 -0.000580
# 5 0.000238 -0.002442 0.002364 0.006260 0.017726 -0.001634
# 6 -0.004477 0.000812 0.005410 -0.000580 -0.001634 0.056632
#
#
# Mechanical properties :
#
#
# Convention : Reuss Voigt Hill
#
# Bulk Modulus (GPa) = 63.02354 65.77575 64.39965
# Shear Modulus (GPa) = 28.52349 36.12046 32.32197
#
# Velocity S-wave (km/s) = 3.55510 4.00062 3.78442
# Velocity P-wave (km/s) = 6.69158 7.10529 6.90154
#
# Compressibility (1/GPa) = 0.01586709
#
# Stress axis : x y z
#
# Youngs Moduli (GPa) = 96.21115 77.42270 66.47479
#
# Poissons Ratio (x) = 0.12751 0.37019
# Poissons Ratio (y) = 0.15845 0.26771
# Poissons Ratio (z) = 0.53579 0.31180
#
# Static dielectric constant tensor:
#      x y z
#    x 1.887900 -0.015500 -0.000530 
#    y -0.015500 1.922770 -0.030570 
#    z -0.000530 -0.030570 1.858690 
# 
# From -- ./inp_files/204375.got.cif
#   From: 2010.05.17/outbox.cif.g08.bks.cpg/sg2_103_cif.got.tgz:204375.got - 2010.06.03 11:33:40.
