data_PCOD9031803
_publ_section_title
;
Structure prediction by ZEFSAII (Michael W. Deem and Ramdas Pophale) SiO2 
 PCOD9031803
Probable space group: P -1
;
_chemical_formula_sum "Si O2"
_cell_formula_units_Z 14
_cell_length_a 7.703356
_cell_length_b 14.843089
_cell_length_c 4.865363
_cell_angle_alpha 70.388471
_cell_angle_beta 100.791461
_cell_angle_gamma 107.322000
_cell_volume 497.911518
_symmetry_space_group_name_H-M "P -1"
_symmetry_group_IT_number 2
_symmetry_cell_setting 'triclinic'
loop_
_space_group_symop_operation_xyz
x,y,z
-x,-y,-z
loop_
_atom_site_type_symbol
_atom_site_label
_atom_site_fract_x
_atom_site_fract_y
_atom_site_fract_z
Si Si1 0.626477 0.928580 0.074509
Si Si2 0.914242 0.063994 0.640356
Si Si3 0.267037 0.224006 0.486971
Si Si4 0.784297 0.531521 0.452919
Si Si5 0.517683 0.367588 0.851203
Si Si6 0.672815 0.210548 0.230371
Si Si7 0.945955 0.650077 0.916466
O O1 0.645260 0.869495 0.420854
O O2 0.496425 0.845746 0.939921
O O3 0.500000 0.000000 0.000000
O O4 0.813120 0.988849 0.923931
O O5 0.753110 0.120933 0.466062
O O6 0.079314 0.161614 0.643864
O O7 0.000000 0.000000 0.500000
O O8 0.393833 0.299373 0.652614
O O9 0.196264 0.279551 0.161112
O O10 0.698093 0.431224 0.686722
O O11 0.604826 0.554531 0.225715
O O12 0.889867 0.608635 0.637170
O O13 0.918121 0.557765 0.206590
O O14 0.586598 0.306081 0.180374
O O15 0.858113 0.274213 0.076579
#
# Coordination Sequence:
#
# PCOD9031803 Si02
#       7
#     2   2   2   2   2   2   2
#     4  11  23  40  63  94 131 174 224 281 335 396
#     4  11  23  40  62  90 132 179 222 274 339 404
#     4   9  21  39  61  90 128 173 222 269 332 399
#     4  10  22  43  68  93 133 176 218 265 339 406
#     4   9  21  40  64  96 129 170 219 275 328 396
#     4  10  23  40  63  98 131 168 223 281 331 388
#     4  10  23  42  65  96 130 175 217 270 332 402
#
# _framework density 28.117448
#
# number of rings (size 3 to 8) (size 9 to 14) (size 15 to 20)
#    0.000    2.000    0.000    1.714    0.000   17.714 
#    0.000    5.714    0.000    0.000    0.000    0.000 
#    0.000    0.000    0.000    0.000    0.000    0.000 
#
# Total GULP energy -77968.072872 kJ/mol
# GULP energy per Si atom -5569.148062 kJ/mol
# Density = 2.805345 g / cm^3
# Si number density = 28.117448 Si / 1000 Ang^3
#
#
#
# Elastic Constant Matrix: (Units=GPa)
#
#
# Indices 1 2 3 4 5 6 
#
# 1 105.0852 32.0211 3.0676 5.3223 -14.8868 8.2828
# 2 32.0211 126.6065 46.7718 -16.5079 -16.9821 39.9278
# 3 3.0676 46.7718 122.7710 -35.7510 -26.6092 0.5784
# 4 5.3223 -16.5079 -35.7510 37.1587 -34.5554 10.9660
# 5 -14.8868 -16.9821 -26.6092 -34.5554 -7.3726 -12.4814
# 6 8.2828 39.9278 0.5784 10.9660 -12.4814 57.2530
#
#
#
# Elastic Compliance Matrix: (Units=1/GPa)
#
#
# Indices 1 2 3 4 5 6 
#
# 1 0.010710 -0.003773 0.000149 -0.003528 0.000067 0.001771
# 2 -0.003773 0.013884 -0.004877 0.002742 -0.002438 -0.010145
# 3 0.000149 -0.004877 0.007566 -0.002640 -0.007633 0.002145
# 4 -0.003528 0.002742 -0.002640 0.009322 -0.020456 -0.007620
# 5 0.000067 -0.002438 -0.007633 -0.020456 -0.011946 0.003082
# 6 0.001771 -0.010145 0.002145 -0.007620 0.003082 0.026395
#
#
# Mechanical properties :
#
#
# Convention : Reuss Voigt Hill
#
# Bulk Modulus (GPa) = 65.97575 57.57597 61.77586
# Shear Modulus (GPa) = 64.11336 35.58128 49.84732
#
# Velocity S-wave (km/s) = 4.78032 3.56118 4.21506
# Velocity P-wave (km/s) = 7.34738 6.11807 6.76072
#
# Compressibility (1/GPa) = 0.01515708
#
# Stress axis : x y z
#
# Youngs Moduli (GPa) = 93.37039 72.02330 132.16252
#
# Poissons Ratio (x) = 0.27175 -0.01964
# Poissons Ratio (y) = 0.35230 0.64460
# Poissons Ratio (z) = -0.01388 0.35128
#
# Static dielectric constant tensor:
#      x y z
#    x 2.511430 -0.154920 0.065020 
#    y -0.154920 2.580540 -0.129270 
#    z 0.065020 -0.129270 2.205320 
# 
# From -- ./inp_files/43429.got.cif
#   From: 2010.05.17/outbox.cif.g08.bks.cpg/sg2_22_cif.got.tgz:43429.got - 2010.06.03 11:33:40.
