data_PCOD9031879
_publ_section_title
;
Structure prediction by ZEFSAII (Michael W. Deem and Ramdas Pophale) SiO2 
 PCOD9031879
Probable space group: P -1
;
_chemical_formula_sum "Si O2"
_cell_formula_units_Z 14
_cell_length_a 6.311279
_cell_length_b 15.383260
_cell_length_c 11.202780
_cell_angle_alpha 130.381916
_cell_angle_beta 46.918375
_cell_angle_gamma 122.586007
_cell_volume 596.047702
_symmetry_space_group_name_H-M "P -1"
_symmetry_group_IT_number 2
_symmetry_cell_setting 'triclinic'
loop_
_space_group_symop_operation_xyz
x,y,z
-x,-y,-z
loop_
_atom_site_type_symbol
_atom_site_label
_atom_site_fract_x
_atom_site_fract_y
_atom_site_fract_z
Si Si1 0.527573 0.916484 0.797950
Si Si2 0.934462 0.822903 0.034734
Si Si3 0.450523 0.345390 0.129667
Si Si4 0.629539 0.033154 0.348368
Si Si5 0.760904 0.456125 0.724883
Si Si6 0.105173 0.369555 0.947322
Si Si7 0.089224 0.247455 0.399907
O O1 0.549441 0.983134 0.722130
O O2 0.775877 0.835599 0.634683
O O3 0.218798 0.826941 0.847171
O O4 0.500000 0.000000 0.000000
O O5 0.975622 0.761933 0.089129
O O6 0.872983 0.951497 0.172472
O O7 0.650516 0.742607 0.016732
O O8 0.257056 0.448009 0.285361
O O9 0.343833 0.275410 0.227326
O O10 0.798992 0.389891 0.024838
O O11 0.789771 0.165126 0.403280
O O12 0.500000 0.000000 0.500000
O O13 0.427634 0.384296 0.779067
O O14 0.990366 0.369181 0.572385
O O15 0.828693 0.539183 0.888027
#
# Coordination Sequence:
#
# PCOD9031879 Si02
#       7
#     2   2   2   2   2   2   2
#     4  12  24  45  75 103 141 197 244 286 359 437
#     4  11  22  43  70 101 137 185 245 289 352 438
#     4  11  22  41  73  98 134 195 240 291 351 431
#     4  12  27  45  69 107 151 183 235 307 365 423
#     4  10  24  42  64 102 145 182 237 300 357 421
#     4  10  22  43  68  97 138 189 237 290 362 427
#     4  12  24  43  69 104 143 186 241 298 355 424
#
# _framework density 23.488054999999999
#
# number of rings (size 3 to 8) (size 9 to 14) (size 15 to 20)
#    0.000    0.857    4.286    3.000    0.000    2.286 
#    0.000    5.714    0.000    0.000    0.000    0.000 
#    0.000    0.000    0.000    0.000    0.000    0.000 
#
# Total GULP energy -78053.013491 kJ/mol
# GULP energy per Si atom -5575.215249 kJ/mol
# Density = 2.343460 g / cm^3
# Si number density = 23.488055 Si / 1000 Ang^3
#
#
#
# Elastic Constant Matrix: (Units=GPa)
#
#
# Indices 1 2 3 4 5 6 
#
# 1 102.7768 17.2842 32.0413 -5.1753 -13.1428 -7.5820
# 2 17.2842 78.8457 5.8758 0.3871 11.3678 -9.1336
# 3 32.0413 5.8758 38.7073 12.4178 -13.3105 -19.0325
# 4 -5.1753 0.3871 12.4178 41.6048 -11.4396 -10.1040
# 5 -13.1428 11.3678 -13.3105 -11.4396 29.4342 0.6584
# 6 -7.5820 -9.1336 -19.0325 -10.1040 0.6584 52.4671
#
#
#
# Elastic Compliance Matrix: (Units=1/GPa)
#
#
# Indices 1 2 3 4 5 6 
#
# 1 0.015387 -0.003271 -0.013921 0.006829 0.004540 -0.002138
# 2 -0.003271 0.014899 -0.001113 -0.002246 -0.008622 0.001393
# 3 -0.013921 -0.001113 0.052820 -0.010073 0.013853 0.014841
# 4 0.006829 -0.002246 -0.010073 0.031831 0.011667 0.002925
# 5 0.004540 -0.008622 0.013853 0.011667 0.050001 0.005800
# 6 -0.002138 0.001393 0.014841 0.002925 0.005800 0.024867
#
#
# Mechanical properties :
#
#
# Convention : Reuss Voigt Hill
#
# Bulk Modulus (GPa) = 21.50787 36.74805 29.12796
# Shear Modulus (GPa) = 20.66861 35.70978 28.18920
#
# Velocity S-wave (km/s) = 2.96963 3.90338 3.46808
# Velocity P-wave (km/s) = 4.57549 5.99955 5.33525
#
# Compressibility (1/GPa) = 0.04649461
#
# Stress axis : x y z
#
# Youngs Moduli (GPa) = 64.99174 67.12050 18.93223
#
# Poissons Ratio (x) = 0.21957 0.26355
# Poissons Ratio (y) = 0.21261 0.02108
# Poissons Ratio (z) = 0.90472 0.07473
#
# Static dielectric constant tensor:
#      x y z
#    x 2.002220 0.017420 0.010740 
#    y 0.017420 1.925440 -0.028030 
#    z 0.010740 -0.028030 1.917100 
# 
# From -- ./inp_files/77150.got.cif
#   From: 2010.05.17/outbox.cif.g08.bks.cpg/sg2_39_cif.got.tgz:77150.got - 2010.06.03 11:33:40.
