data_PCOD9031911
_publ_section_title
;
Structure prediction by ZEFSAII (Michael W. Deem and Ramdas Pophale) SiO2 
 PCOD9031911
Probable space group: P -1
;
_chemical_formula_sum "Si O2"
_cell_formula_units_Z 12
_cell_length_a 17.580264
_cell_length_b 13.640300
_cell_length_c 20.897523
_cell_angle_alpha 159.700482
_cell_angle_beta 19.478694
_cell_angle_gamma 157.454426
_cell_volume 545.134359
_symmetry_space_group_name_H-M "P -1"
_symmetry_group_IT_number 2
_symmetry_cell_setting 'triclinic'
loop_
_space_group_symop_operation_xyz
x,y,z
-x,-y,-z
loop_
_atom_site_type_symbol
_atom_site_label
_atom_site_fract_x
_atom_site_fract_y
_atom_site_fract_z
Si Si1 0.354676 0.164784 0.758759
Si Si2 0.194968 0.330379 0.235236
Si Si3 0.829720 0.033048 0.079079
Si Si4 0.960568 0.657579 0.060825
Si Si5 0.843785 0.791311 0.440250
Si Si6 0.578970 0.713699 0.479918
O O1 0.552813 0.467104 0.811166
O O2 0.500000 0.000000 0.500000
O O3 0.232815 0.972908 0.800461
O O4 0.114615 0.206021 0.944546
O O5 0.000000 0.500000 0.500000
O O6 0.115145 0.002853 0.132199
O O7 0.212590 0.281721 0.115460
O O8 0.627399 0.144293 0.277068
O O9 0.698001 0.681084 0.298162
O O10 0.000000 0.500000 0.000000
O O11 0.016051 0.435545 0.830405
O O12 0.776716 0.895958 0.487731
O O13 0.574144 0.618136 0.575925
O O14 0.000000 0.000000 0.500000
#
# Coordination Sequence:
#
# PCOD9031911 Si02
#       6
#     2   2   2   2   2   2
#     4  11  25  45  68 102 143 182 246 295 356 434
#     4  12  23  45  75 101 143 193 236 296 362 425
#     4  11  24  45  69 103 143 189 233 301 362 422
#     4  10  23  46  68 103 148 187 232 293 361 424
#     4  10  22  44  70 101 137 187 239 291 353 420
#     4  10  22  43  68  98 144 179 233 295 352 422
#
# _framework density 22.012920999999999
#
# number of rings (size 3 to 8) (size 9 to 14) (size 15 to 20)
#    0.000    1.333    3.333    1.500    0.000    2.000 
#    6.000    0.000    0.000    0.000    0.000    0.000 
#    0.000    0.000    0.000    0.000    0.000    0.000 
#
# Total GULP energy -66842.675112 kJ/mol
# GULP energy per Si atom -5570.222926 kJ/mol
# Density = 2.196282 g / cm^3
# Si number density = 22.012921 Si / 1000 Ang^3
#
#
#
# Elastic Constant Matrix: (Units=GPa)
#
#
# Indices 1 2 3 4 5 6 
#
# 1 99.5606 33.5623 54.2352 -3.7247 -8.5717 24.4087
# 2 33.5623 105.7767 51.1507 -18.0323 8.5682 33.4041
# 3 54.2352 51.1507 182.2231 -31.2525 8.6420 15.0812
# 4 -3.7247 -18.0323 -31.2525 30.8238 -3.7524 1.5009
# 5 -8.5717 8.5682 8.6420 -3.7524 50.0509 -5.1430
# 6 24.4087 33.4041 15.0812 1.5009 -5.1430 44.2482
#
#
#
# Elastic Compliance Matrix: (Units=1/GPa)
#
#
# Indices 1 2 3 4 5 6 
#
# 1 0.014037 -0.001786 -0.003888 -0.002735 0.002697 -0.004664
# 2 -0.001786 0.015832 -0.001528 0.007633 -0.003320 -0.011091
# 3 -0.003888 -0.001528 0.008313 0.006901 -0.001314 0.000078
# 4 -0.002735 0.007633 0.006901 0.043909 -0.000513 -0.008155
# 5 0.002697 -0.003320 -0.001314 -0.000513 0.021609 0.003995
# 6 -0.004664 -0.011091 0.000078 -0.008155 0.003995 0.034260
#
#
# Mechanical properties :
#
#
# Convention : Reuss Voigt Hill
#
# Bulk Modulus (GPa) = 42.05313 73.93965 57.99639
# Shear Modulus (GPa) = 31.19353 41.59872 36.39613
#
# Velocity S-wave (km/s) = 3.76846 4.35183 4.07061
# Velocity P-wave (km/s) = 6.17093 7.67550 6.96397
#
# Compressibility (1/GPa) = 0.02377944
#
# Stress axis : x y z
#
# Youngs Moduli (GPa) = 71.23961 63.16321 120.28902
#
# Poissons Ratio (x) = 0.11279 0.46763
# Poissons Ratio (y) = 0.12722 0.18383
# Poissons Ratio (z) = 0.27695 0.09653
#
# Static dielectric constant tensor:
#      x y z
#    x 1.767720 0.160060 -0.041100 
#    y 0.160060 1.656410 0.031170 
#    z -0.041100 0.031170 1.840690 
# 
# From -- ./inp_files/501389.got.cif
#   From: 2010.05.17/outbox.cif.g08.bks.cpg/sg2_251_cif.got.tgz:501389.got - 2010.06.03 11:33:40.
