data_PCOD9031941
_publ_section_title
;
Structure prediction by ZEFSAII (Michael W. Deem and Ramdas Pophale) SiO2 
 PCOD9031941
Probable space group: P -1
;
_chemical_formula_sum "Si O2"
_cell_formula_units_Z 12
_cell_length_a 12.384424
_cell_length_b 15.480360
_cell_length_c 8.841572
_cell_angle_alpha 140.566416
_cell_angle_beta 128.473275
_cell_angle_gamma 27.130647
_cell_volume 478.376153
_symmetry_space_group_name_H-M "P -1"
_symmetry_group_IT_number 2
_symmetry_cell_setting 'triclinic'
loop_
_space_group_symop_operation_xyz
x,y,z
-x,-y,-z
loop_
_atom_site_type_symbol
_atom_site_label
_atom_site_fract_x
_atom_site_fract_y
_atom_site_fract_z
Si Si1 0.800578 0.473487 0.986188
Si Si2 0.641817 0.883808 0.306304
Si Si3 0.001301 0.222973 0.371333
Si Si4 0.213430 0.934695 0.625034
Si Si5 0.652960 0.663827 0.458758
Si Si6 0.667577 0.240183 0.172982
O O1 0.758378 0.641287 0.073366
O O2 0.726068 0.565901 0.219664
O O3 0.599416 0.534200 0.825408
O O4 0.067751 0.195416 0.848221
O O5 0.849167 0.828063 0.435114
O O6 0.500000 0.000000 0.500000
O O7 0.446056 0.100844 0.310972
O O8 0.871681 0.447197 0.466477
O O9 0.810932 0.265369 0.319231
O O10 0.185825 0.989423 0.109758
O O11 0.424752 0.760976 0.450191
O O12 0.327262 0.817139 0.729705
O O13 0.000000 0.000000 0.500000
#
# Coordination Sequence:
#
# PCOD9031941 Si02
#       6
#     2   2   2   2   2   2
#     4  11  25  47  71  96 139 179 225 277 333 403
#     4  10  22  43  69 100 132 182 225 269 340 398
#     4  11  22  40  73  97 134 177 227 273 333 404
#     4  12  27  43  68 105 138 174 227 279 338 398
#     4  11  24  43  69  99 133 180 222 277 334 395
#     4  11  24  42  68 103 132 180 223 276 340 393
#
# _framework density 25.084861
#
# number of rings (size 3 to 8) (size 9 to 14) (size 15 to 20)
#    0.000    1.000    5.000    2.000    2.333   10.000 
#    0.000    1.667    0.000    0.000    0.000    0.000 
#    0.000    0.000    0.000    0.000    0.000    0.000 
#
# Total GULP energy -67266.408847 kJ/mol
# GULP energy per Si atom -5605.534071 kJ/mol
# Density = 2.502777 g / cm^3
# Si number density = 25.084861 Si / 1000 Ang^3
#
#
#
# Elastic Constant Matrix: (Units=GPa)
#
#
# Indices 1 2 3 4 5 6 
#
# 1 80.1691 21.9383 32.3811 2.4255 -10.9073 13.2971
# 2 21.9383 142.0945 26.8537 19.1931 -9.7810 31.6777
# 3 32.3811 26.8537 78.0203 20.2384 -4.9737 2.9932
# 4 2.4255 19.1931 20.2384 42.4106 -1.1243 8.1952
# 5 -10.9073 -9.7810 -4.9737 -1.1243 44.1236 3.1773
# 6 13.2971 31.6777 2.9932 8.1952 3.1773 52.6465
#
#
#
# Elastic Compliance Matrix: (Units=1/GPa)
#
#
# Indices 1 2 3 4 5 6 
#
# 1 0.016642 -0.000484 -0.007301 0.003674 0.003586 -0.004286
# 2 -0.000484 0.009026 -0.002055 -0.002060 0.001956 -0.004989
# 3 -0.007301 -0.002055 0.018499 -0.008141 -0.000623 0.003334
# 4 0.003674 -0.002060 -0.008141 0.028927 0.000542 -0.003761
# 5 0.003586 0.001956 -0.000623 0.000542 0.024186 -0.003591
# 6 -0.004286 -0.004989 0.003334 -0.003761 -0.003591 0.023692
#
#
# Mechanical properties :
#
#
# Convention : Reuss Voigt Hill
#
# Bulk Modulus (GPa) = 40.83721 51.40335 46.12028
# Shear Modulus (GPa) = 33.59898 42.44353 38.02125
#
# Velocity S-wave (km/s) = 3.66377 4.11785 3.89743
# Velocity P-wave (km/s) = 5.84915 6.56850 6.21924
#
# Compressibility (1/GPa) = 0.02448747
#
# Stress axis : x y z
#
# Youngs Moduli (GPa) = 60.08745 110.79219 54.05770
#
# Poissons Ratio (x) = 0.05360 0.39466
# Poissons Ratio (y) = 0.02907 0.11110
# Poissons Ratio (z) = 0.43868 0.22771
#
# Static dielectric constant tensor:
#      x y z
#    x 2.010930 -0.010710 0.032570 
#    y -0.010710 1.936190 0.049370 
#    z 0.032570 0.049370 1.971640 
# 
# From -- ./inp_files/203306.got.cif
#   From: 2010.05.17/outbox.cif.g08.bks.cpg/sg2_102_cif.got.tgz:203306.got - 2010.06.03 11:33:40.
