data_PCOD9031122
_publ_section_title
;
Structure prediction by ZEFSAII (Michael W. Deem and Ramdas Pophale) SiO2 
 PCOD9031122
Probable space group: P -1
;
_chemical_formula_sum "Si O2"
_cell_formula_units_Z 16
_cell_length_a 20.126490
_cell_length_b 5.370492
_cell_length_c 9.467913
_cell_angle_alpha 73.791534
_cell_angle_beta 51.416841
_cell_angle_gamma 61.078804
_cell_volume 699.832573
_symmetry_space_group_name_H-M "P -1"
_symmetry_group_IT_number 2
_symmetry_cell_setting 'triclinic'
loop_
_space_group_symop_operation_xyz
x,y,z
-x,-y,-z
loop_
_atom_site_type_symbol
_atom_site_label
_atom_site_fract_x
_atom_site_fract_y
_atom_site_fract_z
Si Si1 0.975145 0.561200 0.862433
Si Si2 0.874764 0.301006 0.529896
Si Si3 0.318242 0.442936 0.705308
Si Si4 0.580089 0.493531 0.707251
Si Si5 0.768795 0.017899 0.066397
Si Si6 0.537700 0.837726 0.202592
Si Si7 0.680994 0.449173 0.861339
Si Si8 0.005055 0.755902 0.364369
O O1 0.960283 0.322204 0.827131
O O2 0.063291 0.580051 0.662738
O O3 0.000000 0.500000 0.000000
O O4 0.878879 0.835484 0.936576
O O5 0.767675 0.486561 0.667405
O O6 0.920717 0.198161 0.639946
O O7 0.901541 0.001887 0.463425
O O8 0.342750 0.502383 0.506353
O O9 0.256616 0.736701 0.820506
O O10 0.413653 0.305709 0.692426
O O11 0.273984 0.211537 0.805523
O O12 0.533758 0.295333 0.733476
O O13 0.622361 0.396850 0.821395
O O14 0.508221 0.824404 0.769391
O O15 0.723044 0.184737 0.955986
O O16 0.618051 0.720530 0.995182
O O17 0.000000 0.500000 0.500000
#
# Coordination Sequence:
#
# PCOD9031122 Si02
#       8
#     2   2   2   2   2   2   2   2
#     4  11  26  43  69 100 145 185 231 292 352 423
#     4  10  22  43  65 100 133 186 231 283 353 407
#     4  11  25  46  76 103 143 187 235 290 351 434
#     4  12  25  46  73 104 143 183 237 296 359 418
#     4  11  26  46  70 108 142 188 235 287 353 416
#     4  11  24  46  70 106 141 186 230 295 363 418
#     4  11  25  43  71 104 138 184 242 294 342 427
#     4   9  19  40  66  94 131 178 225 281 340 417
#
# _framework density 22.862614000000001
#
# number of rings (size 3 to 8) (size 9 to 14) (size 15 to 20)
#    0.000    1.250    0.000    6.000    7.000    3.500 
#    9.000    0.000    0.000    0.000    0.000    0.000 
#    0.000    0.000    0.000    0.000    0.000    0.000 
#
# Total GULP energy -89428.341018 kJ/mol
# GULP energy per Si atom -5589.271314 kJ/mol
# Density = 2.281058 g / cm^3
# Si number density = 22.862614 Si / 1000 Ang^3
#
#
#
# Elastic Constant Matrix: (Units=GPa)
#
#
# Indices 1 2 3 4 5 6 
#
# 1 49.4549 25.9885 38.6724 -2.4255 11.4267 8.9687
# 2 25.9885 69.6654 44.6896 5.9351 2.0509 19.9005
# 3 38.6724 44.6896 134.4277 -0.2354 13.4045 2.4255
# 4 -2.4255 5.9351 -0.2354 25.3788 1.8170 1.5101
# 5 11.4267 2.0509 13.4045 1.8170 48.9410 -3.1959
# 6 8.9687 19.9005 2.4255 1.5101 -3.1959 19.7166
#
#
#
# Elastic Compliance Matrix: (Units=1/GPa)
#
#
# Indices 1 2 3 4 5 6 
#
# 1 0.031446 -0.004908 -0.006612 0.005124 -0.006164 -0.009928
# 2 -0.004908 0.028973 -0.007833 -0.005845 0.000629 -0.025497
# 3 -0.006612 -0.007833 0.011859 0.000816 -0.000802 0.009262
# 4 0.005124 -0.005845 0.000816 0.041471 -0.002724 -0.000149
# 5 -0.006164 0.000629 -0.000802 -0.002724 0.022567 0.006134
# 6 -0.009928 -0.025497 0.009262 -0.000149 0.006134 0.080837
#
#
# Mechanical properties :
#
#
# Convention : Reuss Voigt Hill
#
# Bulk Modulus (GPa) = 29.78652 52.47214 41.12933
# Shear Modulus (GPa) = 18.72309 28.42043 23.57176
#
# Velocity S-wave (km/s) = 2.86482 3.52958 3.21443
# Velocity P-wave (km/s) = 4.89894 6.29377 5.63964
#
# Compressibility (1/GPa) = 0.03357224
#
# Stress axis : x y z
#
# Youngs Moduli (GPa) = 31.80039 34.51486 84.32208
#
# Poissons Ratio (x) = 0.16941 0.55754
# Poissons Ratio (y) = 0.15609 0.66047
# Poissons Ratio (z) = 0.21026 0.27035
#
# Static dielectric constant tensor:
#      x y z
#    x 1.948890 0.095840 -0.035000 
#    y 0.095840 1.947160 0.024310 
#    z -0.035000 0.024310 1.867120 
# 
# From -- ./inp_files/340310.got.cif
#   From: 2010.05.17/outbox.cif.g08.bks.cpg/sg2_171_cif.got.tgz:340310.got - 2010.06.03 11:33:40.
