data_PCOD9031444
_publ_section_title
;
Structure prediction by ZEFSAII (Michael W. Deem and Ramdas Pophale) SiO2 
 PCOD9031444
Probable space group: P -1
;
_chemical_formula_sum "Si O2"
_cell_formula_units_Z 16
_cell_length_a 12.049653
_cell_length_b 9.035665
_cell_length_c 14.490770
_cell_angle_alpha 114.016581
_cell_angle_beta 139.673512
_cell_angle_gamma 50.188055
_cell_volume 773.768236
_symmetry_space_group_name_H-M "P -1"
_symmetry_group_IT_number 2
_symmetry_cell_setting 'triclinic'
loop_
_space_group_symop_operation_xyz
x,y,z
-x,-y,-z
loop_
_atom_site_type_symbol
_atom_site_label
_atom_site_fract_x
_atom_site_fract_y
_atom_site_fract_z
Si Si1 0.912195 0.934475 0.156609
Si Si2 0.754935 0.984587 0.568328
Si Si3 0.303084 0.211259 0.350031
Si Si4 0.021714 0.352085 0.710134
Si Si5 0.204534 0.979937 0.089599
Si Si6 0.458786 0.205940 0.991795
Si Si7 0.497759 0.480802 0.881594
Si Si8 0.939783 0.349252 0.450851
O O1 0.965221 0.788631 0.237303
O O2 0.689892 0.127889 0.087657
O O3 0.091195 0.972837 0.273170
O O4 0.863068 0.890094 0.013602
O O5 0.716671 0.848200 0.573794
O O6 0.877659 0.863356 0.524880
O O7 0.524700 0.175407 0.460950
O O8 0.114360 0.432825 0.279461
O O9 0.286312 0.066582 0.235761
O O10 0.924853 0.344496 0.550665
O O11 0.256074 0.289158 0.821472
O O12 0.368750 0.749281 0.116358
O O13 0.000000 0.000000 0.000000
O O14 0.407279 0.397516 0.064574
O O15 0.500000 0.000000 0.000000
O O16 0.272901 0.577010 0.718002
O O17 0.500000 0.500000 0.000000
O O18 0.000000 0.500000 0.500000
#
# Coordination Sequence:
#
# PCOD9031444 Si02
#       8
#     2   2   2   2   2   2   2   2
#     4  11  24  45  66  98 137 177 223 290 334 403
#     4  11  23  43  65  95 139 168 226 284 336 398
#     4  11  25  43  65  99 138 179 220 283 333 411
#     4  11  26  44  68  98 140 179 226 279 349 402
#     4  12  24  40  71 100 131 178 229 273 340 403
#     4  10  22  43  66  97 137 171 218 287 338 390
#     4  12  23  41  72  99 132 177 231 279 334 398
#     4  12  23  40  72 103 128 180 231 280 341 401
#
# _framework density 20.678027
#
# number of rings (size 3 to 8) (size 9 to 14) (size 15 to 20)
#    0.000    0.750    5.000    2.250    3.500    1.500 
#    0.000    0.000    0.000    0.000    0.000    0.000 
#    0.000    0.000    0.000    0.000    0.000    0.000 
#
# Total GULP energy -89183.559942 kJ/mol
# GULP energy per Si atom -5573.972496 kJ/mol
# Density = 2.063096 g / cm^3
# Si number density = 20.678027 Si / 1000 Ang^3
#
#
#
# Elastic Constant Matrix: (Units=GPa)
#
#
# Indices 1 2 3 4 5 6 
#
# 1 66.2640 34.6337 49.5696 -9.1526 -4.8070 -5.8252
# 2 34.6337 110.9328 45.2451 -11.6810 -7.5604 -13.6190
# 3 49.5696 45.2451 143.7754 -4.2178 14.8280 -10.8624
# 4 -9.1526 -11.6810 -4.2178 36.0717 -4.0093 -0.3587
# 5 -4.8070 -7.5604 14.8280 -4.0093 45.7204 -4.6165
# 6 -5.8252 -13.6190 -10.8624 -0.3587 -4.6165 35.5717
#
#
#
# Elastic Compliance Matrix: (Units=1/GPa)
#
#
# Indices 1 2 3 4 5 6 
#
# 1 0.023360 -0.003415 -0.007263 0.004508 0.004739 0.000961
# 2 -0.003415 0.012143 -0.002593 0.003149 0.003144 0.003738
# 3 -0.007263 -0.002593 0.010748 -0.001955 -0.004804 0.000457
# 4 0.004508 0.003149 -0.001955 0.030180 0.004501 0.002235
# 5 0.004739 0.003144 -0.004804 0.004501 0.025230 0.003832
# 6 0.000961 0.003738 0.000457 0.002235 0.003832 0.030360
#
#
# Mechanical properties :
#
#
# Convention : Reuss Voigt Hill
#
# Bulk Modulus (GPa) = 50.74042 64.42992 57.58517
# Shear Modulus (GPa) = 30.27838 36.24100 33.25969
#
# Velocity S-wave (km/s) = 3.83074 4.19099 4.01491
# Velocity P-wave (km/s) = 6.64513 7.39226 7.02863
#
# Compressibility (1/GPa) = 0.01970815
#
# Stress axis : x y z
#
# Youngs Moduli (GPa) = 42.80744 82.35120 93.03973
#
# Poissons Ratio (x) = 0.28125 0.67577
# Poissons Ratio (y) = 0.14620 0.24128
# Poissons Ratio (z) = 0.31092 0.21356
#
# Static dielectric constant tensor:
#      x y z
#    x 1.810390 -0.014130 -0.005300 
#    y -0.014130 1.827090 -0.004400 
#    z -0.005300 -0.004400 1.740080 
# 
# From -- ./inp_files/516007.got.cif
#   From: 2010.05.17/outbox.cif.g08.bks.cpg/sg2_259_cif.got.tgz:516007.got - 2010.06.03 11:33:40.
