data_PCOD9031610
_publ_section_title
;
Structure prediction by ZEFSAII (Michael W. Deem and Ramdas Pophale) SiO2 
 PCOD9031610
Probable space group: P -1
;
_chemical_formula_sum "Si O2"
_cell_formula_units_Z 16
_cell_length_a 9.079756
_cell_length_b 10.878957
_cell_length_c 12.172245
_cell_angle_alpha 125.183061
_cell_angle_beta 67.268065
_cell_angle_gamma 72.985648
_cell_volume 661.580214
_symmetry_space_group_name_H-M "P -1"
_symmetry_group_IT_number 2
_symmetry_cell_setting 'triclinic'
loop_
_space_group_symop_operation_xyz
x,y,z
-x,-y,-z
loop_
_atom_site_type_symbol
_atom_site_label
_atom_site_fract_x
_atom_site_fract_y
_atom_site_fract_z
Si Si1 0.844664 0.220548 0.239034
Si Si2 0.863002 0.634639 0.340570
Si Si3 0.932940 0.296555 0.022487
Si Si4 0.276667 0.416835 0.236411
Si Si5 0.916888 0.131008 0.418270
Si Si6 0.276556 0.054900 0.617846
Si Si7 0.418424 0.306974 0.378774
Si Si8 0.649842 0.298125 0.928861
O O1 0.949941 0.189923 0.075255
O O2 0.967518 0.109831 0.260984
O O3 0.661062 0.212480 0.268406
O O4 0.719922 0.456473 0.425422
O O5 0.843819 0.516297 0.195840
O O6 0.885018 0.774833 0.341429
O O7 0.656305 0.766980 0.549390
O O8 0.075786 0.461194 0.261957
O O9 0.762275 0.329340 0.005833
O O10 0.159372 0.167419 0.824879
O O11 0.181601 0.647613 0.401591
O O12 0.349811 0.307415 0.276469
O O13 0.482648 0.293071 0.033648
O O14 0.733067 0.119182 0.476621
O O15 0.144956 0.924663 0.297258
O O16 0.500000 0.000000 0.500000
O O17 0.500000 0.500000 0.000000
#
# Coordination Sequence:
#
# PCOD9031610 Si02
#       8
#     2   2   2   2   2   2   2   2
#     4   9  17  37  70  98 123 165 218 277 322 375
#     4  11  23  40  63  95 132 171 214 261 331 392
#     4  10  22  43  67  96 126 169 222 272 320 392
#     4  11  22  43  67  95 134 173 215 270 329 385
#     4  10  24  43  66 100 132 167 226 269 320 401
#     4  11  24  39  59  95 127 170 214 270 331 374
#     4   9  18  35  68  98 126 170 213 265 332 386
#     4  11  24  41  66  96 127 175 221 265 328 382
#
# _framework density 24.184519999999999
#
# number of rings (size 3 to 8) (size 9 to 14) (size 15 to 20)
#    0.000    1.750    1.250    3.000    3.500    4.000 
#    4.500    0.000    0.000    3.000    0.000    0.000 
#    0.000    0.000    0.000    0.000    0.000    0.000 
#
# Total GULP energy -89516.243496 kJ/mol
# GULP energy per Si atom -5594.765219 kJ/mol
# Density = 2.412947 g / cm^3
# Si number density = 24.184520 Si / 1000 Ang^3
#
#
#
# Elastic Constant Matrix: (Units=GPa)
#
#
# Indices 1 2 3 4 5 6 
#
# 1 61.3740 12.8395 26.2693 -5.4030 -13.8824 -1.5525
# 2 12.8395 115.8906 26.0169 -18.3788 -12.1285 -1.9880
# 3 26.2693 26.0169 84.5487 -16.6073 -37.6837 2.5913
# 4 -5.4030 -18.3788 -16.6073 43.7470 7.1585 -8.7919
# 5 -13.8824 -12.1285 -37.6837 7.1585 36.1810 -1.9437
# 6 -1.5525 -1.9880 2.5913 -8.7919 -1.9437 33.6332
#
#
#
# Elastic Compliance Matrix: (Units=1/GPa)
#
#
# Indices 1 2 3 4 5 6 
#
# 1 0.019011 -0.000774 -0.004714 0.000152 0.002168 0.001360
# 2 -0.000774 0.009782 -0.001994 0.003538 0.000293 0.001638
# 3 -0.004714 -0.001994 0.024769 0.004344 0.022471 0.000190
# 4 0.000152 0.003538 0.004344 0.027311 0.000745 0.007064
# 5 0.002168 0.000293 0.022471 0.000745 0.051911 0.001581
# 6 0.001360 0.001638 0.000190 0.007064 0.001581 0.031815
#
#
# Mechanical properties :
#
#
# Convention : Reuss Voigt Hill
#
# Bulk Modulus (GPa) = 25.90826 43.56274 34.73550
# Shear Modulus (GPa) = 25.98360 35.82476 30.90418
#
# Velocity S-wave (km/s) = 3.28134 3.85295 3.57858
# Velocity P-wave (km/s) = 5.00922 6.15186 5.60971
#
# Compressibility (1/GPa) = 0.03859772
#
# Stress axis : x y z
#
# Youngs Moduli (GPa) = 52.60008 102.22706 40.37366
#
# Poissons Ratio (x) = 0.07908 0.19033
# Poissons Ratio (y) = 0.04069 0.08052
# Poissons Ratio (z) = 0.24797 0.20387
#
# Static dielectric constant tensor:
#      x y z
#    x 1.897500 -0.020620 0.007990 
#    y -0.020620 1.976310 0.015470 
#    z 0.007990 0.015470 1.951580 
# 
# From -- ./inp_files/390984.got.cif
#   From: 2010.05.17/outbox.cif.g08.bks.cpg/sg2_196_cif.got.tgz:390984.got - 2010.06.03 11:33:40.
