data_PCOD9032851
_publ_section_title
;
Structure prediction by ZEFSAII (Michael W. Deem and Ramdas Pophale) SiO2 
 PCOD9032851
Probable space group: P -1
;
_chemical_formula_sum "Si O2"
_cell_formula_units_Z 16
_cell_length_a 13.650682
_cell_length_b 5.221624
_cell_length_c 10.420146
_cell_angle_alpha 72.174404
_cell_angle_beta 102.437980
_cell_angle_gamma 123.393968
_cell_volume 589.315158
_symmetry_space_group_name_H-M "P -1"
_symmetry_group_IT_number 2
_symmetry_cell_setting 'triclinic'
loop_
_space_group_symop_operation_xyz
x,y,z
-x,-y,-z
loop_
_atom_site_type_symbol
_atom_site_label
_atom_site_fract_x
_atom_site_fract_y
_atom_site_fract_z
Si Si1 0.248640 0.394664 0.299368
Si Si2 0.851575 0.268392 0.886051
Si Si3 0.699844 0.957565 0.326075
Si Si4 0.963264 0.269150 0.647579
Si Si5 0.601623 0.661885 0.835245
Si Si6 0.635134 0.263986 0.483336
Si Si7 0.608586 0.308735 0.123828
Si Si8 0.855169 0.930699 0.183005
O O1 0.183359 0.464929 0.154806
O O2 0.364105 0.401005 0.283971
O O3 0.291570 0.661577 0.377132
O O4 0.152891 0.058320 0.378061
O O5 0.926127 0.347039 0.763380
O O6 0.723579 0.957508 0.875073
O O7 0.898558 0.174680 0.038399
O O8 0.350648 0.400591 0.594887
O O9 0.822415 0.073122 0.272722
O O10 0.693090 0.154330 0.410829
O O11 0.624918 0.014691 0.189541
O O12 0.000000 0.500000 0.500000
O O13 0.497078 0.725589 0.813634
O O14 0.580886 0.378510 0.965190
O O15 0.940964 0.820967 0.273619
O O16 0.500000 0.000000 0.500000
O O17 0.732595 0.616871 0.154023
#
# Coordination Sequence:
#
# PCOD9032851 Si02
#       8
#     2   2   2   2   2   2   2   2
#     4  11  27  48  78 114 165 222 282 343 423 487
#     4  10  24  47  80 120 166 214 280 348 419 497
#     4  12  27  49  78 121 161 222 278 339 415 496
#     4  11  28  51  82 122 168 221 282 352 420 500
#     4   9  22  45  75 120 166 212 273 341 418 506
#     4  12  31  51  79 118 168 225 280 340 416 505
#     4  10  22  43  80 121 162 219 267 340 421 496
#     4  11  25  48  82 121 169 218 282 344 417 499
#
# _framework density 27.150155999999999
#
# number of rings (size 3 to 8) (size 9 to 14) (size 15 to 20)
#    0.000    1.250    1.250    1.500   10.500    2.000 
#    0.000    4.375    0.000    2.250    0.000    0.875 
#    0.000    0.000    0.000    0.000    0.000    0.000 
#
# Total GULP energy -89810.157165 kJ/mol
# GULP energy per Si atom -5613.134823 kJ/mol
# Density = 2.708836 g / cm^3
# Si number density = 27.150156 Si / 1000 Ang^3
#
#
#
# Elastic Constant Matrix: (Units=GPa)
#
#
# Indices 1 2 3 4 5 6 
#
# 1 183.0671 54.2700 88.6783 -16.5982 -17.3406 -33.3046
# 2 54.2700 119.0585 69.4585 -18.0296 -10.5079 -16.0964
# 3 88.6783 69.4585 206.0978 -33.7657 -2.3586 -13.6640
# 4 -16.5982 -18.0296 -33.7657 51.3122 -18.2574 10.1970
# 5 -17.3406 -10.5079 -2.3586 -18.2574 51.3702 -4.9019
# 6 -33.3046 -16.0964 -13.6640 10.1970 -4.9019 59.8854
#
#
#
# Elastic Compliance Matrix: (Units=1/GPa)
#
#
# Indices 1 2 3 4 5 6 
#
# 1 0.008165 -0.001280 -0.002678 0.000759 0.002994 0.003702
# 2 -0.001280 0.011423 -0.002759 0.002476 0.002805 0.001537
# 3 -0.002678 -0.002759 0.007386 0.003210 -0.000093 -0.001100
# 4 0.000759 0.002476 0.003210 0.026733 0.010231 -0.001894
# 5 0.002994 0.002805 -0.000093 0.010231 0.024940 0.002697
# 6 0.003702 0.001537 -0.001100 -0.001894 0.002697 0.019463
#
#
# Mechanical properties :
#
#
# Convention : Reuss Voigt Hill
#
# Bulk Modulus (GPa) = 73.85554 103.67079 88.76316
# Shear Modulus (GPa) = 43.08235 52.23467 47.65851
#
# Velocity S-wave (km/s) = 3.98781 4.39101 4.19426
# Velocity P-wave (km/s) = 6.96169 7.99844 7.49801
#
# Compressibility (1/GPa) = 0.01353995
#
# Stress axis : x y z
#
# Youngs Moduli (GPa) = 122.47541 87.54510 135.39018
#
# Poissons Ratio (x) = 0.11205 0.36254
# Poissons Ratio (y) = 0.15675 0.37357
# Poissons Ratio (z) = 0.32796 0.24156
#
# Static dielectric constant tensor:
#      x y z
#    x 2.109290 0.047360 0.057530 
#    y 0.047360 2.138320 0.007110 
#    z 0.057530 0.007110 2.170280 
# 
# From -- ./inp_files/96175.got.cif
#   From: 2010.05.17/outbox.cif.g08.bks.cpg/sg2_49_cif.got.tgz:96175.got - 2010.06.03 11:33:40.
