data_PCOD9032748
_publ_section_title
;
Structure prediction by ZEFSAII (Michael W. Deem and Ramdas Pophale) SiO2 
 PCOD9032748
Probable space group: P -1
;
_chemical_formula_sum "Si O2"
_cell_formula_units_Z 12
_cell_length_a 9.020061
_cell_length_b 12.758525
_cell_length_c 8.953806
_cell_angle_alpha 57.794264
_cell_angle_beta 118.960379
_cell_angle_gamma 145.307659
_cell_volume 493.982839
_symmetry_space_group_name_H-M "P -1"
_symmetry_group_IT_number 2
_symmetry_cell_setting 'triclinic'
loop_
_space_group_symop_operation_xyz
x,y,z
-x,-y,-z
loop_
_atom_site_type_symbol
_atom_site_label
_atom_site_fract_x
_atom_site_fract_y
_atom_site_fract_z
Si Si1 0.015956 0.516870 0.173986
Si Si2 0.737877 0.565132 0.491340
Si Si3 0.615502 0.090956 0.826702
Si Si4 0.455960 0.111004 0.314542
Si Si5 0.594667 0.638627 0.802066
Si Si6 0.939647 0.110437 0.383123
O O1 0.233037 0.545163 0.321546
O O2 0.110591 0.692803 0.167027
O O3 0.748348 0.318464 0.259392
O O4 0.000000 0.500000 0.000000
O O5 0.500000 0.500000 0.500000
O O6 0.648840 0.496593 0.331293
O O7 0.981524 0.783777 0.499467
O O8 0.666729 0.001236 0.816817
O O9 0.366007 0.030034 0.685442
O O10 0.500000 0.000000 0.000000
O O11 0.347626 0.184072 0.264145
O O12 0.500000 0.000000 0.500000
O O13 0.852740 0.730153 0.767083
O O14 0.500000 0.500000 0.000000
O O15 0.000000 0.000000 0.500000
#
# Coordination Sequence:
#
# PCOD9032748 Si02
#       6
#     2   2   2   2   2   2
#     4  12  25  47  80 109 147 202 266 310 368 465
#     4  10  22  43  74 102 145 199 251 303 375 444
#     4  12  25  45  77 107 143 200 257 304 365 460
#     4  12  27  49  75 114 154 192 255 318 392 434
#     4  11  28  47  75 115 158 196 250 322 391 444
#     4  11  23  47  72 104 146 200 257 301 369 463
#
# _framework density 24.292344
#
# number of rings (size 3 to 8) (size 9 to 14) (size 15 to 20)
#    0.000    0.667    3.333    4.000    7.000    4.000 
#    0.000    1.667    0.000    0.000    0.000    0.000 
#    0.000    0.000    0.000    0.000    0.000    0.000 
#
# Total GULP energy -66945.058230 kJ/mol
# GULP energy per Si atom -5578.754852 kJ/mol
# Density = 2.423705 g / cm^3
# Si number density = 24.292344 Si / 1000 Ang^3
#
#
#
# Elastic Constant Matrix: (Units=GPa)
#
#
# Indices 1 2 3 4 5 6 
#
# 1 123.2067 38.6641 38.7451 7.2485 -14.0461 -22.7541
# 2 38.6641 207.0059 55.4002 12.5260 -14.7575 -39.6948
# 3 38.7451 55.4002 147.7129 15.0028 -8.8595 -18.1390
# 4 7.2485 12.5260 15.0028 46.6200 6.3095 -10.9287
# 5 -14.0461 -14.7575 -8.8595 6.3095 32.4223 4.7270
# 6 -22.7541 -39.6948 -18.1390 -10.9287 4.7270 57.5799
#
#
#
# Elastic Compliance Matrix: (Units=1/GPa)
#
#
# Indices 1 2 3 4 5 6 
#
# 1 0.009723 -0.000599 -0.001762 -0.000636 0.003219 0.002489
# 2 -0.000599 0.006149 -0.001592 -0.000516 0.001729 0.003260
# 3 -0.001762 -0.001592 0.008133 -0.001991 0.001078 0.000302
# 4 -0.000636 -0.000516 -0.001991 0.024085 -0.006303 0.003855
# 5 0.003219 0.001729 0.001078 -0.006303 0.034727 -0.001244
# 6 0.002489 0.003260 0.000302 0.003855 -0.001244 0.021527
#
#
# Mechanical properties :
#
#
# Convention : Reuss Voigt Hill
#
# Bulk Modulus (GPa) = 62.12392 82.61602 72.36997
# Shear Modulus (GPa) = 42.51107 50.33221 46.42164
#
# Velocity S-wave (km/s) = 4.18781 4.55679 4.37619
# Velocity P-wave (km/s) = 7.00090 7.85931 7.44249
#
# Compressibility (1/GPa) = 0.01609686
#
# Stress axis : x y z
#
# Youngs Moduli (GPa) = 102.85248 162.64011 122.95247
#
# Poissons Ratio (x) = 0.09744 0.21668
# Poissons Ratio (y) = 0.06162 0.19579
# Poissons Ratio (z) = 0.18125 0.25899
#
# Static dielectric constant tensor:
#      x y z
#    x 1.404910 0.200830 -0.755750 
#    y 0.200830 2.812680 -0.273770 
#    z -0.755750 -0.273770 1.597110 
# 
# From -- ./inp_files/183504.got.cif
#   From: 2010.05.17/outbox.cif.g08.bks.cpg/sg2_92_cif.got.tgz:183504.got - 2010.06.03 11:33:40.
