data_PCOD9032218
_publ_section_title
;
Structure prediction by ZEFSAII (Michael W. Deem and Ramdas Pophale) SiO2 
 PCOD9032218
Probable space group: P -1
;
_chemical_formula_sum "Si O2"
_cell_formula_units_Z 12
_cell_length_a 7.789923
_cell_length_b 18.736023
_cell_length_c 11.661117
_cell_angle_alpha 31.429817
_cell_angle_beta 143.611976
_cell_angle_gamma 125.394460
_cell_volume 493.567694
_symmetry_space_group_name_H-M "P -1"
_symmetry_group_IT_number 2
_symmetry_cell_setting 'triclinic'
loop_
_space_group_symop_operation_xyz
x,y,z
-x,-y,-z
loop_
_atom_site_type_symbol
_atom_site_label
_atom_site_fract_x
_atom_site_fract_y
_atom_site_fract_z
Si Si1 0.436207 0.168426 0.714803
Si Si2 0.821008 0.349600 0.244451
Si Si3 0.306147 0.327409 0.841139
Si Si4 0.124113 0.550966 0.247552
Si Si5 0.185535 0.830602 0.858755
Si Si6 0.117244 0.834779 0.238017
O O1 0.589291 0.187328 0.653344
O O2 0.078359 0.255761 0.421746
O O3 0.613996 0.200642 0.874805
O O4 0.500000 0.000000 0.000000
O O5 0.838602 0.264657 0.489476
O O6 0.494029 0.368423 0.987704
O O7 0.063862 0.517258 0.845242
O O8 0.118649 0.477399 0.468351
O O9 0.105911 0.221219 0.887574
O O10 0.572691 0.232040 0.027211
O O11 0.500000 0.500000 0.500000
O O12 0.993817 0.723989 0.923562
O O13 0.000000 0.000000 0.500000
O O14 0.000000 0.000000 0.000000
#
# Coordination Sequence:
#
# PCOD9032218 Si02
#       6
#     2   2   2   2   2   2
#     4  12  22  43  67 103 145 181 231 299 347 418
#     4  11  22  44  70 103 140 187 239 285 357 419
#     4  10  22  43  70 101 141 185 232 289 355 418
#     4   9  19  42  69  98 143 186 229 293 347 421
#     4  11  22  41  69 108 135 184 242 283 351 424
#     4  11  23  43  67 102 148 185 232 296 352 413
#
# _framework density 24.312774000000001
#
# number of rings (size 3 to 8) (size 9 to 14) (size 15 to 20)
#    0.000    1.333    6.667    1.000    0.000    3.333 
#    9.000    3.333    0.000    2.000    0.000    0.000 
#    0.000    0.000    0.000    0.000    0.000    0.000 
#
# Total GULP energy -67105.117570 kJ/mol
# GULP energy per Si atom -5592.093131 kJ/mol
# Density = 2.425744 g / cm^3
# Si number density = 24.312774 Si / 1000 Ang^3
#
#
#
# Elastic Constant Matrix: (Units=GPa)
#
#
# Indices 1 2 3 4 5 6 
#
# 1 143.6839 45.5696 52.7225 10.5819 4.0831 15.6732
# 2 45.5696 204.1016 76.2465 7.1576 2.4721 32.3200
# 3 52.7225 76.2465 120.9602 -12.5400 12.5387 15.1089
# 4 10.5819 7.1576 -12.5400 53.5490 11.0563 -12.0991
# 5 4.0831 2.4721 12.5387 11.0563 23.4768 0.2330
# 6 15.6732 32.3200 15.1089 -12.0991 0.2330 28.6076
#
#
#
# Elastic Compliance Matrix: (Units=1/GPa)
#
#
# Indices 1 2 3 4 5 6 
#
# 1 0.009320 0.000649 -0.004618 -0.004900 0.003139 -0.005498
# 2 0.000649 0.008439 -0.005496 -0.005636 0.004682 -0.009408
# 3 -0.004618 -0.005496 0.015183 0.008403 -0.010728 0.004362
# 4 -0.004900 -0.005636 0.008403 0.029859 -0.017277 0.017382
# 5 0.003139 0.004682 -0.010728 -0.017277 0.055513 -0.009102
# 6 -0.005498 -0.009408 0.004362 0.017382 -0.009102 0.053718
#
#
# Mechanical properties :
#
#
# Convention : Reuss Voigt Hill
#
# Bulk Modulus (GPa) = 71.37573 90.86922 81.12248
# Shear Modulus (GPa) = 25.55816 40.74050 33.14933
#
# Velocity S-wave (km/s) = 3.24578 4.09795 3.69650
# Velocity P-wave (km/s) = 6.59301 7.73610 7.18731
#
# Compressibility (1/GPa) = 0.01401036
#
# Stress axis : x y z
#
# Youngs Moduli (GPa) = 107.29816 118.50195 65.86341
#
# Poissons Ratio (x) = -0.07687 0.30414
# Poissons Ratio (y) = -0.06961 0.36201
# Poissons Ratio (z) = 0.49548 0.65134
#
# Static dielectric constant tensor:
#      x y z
#    x 1.872620 0.183960 0.076730 
#    y 0.183960 1.519050 -0.156360 
#    z 0.076730 -0.156360 1.935230 
# 
# From -- ./inp_files/405325.got.cif
#   From: 2010.05.17/outbox.cif.g08.bks.cpg/sg2_203_cif.got.tgz:405325.got - 2010.06.03 11:33:40.
