data_PCOD9032985
_publ_section_title
;
Structure prediction by ZEFSAII (Michael W. Deem and Ramdas Pophale) SiO2 
 PCOD9032985
Probable space group: P -1
;
_chemical_formula_sum "Si O2"
_cell_formula_units_Z 16
_cell_length_a 8.604902
_cell_length_b 11.034828
_cell_length_c 12.219262
_cell_angle_alpha 132.713658
_cell_angle_beta 97.967335
_cell_angle_gamma 56.435760
_cell_volume 655.263962
_symmetry_space_group_name_H-M "P -1"
_symmetry_group_IT_number 2
_symmetry_cell_setting 'triclinic'
loop_
_space_group_symop_operation_xyz
x,y,z
-x,-y,-z
loop_
_atom_site_type_symbol
_atom_site_label
_atom_site_fract_x
_atom_site_fract_y
_atom_site_fract_z
Si Si1 0.233708 0.229161 0.445251
Si Si2 0.322203 0.376881 0.038621
Si Si3 0.578414 0.217907 0.745776
Si Si4 0.008149 0.698363 0.748474
Si Si5 0.686476 0.952135 0.052743
Si Si6 0.032514 0.859393 0.312323
Si Si7 0.604689 0.207587 0.386242
Si Si8 0.439493 0.547885 0.737901
O O1 0.076290 0.461452 0.624685
O O2 0.411204 0.226021 0.411578
O O3 0.116465 0.217947 0.326247
O O4 0.340046 0.022850 0.404747
O O5 0.275032 0.218586 0.960226
O O6 0.124707 0.617732 0.192009
O O7 0.488366 0.343901 0.118402
O O8 0.421033 0.329631 0.899038
O O9 0.786705 0.179516 0.765357
O O10 0.487446 0.365197 0.719650
O O11 0.209211 0.673125 0.757440
O O12 0.870076 0.845582 0.924027
O O13 0.500000 0.000000 0.000000
O O14 0.625222 0.162638 0.232408
O O15 0.000000 0.000000 0.500000
O O16 0.815952 0.999645 0.323292
O O17 0.577977 0.402145 0.559055
#
# Coordination Sequence:
#
# PCOD9032985 Si02
#       8
#     2   2   2   2   2   2   2   2
#     4  10  22  44  64  93 129 171 214 264 320 393
#     4  11  24  43  64  94 133 172 211 269 326 384
#     4  11  22  42  65  93 134 168 212 267 329 375
#     4  10  23  41  66  92 128 169 219 261 322 381
#     4  12  25  44  65  93 135 167 219 271 317 379
#     4  11  23  41  64  96 132 163 214 268 324 386
#     4  11  22  42  64  94 132 166 213 268 321 381
#     4  10  23  42  66  92 130 171 215 264 326 388
#
# _framework density 24.417639000000001
#
# number of rings (size 3 to 8) (size 9 to 14) (size 15 to 20)
#    0.000    1.250    5.000    1.500    5.250    3.500 
#    2.250    1.875    0.000    0.000    0.000    0.000 
#    0.000    0.000    0.000    0.000    0.000    0.000 
#
# Total GULP energy -89526.575047 kJ/mol
# GULP energy per Si atom -5595.410940 kJ/mol
# Density = 2.436206 g / cm^3
# Si number density = 24.417639 Si / 1000 Ang^3
#
#
#
# Elastic Constant Matrix: (Units=GPa)
#
#
# Indices 1 2 3 4 5 6 
#
# 1 80.3699 30.2234 27.1316 13.1107 5.6829 -20.6826
# 2 30.2234 58.6869 29.3833 9.2175 4.5044 -4.8958
# 3 27.1316 29.3833 147.4336 7.8859 4.8971 2.5299
# 4 13.1107 9.2175 7.8859 39.1355 -5.7270 10.3037
# 5 5.6829 4.5044 4.8971 -5.7270 39.0466 7.2460
# 6 -20.6826 -4.8958 2.5299 10.3037 7.2460 51.0644
#
#
#
# Elastic Compliance Matrix: (Units=1/GPa)
#
#
# Indices 1 2 3 4 5 6 
#
# 1 0.019772 -0.006827 -0.001862 -0.007907 -0.004821 0.009725
# 2 -0.006827 0.022691 -0.003066 -0.002788 -0.001717 0.000368
# 3 -0.001862 -0.003066 0.007755 0.000159 -0.000054 -0.001457
# 4 -0.007907 -0.002788 0.000159 0.033040 0.008402 -0.011336
# 5 -0.004821 -0.001717 -0.000054 0.008402 0.029226 -0.007957
# 6 0.009725 0.000368 -0.001457 -0.011336 -0.007957 0.027046
#
#
# Mechanical properties :
#
#
# Convention : Reuss Voigt Hill
#
# Bulk Modulus (GPa) = 37.44260 51.10745 44.27502
# Shear Modulus (GPa) = 29.07968 39.16611 34.12289
#
# Velocity S-wave (km/s) = 3.45473 4.00935 3.74233
# Velocity P-wave (km/s) = 5.59295 6.51223 6.07002
#
# Compressibility (1/GPa) = 0.02670755
#
# Stress axis : x y z
#
# Youngs Moduli (GPa) = 50.57745 44.07049 128.95405
#
# Poissons Ratio (x) = 0.30087 0.24008
# Poissons Ratio (y) = 0.34529 0.39539
# Poissons Ratio (z) = 0.09416 0.13513
#
# Static dielectric constant tensor:
#      x y z
#    x 1.809050 -0.034510 0.071510 
#    y -0.034510 2.022750 0.047800 
#    z 0.071510 0.047800 1.917270 
# 
# From -- ./inp_files/393100.got.cif
#   From: 2010.05.17/outbox.cif.g08.bks.cpg/sg2_197_cif.got.tgz:393100.got - 2010.06.03 11:33:40.
