data_PCOD9032745
_publ_section_title
;
Structure prediction by ZEFSAII (Michael W. Deem and Ramdas Pophale) SiO2 
 PCOD9032745
Probable space group: P -1
;
_chemical_formula_sum "Si O2"
_cell_formula_units_Z 14
_cell_length_a 20.230791
_cell_length_b 9.580914
_cell_length_c 6.721859
_cell_angle_alpha 135.676355
_cell_angle_beta 128.302734
_cell_angle_gamma 49.316380
_cell_volume 660.746472
_symmetry_space_group_name_H-M "P -1"
_symmetry_group_IT_number 2
_symmetry_cell_setting 'triclinic'
loop_
_space_group_symop_operation_xyz
x,y,z
-x,-y,-z
loop_
_atom_site_type_symbol
_atom_site_label
_atom_site_fract_x
_atom_site_fract_y
_atom_site_fract_z
Si Si1 0.684574 0.648783 0.236996
Si Si2 0.183456 0.156200 0.146925
Si Si3 0.657701 0.302518 0.101526
Si Si4 0.986342 0.790923 0.833763
Si Si5 0.070569 0.421788 0.867928
Si Si6 0.469198 0.901935 0.530763
Si Si7 0.409190 0.480251 0.402843
O O1 0.773699 0.697699 0.499849
O O2 0.668296 0.517636 0.260495
O O3 0.607288 0.886943 0.304328
O O4 0.670019 0.508857 0.886567
O O5 0.098639 0.155936 0.119263
O O6 0.157141 0.261327 0.984751
O O7 0.254800 0.912732 0.000366
O O8 0.631387 0.340863 0.321594
O O9 0.576544 0.262213 0.795790
O O10 0.966595 0.687298 0.487801
O O11 0.070759 0.629371 0.958002
O O12 0.000000 0.000000 0.000000
O O13 0.000000 0.500000 0.000000
O O14 0.552598 0.758528 0.673279
O O15 0.500000 0.000000 0.500000
O O16 0.500000 0.500000 0.500000
#
# Coordination Sequence:
#
# PCOD9032745 Si02
#       7
#     2   2   2   2   2   2   2
#     4  11  24  41  61  94 130 175 217 271 333 375
#     4  10  25  43  64  95 141 169 212 268 325 393
#     4  11  24  41  61  95 132 172 216 275 334 370
#     4  10  22  43  74 102 125 169 220 257 319 395
#     4   9  21  43  68  97 127 168 209 257 318 390
#     4  11  21  42  66  87 124 171 225 274 322 385
#     4  12  23  41  70  91 125 180 230 273 319 385
#
# _framework density 21.188154999999998
#
# number of rings (size 3 to 8) (size 9 to 14) (size 15 to 20)
#    0.000    1.429    2.857    1.714    0.000    9.143 
#    0.000    0.000    0.000    0.000    0.000    0.000 
#    0.000    0.000    0.000    0.000    0.000    0.000 
#
# Total GULP energy -78113.684303 kJ/mol
# GULP energy per Si atom -5579.548879 kJ/mol
# Density = 2.113993 g / cm^3
# Si number density = 21.188155 Si / 1000 Ang^3
#
#
#
# Elastic Constant Matrix: (Units=GPa)
#
#
# Indices 1 2 3 4 5 6 
#
# 1 78.8562 35.5022 39.2154 2.1620 -1.6801 17.2833
# 2 35.5022 112.4559 33.7979 -10.7926 3.8002 24.3743
# 3 39.2154 33.7979 109.3126 -7.3574 -14.7996 6.7012
# 4 2.1620 -10.7926 -7.3574 37.8520 7.1433 1.6111
# 5 -1.6801 3.8002 -14.7996 7.1433 34.1802 7.7378
# 6 17.2833 24.3743 6.7012 1.6111 7.7378 33.5040
#
#
#
# Elastic Compliance Matrix: (Units=1/GPa)
#
#
# Indices 1 2 3 4 5 6 
#
# 1 0.018129 -0.003137 -0.005222 -0.002866 0.000961 -0.006109
# 2 -0.003137 0.012479 -0.002301 0.003923 -0.001826 -0.006767
# 3 -0.005222 -0.002301 0.012443 0.001087 0.005008 0.000670
# 4 -0.002866 0.003923 0.001087 0.029079 -0.005810 -0.001649
# 5 0.000961 -0.001826 0.005008 -0.005810 0.034678 -0.007898
# 6 -0.006109 -0.006767 0.000670 -0.001649 -0.007898 0.039691
#
#
# Mechanical properties :
#
#
# Convention : Reuss Voigt Hill
#
# Bulk Modulus (GPa) = 46.01909 57.51731 51.76820
# Shear Modulus (GPa) = 28.56119 33.91451 31.23785
#
# Velocity S-wave (km/s) = 3.67547 4.00513 3.84384
# Velocity P-wave (km/s) = 6.30702 6.97087 6.64724
#
# Compressibility (1/GPa) = 0.02173011
#
# Stress axis : x y z
#
# Youngs Moduli (GPa) = 55.16140 80.13253 80.36623
#
# Poissons Ratio (x) = 0.25139 0.41966
# Poissons Ratio (y) = 0.17305 0.18495
# Poissons Ratio (z) = 0.28805 0.18441
#
# Static dielectric constant tensor:
#      x y z
#    x 1.792600 -0.027490 -0.018240 
#    y -0.027490 1.814520 -0.010640 
#    z -0.018240 -0.010640 1.852440 
# 
# From -- ./inp_files/10234.got.cif
#   From: 2010.05.17/outbox.cif.g08.bks.cpg/sg2_6_cif.got.tgz:10234.got - 2010.06.03 11:33:40.
