data_PCOD9032474
_publ_section_title
;
Structure prediction by ZEFSAII (Michael W. Deem and Ramdas Pophale) SiO2 
 PCOD9032474
Probable space group: P -1
;
_chemical_formula_sum "Si O2"
_cell_formula_units_Z 16
_cell_length_a 8.175852
_cell_length_b 13.542104
_cell_length_c 8.127318
_cell_angle_alpha 63.578415
_cell_angle_beta 85.937871
_cell_angle_gamma 105.477343
_cell_volume 757.657248
_symmetry_space_group_name_H-M "P -1"
_symmetry_group_IT_number 2
_symmetry_cell_setting 'triclinic'
loop_
_space_group_symop_operation_xyz
x,y,z
-x,-y,-z
loop_
_atom_site_type_symbol
_atom_site_label
_atom_site_fract_x
_atom_site_fract_y
_atom_site_fract_z
Si Si1 0.856681 0.086721 0.618777
Si Si2 0.475157 0.023304 0.792615
Si Si3 0.889305 0.670887 0.493937
Si Si4 0.664909 0.459639 0.461536
Si Si5 0.879429 0.405916 0.200978
Si Si6 0.089687 0.110734 0.032263
Si Si7 0.620107 0.759567 0.327383
Si Si8 0.815984 0.169437 0.211858
O O1 0.662656 0.083865 0.661843
O O2 0.885113 0.114152 0.404023
O O3 0.979331 0.195665 0.637104
O O4 0.859470 0.961303 0.770556
O O5 0.372887 0.113682 0.711437
O O6 0.631864 0.090536 0.213512
O O7 0.500000 0.000000 0.000000
O O8 0.828155 0.561775 0.452641
O O9 0.709343 0.700242 0.500836
O O10 0.987242 0.625018 0.661053
O O11 0.500000 0.500000 0.500000
O O12 0.737132 0.444082 0.286266
O O13 0.577669 0.324396 0.628515
O O14 0.798729 0.289456 0.186353
O O15 0.000000 0.500000 0.000000
O O16 0.954996 0.172406 0.057804
O O17 0.254767 0.209018 0.864920
O O18 0.000000 0.000000 0.000000
#
# Coordination Sequence:
#
# PCOD9032474 Si02
#       8
#     2   2   2   2   2   2   2   2
#     4  11  22  40  64 101 135 176 222 283 352 392
#     4  12  23  40  66  99 132 176 225 279 334 412
#     4  10  22  43  71  94 133 183 227 280 331 410
#     4  10  24  45  73  99 131 183 228 282 337 405
#     4  11  26  46  70 102 134 177 233 284 347 402
#     4  12  21  40  67  99 132 184 230 275 327 419
#     4  11  22  40  68  99 135 169 241 273 328 396
#     4  11  25  41  63  95 145 171 217 290 350 400
#
# _framework density 21.117730000000002
#
# number of rings (size 3 to 8) (size 9 to 14) (size 15 to 20)
#    0.000    1.000    3.750    2.625    3.500    2.000 
#    0.000    5.000    0.000    0.000    0.000    0.000 
#    0.000    0.000    0.000    0.000    0.000    0.000 
#
# Total GULP energy -89071.792434 kJ/mol
# GULP energy per Si atom -5566.987027 kJ/mol
# Density = 2.106966 g / cm^3
# Si number density = 21.117730 Si / 1000 Ang^3
#
#
#
# Elastic Constant Matrix: (Units=GPa)
#
#
# Indices 1 2 3 4 5 6 
#
# 1 73.8986 50.1860 19.7726 6.8633 -19.7481 7.1537
# 2 50.1860 140.8398 35.8173 14.5675 -7.0422 24.0929
# 3 19.7726 35.8173 85.1576 0.5294 -24.9992 3.1270
# 4 6.8633 14.5675 0.5294 32.1446 -5.7682 -5.2123
# 5 -19.7481 -7.0422 -24.9992 -5.7682 35.4576 -6.1182
# 6 7.1537 24.0929 3.1270 -5.2123 -6.1182 50.2560
#
#
#
# Elastic Compliance Matrix: (Units=1/GPa)
#
#
# Indices 1 2 3 4 5 6 
#
# 1 0.021435 -0.008103 0.001975 0.001678 0.012408 0.002395
# 2 -0.008103 0.012730 -0.005559 -0.006400 -0.008023 -0.006244
# 3 0.001975 -0.005559 0.017490 0.004832 0.013712 0.003466
# 4 0.001678 -0.006400 0.004832 0.036659 0.010343 0.007590
# 5 0.012408 -0.008023 0.013712 0.010343 0.046238 0.007928
# 6 0.002395 -0.006244 0.003466 0.007590 0.007928 0.024087
#
#
# Mechanical properties :
#
#
# Convention : Reuss Voigt Hill
#
# Bulk Modulus (GPa) = 35.35848 56.82754 46.09301
# Shear Modulus (GPa) = 26.11789 36.51297 31.31543
#
# Velocity S-wave (km/s) = 3.52060 4.16266 3.85502
# Velocity P-wave (km/s) = 5.77113 7.07615 6.45670
#
# Compressibility (1/GPa) = 0.02828176
#
# Stress axis : x y z
#
# Youngs Moduli (GPa) = 46.65375 78.55244 57.17434
#
# Poissons Ratio (x) = 0.63652 -0.11294
# Poissons Ratio (y) = 0.37804 0.31783
# Poissons Ratio (z) = -0.09216 0.43667
#
# Static dielectric constant tensor:
#      x y z
#    x 1.839460 -0.002730 0.051350 
#    y -0.002730 1.834590 0.027060 
#    z 0.051350 0.027060 1.907260 
# 
# From -- ./inp_files/185753.got.cif
#   From: 2010.05.17/outbox.cif.g08.bks.cpg/sg2_93_cif.got.tgz:185753.got - 2010.06.03 11:33:40.
