data_PCOD9032032
_publ_section_title
;
Structure prediction by ZEFSAII (Michael W. Deem and Ramdas Pophale) SiO2 
 PCOD9032032
Probable space group: P -1
;
_chemical_formula_sum "Si O2"
_cell_formula_units_Z 16
_cell_length_a 14.056770
_cell_length_b 19.017735
_cell_length_c 8.564723
_cell_angle_alpha 124.468580
_cell_angle_beta 125.142946
_cell_angle_gamma 21.444594
_cell_volume 680.995422
_symmetry_space_group_name_H-M "P -1"
_symmetry_group_IT_number 2
_symmetry_cell_setting 'triclinic'
loop_
_space_group_symop_operation_xyz
x,y,z
-x,-y,-z
loop_
_atom_site_type_symbol
_atom_site_label
_atom_site_fract_x
_atom_site_fract_y
_atom_site_fract_z
Si Si1 0.978976 0.764250 0.661734
Si Si2 0.705818 0.178759 0.884698
Si Si3 0.497900 0.571460 0.451337
Si Si4 0.504026 0.150953 0.822109
Si Si5 0.292862 0.061323 0.930511
Si Si6 0.375767 0.833405 0.558484
Si Si7 0.234691 0.619040 0.029324
Si Si8 0.028223 0.538728 0.425656
O O1 0.193300 0.626260 0.554901
O O2 0.979045 0.667214 0.593514
O O3 0.676925 0.990440 0.646555
O O4 0.100772 0.735249 0.886197
O O5 0.577143 0.199004 0.914194
O O6 0.714589 0.135567 0.661726
O O7 0.493115 0.394343 0.953678
O O8 0.000000 0.000000 0.000000
O O9 0.500000 0.500000 0.500000
O O10 0.377747 0.747204 0.564246
O O11 0.328360 0.637995 0.239667
O O12 0.197225 0.337532 0.750927
O O13 0.592784 0.054387 0.947844
O O14 0.991137 0.285310 0.969782
O O15 0.254120 0.003301 0.710530
O O16 0.500000 0.000000 0.000000
O O17 0.682920 0.655327 0.612984
O O18 0.000000 0.500000 0.500000
#
# Coordination Sequence:
#
# PCOD9032032 Si02
#       8
#     2   2   2   2   2   2   2   2
#     4  10  22  43  69 108 140 194 248 308 368 444
#     4  12  26  46  81 112 144 195 266 310 365 454
#     4  11  25  44  74 108 152 196 246 309 381 446
#     4  11  25  42  74 109 142 198 256 300 375 454
#     4  11  30  49  73 111 160 198 244 316 386 449
#     4  11  27  48  75 111 152 199 250 314 379 442
#     4  11  24  47  73 103 154 198 247 308 376 435
#     4  11  21  42  74 104 143 188 253 315 363 436
#
# _framework density 23.495018000000002
#
# number of rings (size 3 to 8) (size 9 to 14) (size 15 to 20)
#    0.000    1.000    3.750    1.500   10.500    6.000 
#    0.000    0.000    0.000    0.000    0.000    0.000 
#    0.000    0.000    0.000    0.000    0.000    0.000 
#
# Total GULP energy -89388.885236 kJ/mol
# GULP energy per Si atom -5586.805327 kJ/mol
# Density = 2.344154 g / cm^3
# Si number density = 23.495018 Si / 1000 Ang^3
#
#
#
# Elastic Constant Matrix: (Units=GPa)
#
#
# Indices 1 2 3 4 5 6 
#
# 1 158.0769 16.4601 39.1390 -4.3454 9.5741 6.6804
# 2 16.4601 106.8452 36.8864 -21.1700 2.0273 -18.0335
# 3 39.1390 36.8864 86.1642 -7.4964 8.0095 -7.2382
# 4 -4.3454 -21.1700 -7.4964 32.6517 2.8706 4.3580
# 5 9.5741 2.0273 8.0095 2.8706 19.4147 -8.0809
# 6 6.6804 -18.0335 -7.2382 4.3580 -8.0809 30.9530
#
#
#
# Elastic Compliance Matrix: (Units=1/GPa)
#
#
# Indices 1 2 3 4 5 6 
#
# 1 0.007581 -0.000503 -0.003093 0.000851 -0.004140 -0.003853
# 2 -0.000503 0.013368 -0.004618 0.006439 0.002542 0.006574
# 3 -0.003093 -0.004618 0.015459 0.000463 -0.004267 0.000413
# 4 0.000851 0.006439 0.000463 0.036206 -0.008109 -0.003538
# 5 -0.004140 0.002542 -0.004267 -0.008109 0.064275 0.019299
# 6 -0.003853 0.006574 0.000413 -0.003538 0.019299 0.042602
#
#
# Mechanical properties :
#
#
# Convention : Reuss Voigt Hill
#
# Bulk Modulus (GPa) = 50.05006 59.56192 54.80599
# Shear Modulus (GPa) = 24.68143 33.84394 29.26268
#
# Velocity S-wave (km/s) = 3.24465 3.79947 3.53297
# Velocity P-wave (km/s) = 5.94859 6.68236 6.32612
#
# Compressibility (1/GPa) = 0.01998000
#
# Stress axis : x y z
#
# Youngs Moduli (GPa) = 131.90481 74.80291 64.68571
#
# Poissons Ratio (x) = 0.03765 0.20008
# Poissons Ratio (y) = 0.06640 0.29872
# Poissons Ratio (z) = 0.40799 0.34545
#
# Static dielectric constant tensor:
#      x y z
#    x 1.938660 0.014420 0.037720 
#    y 0.014420 1.900870 0.050590 
#    z 0.037720 0.050590 2.028240 
# 
# From -- ./inp_files/319498.got.cif
#   From: 2010.05.17/outbox.cif.g08.bks.cpg/sg2_160_cif.got.tgz:319498.got - 2010.06.03 11:33:40.
