data_PCOD9032501
_publ_section_title
;
Structure prediction by ZEFSAII (Michael W. Deem and Ramdas Pophale) SiO2 
 PCOD9032501
Probable space group: P -1
;
_chemical_formula_sum "Si O2"
_cell_formula_units_Z 16
_cell_length_a 20.627085
_cell_length_b 7.029003
_cell_length_c 7.099679
_cell_angle_alpha 89.653688
_cell_angle_beta 76.242834
_cell_angle_gamma 134.340969
_cell_volume 692.744305
_symmetry_space_group_name_H-M "P -1"
_symmetry_group_IT_number 2
_symmetry_cell_setting 'triclinic'
loop_
_space_group_symop_operation_xyz
x,y,z
-x,-y,-z
loop_
_atom_site_type_symbol
_atom_site_label
_atom_site_fract_x
_atom_site_fract_y
_atom_site_fract_z
Si Si1 0.668197 0.753712 0.702248
Si Si2 0.109177 0.944785 0.889769
Si Si3 0.973191 0.546925 0.290887
Si Si4 0.278941 0.044117 0.753833
Si Si5 0.216762 0.537166 0.916684
Si Si6 0.855327 0.357436 0.698824
Si Si7 0.473587 0.514152 0.726892
Si Si8 0.597913 0.283278 0.025678
O O1 0.564574 0.643443 0.785026
O O2 0.651434 0.524619 0.829339
O O3 0.692414 0.790867 0.460636
O O4 0.752568 0.058831 0.720387
O O5 0.084833 0.764620 0.726013
O O6 0.197498 0.999991 0.910329
O O7 0.011395 0.733377 0.079033
O O8 0.154588 0.245532 0.862133
O O9 0.910597 0.545643 0.473367
O O10 0.071938 0.666734 0.305987
O O11 0.369943 0.205596 0.826842
O O12 0.240697 0.754089 0.751872
O O13 0.157764 0.517032 0.127671
O O14 0.316977 0.665507 0.938291
O O15 0.500000 0.500000 0.500000
O O16 0.446400 0.675907 0.778125
O O17 0.500000 0.000000 0.000000
#
# Coordination Sequence:
#
# PCOD9032501 Si02
#       8
#     2   2   2   2   2   2   2   2
#     4  11  23  44  72  97 144 187 219 283 351 407
#     4  11  22  46  69  97 136 190 233 284 345 419
#     4  10  23  43  71  94 141 188 229 289 357 404
#     4  11  22  47  68 102 141 186 226 281 349 414
#     4  12  25  42  74 103 139 179 240 286 340 416
#     4  11  22  42  67 103 136 184 230 289 352 403
#     4  10  22  43  71  97 138 187 219 272 349 412
#     4  12  24  43  68 110 139 178 235 285 338 418
#
# _framework density 23.096544000000002
#
# number of rings (size 3 to 8) (size 9 to 14) (size 15 to 20)
#    0.000    1.000    3.750    3.375    0.000    1.000 
#    6.750    3.750    0.000    0.000    0.000    0.000 
#    0.000    0.000    0.000    0.000    0.000    0.000 
#
# Total GULP energy -89264.464878 kJ/mol
# GULP energy per Si atom -5579.029055 kJ/mol
# Density = 2.304398 g / cm^3
# Si number density = 23.096544 Si / 1000 Ang^3
#
#
#
# Elastic Constant Matrix: (Units=GPa)
#
#
# Indices 1 2 3 4 5 6 
#
# 1 87.1778 14.6704 30.0320 -7.6115 -9.7370 7.2131
# 2 14.6704 128.1209 15.4142 0.1621 -3.9689 8.7813
# 3 30.0320 15.4142 121.6377 -3.5996 -14.2060 -0.5138
# 4 -7.6115 0.1621 -3.5996 31.5088 2.8000 -1.2898
# 5 -9.7370 -3.9689 -14.2060 2.8000 29.7955 -4.1728
# 6 7.2131 8.7813 -0.5138 -1.2898 -4.1728 42.8709
#
#
#
# Elastic Compliance Matrix: (Units=1/GPa)
#
#
# Indices 1 2 3 4 5 6 
#
# 1 0.013237 -0.000989 -0.002796 0.002601 0.002371 -0.001749
# 2 -0.000989 0.008122 -0.000779 -0.000451 0.000220 -0.001499
# 3 -0.002796 -0.000779 0.009442 0.000130 0.003626 0.001100
# 4 0.002601 -0.000451 0.000130 0.032591 -0.002151 0.000427
# 5 0.002371 0.000220 0.003626 -0.002151 0.036733 0.003110
# 6 -0.001749 -0.001499 0.001100 0.000427 0.003110 0.024256
#
#
# Mechanical properties :
#
#
# Convention : Reuss Voigt Hill
#
# Bulk Modulus (GPa) = 46.14141 50.79662 48.46902
# Shear Modulus (GPa) = 35.52770 39.28970 37.40870
#
# Velocity S-wave (km/s) = 3.92628 4.12892 4.02887
# Velocity P-wave (km/s) = 6.36987 6.69116 6.53249
#
# Compressibility (1/GPa) = 0.02167251
#
# Stress axis : x y z
#
# Youngs Moduli (GPa) = 75.54421 123.11903 105.90686
#
# Poissons Ratio (x) = 0.12180 0.29615
# Poissons Ratio (y) = 0.07473 0.08251
# Poissons Ratio (z) = 0.21125 0.09591
#
# Static dielectric constant tensor:
#      x y z
#    x 1.944040 0.047520 0.034040 
#    y 0.047520 1.914470 -0.081130 
#    z 0.034040 -0.081130 2.206690 
# 
# From -- ./inp_files/340472.got.cif
#   From: 2010.05.17/outbox.cif.g08.bks.cpg/sg2_171_cif.got.tgz:340472.got - 2010.06.03 11:33:40.
