data_PCOD9032492
_publ_section_title
;
Structure prediction by ZEFSAII (Michael W. Deem and Ramdas Pophale) SiO2 
 PCOD9032492
Probable space group: P -1
;
_chemical_formula_sum "Si O2"
_cell_formula_units_Z 14
_cell_length_a 5.832290
_cell_length_b 15.963978
_cell_length_c 11.372825
_cell_angle_alpha 133.010649
_cell_angle_beta 62.407301
_cell_angle_gamma 122.362749
_cell_volume 645.726197
_symmetry_space_group_name_H-M "P -1"
_symmetry_group_IT_number 2
_symmetry_cell_setting 'triclinic'
loop_
_space_group_symop_operation_xyz
x,y,z
-x,-y,-z
loop_
_atom_site_type_symbol
_atom_site_label
_atom_site_fract_x
_atom_site_fract_y
_atom_site_fract_z
Si Si1 0.435046 0.102701 0.540320
Si Si2 0.142296 0.951851 0.259151
Si Si3 0.336544 0.735203 0.916711
Si Si4 0.856322 0.363473 0.748086
Si Si5 0.941785 0.523667 0.669686
Si Si6 0.366506 0.530121 0.896773
Si Si7 0.239477 0.052408 0.090225
O O1 0.676890 0.227376 0.629091
O O2 0.139900 0.103535 0.655861
O O3 0.500000 0.000000 0.500000
O O4 0.375368 0.053221 0.374672
O O5 0.092166 0.018750 0.218232
O O6 0.241315 0.839536 0.097019
O O7 0.347879 0.640761 0.924111
O O8 0.614764 0.808682 0.851911
O O9 0.123939 0.657597 0.796528
O O10 0.994026 0.428406 0.657160
O O11 0.112379 0.404762 0.816935
O O12 0.655101 0.423024 0.921191
O O13 0.632228 0.508906 0.762364
O O14 0.000000 0.500000 0.500000
O O15 0.500000 0.000000 0.000000
O O16 0.000000 0.000000 0.000000
#
# Coordination Sequence:
#
# PCOD9032492 Si02
#       7
#     2   2   2   2   2   2   2
#     4  11  24  41  67  99 139 181 225 291 350 417
#     4  10  24  42  64 100 135 180 233 285 351 420
#     4  10  23  42  69  93 130 178 227 283 344 419
#     4  10  23  41  68  98 131 177 231 285 342 419
#     4  11  25  43  65  99 136 173 222 288 355 414
#     4  10  22  43  71  97 127 181 234 282 349 422
#     4  10  24  41  67 102 135 183 231 287 348 421
#
# _framework density 21.681016
#
# number of rings (size 3 to 8) (size 9 to 14) (size 15 to 20)
#    0.000    1.714    0.000    2.143   12.000    6.857 
#    2.571    0.000    0.000    0.000    0.000    0.000 
#    0.000    0.000    0.000    0.000    0.000    0.000 
#
# Total GULP energy -78102.285066 kJ/mol
# GULP energy per Si atom -5578.734648 kJ/mol
# Density = 2.163167 g / cm^3
# Si number density = 21.681016 Si / 1000 Ang^3
#
#
#
# Elastic Constant Matrix: (Units=GPa)
#
#
# Indices 1 2 3 4 5 6 
#
# 1 64.7639 20.2489 35.7292 9.3924 24.0022 4.7692
# 2 20.2489 109.6346 51.1408 20.4713 30.0672 15.8179
# 3 35.7292 51.1408 139.2508 7.1287 39.2843 6.8798
# 4 9.3924 20.4713 7.1287 46.7573 6.9597 20.2176
# 5 24.0022 30.0672 39.2843 6.9597 33.7497 -6.0533
# 6 4.7692 15.8179 6.8798 20.2176 -6.0533 35.8065
#
#
#
# Elastic Compliance Matrix: (Units=1/GPa)
#
#
# Indices 1 2 3 4 5 6 
#
# 1 0.022521 0.002279 -0.001220 0.000373 -0.017962 -0.007019
# 2 0.002279 0.014702 -0.001481 -0.000891 -0.014324 -0.008432
# 3 -0.001220 -0.001481 0.011948 0.003581 -0.013495 -0.005782
# 4 0.000373 -0.000891 0.003581 0.032317 -0.014065 -0.020969
# 5 -0.017962 -0.014324 -0.013495 -0.014065 0.079642 0.032719
# 6 -0.007019 -0.008432 -0.005782 -0.020969 0.032719 0.051070
#
#
# Mechanical properties :
#
#
# Convention : Reuss Voigt Hill
#
# Bulk Modulus (GPa) = 20.69268 58.65412 39.67340
# Shear Modulus (GPa) = 21.81933 37.03138 29.42535
#
# Velocity S-wave (km/s) = 3.17579 4.13729 3.68801
# Velocity P-wave (km/s) = 4.79712 7.06646 6.03934
#
# Compressibility (1/GPa) = 0.04832626
#
# Stress axis : x y z
#
# Youngs Moduli (GPa) = 44.40242 68.01604 83.69641
#
# Poissons Ratio (x) = -0.15501 0.10214
# Poissons Ratio (y) = -0.10119 0.12398
# Poissons Ratio (z) = 0.05419 0.10075
#
# Static dielectric constant tensor:
#      x y z
#    x 1.896960 -0.002400 -0.014730 
#    y -0.002400 1.796190 -0.031800 
#    z -0.014730 -0.031800 1.791960 
# 
# From -- ./inp_files/65527.got.cif
#   From: 2010.05.17/outbox.cif.g08.bks.cpg/sg2_33_cif.got.tgz:65527.got - 2010.06.03 11:33:40.
