data_PCOD9032265
_publ_section_title
;
Structure prediction by ZEFSAII (Michael W. Deem and Ramdas Pophale) SiO2 
 PCOD9032265
Probable space group: P -1
;
_chemical_formula_sum "Si O2"
_cell_formula_units_Z 12
_cell_length_a 12.343111
_cell_length_b 10.117865
_cell_length_c 7.694256
_cell_angle_alpha 49.152131
_cell_angle_beta 41.395687
_cell_angle_gamma 70.946822
_cell_volume 454.015400
_symmetry_space_group_name_H-M "P -1"
_symmetry_group_IT_number 2
_symmetry_cell_setting 'triclinic'
loop_
_space_group_symop_operation_xyz
x,y,z
-x,-y,-z
loop_
_atom_site_type_symbol
_atom_site_label
_atom_site_fract_x
_atom_site_fract_y
_atom_site_fract_z
Si Si1 0.131354 0.226654 0.304801
Si Si2 0.609723 0.457346 0.068224
Si Si3 0.753548 0.248794 0.812267
Si Si4 0.858722 0.567724 0.208765
Si Si5 0.915812 0.101587 0.155511
Si Si6 0.469391 0.905795 0.315514
O O1 0.949488 0.253506 0.551673
O O2 0.095160 0.011326 0.555217
O O3 0.279423 0.348062 0.150644
O O4 0.191568 0.305126 0.976428
O O5 0.533686 0.303058 0.447003
O O6 0.500000 0.500000 0.000000
O O7 0.732547 0.359914 0.909207
O O8 0.715305 0.377859 0.595362
O O9 0.622521 0.045342 0.124406
O O10 0.000000 0.500000 0.000000
O O11 0.954181 0.693281 0.146347
O O12 0.715634 0.086024 0.398320
O O13 0.000000 0.000000 0.000000
O O14 0.500000 0.000000 0.000000
#
# Coordination Sequence:
#
# PCOD9032265 Si02
#       6
#     2   2   2   2   2   2
#     4  11  23  43  69 103 144 197 251 309 374 452
#     4  12  26  45  69 104 147 197 251 311 377 450
#     4  11  23  42  70 105 146 193 247 314 377 443
#     4  10  22  43  70 105 147 198 249 301 371 452
#     4  12  25  45  75 111 149 197 252 312 376 450
#     4  12  26  48  74 108 150 198 250 313 379 451
#
# _framework density 26.430821999999999
#
# number of rings (size 3 to 8) (size 9 to 14) (size 15 to 20)
#    0.000    0.667    0.000    9.500    0.000    4.000 
#    0.000    3.333    0.000    0.000    0.000    0.000 
#    0.000    0.000    0.000    0.000    0.000    0.000 
#
# Total GULP energy -67067.859092 kJ/mol
# GULP energy per Si atom -5588.988258 kJ/mol
# Density = 2.637066 g / cm^3
# Si number density = 26.430822 Si / 1000 Ang^3
#
#
#
# Elastic Constant Matrix: (Units=GPa)
#
#
# Indices 1 2 3 4 5 6 
#
# 1 136.6052 13.6348 62.6646 -5.1619 2.3666 -5.8900
# 2 13.6348 91.8033 34.8047 11.2906 -24.9696 -4.0723
# 3 62.6646 34.8047 132.9592 -17.5292 6.4881 -18.0176
# 4 -5.1619 11.2906 -17.5292 63.5526 -9.5775 -10.2672
# 5 2.3666 -24.9696 6.4881 -9.5775 65.0717 -14.1225
# 6 -5.8900 -4.0723 -18.0176 -10.2672 -14.1225 40.3113
#
#
#
# Elastic Compliance Matrix: (Units=1/GPa)
#
#
# Indices 1 2 3 4 5 6 
#
# 1 0.009397 0.000474 -0.004781 -0.000787 0.000002 -0.000916
# 2 0.000474 0.014498 -0.004560 -0.002797 0.005763 0.000803
# 3 -0.004781 -0.004560 0.012304 0.004488 -0.001030 0.005122
# 4 -0.000787 -0.002797 0.004488 0.019059 0.002939 0.007492
# 5 0.000002 0.005763 -0.001030 0.002939 0.019810 0.007811
# 6 -0.000916 0.000803 0.005122 0.007492 0.007811 0.031688
#
#
# Mechanical properties :
#
#
# Convention : Reuss Voigt Hill
#
# Bulk Modulus (GPa) = 54.15483 64.84179 59.49831
# Shear Modulus (GPa) = 38.27163 50.47134 44.37149
#
# Velocity S-wave (km/s) = 3.80938 4.37460 4.10173
# Velocity P-wave (km/s) = 6.31524 7.07828 6.70762
#
# Compressibility (1/GPa) = 0.01846557
#
# Stress axis : x y z
#
# Youngs Moduli (GPa) = 106.41795 68.97361 81.27463
#
# Poissons Ratio (x) = -0.03267 0.38856
# Poissons Ratio (y) = -0.05040 0.37058
# Poissons Ratio (z) = 0.50876 0.31449
#
# Static dielectric constant tensor:
#      x y z
#    x 2.199980 -0.018870 0.144420 
#    y -0.018870 1.965610 0.078840 
#    z 0.144420 0.078840 2.083200 
# 
# From -- ./inp_files/293844.got.cif
#   From: 2010.05.17/outbox.cif.g08.bks.cpg/sg2_147_cif.got.tgz:293844.got - 2010.06.03 11:33:40.
