data_PCOD9032360
_publ_section_title
;
Structure prediction by ZEFSAII (Michael W. Deem and Ramdas Pophale) SiO2 
 PCOD9032360
Probable space group: P -1
;
_chemical_formula_sum "Si O2"
_cell_formula_units_Z 14
_cell_length_a 13.126204
_cell_length_b 5.056458
_cell_length_c 11.913255
_cell_angle_alpha 91.242204
_cell_angle_beta 54.110396
_cell_angle_gamma 110.741331
_cell_volume 580.752902
_symmetry_space_group_name_H-M "P -1"
_symmetry_group_IT_number 2
_symmetry_cell_setting 'triclinic'
loop_
_space_group_symop_operation_xyz
x,y,z
-x,-y,-z
loop_
_atom_site_type_symbol
_atom_site_label
_atom_site_fract_x
_atom_site_fract_y
_atom_site_fract_z
Si Si1 0.988469 0.285119 0.608589
Si Si2 0.965554 0.313821 0.881526
Si Si3 0.245343 0.301411 0.346578
Si Si4 0.446551 0.530540 0.784644
Si Si5 0.599222 0.030447 0.334186
Si Si6 0.599350 0.339251 0.949830
Si Si7 0.126806 0.957253 0.844055
O O1 0.000000 0.500000 0.500000
O O2 0.943516 0.313535 0.763676
O O3 0.148899 0.325152 0.509382
O O4 0.868410 0.979011 0.644674
O O5 0.002524 0.644137 0.895405
O O6 0.088615 0.212864 0.829595
O O7 0.852258 0.080585 0.035668
O O8 0.387936 0.287381 0.293273
O O9 0.293609 0.553538 0.221476
O O10 0.391103 0.679250 0.728639
O O11 0.443496 0.230207 0.733369
O O12 0.356979 0.553209 0.950526
O O13 0.738551 0.040091 0.298497
O O14 0.500000 0.000000 0.500000
O O15 0.500000 0.500000 0.000000
O O16 0.500000 0.000000 0.000000
#
# Coordination Sequence:
#
# PCOD9032360 Si02
#       7
#     2   2   2   2   2   2   2
#     4  11  27  42  71 107 140 194 233 301 365 437
#     4  10  24  46  75  97 142 185 240 307 357 420
#     4  10  26  44  66 105 142 182 237 284 371 440
#     4  11  25  44  70  99 141 190 224 300 363 425
#     4  12  27  42  69 105 137 185 242 293 363 428
#     4  10  22  43  70  99 134 183 232 279 351 442
#     4  10  24  47  71 103 132 189 248 299 360 421
#
# _framework density 24.106639000000001
#
# number of rings (size 3 to 8) (size 9 to 14) (size 15 to 20)
#    0.000    1.429    0.000    3.000   16.000    1.143 
#    0.000    0.000    0.000    0.000    0.000    0.000 
#    0.000    0.000    0.000    0.000    0.000    0.000 
#
# Total GULP energy -78069.660573 kJ/mol
# GULP energy per Si atom -5576.404327 kJ/mol
# Density = 2.405177 g / cm^3
# Si number density = 24.106639 Si / 1000 Ang^3
#
#
#
# Elastic Constant Matrix: (Units=GPa)
#
#
# Indices 1 2 3 4 5 6 
#
# 1 68.0646 13.7718 4.1772 -4.2091 -8.8798 -12.7898
# 2 13.7718 106.7983 28.4596 -7.3139 1.9209 -3.6418
# 3 4.1772 28.4596 89.5959 4.0114 5.3868 8.8482
# 4 -4.2091 -7.3139 4.0114 35.7724 0.4582 -1.1931
# 5 -8.8798 1.9209 5.3868 0.4582 55.1880 -0.4396
# 6 -12.7898 -3.6418 8.8482 -1.1931 -0.4396 32.4498
#
#
#
# Elastic Compliance Matrix: (Units=1/GPa)
#
#
# Indices 1 2 3 4 5 6 
#
# 1 0.016888 -0.001521 -0.001256 0.002011 0.002931 0.006942
# 2 -0.001521 0.010752 -0.003605 0.002483 -0.000274 0.001678
# 3 -0.001256 -0.003605 0.013008 -0.002478 -0.001362 -0.004556
# 4 0.002011 0.002483 -0.002478 0.029067 0.000260 0.002819
# 5 0.002931 -0.000274 -0.001362 0.000260 0.018746 0.001759
# 6 0.006942 0.001678 -0.004556 0.002819 0.001759 0.035111
#
#
# Mechanical properties :
#
#
# Convention : Reuss Voigt Hill
#
# Bulk Modulus (GPa) = 35.86320 39.69733 37.78027
# Shear Modulus (GPa) = 34.33333 39.21872 36.77603
#
# Velocity S-wave (km/s) = 3.77799 4.03784 3.91007
# Velocity P-wave (km/s) = 5.82581 6.18401 6.00758
#
# Compressibility (1/GPa) = 0.02788374
#
# Stress axis : x y z
#
# Youngs Moduli (GPa) = 59.21366 93.00206 76.87806
#
# Poissons Ratio (x) = 0.14149 0.09655
# Poissons Ratio (y) = 0.09009 0.27714
# Poissons Ratio (z) = 0.07437 0.33526
#
# Static dielectric constant tensor:
#      x y z
#    x 2.010890 0.072110 0.218870 
#    y 0.072110 1.874220 0.132540 
#    z 0.218870 0.132540 2.682530 
# 
# From -- ./inp_files/441243.got.cif
#   From: 2010.05.17/outbox.cif.g08.bks.cpg/sg2_221_cif.got.tgz:441243.got - 2010.06.03 11:33:40.
