data_PCOD9032074
_publ_section_title
;
Structure prediction by ZEFSAII (Michael W. Deem and Ramdas Pophale) SiO2 
 PCOD9032074
Probable space group: P -1
;
_chemical_formula_sum "Si O2"
_cell_formula_units_Z 14
_cell_length_a 12.253507
_cell_length_b 14.998230
_cell_length_c 9.245801
_cell_angle_alpha 134.550482
_cell_angle_beta 95.024473
_cell_angle_gamma 121.848066
_cell_volume 673.062185
_symmetry_space_group_name_H-M "P -1"
_symmetry_group_IT_number 2
_symmetry_cell_setting 'triclinic'
loop_
_space_group_symop_operation_xyz
x,y,z
-x,-y,-z
loop_
_atom_site_type_symbol
_atom_site_label
_atom_site_fract_x
_atom_site_fract_y
_atom_site_fract_z
Si Si1 0.689834 0.347092 0.873557
Si Si2 0.114021 0.231490 0.458620
Si Si3 0.235439 0.858756 0.306125
Si Si4 0.365495 0.493837 0.512090
Si Si5 0.278115 0.061738 0.789638
Si Si6 0.154400 0.384305 0.076629
Si Si7 0.721020 0.734088 0.233339
O O1 0.775698 0.300185 0.894044
O O2 0.751068 0.424027 0.801984
O O3 0.454914 0.110495 0.579168
O O4 0.767027 0.539491 0.192266
O O5 0.199216 0.298199 0.385426
O O6 0.157416 0.151612 0.473141
O O7 0.887500 0.050319 0.246155
O O8 0.217491 0.875495 0.494196
O O9 0.066247 0.775195 0.110513
O O10 0.500000 0.500000 0.500000
O O11 0.268802 0.461853 0.323607
O O12 0.512526 0.731483 0.875662
O O13 0.282464 0.159207 0.762306
O O14 0.180079 0.284152 0.867891
O O15 0.500000 0.500000 0.000000
#
# Coordination Sequence:
#
# PCOD9032074 Si02
#       7
#     2   2   2   2   2   2   2
#     4  10  22  43  69  95 119 162 220 268 307 363
#     4  11  23  38  65  92 125 167 210 261 311 377
#     4  11  22  40  73  93 119 163 222 264 305 374
#     4  12  25  43  57  95 138 165 200 262 320 376
#     4  12  22  38  66  94 124 167 213 251 319 371
#     4  11  23  40  64  93 128 164 208 262 317 370
#     4  11  19  38  63  91 122 165 212 259 301 372
#
# _framework density 20.800456000000001
#
# number of rings (size 3 to 8) (size 9 to 14) (size 15 to 20)
#    0.000    0.857    7.143    1.714    0.000    1.714 
#    0.000    1.429    0.000    0.000    0.000    0.000 
#    0.000    0.000    0.000    0.000    0.000    0.000 
#
# Total GULP energy -78209.013527 kJ/mol
# GULP energy per Si atom -5586.358109 kJ/mol
# Density = 2.075311 g / cm^3
# Si number density = 20.800456 Si / 1000 Ang^3
#
#
#
# Elastic Constant Matrix: (Units=GPa)
#
#
# Indices 1 2 3 4 5 6 
#
# 1 107.3536 30.9544 29.3623 6.6425 17.1350 -8.0439
# 2 30.9544 118.7420 32.9726 3.2723 14.4573 11.2890
# 3 29.3623 32.9726 68.8787 -10.7651 25.0276 -10.1491
# 4 6.6425 3.2723 -10.7651 32.4187 0.0833 8.5868
# 5 17.1350 14.4573 25.0276 0.0833 37.5361 6.6448
# 6 -8.0439 11.2890 -10.1491 8.5868 6.6448 36.5818
#
#
#
# Elastic Compliance Matrix: (Units=1/GPa)
#
#
# Indices 1 2 3 4 5 6 
#
# 1 0.011819 -0.002154 -0.002833 -0.004218 -0.003390 0.004083
# 2 -0.002154 0.010993 -0.005972 -0.001184 0.001717 -0.005557
# 3 -0.002833 -0.005972 0.027155 0.007613 -0.016286 0.009925
# 4 -0.004218 -0.001184 0.007613 0.036121 -0.001600 -0.006638
# 5 -0.003390 0.001717 -0.016286 -0.001600 0.040656 -0.012803
# 6 0.004083 -0.005557 0.009925 -0.006638 -0.012803 0.036586
#
#
# Mechanical properties :
#
#
# Convention : Reuss Voigt Hill
#
# Bulk Modulus (GPa) = 35.65153 53.50587 44.57870
# Shear Modulus (GPa) = 25.69403 34.75299 30.22351
#
# Velocity S-wave (km/s) = 3.51844 4.09195 3.81599
# Velocity P-wave (km/s) = 5.80370 6.93575 6.39483
#
# Compressibility (1/GPa) = 0.02804929
#
# Stress axis : x y z
#
# Youngs Moduli (GPa) = 84.61018 90.96450 36.82557
#
# Poissons Ratio (x) = 0.19590 0.10433
# Poissons Ratio (y) = 0.18221 0.21994
# Poissons Ratio (z) = 0.23970 0.54328
#
# Static dielectric constant tensor:
#      x y z
#    x 1.787340 0.009420 -0.024550 
#    y 0.009420 1.764640 0.047930 
#    z -0.024550 0.047930 1.793030 
# 
# From -- ./inp_files/199929.got.cif
#   From: 2010.05.17/outbox.cif.g08.bks.cpg/sg2_100_cif.got.tgz:199929.got - 2010.06.03 11:33:40.
