data_PCOD9032077
_publ_section_title
;
Structure prediction by ZEFSAII (Michael W. Deem and Ramdas Pophale) SiO2 
 PCOD9032077
Probable space group: P -1
;
_chemical_formula_sum "Si O2"
_cell_formula_units_Z 14
_cell_length_a 12.606009
_cell_length_b 5.832456
_cell_length_c 8.919024
_cell_angle_alpha 72.679102
_cell_angle_beta 95.181873
_cell_angle_gamma 83.154191
_cell_volume 616.062455
_symmetry_space_group_name_H-M "P -1"
_symmetry_group_IT_number 2
_symmetry_cell_setting 'triclinic'
loop_
_space_group_symop_operation_xyz
x,y,z
-x,-y,-z
loop_
_atom_site_type_symbol
_atom_site_label
_atom_site_fract_x
_atom_site_fract_y
_atom_site_fract_z
Si Si1 0.937174 0.243300 0.618912
Si Si2 0.830844 0.742495 0.395604
Si Si3 0.246621 0.081159 0.333536
Si Si4 0.647095 0.771301 0.135888
Si Si5 0.279552 0.527715 0.059322
Si Si6 0.417837 0.814851 0.206307
Si Si7 0.050479 0.713277 0.052068
O O1 0.879552 0.455852 0.462937
O O2 0.945095 0.367117 0.758058
O O3 0.059530 0.138506 0.610816
O O4 0.856562 0.053098 0.667841
O O5 0.760122 0.814698 0.520409
O O6 0.754640 0.799189 0.232809
O O7 0.238686 0.290996 0.168163
O O8 0.355134 0.904097 0.332476
O O9 0.546401 0.768627 0.234064
O O10 0.669143 0.528685 0.085105
O O11 0.614341 0.983029 0.968175
O O12 0.367100 0.591422 0.175639
O O13 0.171015 0.716954 0.005883
O O14 0.000000 0.500000 0.000000
O O15 0.000000 0.000000 0.000000
#
# Coordination Sequence:
#
# PCOD9032077 Si02
#       7
#     2   2   2   2   2   2   2
#     4  11  24  42  62  96 136 176 223 275 346 418
#     4  11  24  41  64  92 137 177 220 278 350 418
#     4  11  21  43  66  93 132 182 219 283 345 412
#     4  10  24  43  66  99 129 172 230 283 347 401
#     4  11  22  42  68  92 136 172 226 285 344 403
#     4  10  22  43  69  95 127 172 231 290 335 405
#     4  12  25  40  70 104 138 182 236 285 346 419
#
# _framework density 22.724969000000002
#
# number of rings (size 3 to 8) (size 9 to 14) (size 15 to 20)
#    0.000    1.143    2.857    2.571    4.000    1.714 
#    0.000    2.857    0.000    0.000    0.000    0.000 
#    0.000    0.000    0.000    0.000    0.000    0.000 
#
# Total GULP energy -78222.784908 kJ/mol
# GULP energy per Si atom -5587.341779 kJ/mol
# Density = 2.267325 g / cm^3
# Si number density = 22.724969 Si / 1000 Ang^3
#
#
#
# Elastic Constant Matrix: (Units=GPa)
#
#
# Indices 1 2 3 4 5 6 
#
# 1 144.2745 41.6028 17.7892 -5.7597 -19.9894 -10.9147
# 2 41.6028 73.3933 10.3269 0.3404 -3.7643 0.2081
# 3 17.7892 10.3269 34.6552 10.4933 -0.0625 -19.7508
# 4 -5.7597 0.3404 10.4933 24.8485 -5.8811 -12.2683
# 5 -19.9894 -3.7643 -0.0625 -5.8811 32.8541 10.2155
# 6 -10.9147 0.2081 -19.7508 -12.2683 10.2155 35.3271
#
#
#
# Elastic Compliance Matrix: (Units=1/GPa)
#
#
# Indices 1 2 3 4 5 6 
#
# 1 0.010190 -0.004677 -0.005590 0.006568 0.006708 0.000392
# 2 -0.004677 0.017030 -0.005066 -0.001574 0.000379 -0.005034
# 3 -0.005590 -0.005066 0.052995 -0.013531 -0.014863 0.027530
# 4 0.006568 -0.001574 -0.013531 0.055213 0.010362 0.010651
# 5 0.006708 0.000379 -0.014863 0.010362 0.040886 -0.014464
# 6 0.000392 -0.005034 0.027530 0.010651 -0.014464 0.051731
#
#
# Mechanical properties :
#
#
# Convention : Reuss Voigt Hill
#
# Bulk Modulus (GPa) = 20.18183 43.52899 31.85541
# Shear Modulus (GPa) = 18.16660 30.77952 24.47306
#
# Velocity S-wave (km/s) = 2.83045 3.68426 3.28521
# Velocity P-wave (km/s) = 4.42517 6.10693 5.33277
#
# Compressibility (1/GPa) = 0.04954953
#
# Stress axis : x y z
#
# Youngs Moduli (GPa) = 98.13073 58.71860 18.86953
#
# Poissons Ratio (x) = 0.27465 0.10549
# Poissons Ratio (y) = 0.45899 0.09558
# Poissons Ratio (z) = 0.54860 0.29744
#
# Static dielectric constant tensor:
#      x y z
#    x 1.855200 -0.031360 -0.014530 
#    y -0.031360 1.966060 -0.025450 
#    z -0.014530 -0.025450 1.842480 
# 
# From -- ./inp_files/60395.got.cif
#   From: 2010.05.17/outbox.cif.g08.bks.cpg/sg2_31_cif.got.tgz:60395.got - 2010.06.03 11:33:40.
