data_PCOD9032646
_publ_section_title
;
Structure prediction by ZEFSAII (Michael W. Deem and Ramdas Pophale) SiO2 
 PCOD9032646
Probable space group: P -1
;
_chemical_formula_sum "Si O2"
_cell_formula_units_Z 14
_cell_length_a 7.887680
_cell_length_b 14.266952
_cell_length_c 15.685703
_cell_angle_alpha 138.734236
_cell_angle_beta 141.345717
_cell_angle_gamma 70.910817
_cell_volume 564.144445
_symmetry_space_group_name_H-M "P -1"
_symmetry_group_IT_number 2
_symmetry_cell_setting 'triclinic'
loop_
_space_group_symop_operation_xyz
x,y,z
-x,-y,-z
loop_
_atom_site_type_symbol
_atom_site_label
_atom_site_fract_x
_atom_site_fract_y
_atom_site_fract_z
Si Si1 0.021184 0.178619 0.809327
Si Si2 0.164538 0.596991 0.395341
Si Si3 0.783800 0.523853 0.365476
Si Si4 0.872505 0.058076 0.214781
Si Si5 0.168326 0.282083 0.741130
Si Si6 0.716271 0.240846 0.884305
Si Si7 0.086624 0.141509 0.060818
O O1 0.381654 0.364003 0.113861
O O2 0.741070 0.165110 0.752774
O O3 0.030605 0.226175 0.746018
O O4 0.073801 0.026050 0.739924
O O5 0.532068 0.678107 0.637316
O O6 0.886497 0.498673 0.295625
O O7 0.141610 0.752322 0.460441
O O8 0.030581 0.459975 0.169650
O O9 0.000000 0.500000 0.500000
O O10 0.879082 0.722225 0.539698
O O11 0.500000 0.000000 0.000000
O O12 0.923572 0.955096 0.093725
O O13 0.500000 0.500000 0.000000
O O14 0.350503 0.196446 0.726421
O O15 0.811035 0.171858 0.954030
O O16 0.000000 0.000000 0.000000
#
# Coordination Sequence:
#
# PCOD9032646 Si02
#       7
#     2   2   2   2   2   2   2
#     4  11  23  43  68  96 140 181 219 290 341 395
#     4  11  23  43  66 104 130 177 238 265 345 419
#     4  12  22  38  70  96 133 182 222 281 345 395
#     4  11  23  40  62  99 132 176 232 273 343 409
#     4  10  22  43  72  99 135 184 227 273 342 417
#     4  10  23  42  67 101 134 171 231 279 338 407
#     4  11  25  40  64  98 139 172 222 293 336 390
#
# _framework density 24.816337000000001
#
# number of rings (size 3 to 8) (size 9 to 14) (size 15 to 20)
#    0.000    1.143    5.714    1.286    6.000    2.286 
#    0.000    2.857    0.000    3.429    0.000    0.000 
#    0.000    0.000    0.000    0.000    0.000    0.000 
#
# Total GULP energy -78233.603901 kJ/mol
# GULP energy per Si atom -5588.114564 kJ/mol
# Density = 2.475985 g / cm^3
# Si number density = 24.816337 Si / 1000 Ang^3
#
#
#
# Elastic Constant Matrix: (Units=GPa)
#
#
# Indices 1 2 3 4 5 6 
#
# 1 114.9218 70.9745 20.2878 -10.6825 -17.2418 6.7650
# 2 70.9745 192.2928 24.3835 2.8846 -6.8793 -1.0289
# 3 20.2878 24.3835 95.5546 12.6997 -29.0778 -15.1373
# 4 -10.6825 2.8846 12.6997 38.0990 4.4185 -9.1574
# 5 -17.2418 -6.8793 -29.0778 4.4185 25.5257 3.2096
# 6 6.7650 -1.0289 -15.1373 -9.1574 3.2096 40.0751
#
#
#
# Elastic Compliance Matrix: (Units=1/GPa)
#
#
# Indices 1 2 3 4 5 6 
#
# 1 0.013027 -0.004587 -0.000094 0.002623 0.007296 -0.002337
# 2 -0.004587 0.006996 -0.001475 -0.000901 -0.002789 0.000414
# 3 -0.000094 -0.001475 0.019385 -0.008120 0.022569 0.003637
# 4 0.002623 -0.000901 -0.008120 0.032591 -0.013995 0.005035
# 5 0.007296 -0.002789 0.022569 -0.013995 0.071701 -0.001719
# 6 -0.002337 0.000414 0.003637 0.005035 -0.001719 0.028020
#
#
# Mechanical properties :
#
#
# Convention : Reuss Voigt Hill
#
# Bulk Modulus (GPa) = 36.90503 70.45120 53.67811
# Shear Modulus (GPa) = 25.89795 39.88154 32.88975
#
# Velocity S-wave (km/s) = 3.23396 4.01317 3.64445
# Velocity P-wave (km/s) = 5.37105 7.06575 6.27587
#
# Compressibility (1/GPa) = 0.02709658
#
# Stress axis : x y z
#
# Youngs Moduli (GPa) = 76.76220 142.92890 51.58669
#
# Poissons Ratio (x) = 0.65565 0.00486
# Poissons Ratio (y) = 0.35213 0.07607
# Poissons Ratio (z) = 0.00723 0.21077
#
# Static dielectric constant tensor:
#      x y z
#    x 1.998380 0.031230 0.060760 
#    y 0.031230 2.434750 0.115200 
#    z 0.060760 0.115200 2.019700 
# 
# From -- ./inp_files/560948.got.cif
#   From: 2010.05.17/outbox.cif.g08.bks.cpg/sg2_281_cif.got.tgz:560948.got - 2010.06.03 11:33:40.
