data_PCOD9032419
_publ_section_title
;
Structure prediction by ZEFSAII (Michael W. Deem and Ramdas Pophale) SiO2 
 PCOD9032419
Probable space group: P -1
;
_chemical_formula_sum "Si O2"
_cell_formula_units_Z 12
_cell_length_a 9.226852
_cell_length_b 11.841107
_cell_length_c 8.524574
_cell_angle_alpha 90.116857
_cell_angle_beta 67.990389
_cell_angle_gamma 39.465730
_cell_volume 477.069689
_symmetry_space_group_name_H-M "P -1"
_symmetry_group_IT_number 2
_symmetry_cell_setting 'triclinic'
loop_
_space_group_symop_operation_xyz
x,y,z
-x,-y,-z
loop_
_atom_site_type_symbol
_atom_site_label
_atom_site_fract_x
_atom_site_fract_y
_atom_site_fract_z
Si Si1 0.586036 0.049598 0.744572
Si Si2 0.809520 0.058049 0.208475
Si Si3 0.235906 0.382304 0.274774
Si Si4 0.900562 0.738780 0.891710
Si Si5 0.560697 0.317027 0.624969
Si Si6 0.077553 0.725236 0.321458
O O1 0.572419 0.191216 0.715272
O O2 0.749840 0.920767 0.839772
O O3 0.280227 0.174448 0.877980
O O4 0.780746 0.880421 0.529555
O O5 0.533355 0.179385 0.233644
O O6 0.689823 0.207864 0.401032
O O7 0.003910 0.845063 0.204155
O O8 0.000000 0.000000 0.000000
O O9 0.158698 0.346026 0.166964
O O10 0.230292 0.516134 0.227868
O O11 0.000000 0.500000 0.500000
O O12 0.235065 0.552475 0.756950
O O13 0.745190 0.302040 0.632443
#
# Coordination Sequence:
#
# PCOD9032419 Si02
#       6
#     2   2   2   2   2   2
#     4  10  22  43  71 103 136 182 236 281 344 417
#     4  11  26  46  71 104 142 185 234 288 348 414
#     4  12  25  48  69 103 146 183 231 290 356 412
#     4  11  24  44  73 104 140 183 232 289 348 417
#     4  11  24  46  73 103 141 182 236 290 347 411
#     4  11  26  47  73 102 143 186 232 289 351 414
#
# _framework density 25.153558
#
# number of rings (size 3 to 8) (size 9 to 14) (size 15 to 20)
#    0.000    1.000    3.333    2.500    4.667    6.667 
#    3.000    0.000    0.000    0.000    0.000    0.000 
#    0.000    0.000    0.000    0.000    0.000    0.000 
#
# Total GULP energy -67335.884381 kJ/mol
# GULP energy per Si atom -5611.323698 kJ/mol
# Density = 2.509631 g / cm^3
# Si number density = 25.153558 Si / 1000 Ang^3
#
#
#
# Elastic Constant Matrix: (Units=GPa)
#
#
# Indices 1 2 3 4 5 6 
#
# 1 117.3251 45.4053 58.3016 9.4375 -0.0043 -7.7260
# 2 45.4053 131.3034 55.9993 -1.0208 -8.3897 6.2868
# 3 58.3016 55.9993 162.9884 -8.7622 -26.5125 2.0009
# 4 9.4375 -1.0208 -8.7622 33.7928 -0.4043 -5.7403
# 5 -0.0043 -8.3897 -26.5125 -0.4043 26.3158 7.1598
# 6 -7.7260 6.2868 2.0009 -5.7403 7.1598 31.7105
#
#
#
# Elastic Compliance Matrix: (Units=1/GPa)
#
#
# Indices 1 2 3 4 5 6 
#
# 1 0.012896 -0.003046 -0.005077 -0.004252 -0.007508 0.004992
# 2 -0.003046 0.009746 -0.001884 0.000174 0.002022 -0.002980
# 3 -0.005077 -0.001884 0.010643 0.003680 0.011096 -0.003374
# 4 -0.004252 0.000174 0.003680 0.032430 0.003216 0.003842
# 5 -0.007508 0.002022 0.011096 0.003216 0.053816 -0.014499
# 6 0.004992 -0.002980 -0.003374 0.003842 -0.014499 0.037524
#
#
# Mechanical properties :
#
#
# Convention : Reuss Voigt Hill
#
# Bulk Modulus (GPa) = 75.35759 81.22547 78.29153
# Shear Modulus (GPa) = 27.54920 35.15786 31.35353
#
# Velocity S-wave (km/s) = 3.31303 3.74268 3.53439
# Velocity P-wave (km/s) = 6.68274 7.14414 6.91729
#
# Compressibility (1/GPa) = 0.01327006
#
# Stress axis : x y z
#
# Youngs Moduli (GPa) = 77.54613 102.60641 93.95676
#
# Poissons Ratio (x) = 0.31250 0.47706
# Poissons Ratio (y) = 0.23618 0.17704
# Poissons Ratio (z) = 0.39374 0.19334
#
# Static dielectric constant tensor:
#      x y z
#    x 1.934480 0.040200 0.036930 
#    y 0.040200 1.991090 0.020030 
#    z 0.036930 0.020030 2.054980 
# 
# From -- ./inp_files/186463.got.cif
#   From: 2010.05.17/outbox.cif.g08.bks.cpg/sg2_94_cif.got.tgz:186463.got - 2010.06.03 11:33:40.
