data_PCOD9032866
_publ_section_title
;
Structure prediction by ZEFSAII (Michael W. Deem and Ramdas Pophale) SiO2 
 PCOD9032866
Probable space group: P -1
;
_chemical_formula_sum "Si O2"
_cell_formula_units_Z 15
_cell_length_a 9.249825
_cell_length_b 7.415785
_cell_length_c 15.890628
_cell_angle_alpha 56.276964
_cell_angle_beta 50.289640
_cell_angle_gamma 51.319854
_cell_volume 632.159590
_symmetry_space_group_name_H-M "P -1"
_symmetry_group_IT_number 2
_symmetry_cell_setting 'triclinic'
loop_
_space_group_symop_operation_xyz
x,y,z
-x,-y,-z
loop_
_atom_site_type_symbol
_atom_site_label
_atom_site_fract_x
_atom_site_fract_y
_atom_site_fract_z
Si Si1 0.464490 0.035717 0.208004
Si Si2 0.084524 0.835604 0.274321
Si Si3 0.780171 0.359667 0.280386
Si Si4 0.872569 0.797661 0.199534
Si Si5 0.436606 0.326963 0.874400
Si Si6 0.828680 0.210664 0.560974
Si Si7 0.500000 0.500000 0.500000
Si Si8 0.717624 0.507639 0.934040
O O1 0.658387 0.018985 0.196035
O O2 0.555129 0.904562 0.119351
O O3 0.357061 0.877248 0.331215
O O4 0.292202 0.296404 0.182781
O O5 0.322722 0.733505 0.181570
O O6 0.096209 0.742268 0.389342
O O7 0.936658 0.794090 0.273016
O O8 0.984478 0.121963 0.249609
O O9 0.829394 0.574773 0.241671
O O10 0.657946 0.458510 0.213312
O O11 0.635093 0.329994 0.413849
O O12 0.086630 0.743166 0.085513
O O13 0.298004 0.393469 0.991535
O O14 0.715882 0.438268 0.486675
O O15 0.000000 0.000000 0.500000
O O16 0.500000 0.500000 0.000000
#
# Coordination Sequence:
#
# PCOD9032866 Si02
#       8
#     2   2   2   2   2   2   1   2
#     4  10  24  43  66  96 134 172 227 276 324 407
#     4  11  22  40  69  94 134 175 219 272 333 390
#     4  11  24  42  70  97 135 173 222 275 330 402
#     4  11  24  43  65 100 133 171 226 277 325 394
#     4  10  22  44  60  96 130 179 222 268 332 392
#     4  11  22  42  72  98 131 177 215 274 341 396
#     4  12  20  42  74  96 132 172 218 272 342 394
#     4  12  25  40  66  95 136 178 224 275 332 389
#
# _framework density 23.728185
#
# number of rings (size 3 to 8) (size 9 to 14) (size 15 to 20)
#    0.000    1.067    6.667    2.000    1.867    3.733 
#    0.000    3.333    0.000    0.000    0.000    0.000 
#    0.000    0.000    0.000    0.000    0.000    0.000 
#
# Total GULP energy -83558.465133 kJ/mol
# GULP energy per Si atom -5570.564342 kJ/mol
# Density = 2.367418 g / cm^3
# Si number density = 23.728185 Si / 1000 Ang^3
#
#
#
# Elastic Constant Matrix: (Units=GPa)
#
#
# Indices 1 2 3 4 5 6 
#
# 1 151.0076 31.9197 39.2706 5.3042 32.4134 -25.5050
# 2 31.9197 60.7914 11.1136 5.5804 11.1446 -27.1343
# 3 39.2706 11.1136 73.3820 22.9122 15.5589 -12.9868
# 4 5.3042 5.5804 22.9122 27.9641 3.2931 -0.0755
# 5 32.4134 11.1446 15.5589 3.2931 40.3295 -3.4984
# 6 -25.5050 -27.1343 -12.9868 -0.0755 -3.4984 44.3311
#
#
#
# Elastic Compliance Matrix: (Units=1/GPa)
#
#
# Indices 1 2 3 4 5 6 
#
# 1 0.009711 -0.002489 -0.004022 0.002612 -0.005566 0.002450
# 2 -0.002489 0.025020 0.003020 -0.006450 -0.004301 0.014416
# 3 -0.004022 0.003020 0.022967 -0.018115 -0.004474 0.005879
# 4 0.002612 -0.006450 -0.018115 0.051157 0.001842 -0.007519
# 5 -0.005566 -0.004301 -0.004474 0.001842 0.031631 -0.004647
# 6 0.002450 0.014416 0.005879 -0.007519 -0.004647 0.034134
#
#
# Mechanical properties :
#
#
# Convention : Reuss Voigt Hill
#
# Bulk Modulus (GPa) = 19.71736 49.97653 34.84694
# Shear Modulus (GPa) = 25.18794 36.05008 30.61901
#
# Velocity S-wave (km/s) = 3.26163 3.90204 3.59612
# Velocity P-wave (km/s) = 4.74469 6.43499 5.65337
#
# Compressibility (1/GPa) = 0.05071673
#
# Stress axis : x y z
#
# Youngs Moduli (GPa) = 102.97435 39.96791 43.54022
#
# Poissons Ratio (x) = 0.09949 0.17510
# Poissons Ratio (y) = 0.25634 -0.13149
# Poissons Ratio (z) = 0.41412 -0.12071
#
# Static dielectric constant tensor:
#      x y z
#    x 1.916040 -0.014280 0.005430 
#    y -0.014280 1.984500 -0.113890 
#    z 0.005430 -0.113890 2.097490 
# 
# From -- ./inp_files/490752.got.cif
#   From: 2010.05.17/outbox.cif.g08.bks.cpg/sg2_246_cif.got.tgz:490752.got - 2010.06.03 11:33:40.
