data_PCOD9032009
_publ_section_title
;
Structure prediction by ZEFSAII (Michael W. Deem and Ramdas Pophale) SiO2 
 PCOD9032009
Probable space group: P -1
;
_chemical_formula_sum "Si O2"
_cell_formula_units_Z 15
_cell_length_a 16.772220
_cell_length_b 5.009638
_cell_length_c 11.836877
_cell_angle_alpha 112.609633
_cell_angle_beta 40.767261
_cell_angle_gamma 90.687398
_cell_volume 531.357122
_symmetry_space_group_name_H-M "P -1"
_symmetry_group_IT_number 2
_symmetry_cell_setting 'triclinic'
loop_
_space_group_symop_operation_xyz
x,y,z
-x,-y,-z
loop_
_atom_site_type_symbol
_atom_site_label
_atom_site_fract_x
_atom_site_fract_y
_atom_site_fract_z
Si Si1 0.880732 0.802107 0.250352
Si Si2 0.137788 0.699557 0.260258
Si Si3 0.659179 0.598600 0.198606
Si Si4 0.427693 0.833240 0.295909
Si Si5 0.764281 0.135677 0.207030
Si Si6 0.500000 0.000000 0.000000
Si Si7 0.270050 0.498554 0.309117
Si Si8 0.001041 0.647204 0.742807
O O1 0.817164 0.100475 0.273080
O O2 0.950691 0.662108 0.275449
O O3 0.723896 0.869784 0.466103
O O4 0.000000 0.500000 0.000000
O O5 0.243244 0.625403 0.234863
O O6 0.092971 0.411654 0.256087
O O7 0.218782 0.669450 0.053251
O O8 0.000000 0.000000 0.500000
O O9 0.522587 0.724816 0.288440
O O10 0.701509 0.884817 0.218135
O O11 0.664255 0.449035 0.292630
O O12 0.493549 0.923127 0.134039
O O13 0.397926 0.532791 0.234449
O O14 0.909946 0.978996 0.959463
O O15 0.333811 0.114750 0.185948
O O16 0.129177 0.666304 0.553655
#
# Coordination Sequence:
#
# PCOD9032009 Si02
#       8
#     2   2   2   2   2   1   2   2
#     4  10  23  47  75 105 141 188 247 304 370 426
#     4  11  23  39  66 102 144 192 236 297 360 437
#     4  11  26  45  71 105 147 192 247 297 368 433
#     4  12  27  45  74 105 145 197 239 302 363 446
#     4  10  25  47  72 106 143 190 244 308 361 430
#     4  12  26  46  68 104 152 188 238 296 360 450
#     4  12  25  41  71 104 142 191 239 293 366 438
#     4  10  22  43  69 104 141 188 242 303 361 433
#
# _framework density 28.229600999999999
#
# number of rings (size 3 to 8) (size 9 to 14) (size 15 to 20)
#    0.000    1.067    2.667    2.400    1.867    5.333 
#    0.000    8.000    0.000    0.000    0.000    0.000 
#    0.000    0.000    0.000    0.000    0.000    0.000 
#
# Total GULP energy -83637.072846 kJ/mol
# GULP energy per Si atom -5575.804856 kJ/mol
# Density = 2.816535 g / cm^3
# Si number density = 28.229601 Si / 1000 Ang^3
#
#
#
# Elastic Constant Matrix: (Units=GPa)
#
#
# Indices 1 2 3 4 5 6 
#
# 1 165.7879 79.5919 23.6806 -8.2444 -13.0874 -19.0257
# 2 79.5919 151.4849 7.3299 -7.7962 1.5445 -39.6605
# 3 23.6806 7.3299 125.2278 6.1877 0.8637 -21.1298
# 4 -8.2444 -7.7962 6.1877 34.4613 -19.5336 -1.1450
# 5 -13.0874 1.5445 0.8637 -19.5336 48.3524 6.6381
# 6 -19.0257 -39.6605 -21.1298 -1.1450 6.6381 43.5877
#
#
#
# Elastic Compliance Matrix: (Units=1/GPa)
#
#
# Indices 1 2 3 4 5 6 
#
# 1 0.009058 -0.005098 -0.002016 0.003863 0.004520 -0.002249
# 2 -0.005098 0.011807 0.002005 -0.000480 -0.003358 0.009989
# 3 -0.002016 0.002005 0.009413 -0.003140 -0.002851 0.005859
# 4 0.003863 -0.000480 -0.003140 0.040357 0.017682 -0.001905
# 5 0.004520 -0.003358 -0.002851 0.017682 0.030110 -0.006586
# 6 -0.002249 0.009989 0.005859 -0.001905 -0.006586 0.034843
#
#
# Mechanical properties :
#
#
# Convention : Reuss Voigt Hill
#
# Bulk Modulus (GPa) = 49.84669 73.74506 61.79588
# Shear Modulus (GPa) = 32.78857 47.40684 40.09771
#
# Velocity S-wave (km/s) = 3.41177 4.10241 3.77293
# Velocity P-wave (km/s) = 5.76335 6.97278 6.39671
#
# Compressibility (1/GPa) = 0.02006151
#
# Stress axis : x y z
#
# Youngs Moduli (GPa) = 110.40167 84.69196 106.23912
#
# Poissons Ratio (x) = 0.43172 0.21417
# Poissons Ratio (y) = 0.56278 -0.21303
# Poissons Ratio (z) = 0.22256 -0.16983
#
# Static dielectric constant tensor:
#      x y z
#    x 2.274150 0.178930 0.078020 
#    y 0.178930 2.188150 0.008910 
#    z 0.078020 0.008910 2.248730 
# 
# From -- ./inp_files/459209.got.cif
#   From: 2010.05.17/outbox.cif.g08.bks.cpg/sg2_230_cif.got.tgz:459209.got - 2010.06.03 11:33:40.
