data_PCOD9032260
_publ_section_title
;
Structure prediction by ZEFSAII (Michael W. Deem and Ramdas Pophale) SiO2 
 PCOD9032260
Probable space group: P -1
;
_chemical_formula_sum "Si O2"
_cell_formula_units_Z 16
_cell_length_a 11.724066
_cell_length_b 10.823277
_cell_length_c 11.482435
_cell_angle_alpha 62.244567
_cell_angle_beta 77.291927
_cell_angle_gamma 35.523138
_cell_volume 712.442257
_symmetry_space_group_name_H-M "P -1"
_symmetry_group_IT_number 2
_symmetry_cell_setting 'triclinic'
loop_
_space_group_symop_operation_xyz
x,y,z
-x,-y,-z
loop_
_atom_site_type_symbol
_atom_site_label
_atom_site_fract_x
_atom_site_fract_y
_atom_site_fract_z
Si Si1 0.208704 0.672937 0.722584
Si Si2 0.804121 0.430973 0.731917
Si Si3 0.784255 0.850107 0.579624
Si Si4 0.592133 0.378609 0.904974
Si Si5 0.932279 0.197569 0.554331
Si Si6 0.755876 0.914830 0.115681
Si Si7 0.447612 0.992662 0.649467
Si Si8 0.107522 0.464055 0.880726
O O1 0.402368 0.564073 0.777103
O O2 0.217523 0.649171 0.590966
O O3 0.193752 0.535383 0.846550
O O4 0.006456 0.966876 0.663874
O O5 0.755027 0.334023 0.849969
O O6 0.845636 0.355993 0.619596
O O7 0.609780 0.720645 0.679491
O O8 0.010359 0.293917 0.799733
O O9 0.568935 0.019992 0.615625
O O10 0.863462 0.922356 0.487488
O O11 0.953269 0.636608 0.729156
O O12 0.746863 0.810121 0.481141
O O13 0.500000 0.500000 0.000000
O O14 0.686506 0.132097 0.990143
O O15 0.737808 0.807752 0.075714
O O16 0.621164 0.999502 0.217450
O O17 0.000000 0.500000 0.000000
#
# Coordination Sequence:
#
# PCOD9032260 Si02
#       8
#     2   2   2   2   2   2   2   2
#     4  10  25  47  69 102 145 187 235 293 348 423
#     4  12  24  44  76 106 138 184 235 301 358 409
#     4  10  22  43  70 105 139 183 229 294 346 412
#     4  12  26  44  73 105 143 186 238 293 345 432
#     4  10  22  46  74 104 142 184 238 297 356 411
#     4  12  26  46  71 105 146 185 235 290 355 423
#     4  11  23  42  73 107 140 177 238 296 352 416
#     4  11  27  46  71 101 150 191 231 287 352 429
#
# _framework density 22.457961000000001
#
# number of rings (size 3 to 8) (size 9 to 14) (size 15 to 20)
#    0.000    1.000    3.750    1.875    5.250    6.000 
#    2.250    0.000    0.000    0.000    0.000    0.000 
#    0.000    0.000    0.000    0.000    0.000    0.000 
#
# Total GULP energy -89372.369573 kJ/mol
# GULP energy per Si atom -5585.773098 kJ/mol
# Density = 2.240685 g / cm^3
# Si number density = 22.457961 Si / 1000 Ang^3
#
#
#
# Elastic Constant Matrix: (Units=GPa)
#
#
# Indices 1 2 3 4 5 6 
#
# 1 102.2179 44.4756 28.4679 10.2511 -18.6695 0.0233
# 2 44.4756 87.3995 43.6106 14.4885 -14.5346 11.8243
# 3 28.4679 43.6106 85.1844 12.9970 -22.4968 7.6664
# 4 10.2511 14.4885 12.9970 23.3260 -6.2620 -2.8644
# 5 -18.6695 -14.5346 -22.4968 -6.2620 52.1386 -6.7835
# 6 0.0233 11.8243 7.6664 -2.8644 -6.7835 31.0871
#
#
#
# Elastic Compliance Matrix: (Units=1/GPa)
#
#
# Indices 1 2 3 4 5 6 
#
# 1 0.013308 -0.006317 -0.000627 -0.000349 0.003107 0.003193
# 2 -0.006317 0.019883 -0.006740 -0.007023 -0.001361 -0.006840
# 3 -0.000627 -0.006740 0.017374 -0.004068 0.004767 -0.001055
# 4 -0.000349 -0.007023 -0.004068 0.051746 0.003576 0.009223
# 5 0.003107 -0.001361 0.004767 0.003576 0.023010 0.004690
# 6 0.003193 -0.006840 -0.001055 0.009223 0.004690 0.036900
#
#
# Mechanical properties :
#
#
# Convention : Reuss Voigt Hill
#
# Bulk Modulus (GPa) = 43.10913 56.43444 49.77178
# Shear Modulus (GPa) = 25.33940 31.86018 28.59979
#
# Velocity S-wave (km/s) = 3.36267 3.77059 3.57246
# Velocity P-wave (km/s) = 5.85780 6.64379 6.26314
#
# Compressibility (1/GPa) = 0.02319694
#
# Stress axis : x y z
#
# Youngs Moduli (GPa) = 75.14368 50.29505 57.55649
#
# Poissons Ratio (x) = 0.31769 0.03609
# Poissons Ratio (y) = 0.47465 0.38795
# Poissons Ratio (z) = 0.04712 0.33901
#
# Static dielectric constant tensor:
#      x y z
#    x 1.866930 0.020600 -0.017420 
#    y 0.020600 1.861910 -0.041240 
#    z -0.017420 -0.041240 1.839160 
# 
# From -- ./inp_files/427779.got.cif
#   From: 2010.05.17/outbox.cif.g08.bks.cpg/sg2_214_cif.got.tgz:427779.got - 2010.06.03 11:33:40.
