data_PCOD9032220
_publ_section_title
;
Structure prediction by ZEFSAII (Michael W. Deem and Ramdas Pophale) SiO2 
 PCOD9032220
Probable space group: P -1
;
_chemical_formula_sum "Si O2"
_cell_formula_units_Z 16
_cell_length_a 10.741283
_cell_length_b 5.191436
_cell_length_c 25.654912
_cell_angle_alpha 54.653282
_cell_angle_beta 31.325643
_cell_angle_gamma 66.503361
_cell_volume 591.081435
_symmetry_space_group_name_H-M "P -1"
_symmetry_group_IT_number 2
_symmetry_cell_setting 'triclinic'
loop_
_space_group_symop_operation_xyz
x,y,z
-x,-y,-z
loop_
_atom_site_type_symbol
_atom_site_label
_atom_site_fract_x
_atom_site_fract_y
_atom_site_fract_z
Si Si1 0.059593 0.166854 0.272059
Si Si2 0.608572 0.388891 0.422386
Si Si3 0.755307 0.662985 0.624306
Si Si4 0.657539 0.978144 0.997790
Si Si5 0.760655 0.850294 0.139588
Si Si6 0.455144 0.334108 0.195477
Si Si7 0.941451 0.627039 0.865311
Si Si8 0.774399 0.606292 0.511464
O O1 0.319897 0.246866 0.198369
O O2 0.032169 0.152006 0.221593
O O3 0.900081 0.431993 0.312450
O O4 0.919419 0.844913 0.388251
O O5 0.500000 0.500000 0.500000
O O6 0.491012 0.555353 0.398094
O O7 0.500000 0.000000 0.500000
O O8 0.522503 0.349421 0.747604
O O9 0.729669 0.791261 0.676549
O O10 0.725532 0.781010 0.561988
O O11 0.033978 0.619165 0.524995
O O12 0.879250 0.828786 0.912915
O O13 0.726291 0.325790 0.958997
O O14 0.532794 0.719881 0.115448
O O15 0.500000 0.000000 0.000000
O O16 0.853138 0.571903 0.171346
O O17 0.688016 0.185224 0.142981
O O18 0.000000 0.000000 0.000000
#
# Coordination Sequence:
#
# PCOD9032220 Si02
#       8
#     2   2   2   2   2   2   2   2
#     4  11  24  46  73 112 145 200 254 323 389 460
#     4  10  22  43  70 101 142 186 243 306 371 438
#     4  11  25  45  74 109 150 204 259 314 394 462
#     4  12  27  47  77 112 153 200 259 324 387 464
#     4  12  26  49  72 110 157 202 263 319 391 466
#     4  12  26  45  78 106 154 207 258 320 392 468
#     4  12  28  46  76 112 153 201 258 321 391 458
#     4  10  23  47  73 110 153 198 258 320 386 470
#
# _framework density 27.069030000000001
#
# number of rings (size 3 to 8) (size 9 to 14) (size 15 to 20)
#    0.000    0.750    3.750    2.625    3.500    3.500 
#    9.000    0.000    0.000    0.000    0.000    0.000 
#    0.000    0.000    0.000    0.000    0.000    0.000 
#
# Total GULP energy -89330.002806 kJ/mol
# GULP energy per Si atom -5583.125175 kJ/mol
# Density = 2.700742 g / cm^3
# Si number density = 27.069030 Si / 1000 Ang^3
#
#
#
# Elastic Constant Matrix: (Units=GPa)
#
#
# Indices 1 2 3 4 5 6 
#
# 1 117.8138 38.1111 26.3515 20.7155 20.8206 -29.7327
# 2 38.1111 97.3878 42.0043 14.1801 8.3603 -7.7880
# 3 26.3515 42.0043 139.9406 -5.6282 38.3632 1.5716
# 4 20.7155 14.1801 -5.6282 57.6542 0.4358 2.8509
# 5 20.8206 8.3603 38.3632 0.4358 52.7026 2.9364
# 6 -29.7327 -7.7880 1.5716 2.8509 2.9364 42.9260
#
#
#
# Elastic Compliance Matrix: (Units=1/GPa)
#
#
# Indices 1 2 3 4 5 6 
#
# 1 0.013815 -0.003301 -0.000520 -0.004641 -0.005055 0.009643
# 2 -0.003301 0.013572 -0.004158 -0.002592 0.002180 0.000351
# 3 -0.000520 -0.004158 0.010431 0.002337 -0.006680 -0.001195
# 4 -0.004641 -0.002592 0.002337 0.020128 0.000664 -0.005153
# 5 -0.005055 0.002180 -0.006680 0.000664 0.025743 -0.004666
# 6 0.009643 0.000351 -0.001195 -0.005153 -0.004666 0.030744
#
#
# Mechanical properties :
#
#
# Convention : Reuss Voigt Hill
#
# Bulk Modulus (GPa) = 45.74619 63.11957 54.43288
# Shear Modulus (GPa) = 36.31710 47.23492 41.77601
#
# Velocity S-wave (km/s) = 3.66682 4.18183 3.93277
# Velocity P-wave (km/s) = 5.90457 6.83268 6.38551
#
# Compressibility (1/GPa) = 0.02185974
#
# Stress axis : x y z
#
# Youngs Moduli (GPa) = 72.38412 73.68300 95.87240
#
# Poissons Ratio (x) = 0.24325 0.04984
# Poissons Ratio (y) = 0.23896 0.39861
# Poissons Ratio (z) = 0.03763 0.30635
#
# Static dielectric constant tensor:
#      x y z
#    x 2.229630 0.093990 -0.098660 
#    y 0.093990 2.117150 0.061280 
#    z -0.098660 0.061280 2.106770 
# 
# From -- ./inp_files/617893.got.cif
#   From: 2010.05.17/outbox.cif.g08.bks.cpg/sg2_309_cif.got.tgz:617893.got - 2010.06.03 11:33:40.
