data_PCOD9032691
_publ_section_title
;
Structure prediction by ZEFSAII (Michael W. Deem and Ramdas Pophale) SiO2 
 PCOD9032691
Probable space group: P -1
;
_chemical_formula_sum "Si O2"
_cell_formula_units_Z 11
_cell_length_a 8.653396
_cell_length_b 8.192964
_cell_length_c 11.329461
_cell_angle_alpha 138.830723
_cell_angle_beta 68.650292
_cell_angle_gamma 128.419153
_cell_volume 405.806035
_symmetry_space_group_name_H-M "P -1"
_symmetry_group_IT_number 2
_symmetry_cell_setting 'triclinic'
loop_
_space_group_symop_operation_xyz
x,y,z
-x,-y,-z
loop_
_atom_site_type_symbol
_atom_site_label
_atom_site_fract_x
_atom_site_fract_y
_atom_site_fract_z
Si Si1 0.373939 0.595660 0.516663
Si Si2 0.922608 0.562361 0.838784
Si Si3 0.000000 0.500000 0.000000
Si Si4 0.513421 0.692744 0.265009
Si Si5 0.952474 0.086489 0.252682
Si Si6 0.532083 0.123686 0.928373
O O1 0.500000 0.500000 0.500000
O O2 0.477095 0.706893 0.420473
O O3 0.142421 0.327842 0.409231
O O4 0.396867 0.856462 0.731155
O O5 0.684760 0.357856 0.768005
O O6 0.013285 0.754484 0.798067
O O7 0.031735 0.434820 0.807239
O O8 0.963398 0.797869 0.065346
O O9 0.237279 0.738233 0.083334
O O10 0.740131 0.951223 0.302710
O O11 0.488554 0.378880 0.073821
O O12 0.500000 0.000000 0.000000
#
# Coordination Sequence:
#
# PCOD9032691 Si02
#       6
#     2   2   1   2   2   2
#     4  11  24  44  69 113 155 185 252 310 352 440
#     4  10  23  43  76 106 147 191 250 300 363 445
#     4  12  26  44  76 114 136 194 256 298 366 448
#     4  11  24  46  77 102 149 205 238 298 379 431
#     4  10  22  43  73 104 146 199 234 302 373 428
#     4  12  27  44  73 112 146 192 251 303 363 442
#
# _framework density 27.106548
#
# number of rings (size 3 to 8) (size 9 to 14) (size 15 to 20)
#    0.000    1.091    3.636    1.636    5.091    2.182 
#    0.000    4.545    0.000    0.000    0.000    0.000 
#    0.000    0.000    0.000    0.000    0.000    0.000 
#
# Total GULP energy -61535.641448 kJ/mol
# GULP energy per Si atom -5594.149223 kJ/mol
# Density = 2.704485 g / cm^3
# Si number density = 27.106548 Si / 1000 Ang^3
#
#
#
# Elastic Constant Matrix: (Units=GPa)
#
#
# Indices 1 2 3 4 5 6 
#
# 1 160.6595 82.3892 73.7061 -4.7355 56.4774 12.8031
# 2 82.3892 198.6061 82.2546 1.8320 48.2625 29.3820
# 3 73.7061 82.2546 214.8200 7.3076 42.9280 19.1993
# 4 -4.7355 1.8320 7.3076 46.7065 -5.2349 16.5875
# 5 56.4774 48.2625 42.9280 -5.2349 59.4672 -3.9135
# 6 12.8031 29.3820 19.1993 16.5875 -3.9135 58.3227
#
#
#
# Elastic Compliance Matrix: (Units=1/GPa)
#
#
# Indices 1 2 3 4 5 6 
#
# 1 0.010617 -0.001703 -0.001305 0.001147 -0.007782 -0.001891
# 2 -0.001703 0.007748 -0.001304 0.000537 -0.003913 -0.003515
# 3 -0.001305 -0.001304 0.006185 -0.000962 -0.002315 -0.000974
# 4 0.001147 0.000537 -0.000962 0.024253 0.000841 -0.007047
# 5 -0.007782 -0.003913 -0.002315 0.000841 0.029534 0.006184
# 6 -0.001891 -0.003515 -0.000974 -0.007047 0.006184 0.022072
#
#
# Mechanical properties :
#
#
# Convention : Reuss Voigt Hill
#
# Bulk Modulus (GPa) = 62.80222 116.75392 89.77807
# Shear Modulus (GPa) = 43.72820 55.28167 49.50494
#
# Velocity S-wave (km/s) = 4.02082 4.52089 4.27817
# Velocity P-wave (km/s) = 6.69141 8.39149 7.58920
#
# Compressibility (1/GPa) = 0.01592300
#
# Stress axis : x y z
#
# Youngs Moduli (GPa) = 94.18996 129.06776 161.68590
#
# Poissons Ratio (x) = 0.21985 0.21107
# Poissons Ratio (y) = 0.16044 0.21091
# Poissons Ratio (z) = 0.12296 0.16836
#
# Static dielectric constant tensor:
#      x y z
#    x 0.846790 1.052060 0.177530 
#    y 1.052060 0.264160 -0.260160 
#    z 0.177530 -0.260160 2.099420 
# 
# From -- ./inp_files/380774.got.cif
#   From: 2010.05.17/outbox.cif.g08.bks.cpg/sg2_191_cif.got.tgz:380774.got - 2010.06.03 11:33:40.
