data_PCOD9032263
_publ_section_title
;
Structure prediction by ZEFSAII (Michael W. Deem and Ramdas Pophale) SiO2 
 PCOD9032263
Probable space group: P -1
;
_chemical_formula_sum "Si O2"
_cell_formula_units_Z 14
_cell_length_a 12.236722
_cell_length_b 10.258250
_cell_length_c 5.191644
_cell_angle_alpha 68.695806
_cell_angle_beta 114.487370
_cell_angle_gamma 96.861460
_cell_volume 552.174820
_symmetry_space_group_name_H-M "P -1"
_symmetry_group_IT_number 2
_symmetry_cell_setting 'triclinic'
loop_
_space_group_symop_operation_xyz
x,y,z
-x,-y,-z
loop_
_atom_site_type_symbol
_atom_site_label
_atom_site_fract_x
_atom_site_fract_y
_atom_site_fract_z
Si Si1 0.487856 0.599740 0.660401
Si Si2 0.275012 0.274781 0.047910
Si Si3 0.560429 0.896265 0.932109
Si Si4 0.915323 0.483135 0.178631
Si Si5 0.872569 0.169981 0.341921
Si Si6 0.338524 0.842114 0.469737
Si Si7 0.897343 0.944032 0.118032
O O1 0.500000 0.500000 0.500000
O O2 0.600313 0.705806 0.694187
O O3 0.365874 0.698737 0.444146
O O4 0.500000 0.500000 0.000000
O O5 0.331301 0.221475 0.862171
O O6 0.195297 0.410510 0.939962
O O7 0.180434 0.153488 0.067296
O O8 0.442298 0.813805 0.804581
O O9 0.616810 0.012142 0.710660
O O10 0.500000 0.000000 0.000000
O O11 0.858017 0.334432 0.181170
O O12 0.000000 0.500000 0.500000
O O13 0.000000 0.500000 0.000000
O O14 0.787781 0.139166 0.524824
O O15 0.017018 0.147406 0.537005
O O16 0.837772 0.067621 0.147904
O O17 0.000000 0.000000 0.000000
#
# Coordination Sequence:
#
# PCOD9032263 Si02
#       7
#     2   2   2   2   2   2   2
#     4  11  27  50  74 110 150 197 257 314 384 459
#     4  11  24  47  76 107 153 202 253 317 388 452
#     4  10  22  43  70 105 144 190 255 312 380 451
#     4  12  27  50  73 111 156 205 259 312 386 462
#     4  11  24  43  71 104 154 195 255 315 374 455
#     4  10  23  42  68 104 143 195 246 313 375 447
#     4  11  23  44  70 109 147 196 255 311 379 451
#
# _framework density 25.354289999999999
#
# number of rings (size 3 to 8) (size 9 to 14) (size 15 to 20)
#    0.000    1.143    1.429    3.429    4.000    3.429 
#   15.429    0.000    0.000    0.000    0.000    0.000 
#    0.000    0.000    0.000    0.000    0.000    0.000 
#
# Total GULP energy -78022.836887 kJ/mol
# GULP energy per Si atom -5573.059778 kJ/mol
# Density = 2.529658 g / cm^3
# Si number density = 25.354290 Si / 1000 Ang^3
#
#
#
# Elastic Constant Matrix: (Units=GPa)
#
#
# Indices 1 2 3 4 5 6 
#
# 1 164.3380 77.6329 36.9599 5.0640 -3.0091 -25.8041
# 2 77.6329 228.2764 37.8460 6.3692 -3.4518 -27.8508
# 3 36.9599 37.8460 59.7640 12.4729 -21.0215 -5.3862
# 4 5.0640 6.3692 12.4729 36.1984 -4.1492 3.9607
# 5 -3.0091 -3.4518 -21.0215 -4.1492 42.2296 0.2291
# 6 -25.8041 -27.8508 -5.3862 3.9607 0.2291 78.4660
#
#
#
# Elastic Compliance Matrix: (Units=1/GPa)
#
#
# Indices 1 2 3 4 5 6 
#
# 1 0.008190 -0.001883 -0.004395 0.000313 -0.001736 0.001713
# 2 -0.001883 0.005584 -0.002596 -0.000068 -0.000983 0.001191
# 3 -0.004395 -0.002596 0.026744 -0.006729 0.012128 -0.000227
# 4 0.000313 -0.000068 -0.006729 0.030078 -0.000367 -0.001900
# 5 -0.001736 -0.000983 0.012128 -0.000367 0.029478 -0.000155
# 6 0.001713 0.001191 -0.000227 -0.001900 -0.000155 0.013811
#
#
# Mechanical properties :
#
#
# Convention : Reuss Voigt Hill
#
# Bulk Modulus (GPa) = 43.91539 84.13955 64.02747
# Shear Modulus (GPa) = 35.91408 51.37478 43.64443
#
# Velocity S-wave (km/s) = 3.76771 4.50630 4.15346
# Velocity P-wave (km/s) = 6.02377 7.76745 6.95051
#
# Compressibility (1/GPa) = 0.02277106
#
# Stress axis : x y z
#
# Youngs Moduli (GPa) = 122.09558 179.09468 37.39203
#
# Poissons Ratio (x) = 0.33721 0.16432
# Poissons Ratio (y) = 0.22989 0.09706
# Poissons Ratio (z) = 0.53656 0.46490
#
# Static dielectric constant tensor:
#      x y z
#    x 1.871170 0.297790 0.019210 
#    y 0.297790 1.525830 -0.034990 
#    z 0.019210 -0.034990 2.230440 
# 
# From -- ./inp_files/60494.got.cif
#   From: 2010.05.17/outbox.cif.g08.bks.cpg/sg2_31_cif.got.tgz:60494.got - 2010.06.03 11:33:40.
