data_PCOD9032124
_publ_section_title
;
Structure prediction by ZEFSAII (Michael W. Deem and Ramdas Pophale) SiO2 
 PCOD9032124
Probable space group: P -1
;
_chemical_formula_sum "Si O2"
_cell_formula_units_Z 16
_cell_length_a 9.422960
_cell_length_b 5.117736
_cell_length_c 15.313199
_cell_angle_alpha 89.417734
_cell_angle_beta 61.284125
_cell_angle_gamma 91.220442
_cell_volume 647.323184
_symmetry_space_group_name_H-M "P -1"
_symmetry_group_IT_number 2
_symmetry_cell_setting 'triclinic'
loop_
_space_group_symop_operation_xyz
x,y,z
-x,-y,-z
loop_
_atom_site_type_symbol
_atom_site_label
_atom_site_fract_x
_atom_site_fract_y
_atom_site_fract_z
Si Si1 0.500614 0.366568 0.904961
Si Si2 0.811558 0.149330 0.861377
Si Si3 0.731141 0.987420 0.351448
Si Si4 0.357791 0.065448 0.803749
Si Si5 0.952832 0.673971 0.739183
Si Si6 0.339869 0.262297 0.290396
Si Si7 0.589389 0.695914 0.539133
Si Si8 0.113128 0.752189 0.969529
O O1 0.629443 0.139793 0.881281
O O2 0.353033 0.238532 0.893008
O O3 0.580306 0.565585 0.810954
O O4 0.500000 0.500000 0.000000
O O5 0.914788 0.371393 0.775682
O O6 0.804766 0.247743 0.960820
O O7 0.882856 0.864366 0.834104
O O8 0.726666 0.833811 0.260200
O O9 0.736458 0.817952 0.438187
O O10 0.552372 0.101758 0.402867
O O11 0.862996 0.222347 0.319408
O O12 0.545304 0.989152 0.736498
O O13 0.250847 0.802708 0.856521
O O14 0.846188 0.759959 0.686334
O O15 0.355538 0.392836 0.381228
O O16 0.500000 0.500000 0.500000
O O17 0.000000 0.500000 0.000000
O O18 0.000000 0.000000 0.000000
#
# Coordination Sequence:
#
# PCOD9032124 Si02
#       8
#     2   2   2   2   2   2   2   2
#     4  11  24  39  67  98 134 183 231 281 335 406
#     4  11  24  43  65  94 144 176 229 276 339 398
#     4  10  23  42  68  97 132 173 227 279 349 403
#     4  11  23  42  67  93 134 181 227 281 339 409
#     4  11  24  45  68 102 135 182 221 284 340 410
#     4  10  23  42  67  96 134 175 228 277 347 405
#     4  10  22  43  69  98 130 172 227 283 341 413
#     4  12  27  42  63  98 136 181 229 280 334 401
#
# _framework density 24.717172999999999
#
# number of rings (size 3 to 8) (size 9 to 14) (size 15 to 20)
#    0.000    1.250    1.250    3.750    8.750    1.500 
#    0.000    0.625    0.000    0.000    0.000    0.000 
#    0.000    0.000    0.000    0.000    0.000    0.000 
#
# Total GULP energy -89387.546244 kJ/mol
# GULP energy per Si atom -5586.721640 kJ/mol
# Density = 2.466092 g / cm^3
# Si number density = 24.717173 Si / 1000 Ang^3
#
#
#
# Elastic Constant Matrix: (Units=GPa)
#
#
# Indices 1 2 3 4 5 6 
#
# 1 123.8665 13.8960 51.7934 -5.8332 25.2830 20.8665
# 2 13.8960 88.3823 25.0905 0.1764 8.0577 19.8339
# 3 51.7934 25.0905 136.2482 -2.1992 44.7712 27.5017
# 4 -5.8332 0.1764 -2.1992 31.7774 10.8951 3.6814
# 5 25.2830 8.0577 44.7712 10.8951 46.0251 8.9462
# 6 20.8665 19.8339 27.5017 3.6814 8.9462 41.9307
#
#
#
# Elastic Compliance Matrix: (Units=1/GPa)
#
#
# Indices 1 2 3 4 5 6 
#
# 1 0.010436 0.000025 -0.001880 0.003584 -0.004094 -0.003414
# 2 0.000025 0.012866 -0.001260 0.000504 -0.000132 -0.005288
# 3 -0.001880 -0.001260 0.013344 0.005288 -0.011982 -0.005129
# 4 0.003584 0.000504 0.005288 0.038348 -0.015187 -0.005617
# 5 -0.004094 -0.000132 -0.011982 -0.015187 0.038658 0.003044
# 6 -0.003414 -0.005288 -0.005129 -0.005617 0.003044 0.031256
#
#
# Mechanical properties :
#
#
# Convention : Reuss Voigt Hill
#
# Bulk Modulus (GPa) = 32.87678 58.89521 45.88599
# Shear Modulus (GPa) = 31.00272 41.12777 36.06525
#
# Velocity S-wave (km/s) = 3.54545 4.08356 3.82398
# Velocity P-wave (km/s) = 5.48547 6.79068 6.17267
#
# Compressibility (1/GPa) = 0.03041660
#
# Stress axis : x y z
#
# Youngs Moduli (GPa) = 95.82423 77.72465 74.94012
#
# Poissons Ratio (x) = -0.00194 0.14085
# Poissons Ratio (y) = -0.00239 0.09442
# Poissons Ratio (z) = 0.18011 0.09793
#
# Static dielectric constant tensor:
#      x y z
#    x 2.016860 -0.004400 -0.006160 
#    y -0.004400 2.037050 0.035390 
#    z -0.006160 0.035390 2.051240 
# 
# From -- ./inp_files/38637.got.cif
#   From: 2010.05.17/outbox.cif.g08.bks.cpg/sg2_20_cif.got.tgz:38637.got - 2010.06.03 11:33:40.
