data_PCOD9032996
_publ_section_title
;
Structure prediction by ZEFSAII (Michael W. Deem and Ramdas Pophale) SiO2 
 PCOD9032996
Probable space group: P -1
;
_chemical_formula_sum "Si O2"
_cell_formula_units_Z 16
_cell_length_a 13.862671
_cell_length_b 9.096140
_cell_length_c 9.355206
_cell_angle_alpha 88.995169
_cell_angle_beta 133.152177
_cell_angle_gamma 101.325248
_cell_volume 832.532699
_symmetry_space_group_name_H-M "P -1"
_symmetry_group_IT_number 2
_symmetry_cell_setting 'triclinic'
loop_
_space_group_symop_operation_xyz
x,y,z
-x,-y,-z
loop_
_atom_site_type_symbol
_atom_site_label
_atom_site_fract_x
_atom_site_fract_y
_atom_site_fract_z
Si Si1 0.079210 0.405315 0.990008
Si Si2 0.097092 0.919041 0.511874
Si Si3 0.381785 0.394019 0.287421
Si Si4 0.385424 0.543720 0.978066
Si Si5 0.621162 0.961892 0.715619
Si Si6 0.088918 0.417572 0.681953
Si Si7 0.106823 0.931884 0.195717
Si Si8 0.628110 0.102616 0.040190
O O1 0.228462 0.388887 0.189508
O O2 0.105007 0.479368 0.858243
O O3 0.000000 0.500000 0.000000
O O4 0.971142 0.243944 0.872552
O O5 0.133381 0.985320 0.387081
O O6 0.232410 0.907664 0.736253
O O7 0.994975 0.754222 0.392343
O O8 0.000000 0.000000 0.500000
O O9 0.500000 0.500000 0.500000
O O10 0.394378 0.220483 0.288843
O O11 0.395640 0.475258 0.146292
O O12 0.239358 0.449855 0.770914
O O13 0.385515 0.722405 0.979018
O O14 0.500000 0.500000 0.000000
O O15 0.500000 0.000000 0.500000
O O16 0.757400 0.033378 0.761686
O O17 0.628105 0.035166 0.880298
O O18 0.000000 0.500000 0.500000
O O19 0.000000 0.000000 0.000000
O O20 0.500000 0.000000 0.000000
#
# Coordination Sequence:
#
# PCOD9032996 Si02
#       8
#     2   2   2   2   2   2   2   2
#     4  10  24  40  68  96 132 173 217 273 329 399
#     4  11  25  42  69 100 134 178 221 278 334 401
#     4  11  25  46  66  97 135 175 226 273 338 399
#     4  11  25  44  69  96 135 177 221 277 335 400
#     4  12  26  45  71  98 138 178 226 284 333 408
#     4  10  22  44  64  96 132 168 222 268 334 394
#     4  11  23  44  67  99 135 173 224 274 338 395
#     4  12  26  45  70 100 135 178 229 279 341 403
#
# _framework density 19.218464000000001
#
# number of rings (size 3 to 8) (size 9 to 14) (size 15 to 20)
#    0.000    1.000    2.500    3.000   10.500    2.000 
#    0.000    0.000    0.000    0.000    0.000    0.000 
#    0.000    0.000    0.000    0.000    0.000    0.000 
#
# Total GULP energy -89286.121566 kJ/mol
# GULP energy per Si atom -5580.382598 kJ/mol
# Density = 1.917472 g / cm^3
# Si number density = 19.218464 Si / 1000 Ang^3
#
#
#
# Elastic Constant Matrix: (Units=GPa)
#
#
# Indices 1 2 3 4 5 6 
#
# 1 197.6244 74.5687 97.9453 -4.3702 14.7125 -10.5602
# 2 74.5687 134.2779 69.1576 -12.6826 -0.1801 -8.6801
# 3 97.9453 69.1576 163.6499 -11.5562 12.8363 -15.2639
# 4 -4.3702 -12.6826 -11.5562 34.0578 0.4788 3.7974
# 5 14.7125 -0.1801 12.8363 0.4788 40.0987 2.1163
# 6 -10.5602 -8.6801 -15.2639 3.7974 2.1163 38.7958
#
#
#
# Elastic Compliance Matrix: (Units=1/GPa)
#
#
# Indices 1 2 3 4 5 6 
#
# 1 0.007953 -0.002689 -0.003530 -0.001197 -0.001806 0.000390
# 2 -0.002689 0.010668 -0.002847 0.002615 0.001905 0.000175
# 3 -0.003530 -0.002847 0.009911 0.001627 -0.002029 0.002253
# 4 -0.001197 0.002615 0.001627 0.030974 -0.000328 -0.002114
# 5 -0.001806 0.001905 -0.002029 -0.000328 0.026383 -0.002270
# 6 0.000390 0.000175 0.002253 -0.002114 -0.002270 0.027138
#
#
# Mechanical properties :
#
#
# Convention : Reuss Voigt Hill
#
# Bulk Modulus (GPa) = 96.16237 108.76615 102.46426
# Shear Modulus (GPa) = 37.13986 39.51584 38.32785
#
# Velocity S-wave (km/s) = 4.40080 4.53939 4.47063
# Velocity P-wave (km/s) = 8.71595 9.17563 8.94874
#
# Compressibility (1/GPa) = 0.01039908
#
# Stress axis : x y z
#
# Youngs Moduli (GPa) = 125.73778 93.74086 100.89942
#
# Poissons Ratio (x) = 0.25204 0.35619
# Poissons Ratio (y) = 0.33807 0.28731
# Poissons Ratio (z) = 0.44388 0.26692
#
# Static dielectric constant tensor:
#      x y z
#    x 1.812580 -0.041980 0.027520 
#    y -0.041980 1.642660 -0.015890 
#    z 0.027520 -0.015890 1.690970 
# 
# From -- ./inp_files/187717.got.cif
#   From: 2010.05.17/outbox.cif.g08.bks.cpg/sg2_94_cif.got.tgz:187717.got - 2010.06.03 11:33:40.
