data_PCOD9032264
_publ_section_title
;
Structure prediction by ZEFSAII (Michael W. Deem and Ramdas Pophale) SiO2 
 PCOD9032264
Probable space group: P -1
;
_chemical_formula_sum "Si O2"
_cell_formula_units_Z 14
_cell_length_a 11.304832
_cell_length_b 10.776990
_cell_length_c 6.203655
_cell_angle_alpha 74.987675
_cell_angle_beta 90.781593
_cell_angle_gamma 51.333919
_cell_volume 554.346690
_symmetry_space_group_name_H-M "P -1"
_symmetry_group_IT_number 2
_symmetry_cell_setting 'triclinic'
loop_
_space_group_symop_operation_xyz
x,y,z
-x,-y,-z
loop_
_atom_site_type_symbol
_atom_site_label
_atom_site_fract_x
_atom_site_fract_y
_atom_site_fract_z
Si Si1 0.849812 0.536616 0.383378
Si Si2 0.655769 0.889305 0.410766
Si Si3 0.373453 0.758222 0.471729
Si Si4 0.949785 0.742604 0.790746
Si Si5 0.146435 0.835518 0.807138
Si Si6 0.770168 0.980431 0.017455
Si Si7 0.305878 0.555637 0.286965
O O1 0.702050 0.732523 0.336865
O O2 0.813560 0.433885 0.566380
O O3 0.000000 0.500000 0.500000
O O4 0.906449 0.449750 0.188118
O O5 0.805092 0.805815 0.607941
O O6 0.500000 0.000000 0.500000
O O7 0.660514 0.001862 0.189080
O O8 0.251961 0.812097 0.629448
O O9 0.328167 0.904460 0.243998
O O10 0.362104 0.644786 0.364460
O O11 0.542573 0.641203 0.638403
O O12 0.000566 0.856580 0.707485
O O13 0.887397 0.789744 0.012522
O O14 0.132409 0.968640 0.904727
O O15 0.234937 0.660289 0.019943
#
# Coordination Sequence:
#
# PCOD9032264 Si02
#       7
#     2   2   2   2   2   2   2
#     4  10  24  48  72  99 148 190 248 299 346 435
#     4  11  28  52  72 106 148 195 246 298 355 437
#     4  10  22  44  70 109 145 188 237 307 360 428
#     4  11  25  47  73 110 144 189 245 300 363 427
#     4  11  23  43  75 109 145 188 236 311 366 426
#     4  11  26  43  76 106 147 187 245 291 374 424
#     4  10  22  43  70 105 145 186 247 296 366 421
#
# _framework density 25.254950999999998
#
# number of rings (size 3 to 8) (size 9 to 14) (size 15 to 20)
#    0.000    1.429    1.429    1.714    8.000    3.429 
#    2.571    0.000    0.000    0.000    0.000    0.000 
#    0.000    0.000    0.000    0.000    0.000    0.000 
#
# Total GULP energy -78306.357076 kJ/mol
# GULP energy per Si atom -5593.311220 kJ/mol
# Density = 2.519747 g / cm^3
# Si number density = 25.254951 Si / 1000 Ang^3
#
#
#
# Elastic Constant Matrix: (Units=GPa)
#
#
# Indices 1 2 3 4 5 6 
#
# 1 95.9373 50.1315 26.2723 3.8530 -15.3532 -23.2712
# 2 50.1315 161.3883 44.4370 25.6711 1.7794 -10.5157
# 3 26.2723 44.4370 50.7886 1.1024 -9.5685 -29.2656
# 4 3.8530 25.6711 1.1024 43.8443 2.1623 -2.2201
# 5 -15.3532 1.7794 -9.5685 2.1623 48.0426 13.9427
# 6 -23.2712 -10.5157 -29.2656 -2.2201 13.9427 43.0851
#
#
#
# Elastic Compliance Matrix: (Units=1/GPa)
#
#
# Indices 1 2 3 4 5 6 
#
# 1 0.014595 -0.004571 0.000604 0.001545 0.003066 0.006265
# 2 -0.004571 0.011583 -0.012517 -0.006376 -0.001807 -0.007888
# 3 0.000604 -0.012517 0.047352 0.007516 0.001208 0.029432
# 4 0.001545 -0.006376 0.007516 0.026554 -0.000704 0.005979
# 5 0.003066 -0.001807 0.001208 -0.000704 0.023788 -0.005699
# 6 0.006265 -0.007888 0.029432 0.005979 -0.005699 0.046812
#
#
# Mechanical properties :
#
#
# Convention : Reuss Voigt Hill
#
# Bulk Modulus (GPa) = 24.65377 61.08841 42.87109
# Shear Modulus (GPa) = 23.02321 39.47930 31.25125
#
# Velocity S-wave (km/s) = 3.02260 3.95806 3.52153
# Velocity P-wave (km/s) = 4.68664 6.71785 5.79198
#
# Compressibility (1/GPa) = 0.04056175
#
# Stress axis : x y z
#
# Youngs Moduli (GPa) = 68.51627 86.33622 21.11838
#
# Poissons Ratio (x) = 0.39466 -0.01275
# Poissons Ratio (y) = 0.31320 0.26433
# Poissons Ratio (z) = -0.04137 1.08064
#
# Static dielectric constant tensor:
#      x y z
#    x 2.023920 0.011760 0.024750 
#    y 0.011760 2.091710 -0.025830 
#    z 0.024750 -0.025830 1.967020 
# 
# From -- ./inp_files/69815.got.cif
#   From: 2010.05.17/outbox.cif.g08.bks.cpg/sg2_35_cif.got.tgz:69815.got - 2010.06.03 11:33:40.
