data_PCOD9032879
_publ_section_title
;
Structure prediction by ZEFSAII (Michael W. Deem and Ramdas Pophale) SiO2 
 PCOD9032879
Probable space group: P -1
;
_chemical_formula_sum "Si O2"
_cell_formula_units_Z 15
_cell_length_a 12.496418
_cell_length_b 4.888907
_cell_length_c 11.386485
_cell_angle_alpha 77.501632
_cell_angle_beta 66.616970
_cell_angle_gamma 103.354418
_cell_volume 583.109923
_symmetry_space_group_name_H-M "P -1"
_symmetry_group_IT_number 2
_symmetry_cell_setting 'triclinic'
loop_
_space_group_symop_operation_xyz
x,y,z
-x,-y,-z
loop_
_atom_site_type_symbol
_atom_site_label
_atom_site_fract_x
_atom_site_fract_y
_atom_site_fract_z
Si Si1 0.910250 0.139618 0.459406
Si Si2 0.421134 0.380834 0.714888
Si Si3 0.509932 0.059459 0.127317
Si Si4 0.500000 0.000000 0.500000
Si Si5 0.869470 0.447208 0.808873
Si Si6 0.770495 0.463399 0.089331
Si Si7 0.251355 0.080502 0.242389
Si Si8 0.731471 0.057089 0.359345
O O1 0.819696 0.149461 0.602769
O O2 0.997509 0.434858 0.326128
O O3 0.822201 0.956029 0.408790
O O4 0.000000 0.000000 0.500000
O O5 0.500283 0.241274 0.771987
O O6 0.283184 0.309802 0.839498
O O7 0.395347 0.187540 0.621799
O O8 0.481456 0.729705 0.634244
O O9 0.396461 0.170377 0.187750
O O10 0.645043 0.284820 0.086313
O O11 0.500000 0.000000 0.000000
O O12 0.350548 0.802546 0.539828
O O13 0.798465 0.102020 0.839703
O O14 0.791134 0.635539 0.768704
O O15 0.874361 0.525767 0.937922
O O16 0.794440 0.270944 0.204314
#
# Coordination Sequence:
#
# PCOD9032879 Si02
#       8
#     2   2   2   1   2   2   2   2
#     4  10  25  48  71 100 136 188 244 297 351 422
#     4  10  23  40  66 102 146 184 233 292 365 438
#     4  11  22  39  68 106 142 189 231 297 363 429
#     4  10  22  44  62 102 138 186 230 288 360 428
#     4  11  24  47  69 101 142 187 244 293 354 425
#     4  10  23  41  67 102 142 182 237 292 365 427
#     4  11  25  43  71 103 145 186 237 301 356 427
#     4  10  23  44  67 100 140 184 238 290 363 427
#
# _framework density 25.724136999999999
#
# number of rings (size 3 to 8) (size 9 to 14) (size 15 to 20)
#    0.000    1.600    1.333    1.600    9.333    2.667 
#   19.200    0.667    0.000    0.000    0.000    0.000 
#    0.000    0.000    0.000    0.000    0.000    0.000 
#
# Total GULP energy -83630.502257 kJ/mol
# GULP energy per Si atom -5575.366817 kJ/mol
# Density = 2.566559 g / cm^3
# Si number density = 25.724137 Si / 1000 Ang^3
#
#
#
# Elastic Constant Matrix: (Units=GPa)
#
#
# Indices 1 2 3 4 5 6 
#
# 1 108.9522 11.3239 30.8677 2.4999 31.8787 2.6756
# 2 11.3239 79.3203 -8.7455 5.1957 11.9307 -2.5764
# 3 30.8677 -8.7455 132.4311 12.2341 11.7430 -2.4462
# 4 2.4999 5.1957 12.2341 32.7788 -1.4969 0.7426
# 5 31.8787 11.9307 11.7430 -1.4969 45.1057 -1.8274
# 6 2.6756 -2.5764 -2.4462 0.7426 -1.8274 21.0428
#
#
#
# Elastic Compliance Matrix: (Units=1/GPa)
#
#
# Indices 1 2 3 4 5 6 
#
# 1 0.012317 -0.000868 -0.002242 -0.000271 -0.008007 -0.002619
# 2 -0.000868 0.013696 0.001721 -0.002946 -0.003482 0.001789
# 3 -0.002242 0.001721 0.008634 -0.003412 -0.001171 0.001518
# 4 -0.000271 -0.002946 -0.003412 0.032437 0.002870 -0.001618
# 5 -0.008007 -0.003482 -0.001171 0.002870 0.029268 0.002896
# 6 -0.002619 0.001789 0.001518 -0.001618 0.002896 0.048559
#
#
# Mechanical properties :
#
#
# Convention : Reuss Voigt Hill
#
# Bulk Modulus (GPa) = 31.37881 43.06617 37.22249
# Shear Modulus (GPa) = 31.58330 38.93596 35.25963
#
# Velocity S-wave (km/s) = 3.50775 3.89472 3.70629
# Velocity P-wave (km/s) = 5.35074 6.08301 5.72859
#
# Compressibility (1/GPa) = 0.03186864
#
# Stress axis : x y z
#
# Youngs Moduli (GPa) = 81.18875 73.01565 115.81743
#
# Poissons Ratio (x) = 0.06341 0.25961
# Poissons Ratio (y) = 0.07051 -0.19931
# Poissons Ratio (z) = 0.18199 -0.12565
#
# Static dielectric constant tensor:
#      x y z
#    x 2.451920 -0.739890 -0.636730 
#    y -0.739890 3.447850 1.121240 
#    z -0.636730 1.121240 2.972340 
# 
# From -- ./inp_files/410038.got.cif
#   From: 2010.05.17/outbox.cif.g08.bks.cpg/sg2_206_cif.got.tgz:410038.got - 2010.06.03 11:33:40.
