data_PCOD9032850
_publ_section_title
;
Structure prediction by ZEFSAII (Michael W. Deem and Ramdas Pophale) SiO2 
 PCOD9032850
Probable space group: P -1
;
_chemical_formula_sum "Si O2"
_cell_formula_units_Z 15
_cell_length_a 13.665387
_cell_length_b 9.447761
_cell_length_c 11.546141
_cell_angle_alpha 38.394242
_cell_angle_beta 124.584426
_cell_angle_gamma 143.553718
_cell_volume 541.965016
_symmetry_space_group_name_H-M "P -1"
_symmetry_group_IT_number 2
_symmetry_cell_setting 'triclinic'
loop_
_space_group_symop_operation_xyz
x,y,z
-x,-y,-z
loop_
_atom_site_type_symbol
_atom_site_label
_atom_site_fract_x
_atom_site_fract_y
_atom_site_fract_z
Si Si1 0.992614 0.037961 0.335926
Si Si2 0.559406 0.749134 0.780073
Si Si3 0.098617 0.767113 0.030270
Si Si4 0.500000 0.500000 0.500000
Si Si5 0.665811 0.651535 0.699747
Si Si6 0.755714 0.244032 0.266133
Si Si7 0.204277 0.400918 0.710342
Si Si8 0.612574 0.161813 0.738538
O O1 0.912968 0.160773 0.155619
O O2 0.180009 0.299670 0.244549
O O3 0.905855 0.724859 0.399185
O O4 0.000000 0.000000 0.500000
O O5 0.411781 0.849712 0.829329
O O6 0.398795 0.609211 0.689642
O O7 0.632108 0.065183 0.689153
O O8 0.858818 0.931908 0.070756
O O9 0.923096 0.464223 0.164584
O O10 0.245828 0.783711 0.132397
O O11 0.673124 0.773477 0.750157
O O12 0.492527 0.346737 0.723658
O O13 0.624492 0.449459 0.566900
O O14 0.685271 0.887357 0.463250
O O15 0.800362 0.412323 0.313887
O O16 0.500000 0.500000 0.000000
#
# Coordination Sequence:
#
# PCOD9032850 Si02
#       8
#     2   2   2   1   2   2   2   2
#     4  10  25  45  68 109 158 204 255 314 395 470
#     4  11  22  44  81 115 151 201 264 333 392 471
#     4  10  22  43  80 111 149 207 258 322 396 467
#     4  10  26  50  70 110 160 208 256 316 394 476
#     4  11  27  46  73 111 157 204 266 325 392 468
#     4  10  23  44  72 120 150 196 266 326 392 468
#     4   9  22  39  75 107 155 194 255 320 397 456
#     4  10  23  46  80 113 158 202 263 322 401 460
#
# _framework density 27.677061999999999
#
# number of rings (size 3 to 8) (size 9 to 14) (size 15 to 20)
#    0.800    1.067    1.333    0.400    7.467    6.400 
#    2.400    5.333    0.000    0.000    0.000    0.000 
#    0.000    0.000    0.000    0.000    0.000    0.000 
#
# Total GULP energy -83739.669656 kJ/mol
# GULP energy per Si atom -5582.644644 kJ/mol
# Density = 2.761407 g / cm^3
# Si number density = 27.677062 Si / 1000 Ang^3
#
#
#
# Elastic Constant Matrix: (Units=GPa)
#
#
# Indices 1 2 3 4 5 6 
#
# 1 159.1834 90.1360 46.0101 17.6375 1.8259 -48.8544
# 2 90.1360 162.4393 66.5657 23.0946 2.5857 -18.1217
# 3 46.0101 66.5657 138.2537 26.9746 1.1607 -5.2539
# 4 17.6375 23.0946 26.9746 66.2562 0.0164 8.6959
# 5 1.8259 2.5857 1.1607 0.0164 30.5862 -10.7600
# 6 -48.8544 -18.1217 -5.2539 8.6959 -10.7600 61.3261
#
#
#
# Elastic Compliance Matrix: (Units=1/GPa)
#
#
# Indices 1 2 3 4 5 6 
#
# 1 0.012617 -0.005333 -0.000841 -0.002374 0.002990 0.009264
# 2 -0.005333 0.010337 -0.003113 -0.000715 -0.000975 -0.001530
# 3 -0.000841 -0.003113 0.009482 -0.002491 -0.000207 -0.000461
# 4 -0.002374 -0.000715 -0.002491 0.017656 -0.001501 -0.005083
# 5 0.002990 -0.000975 -0.000207 -0.001501 0.035610 0.008537
# 6 0.009264 -0.001530 -0.000461 -0.005083 0.008537 0.025414
#
#
# Mechanical properties :
#
#
# Convention : Reuss Voigt Hill
#
# Bulk Modulus (GPa) = 72.13576 96.14444 84.14010
# Shear Modulus (GPa) = 37.22719 48.77801 43.00260
#
# Velocity S-wave (km/s) = 3.67148 4.20265 3.94601
# Velocity P-wave (km/s) = 6.64025 7.63957 7.15737
#
# Compressibility (1/GPa) = 0.01386275
#
# Stress axis : x y z
#
# Youngs Moduli (GPa) = 79.25895 96.73565 105.46326
#
# Poissons Ratio (x) = 0.51588 0.08870
# Poissons Ratio (y) = 0.42268 0.32829
# Poissons Ratio (z) = 0.06666 0.30113
#
# Static dielectric constant tensor:
#      x y z
#    x 2.196980 -0.080000 -0.061900 
#    y -0.080000 2.569850 -0.063720 
#    z -0.061900 -0.063720 2.236940 
# 
# From -- ./inp_files/530909.got.cif
#   From: 2010.05.17/outbox.cif.g08.bks.cpg/sg2_266_cif.got.tgz:530909.got - 2010.06.03 11:33:40.
