data_PCOD9032798
_publ_section_title
;
Structure prediction by ZEFSAII (Michael W. Deem and Ramdas Pophale) SiO2 
 PCOD9032798
Probable space group: P -1
;
_chemical_formula_sum "Si O2"
_cell_formula_units_Z 14
_cell_length_a 11.936038
_cell_length_b 8.435283
_cell_length_c 8.897920
_cell_angle_alpha 67.796144
_cell_angle_beta 127.941111
_cell_angle_gamma 125.718311
_cell_volume 573.375939
_symmetry_space_group_name_H-M "P -1"
_symmetry_group_IT_number 2
_symmetry_cell_setting 'triclinic'
loop_
_space_group_symop_operation_xyz
x,y,z
-x,-y,-z
loop_
_atom_site_type_symbol
_atom_site_label
_atom_site_fract_x
_atom_site_fract_y
_atom_site_fract_z
Si Si1 0.041737 0.090843 0.167741
Si Si2 0.738903 0.039451 0.464095
Si Si3 0.826475 0.526551 0.018763
Si Si4 0.135660 0.562125 0.408704
Si Si5 0.772679 0.701415 0.213577
Si Si6 0.645544 0.951377 0.092115
Si Si7 0.361100 0.802517 0.237253
O O1 0.075347 0.308325 0.085668
O O2 0.206791 0.097808 0.354855
O O3 0.915901 0.926107 0.234702
O O4 0.000000 0.000000 0.000000
O O5 0.841471 0.262449 0.522888
O O6 0.754008 0.025733 0.303396
O O7 0.548072 0.946755 0.372941
O O8 0.678482 0.356439 0.869689
O O9 0.766283 0.606043 0.080470
O O10 0.957797 0.474153 0.219830
O O11 0.182658 0.415263 0.584596
O O12 0.264952 0.682759 0.343779
O O13 0.621413 0.735490 0.119009
O O14 0.705109 0.062547 0.942239
O O15 0.500000 0.000000 0.000000
#
# Coordination Sequence:
#
# PCOD9032798 Si02
#       7
#     2   2   2   2   2   2   2
#     4  10  22  43  75 104 140 186 241 289 355 420
#     4  11  24  47  72 101 150 188 240 292 355 421
#     4  11  24  46  71 107 146 187 241 293 351 426
#     4  12  24  45  73 110 141 191 239 294 352 423
#     4  11  24  44  77 104 139 188 246 294 354 420
#     4  10  25  48  69 102 144 189 233 295 360 426
#     4  11  26  46  71 103 152 188 234 296 358 421
#
# _framework density 24.416792000000001
#
# number of rings (size 3 to 8) (size 9 to 14) (size 15 to 20)
#    0.000    1.143    2.857    3.000    6.000    1.143 
#    2.571    5.714    0.000    0.000    0.000    0.000 
#    0.000    0.000    0.000    0.000    0.000    0.000 
#
# Total GULP energy -78241.438689 kJ/mol
# GULP energy per Si atom -5588.674192 kJ/mol
# Density = 2.436122 g / cm^3
# Si number density = 24.416792 Si / 1000 Ang^3
#
#
#
# Elastic Constant Matrix: (Units=GPa)
#
#
# Indices 1 2 3 4 5 6 
#
# 1 97.4475 28.5732 38.6027 -23.0134 -12.6118 -11.1016
# 2 28.5732 86.4377 41.7043 -32.0474 -1.5500 0.7285
# 3 38.6027 41.7043 149.4594 -35.8549 -16.2671 -5.3502
# 4 -23.0134 -32.0474 -35.8549 52.3757 5.1527 -7.7258
# 5 -12.6118 -1.5500 -16.2671 5.1527 29.5189 -7.2089
# 6 -11.1016 0.7285 -5.3502 -7.7258 -7.2089 40.3207
#
#
#
# Elastic Compliance Matrix: (Units=1/GPa)
#
#
# Indices 1 2 3 4 5 6 
#
# 1 0.013737 -0.002475 -0.001062 0.004035 0.005791 0.005494
# 2 -0.002475 0.016274 -0.002458 0.007417 -0.002952 -0.000408
# 3 -0.001062 -0.002458 0.009258 0.004317 0.004399 0.002594
# 4 0.004035 0.007417 0.004317 0.029333 0.001175 0.007380
# 5 0.005791 -0.002952 0.004399 0.001175 0.040796 0.009751
# 6 0.005494 -0.000408 0.002594 0.007380 0.009751 0.029823
#
#
# Mechanical properties :
#
#
# Convention : Reuss Voigt Hill
#
# Bulk Modulus (GPa) = 36.65943 61.23390 48.94666
# Shear Modulus (GPa) = 31.19068 39.40734 35.29901
#
# Velocity S-wave (km/s) = 3.57799 4.02175 3.80634
# Velocity P-wave (km/s) = 5.66709 6.83367 6.27754
#
# Compressibility (1/GPa) = 0.02727811
#
# Stress axis : x y z
#
# Youngs Moduli (GPa) = 72.79713 61.44886 108.01015
#
# Poissons Ratio (x) = 0.15207 0.11476
# Poissons Ratio (y) = 0.18015 0.26551
# Poissons Ratio (z) = 0.07734 0.15105
#
# Static dielectric constant tensor:
#      x y z
#    x 2.138320 0.024040 0.050430 
#    y 0.024040 1.962180 0.007520 
#    z 0.050430 0.007520 1.892070 
# 
# From -- ./inp_files/243236.got.cif
#   From: 2010.05.17/outbox.cif.g08.bks.cpg/sg2_122_cif.got.tgz:243236.got - 2010.06.03 11:33:40.
