data_PCOD9032242
_publ_section_title
;
Structure prediction by ZEFSAII (Michael W. Deem and Ramdas Pophale) SiO2 
 PCOD9032242
Probable space group: P -1
;
_chemical_formula_sum "Si O2"
_cell_formula_units_Z 16
_cell_length_a 5.657671
_cell_length_b 15.911696
_cell_length_c 8.681402
_cell_angle_alpha 101.346121
_cell_angle_beta 73.773965
_cell_angle_gamma 77.972706
_cell_volume 706.356883
_symmetry_space_group_name_H-M "P -1"
_symmetry_group_IT_number 2
_symmetry_cell_setting 'triclinic'
loop_
_space_group_symop_operation_xyz
x,y,z
-x,-y,-z
loop_
_atom_site_type_symbol
_atom_site_label
_atom_site_fract_x
_atom_site_fract_y
_atom_site_fract_z
Si Si1 0.612930 0.003877 0.148675
Si Si2 0.596050 0.230583 0.939605
Si Si3 0.323179 0.825546 0.654056
Si Si4 0.255899 0.922507 0.384588
Si Si5 0.530788 0.374310 0.388513
Si Si6 0.617679 0.570998 0.922251
Si Si7 0.066530 0.174928 0.057805
Si Si8 0.110824 0.521665 0.649634
O O1 0.623633 0.102588 0.213068
O O2 0.446841 0.974035 0.298555
O O3 0.871972 0.923806 0.064036
O O4 0.500000 0.000000 0.000000
O O5 0.746149 0.154535 0.766379
O O6 0.326509 0.205812 0.014363
O O7 0.812067 0.230192 0.031089
O O8 0.489377 0.333249 0.941962
O O9 0.350883 0.865828 0.499346
O O10 0.485876 0.724319 0.612060
O O11 0.030432 0.828213 0.751007
O O12 0.000000 0.000000 0.500000
O O13 0.452648 0.406648 0.238979
O O14 0.369788 0.440224 0.573209
O O15 0.814973 0.386304 0.351215
O O16 0.924111 0.530947 0.831263
O O17 0.500000 0.500000 0.000000
O O18 0.000000 0.500000 0.500000
#
# Coordination Sequence:
#
# PCOD9032242 Si02
#       8
#     2   2   2   2   2   2   2   2
#     4  11  24  44  71 103 145 197 239 298 369 432
#     4  11  25  47  72 105 146 193 245 301 358 444
#     4  12  22  41  71 103 140 186 244 300 358 433
#     4  11  25  44  65 103 145 187 244 298 363 425
#     4  10  22  43  70 103 134 185 237 294 368 436
#     4  11  24  44  69 103 141 184 240 298 367 434
#     4  11  23  45  73 101 143 188 248 291 363 431
#     4   9  21  44  70  94 143 174 233 294 368 435
#
# _framework density 22.651437000000001
#
# number of rings (size 3 to 8) (size 9 to 14) (size 15 to 20)
#    0.000    1.250    1.250    4.500    0.000    4.500 
#   11.250    0.000    0.000    0.000    0.000    0.000 
#    0.000    0.000    0.000    0.000    0.000    0.000 
#
# Total GULP energy -89273.223375 kJ/mol
# GULP energy per Si atom -5579.576461 kJ/mol
# Density = 2.259988 g / cm^3
# Si number density = 22.651437 Si / 1000 Ang^3
#
#
#
# Elastic Constant Matrix: (Units=GPa)
#
#
# Indices 1 2 3 4 5 6 
#
# 1 73.0783 39.9182 37.0455 -8.6030 -6.2827 5.4901
# 2 39.9182 197.2762 59.0692 4.3768 -18.5224 15.3706
# 3 37.0455 59.0692 92.9294 -4.6795 -25.0091 -8.0489
# 4 -8.6030 4.3768 -4.6795 43.0081 -3.7271 -1.7289
# 5 -6.2827 -18.5224 -25.0091 -3.7271 43.7465 4.6116
# 6 5.4901 15.3706 -8.0489 -1.7289 4.6116 24.6327
#
#
#
# Elastic Compliance Matrix: (Units=1/GPa)
#
#
# Indices 1 2 3 4 5 6 
#
# 1 0.018723 -0.001396 -0.007224 0.002783 -0.001243 -0.005234
# 2 -0.001396 0.007255 -0.004432 -0.001667 0.000821 -0.005935
# 3 -0.007224 -0.004432 0.019360 0.002129 0.007336 0.009478
# 4 0.002783 -0.001667 0.002129 0.024542 0.002757 0.002322
# 5 -0.001243 0.000821 0.007336 0.002757 0.027756 -0.002841
# 6 -0.005234 -0.005935 0.009478 0.002322 -0.002841 0.049258
#
#
# Mechanical properties :
#
#
# Convention : Reuss Voigt Hill
#
# Bulk Modulus (GPa) = 51.99212 70.59441 61.29327
# Shear Modulus (GPa) = 27.86920 37.42753 32.64836
#
# Velocity S-wave (km/s) = 3.51144 4.06929 3.80061
# Velocity P-wave (km/s) = 6.28038 7.30151 6.81011
#
# Compressibility (1/GPa) = 0.01923368
#
# Stress axis : x y z
#
# Youngs Moduli (GPa) = 53.41160 137.83402 51.65235
#
# Poissons Ratio (x) = 0.19243 0.37313
# Poissons Ratio (y) = 0.07457 0.22893
# Poissons Ratio (z) = 0.38584 0.61089
#
# Static dielectric constant tensor:
#      x y z
#    x 1.887030 0.033010 -0.126950 
#    y 0.033010 1.756380 0.200980 
#    z -0.126950 0.200980 1.632440 
# 
# From -- ./inp_files/135461.got.cif
#   From: 2010.05.17/outbox.cif.g08.bks.cpg/sg2_68_cif.got.tgz:135461.got - 2010.06.03 11:33:40.
