data_PCOD9032283
_publ_section_title
;
Structure prediction by ZEFSAII (Michael W. Deem and Ramdas Pophale) SiO2 
 PCOD9032283
Probable space group: P -1
;
_chemical_formula_sum "Si O2"
_cell_formula_units_Z 16
_cell_length_a 11.643522
_cell_length_b 13.398562
_cell_length_c 7.941499
_cell_angle_alpha 98.749543
_cell_angle_beta 118.672958
_cell_angle_gamma 39.783498
_cell_volume 641.706277
_symmetry_space_group_name_H-M "P -1"
_symmetry_group_IT_number 2
_symmetry_cell_setting 'triclinic'
loop_
_space_group_symop_operation_xyz
x,y,z
-x,-y,-z
loop_
_atom_site_type_symbol
_atom_site_label
_atom_site_fract_x
_atom_site_fract_y
_atom_site_fract_z
Si Si1 0.691799 0.132624 0.493698
Si Si2 0.464299 0.408322 0.204434
Si Si3 0.492460 0.615257 0.286256
Si Si4 0.948804 0.137147 0.085019
Si Si5 0.195227 0.242631 0.694510
Si Si6 0.576922 0.899816 0.699588
Si Si7 0.810521 0.518420 0.261112
Si Si8 0.994192 0.294015 0.902730
O O1 0.654158 0.207807 0.307122
O O2 0.637263 0.258129 0.615135
O O3 0.510772 0.158532 0.382741
O O4 0.912578 0.944340 0.667613
O O5 0.569570 0.452878 0.319434
O O6 0.263408 0.521041 0.228420
O O7 0.310960 0.479129 0.954290
O O8 0.662963 0.593449 0.342637
O O9 0.310423 0.707118 0.035936
O O10 0.009389 0.182953 0.998251
O O11 0.000000 0.000000 0.000000
O O12 0.196597 0.361268 0.772881
O O13 0.080920 0.247152 0.760884
O O14 0.048608 0.335524 0.444169
O O15 0.434848 0.050549 0.775661
O O16 0.500000 0.000000 0.500000
O O17 0.832702 0.742771 0.884947
#
# Coordination Sequence:
#
# PCOD9032283 Si02
#       8
#     2   2   2   2   2   2   2   2
#     4  11  22  41  65  98 128 172 222 261 331 389
#     4  11  24  42  70  96 132 171 224 271 323 394
#     4  10  22  43  70  90 134 172 219 273 324 393
#     4   9  21  40  65  94 124 172 219 263 322 386
#     4  11  26  42  67  99 136 172 218 275 325 395
#     4  12  23  40  67  97 138 171 214 273 326 394
#     4  11  24  44  66 100 130 173 222 269 335 386
#     4  11  23  43  66  97 132 175 217 271 329 386
#
# _framework density 24.933524999999999
#
# number of rings (size 3 to 8) (size 9 to 14) (size 15 to 20)
#    0.000    1.250    1.250    4.125    3.500    6.000 
#    0.000    0.625    0.000    0.000    0.000    0.000 
#    0.000    0.000    0.000    0.000    0.000    0.000 
#
# Total GULP energy -89359.760095 kJ/mol
# GULP energy per Si atom -5584.985006 kJ/mol
# Density = 2.487678 g / cm^3
# Si number density = 24.933525 Si / 1000 Ang^3
#
#
#
# Elastic Constant Matrix: (Units=GPa)
#
#
# Indices 1 2 3 4 5 6 
#
# 1 104.3257 27.5150 17.8735 -15.5171 6.0303 16.5092
# 2 27.5150 52.0182 12.6813 -3.1162 -4.3972 15.4879
# 3 17.8735 12.6813 103.9258 -19.5090 7.5124 16.6368
# 4 -15.5171 -3.1162 -19.5090 38.9187 1.0963 -3.1185
# 5 6.0303 -4.3972 7.5124 1.0963 42.1632 4.0467
# 6 16.5092 15.4879 16.6368 -3.1185 4.0467 46.8433
#
#
#
# Elastic Compliance Matrix: (Units=1/GPa)
#
#
# Indices 1 2 3 4 5 6 
#
# 1 0.012194 -0.005802 -0.000132 0.004246 -0.002258 -0.001855
# 2 -0.005802 0.024765 -0.001709 -0.001793 0.004342 -0.006031
# 3 -0.000132 -0.001709 0.011484 0.005390 -0.002064 -0.002930
# 4 0.004246 -0.001793 0.005390 0.029967 -0.002475 -0.000609
# 5 -0.002258 0.004342 -0.002064 -0.002475 0.025141 -0.002243
# 6 -0.001855 -0.006031 -0.002930 -0.000609 -0.002243 0.025189
#
#
# Mechanical properties :
#
#
# Convention : Reuss Voigt Hill
#
# Bulk Modulus (GPa) = 30.16030 41.82328 35.99179
# Shear Modulus (GPa) = 32.24203 39.06504 35.65354
#
# Velocity S-wave (km/s) = 3.59990 3.96254 3.78556
# Velocity P-wave (km/s) = 5.42232 6.14377 5.79429
#
# Compressibility (1/GPa) = 0.03315617
#
# Stress axis : x y z
#
# Youngs Moduli (GPa) = 82.00926 40.37967 87.08067
#
# Poissons Ratio (x) = 0.23428 0.01149
# Poissons Ratio (y) = 0.47582 0.14882
# Poissons Ratio (z) = 0.01082 0.06901
#
# Static dielectric constant tensor:
#      x y z
#    x 2.028280 -0.031430 -0.103350 
#    y -0.031430 2.027850 -0.014690 
#    z -0.103350 -0.014690 2.083970 
# 
# From -- ./inp_files/273487.got.cif
#   From: 2010.05.17/outbox.cif.g08.bks.cpg/sg2_137_cif.got.tgz:273487.got - 2010.06.03 11:33:40.
