data_PCOD9032540
_publ_section_title
;
Structure prediction by ZEFSAII (Michael W. Deem and Ramdas Pophale) SiO2 
 PCOD9032540
Probable space group: P -1
;
_chemical_formula_sum "Si O2"
_cell_formula_units_Z 16
_cell_length_a 9.461820
_cell_length_b 17.873530
_cell_length_c 7.780786
_cell_angle_alpha 37.400908
_cell_angle_beta 57.780793
_cell_angle_gamma 65.214944
_cell_volume 676.141174
_symmetry_space_group_name_H-M "P -1"
_symmetry_group_IT_number 2
_symmetry_cell_setting 'triclinic'
loop_
_space_group_symop_operation_xyz
x,y,z
-x,-y,-z
loop_
_atom_site_type_symbol
_atom_site_label
_atom_site_fract_x
_atom_site_fract_y
_atom_site_fract_z
Si Si1 0.242466 0.062242 0.583046
Si Si2 0.022767 0.550016 0.702332
Si Si3 0.293037 0.379698 0.405117
Si Si4 0.206337 0.878755 0.455817
Si Si5 0.623954 0.465125 0.634815
Si Si6 0.901290 0.175858 0.743869
Si Si7 0.511673 0.221023 0.302296
Si Si8 0.846885 0.858654 0.882818
O O1 0.409825 0.116066 0.459531
O O2 0.234238 0.101653 0.318160
O O3 0.082486 0.122497 0.671444
O O4 0.204409 0.918298 0.898720
O O5 0.188168 0.495695 0.610154
O O6 0.059985 0.695023 0.431189
O O7 0.856006 0.535830 0.724604
O O8 0.000000 0.500000 0.000000
O O9 0.411638 0.460331 0.303710
O O10 0.380316 0.310252 0.318957
O O11 0.220652 0.267666 0.769984
O O12 0.192299 0.815454 0.395036
O O13 0.369114 0.838802 0.524351
O O14 0.043062 0.847972 0.732511
O O15 0.191126 0.027086 0.174003
O O16 0.500000 0.500000 0.500000
O O17 0.610294 0.319287 0.941935
#
# Coordination Sequence:
#
# PCOD9032540 Si02
#       8
#     2   2   2   2   2   2   2   2
#     4  10  22  43  72 101 142 177 226 287 348 419
#     4  12  28  47  77 100 137 187 243 286 344 415
#     4  12  26  46  73  98 141 189 236 283 347 415
#     4  10  24  40  69 101 141 176 229 283 355 408
#     4  12  29  47  70 104 141 183 239 293 349 409
#     4  10  23  43  71 100 135 183 232 277 345 420
#     4  12  25  45  71 104 145 180 228 292 356 408
#     4  10  23  43  70 101 139 184 233 281 343 422
#
# _framework density 23.663698
#
# number of rings (size 3 to 8) (size 9 to 14) (size 15 to 20)
#    0.000    1.000    1.250    3.750   14.000    2.500 
#    0.000    0.000    0.000    0.000    0.000    0.000 
#    0.000    0.000    0.000    0.000    0.000    0.000 
#
# Total GULP energy -89696.199222 kJ/mol
# GULP energy per Si atom -5606.012451 kJ/mol
# Density = 2.360984 g / cm^3
# Si number density = 23.663698 Si / 1000 Ang^3
#
#
#
# Elastic Constant Matrix: (Units=GPa)
#
#
# Indices 1 2 3 4 5 6 
#
# 1 149.6323 1.0951 10.1559 7.2738 14.8680 9.3441
# 2 1.0951 48.0055 -10.9103 2.0921 0.8473 1.7868
# 3 10.1559 -10.9103 105.5178 5.4769 -5.4825 3.1511
# 4 7.2738 2.0921 5.4769 27.8949 10.1431 -4.3670
# 5 14.8680 0.8473 -5.4825 10.1431 32.7243 -3.8376
# 6 9.3441 1.7868 3.1511 -4.3670 -3.8376 37.8051
#
#
#
# Elastic Compliance Matrix: (Units=1/GPa)
#
#
# Indices 1 2 3 4 5 6 
#
# 1 0.007252 -0.000168 -0.000786 -0.000818 -0.003422 -0.002161
# 2 -0.000168 0.021540 0.002441 -0.002463 0.000525 -0.001411
# 3 -0.000786 0.002441 0.010142 -0.003144 0.002869 -0.000838
# 4 -0.000818 -0.002463 -0.003144 0.042118 -0.012658 0.004161
# 5 -0.003422 0.000525 0.002869 -0.012658 0.036839 0.002859
# 6 -0.002161 -0.001411 -0.000838 0.004161 0.002859 0.027893
#
#
# Mechanical properties :
#
#
# Convention : Reuss Voigt Hill
#
# Bulk Modulus (GPa) = 23.86156 33.75967 28.81061
# Shear Modulus (GPa) = 31.89158 39.87253 35.88205
#
# Velocity S-wave (km/s) = 3.67509 4.10929 3.89824
# Velocity P-wave (km/s) = 5.30225 6.06732 5.69764
#
# Compressibility (1/GPa) = 0.04190840
#
# Stress axis : x y z
#
# Youngs Moduli (GPa) = 137.88533 46.42522 98.59586
#
# Poissons Ratio (x) = 0.00778 0.07751
# Poissons Ratio (y) = 0.02311 -0.24063
# Poissons Ratio (z) = 0.10840 -0.11330
#
# Static dielectric constant tensor:
#      x y z
#    x 1.871560 -0.012010 -0.023950 
#    y -0.012010 1.930850 0.008910 
#    z -0.023950 0.008910 1.871200 
# 
# From -- ./inp_files/222835.got.cif
#   From: 2010.05.17/outbox.cif.g08.bks.cpg/sg2_112_cif.got.tgz:222835.got - 2010.06.03 11:33:40.
