data_PCOD9032780
_publ_section_title
;
Structure prediction by ZEFSAII (Michael W. Deem and Ramdas Pophale) SiO2 
 PCOD9032780
Probable space group: P -1
;
_chemical_formula_sum "Si O2"
_cell_formula_units_Z 14
_cell_length_a 8.432717
_cell_length_b 21.400310
_cell_length_c 5.156209
_cell_angle_alpha 63.319842
_cell_angle_beta 67.051324
_cell_angle_gamma 41.192900
_cell_volume 545.432404
_symmetry_space_group_name_H-M "P -1"
_symmetry_group_IT_number 2
_symmetry_cell_setting 'triclinic'
loop_
_space_group_symop_operation_xyz
x,y,z
-x,-y,-z
loop_
_atom_site_type_symbol
_atom_site_label
_atom_site_fract_x
_atom_site_fract_y
_atom_site_fract_z
Si Si1 0.024266 0.571804 0.439570
Si Si2 0.522861 0.111511 0.698370
Si Si3 0.030836 0.239527 0.520380
Si Si4 0.497712 0.738848 0.359478
Si Si5 0.275422 0.072549 0.315803
Si Si6 0.745382 0.454017 0.151038
Si Si7 0.379379 0.679963 0.043248
O O1 0.782081 0.677714 0.302896
O O2 0.000000 0.500000 0.500000
O O3 0.059276 0.568255 0.729175
O O4 0.236809 0.538480 0.181727
O O5 0.304995 0.190224 0.481345
O O6 0.619070 0.153322 0.699034
O O7 0.738154 0.000466 0.663885
O O8 0.375634 0.101639 0.999417
O O9 0.061949 0.163781 0.456809
O O10 0.832609 0.349347 0.325113
O O11 0.901256 0.254946 0.842595
O O12 0.451926 0.711441 0.173361
O O13 0.449455 0.699265 0.700137
O O14 0.500000 0.000000 0.500000
O O15 0.520179 0.565714 0.177735
#
# Coordination Sequence:
#
# PCOD9032780 Si02
#       7
#     2   2   2   2   2   2   2
#     4  12  21  38  63  90 129 172 227 272 308 367
#     4  10  22  43  74  96 122 170 228 274 323 393
#     4  11  25  41  67  95 134 178 217 271 330 388
#     4  12  25  42  67  98 134 175 220 272 328 385
#     4   9  21  43  72  98 122 159 231 279 321 384
#     4  12  23  40  65  95 130 185 225 261 313 389
#     4  12  27  42  61 100 147 174 212 269 331 391
#
# _framework density 25.66771
#
# number of rings (size 3 to 8) (size 9 to 14) (size 15 to 20)
#    0.000    0.857    4.286    2.571    6.000    0.000 
#    0.000    4.286    0.000    0.000    0.000    0.000 
#    0.000    0.000    0.000    0.000    0.000    0.000 
#
# Total GULP energy -78236.102382 kJ/mol
# GULP energy per Si atom -5588.293027 kJ/mol
# Density = 2.560929 g / cm^3
# Si number density = 25.667710 Si / 1000 Ang^3
#
#
#
# Elastic Constant Matrix: (Units=GPa)
#
#
# Indices 1 2 3 4 5 6 
#
# 1 107.1534 46.6693 7.6632 -10.0515 15.3605 34.5964
# 2 46.6693 197.2215 48.4462 -1.5315 -19.5793 43.3245
# 3 7.6632 48.4462 76.1717 0.6473 13.4866 9.8694
# 4 -10.0515 -1.5315 0.6473 35.9077 -1.0789 -6.6939
# 5 15.3605 -19.5793 13.4866 -1.0789 25.1611 -0.8616
# 6 34.5964 43.3245 9.8694 -6.6939 -0.8616 46.5403
#
#
#
# Elastic Compliance Matrix: (Units=1/GPa)
#
#
# Indices 1 2 3 4 5 6 
#
# 1 0.016782 -0.005194 0.005874 0.002181 -0.017647 -0.008898
# 2 -0.005194 0.011036 -0.008796 -0.001158 0.016273 -0.004412
# 3 0.005874 -0.008796 0.022273 -0.000053 -0.022417 -0.001324
# 4 0.002181 -0.001158 -0.000053 0.029063 -0.000834 0.003633
# 5 -0.017647 0.016273 -0.022417 -0.000834 0.075297 0.003997
# 6 -0.008898 -0.004412 -0.001324 0.003633 0.003997 0.033086
#
#
# Mechanical properties :
#
#
# Convention : Reuss Voigt Hill
#
# Bulk Modulus (GPa) = 29.53493 65.12266 47.32880
# Shear Modulus (GPa) = 23.24965 40.03967 31.64466
#
# Velocity S-wave (km/s) = 3.01291 3.95387 3.51502
# Velocity P-wave (km/s) = 4.86159 6.80225 5.91210
#
# Compressibility (1/GPa) = 0.03385822
#
# Stress axis : x y z
#
# Youngs Moduli (GPa) = 59.58777 90.61109 44.89753
#
# Poissons Ratio (x) = 0.47067 -0.26374
# Poissons Ratio (y) = 0.30952 0.39493
# Poissons Ratio (z) = -0.35004 0.79704
#
# Static dielectric constant tensor:
#      x y z
#    x 2.055430 0.011120 0.021630 
#    y 0.011120 2.149320 0.009290 
#    z 0.021630 0.009290 2.079930 
# 
# From -- ./inp_files/52326.got.cif
#   From: 2010.05.17/outbox.cif.g08.bks.cpg/sg2_27_cif.got.tgz:52326.got - 2010.06.03 11:33:40.
