data_PCOD9032195
_publ_section_title
;
Structure prediction by ZEFSAII (Michael W. Deem and Ramdas Pophale) SiO2 
 PCOD9032195
Probable space group: P -1
;
_chemical_formula_sum "Si O2"
_cell_formula_units_Z 16
_cell_length_a 8.756640
_cell_length_b 12.007496
_cell_length_c 8.195983
_cell_angle_alpha 104.010331
_cell_angle_beta 51.574038
_cell_angle_gamma 103.455495
_cell_volume 651.192900
_symmetry_space_group_name_H-M "P -1"
_symmetry_group_IT_number 2
_symmetry_cell_setting 'triclinic'
loop_
_space_group_symop_operation_xyz
x,y,z
-x,-y,-z
loop_
_atom_site_type_symbol
_atom_site_label
_atom_site_fract_x
_atom_site_fract_y
_atom_site_fract_z
Si Si1 0.424394 0.121215 0.056338
Si Si2 0.420754 0.468490 0.223697
Si Si3 0.233974 0.030875 0.834008
Si Si4 0.111743 0.250738 0.431752
Si Si5 0.358778 0.783986 0.763611
Si Si6 0.835749 0.544630 0.013945
Si Si7 0.239173 0.234136 0.675912
Si Si8 0.124657 0.634021 0.619864
O O1 0.215982 0.136315 0.286142
O O2 0.592790 0.203164 0.070951
O O3 0.358684 0.118456 0.910262
O O4 0.500000 0.000000 0.000000
O O5 0.282548 0.350349 0.297398
O O6 0.632814 0.469217 0.166280
O O7 0.296546 0.564653 0.416195
O O8 0.500000 0.500000 0.000000
O O9 0.237894 0.103978 0.692133
O O10 0.325830 0.910882 0.757357
O O11 0.000000 0.000000 0.000000
O O12 0.082160 0.253365 0.645526
O O13 0.932484 0.276053 0.446797
O O14 0.551955 0.741424 0.540530
O O15 0.183877 0.702084 0.770797
O O16 0.786464 0.673936 0.134153
O O17 0.000000 0.500000 0.000000
O O18 0.933441 0.547207 0.769428
#
# Coordination Sequence:
#
# PCOD9032195 Si02
#       8
#     2   2   2   2   2   2   2   2
#     4   9  21  41  69 102 139 186 236 297 360 423
#     4  12  27  47  73 108 145 193 244 304 366 419
#     4  11  22  43  72 103 142 184 243 296 361 437
#     4  11  24  44  71 103 149 191 246 300 358 436
#     4  10  22  43  70 100 139 191 234 302 358 428
#     4  12  27  43  72 106 141 194 246 295 364 432
#     4  11  24  44  66 104 143 188 238 296 365 425
#     4  12  25  48  74 105 149 192 245 299 361 435
#
# _framework density 24.570294000000001
#
# number of rings (size 3 to 8) (size 9 to 14) (size 15 to 20)
#    0.000    1.000    2.500    3.750    5.250    1.000 
#    0.000   10.625    0.000    0.000    0.000    0.000 
#    0.000    0.000    0.000    0.000    0.000    0.000 
#
# Total GULP energy -89316.877990 kJ/mol
# GULP energy per Si atom -5582.304874 kJ/mol
# Density = 2.451437 g / cm^3
# Si number density = 24.570294 Si / 1000 Ang^3
#
#
#
# Elastic Constant Matrix: (Units=GPa)
#
#
# Indices 1 2 3 4 5 6 
#
# 1 158.9716 40.0583 32.7956 -2.0135 -2.2011 -12.1407
# 2 40.0583 72.9029 23.5666 12.7918 4.0645 -10.4418
# 3 32.7956 23.5666 93.3196 3.7589 -12.6699 5.9439
# 4 -2.0135 12.7918 3.7589 36.0169 -11.7318 2.8184
# 5 -2.2011 4.0645 -12.6699 -11.7318 41.5791 -0.5570
# 6 -12.1407 -10.4418 5.9439 2.8184 -0.5570 40.5787
#
#
#
# Elastic Compliance Matrix: (Units=1/GPa)
#
#
# Indices 1 2 3 4 5 6 
#
# 1 0.007805 -0.003930 -0.001811 0.002196 0.000885 0.001449
# 2 -0.003930 0.020020 -0.004456 -0.009246 -0.006062 0.005187
# 3 -0.001811 -0.004456 0.013299 0.001980 0.004901 -0.003707
# 4 0.002196 -0.009246 0.001980 0.035030 0.011450 -0.004288
# 5 0.000885 -0.006062 0.004901 0.011450 0.029382 -0.002405
# 6 0.001449 0.005187 -0.003707 -0.004288 -0.002405 0.027219
#
#
# Mechanical properties :
#
#
# Convention : Reuss Voigt Hill
#
# Bulk Modulus (GPa) = 48.23822 57.55946 52.89884
# Shear Modulus (GPa) = 31.23841 38.88653 35.06247
#
# Velocity S-wave (km/s) = 3.56952 3.98259 3.78170
# Velocity P-wave (km/s) = 6.05508 6.68022 6.37532
#
# Compressibility (1/GPa) = 0.02073045
#
# Stress axis : x y z
#
# Youngs Moduli (GPa) = 128.12034 49.95000 75.19216
#
# Poissons Ratio (x) = 0.19633 0.13618
# Poissons Ratio (y) = 0.50357 0.33502
# Poissons Ratio (z) = 0.23203 0.22255
#
# Static dielectric constant tensor:
#      x y z
#    x 2.143720 0.068080 0.069710 
#    y 0.068080 1.986000 -0.003040 
#    z 0.069710 -0.003040 1.984660 
# 
# From -- ./inp_files/188238.got.cif
#   From: 2010.05.17/outbox.cif.g08.bks.cpg/sg2_95_cif.got.tgz:188238.got - 2010.06.03 11:33:40.
