data_PCOD9032778
_publ_section_title
;
Structure prediction by ZEFSAII (Michael W. Deem and Ramdas Pophale) SiO2 
 PCOD9032778
Probable space group: P -1
;
_chemical_formula_sum "Si O2"
_cell_formula_units_Z 14
_cell_length_a 8.334601
_cell_length_b 18.454658
_cell_length_c 10.157281
_cell_angle_alpha 29.428442
_cell_angle_beta 68.077638
_cell_angle_gamma 82.297335
_cell_volume 646.474739
_symmetry_space_group_name_H-M "P -1"
_symmetry_group_IT_number 2
_symmetry_cell_setting 'triclinic'
loop_
_space_group_symop_operation_xyz
x,y,z
-x,-y,-z
loop_
_atom_site_type_symbol
_atom_site_label
_atom_site_fract_x
_atom_site_fract_y
_atom_site_fract_z
Si Si1 0.831810 0.328959 0.780930
Si Si2 0.734823 0.285409 0.173184
Si Si3 0.559438 0.724135 0.500843
Si Si4 0.516704 0.349675 0.657496
Si Si5 0.848199 0.992360 0.664935
Si Si6 0.930029 0.656334 0.531362
Si Si7 0.885617 0.048193 0.848790
O O1 0.691174 0.335778 0.700732
O O2 0.000000 0.500000 0.500000
O O3 0.960384 0.259137 0.771229
O O4 0.714184 0.262053 0.057038
O O5 0.568791 0.290013 0.310183
O O6 0.781632 0.137124 0.438102
O O7 0.895803 0.469676 0.848216
O O8 0.464748 0.638296 0.527142
O O9 0.724630 0.663394 0.579031
O O10 0.668475 0.917911 0.132374
O O11 0.500000 0.500000 0.500000
O O12 0.328048 0.183878 0.002062
O O13 0.949729 0.026821 0.719587
O O14 0.000000 0.000000 0.500000
O O15 0.061646 0.765021 0.434913
O O16 0.000000 0.000000 0.000000
#
# Coordination Sequence:
#
# PCOD9032778 Si02
#       7
#     2   2   2   2   2   2   2
#     4  10  24  43  69  99 135 179 229 276 344 408
#     4  11  25  42  68 100 141 168 234 287 337 401
#     4  10  23  44  70 100 136 172 232 288 333 404
#     4  11  25  44  73  98 136 187 230 279 347 410
#     4  11  28  43  64 106 144 176 229 293 339 398
#     4  10  22  43  74  94 136 187 223 275 348 410
#     4   9  22  42  69  92 133 181 224 266 346 405
#
# _framework density 21.655912000000001
#
# number of rings (size 3 to 8) (size 9 to 14) (size 15 to 20)
#    0.000    1.714    0.000    2.143   14.000    5.714 
#    0.000    0.000    0.000    0.000    0.000    0.000 
#    0.000    0.000    0.000    0.000    0.000    0.000 
#
# Total GULP energy -78046.475863 kJ/mol
# GULP energy per Si atom -5574.748276 kJ/mol
# Density = 2.160662 g / cm^3
# Si number density = 21.655912 Si / 1000 Ang^3
#
#
#
# Elastic Constant Matrix: (Units=GPa)
#
#
# Indices 1 2 3 4 5 6 
#
# 1 70.3505 65.8902 19.4528 10.2318 4.8987 -2.5322
# 2 65.8902 196.6910 82.5845 21.9546 -10.7873 -2.3672
# 3 19.4528 82.5845 84.7526 5.7857 2.2292 -6.2788
# 4 10.2318 21.9546 5.7857 64.5832 -9.4950 -5.2966
# 5 4.8987 -10.7873 2.2292 -9.4950 22.9672 -3.0397
# 6 -2.5322 -2.3672 -6.2788 -5.2966 -3.0397 44.6973
#
#
#
# Elastic Compliance Matrix: (Units=1/GPa)
#
#
# Indices 1 2 3 4 5 6 
#
# 1 0.023795 -0.010579 0.005341 -0.002295 -0.011447 0.000488
# 2 -0.010579 0.014077 -0.011557 -0.000743 0.009562 -0.000915
# 3 0.005341 -0.011557 0.022219 0.000040 -0.008411 0.002244
# 4 -0.002295 -0.000743 0.000040 0.017421 0.007659 0.002421
# 5 -0.011447 0.009562 -0.008411 0.007659 0.054895 0.003317
# 6 0.000488 -0.000915 0.002244 0.002421 0.003317 0.023180
#
#
# Mechanical properties :
#
#
# Convention : Reuss Voigt Hill
#
# Bulk Modulus (GPa) = 37.73547 76.40546 57.07047
# Shear Modulus (GPa) = 25.25111 38.70730 31.97921
#
# Velocity S-wave (km/s) = 3.41840 4.23233 3.84695
# Velocity P-wave (km/s) = 5.74834 7.69686 6.79283
#
# Compressibility (1/GPa) = 0.02650026
#
# Stress axis : x y z
#
# Youngs Moduli (GPa) = 42.02615 71.03772 45.00557
#
# Poissons Ratio (x) = 0.75154 -0.24038
# Poissons Ratio (y) = 0.44461 0.52014
# Poissons Ratio (z) = -0.22447 0.82100
#
# Static dielectric constant tensor:
#      x y z
#    x 1.783630 -0.049470 -0.003490 
#    y -0.049470 1.840990 -0.009290 
#    z -0.003490 -0.009290 1.858070 
# 
# From -- ./inp_files/204983.got.cif
#   From: 2010.05.17/outbox.cif.g08.bks.cpg/sg2_103_cif.got.tgz:204983.got - 2010.06.03 11:33:40.
