data_PCOD9032374
_publ_section_title
;
Structure prediction by ZEFSAII (Michael W. Deem and Ramdas Pophale) SiO2 
 PCOD9032374
Probable space group: P -1
;
_chemical_formula_sum "Si O2"
_cell_formula_units_Z 16
_cell_length_a 12.079317
_cell_length_b 14.336747
_cell_length_c 8.142692
_cell_angle_alpha 42.801643
_cell_angle_beta 110.464454
_cell_angle_gamma 131.320584
_cell_volume 694.015591
_symmetry_space_group_name_H-M "P -1"
_symmetry_group_IT_number 2
_symmetry_cell_setting 'triclinic'
loop_
_space_group_symop_operation_xyz
x,y,z
-x,-y,-z
loop_
_atom_site_type_symbol
_atom_site_label
_atom_site_fract_x
_atom_site_fract_y
_atom_site_fract_z
Si Si1 0.433258 0.280046 0.118971
Si Si2 0.559133 0.140294 0.594046
Si Si3 0.637034 0.520902 0.631679
Si Si4 0.049403 0.156654 0.547281
Si Si5 0.212209 0.898112 0.334999
Si Si6 0.953181 0.321924 0.782145
Si Si7 0.319854 0.755843 0.104070
Si Si8 0.150828 0.245750 0.108143
O O1 0.488471 0.221937 0.368985
O O2 0.319318 0.313622 0.079000
O O3 0.331933 0.107944 0.166616
O O4 0.573632 0.446430 0.877479
O O5 0.693168 0.173483 0.509871
O O6 0.620270 0.205677 0.726043
O O7 0.432569 0.928336 0.827407
O O8 0.500000 0.500000 0.500000
O O9 0.790651 0.721753 0.433629
O O10 0.681173 0.401976 0.746245
O O11 0.097245 0.210700 0.313668
O O12 0.931607 0.184413 0.514296
O O13 0.959933 0.948487 0.783011
O O14 0.142994 0.838820 0.191824
O O15 0.839490 0.278970 0.925856
O O16 0.000000 0.500000 0.500000
O O17 0.106721 0.357373 0.864170
#
# Coordination Sequence:
#
# PCOD9032374 Si02
#       8
#     2   2   2   2   2   2   2   2
#     4  11  25  43  72 101 140 185 234 287 342 422
#     4  10  22  44  72 100 139 182 235 278 352 413
#     4  12  28  43  69 106 144 180 232 292 347 409
#     4  10  25  45  69 100 136 183 232 288 341 416
#     4  10  22  43  71 100 131 181 228 285 340 413
#     4  11  25  43  69  99 138 178 231 284 349 412
#     4  10  24  42  69 102 137 183 227 288 340 414
#     4  10  26  46  71  99 135 190 228 279 356 409
#
# _framework density 23.054236
#
# number of rings (size 3 to 8) (size 9 to 14) (size 15 to 20)
#    0.000    1.500    1.250    1.125   12.250    3.500 
#    0.000    1.875    0.000    0.000    0.000    0.000 
#    0.000    0.000    0.000    0.000    0.000    0.000 
#
# Total GULP energy -89520.655517 kJ/mol
# GULP energy per Si atom -5595.040970 kJ/mol
# Density = 2.300176 g / cm^3
# Si number density = 23.054236 Si / 1000 Ang^3
#
#
#
# Elastic Constant Matrix: (Units=GPa)
#
#
# Indices 1 2 3 4 5 6 
#
# 1 217.9199 42.8192 40.4048 7.9156 6.7261 3.6459
# 2 42.8192 55.6727 8.9302 -9.7713 3.1382 3.4600
# 3 40.4048 8.9302 66.5547 7.9629 14.3692 4.8987
# 4 7.9156 -9.7713 7.9629 22.6088 16.0471 -1.1759
# 5 6.7261 3.1382 14.3692 16.0471 42.5162 2.2753
# 6 3.6459 3.4600 4.8987 -1.1759 2.2753 34.1341
#
#
#
# Elastic Compliance Matrix: (Units=1/GPa)
#
#
# Indices 1 2 3 4 5 6 
#
# 1 0.006328 -0.005429 -0.003003 -0.005192 0.002376 -0.000032
# 2 -0.005429 0.026091 -0.000705 0.019046 -0.007976 -0.000776
# 3 -0.003003 -0.000705 0.018395 -0.002563 -0.004614 -0.002028
# 4 -0.005192 0.019046 -0.002563 0.075530 -0.028413 0.003488
# 5 0.002376 -0.007976 -0.004614 -0.028413 0.036133 -0.002170
# 6 -0.000032 -0.000776 -0.002028 0.003488 -0.002170 0.029934
#
#
# Mechanical properties :
#
#
# Convention : Reuss Voigt Hill
#
# Bulk Modulus (GPa) = 30.72980 58.27286 44.50133
# Shear Modulus (GPa) = 22.57022 36.38469 29.47746
#
# Velocity S-wave (km/s) = 3.13230 3.97699 3.57965
# Velocity P-wave (km/s) = 5.14199 6.81322 6.03573
#
# Compressibility (1/GPa) = 0.03254171
#
# Stress axis : x y z
#
# Youngs Moduli (GPa) = 158.02671 38.32730 54.36323
#
# Poissons Ratio (x) = 0.20806 0.16324
# Poissons Ratio (y) = 0.85787 0.03831
# Poissons Ratio (z) = 0.47450 0.02701
#
# Static dielectric constant tensor:
#      x y z
#    x 1.883740 0.000700 -0.033280 
#    y 0.000700 1.931980 -0.002560 
#    z -0.033280 -0.002560 1.830990 
# 
# From -- ./inp_files/271597.got.cif
#   From: 2010.05.17/outbox.cif.g08.bks.cpg/sg2_136_cif.got.tgz:271597.got - 2010.06.03 11:33:40.
