data_PCOD9032011
_publ_section_title
;
Structure prediction by ZEFSAII (Michael W. Deem and Ramdas Pophale) SiO2 
 PCOD9032011
Probable space group: P -1
;
_chemical_formula_sum "Si O2"
_cell_formula_units_Z 14
_cell_length_a 9.418259
_cell_length_b 9.465290
_cell_length_c 10.252246
_cell_angle_alpha 96.258234
_cell_angle_beta 107.814798
_cell_angle_gamma 43.272532
_cell_volume 587.316868
_symmetry_space_group_name_H-M "P -1"
_symmetry_group_IT_number 2
_symmetry_cell_setting 'triclinic'
loop_
_space_group_symop_operation_xyz
x,y,z
-x,-y,-z
loop_
_atom_site_type_symbol
_atom_site_label
_atom_site_fract_x
_atom_site_fract_y
_atom_site_fract_z
Si Si1 0.653469 0.772994 0.457236
Si Si2 0.082997 0.186485 0.566160
Si Si3 0.635793 0.659257 0.157039
Si Si4 0.996030 0.618758 0.159120
Si Si5 0.453708 0.297527 0.333061
Si Si6 0.243989 0.716940 0.713521
Si Si7 0.146848 0.990182 0.943001
O O1 0.878946 0.703890 0.506706
O O2 0.599951 0.767593 0.294729
O O3 0.618019 0.664968 0.531928
O O4 0.500000 0.000000 0.500000
O O5 0.009769 0.295376 0.695091
O O6 0.320359 0.949047 0.633272
O O7 0.080720 0.797448 0.557293
O O8 0.815650 0.621667 0.121417
O O9 0.719523 0.445531 0.201620
O O10 0.402798 0.812162 0.036374
O O11 0.245257 0.386789 0.201714
O O12 0.937607 0.787971 0.062952
O O13 0.526297 0.394487 0.298473
O O14 0.143284 0.910553 0.795624
O O15 0.000000 0.000000 0.000000
#
# Coordination Sequence:
#
# PCOD9032011 Si02
#       7
#     2   2   2   2   2   2   2
#     4   9  21  40  71 101 136 176 226 279 346 398
#     4  10  22  43  69 104 143 174 227 289 342 413
#     4  11  25  47  71 101 141 186 233 283 337 422
#     4  11  24  47  71 103 137 185 232 282 349 409
#     4  11  22  40  71 104 139 176 224 288 347 409
#     4  12  25  44  70 105 144 178 231 289 350 410
#     4  12  28  47  69  98 143 187 235 285 346 413
#
# _framework density 23.837216999999999
#
# number of rings (size 3 to 8) (size 9 to 14) (size 15 to 20)
#    0.000    1.143    1.429    3.857    4.000    4.571 
#    2.571    1.429    0.000    0.000    0.000    0.000 
#    0.000    0.000    0.000    0.000    0.000    0.000 
#
# Total GULP energy -78258.667911 kJ/mol
# GULP energy per Si atom -5589.904851 kJ/mol
# Density = 2.378296 g / cm^3
# Si number density = 23.837217 Si / 1000 Ang^3
#
#
#
# Elastic Constant Matrix: (Units=GPa)
#
#
# Indices 1 2 3 4 5 6 
#
# 1 198.2439 32.4219 48.6192 -21.1121 -16.0597 6.9007
# 2 32.4219 78.5931 15.0407 -30.8490 13.0583 2.3299
# 3 48.6192 15.0407 69.9946 9.8779 1.3031 -7.5297
# 4 -21.1121 -30.8490 9.8779 45.1848 3.8342 6.9098
# 5 -16.0597 13.0583 1.3031 3.8342 44.3587 -15.6277
# 6 6.9007 2.3299 -7.5297 6.9098 -15.6277 30.4859
#
#
#
# Elastic Compliance Matrix: (Units=1/GPa)
#
#
# Indices 1 2 3 4 5 6 
#
# 1 0.007392 0.000487 -0.006531 0.005806 0.000718 -0.004272
# 2 0.000487 0.029373 -0.012474 0.027715 -0.017852 -0.020869
# 3 -0.006531 -0.012474 0.026224 -0.020806 0.008708 0.018089
# 4 0.005806 0.027715 -0.020806 0.055043 -0.021501 -0.032069
# 5 0.000718 -0.017852 0.008708 -0.021501 0.039735 0.028595
# 6 -0.004272 -0.020869 0.018089 -0.032069 0.028595 0.061759
#
#
# Mechanical properties :
#
#
# Convention : Reuss Voigt Hill
#
# Bulk Modulus (GPa) = 38.53204 59.88836 49.21020
# Shear Modulus (GPa) = 18.85279 40.72254 29.78766
#
# Velocity S-wave (km/s) = 2.81534 4.13771 3.53884
# Velocity P-wave (km/s) = 5.17377 6.92864 6.11449
#
# Compressibility (1/GPa) = 0.02595243
#
# Stress axis : x y z
#
# Youngs Moduli (GPa) = 135.28850 34.04471 38.13301
#
# Poissons Ratio (x) = -0.01658 0.24906
# Poissons Ratio (y) = -0.06591 0.47567
# Poissons Ratio (z) = 0.88361 0.42467
#
# Static dielectric constant tensor:
#      x y z
#    x 1.967880 -0.035800 -0.038030 
#    y -0.035800 2.316730 -0.071820 
#    z -0.038030 -0.071820 1.906060 
# 
# From -- ./inp_files/382365.got.cif
#   From: 2010.05.17/outbox.cif.g08.bks.cpg/sg2_192_cif.got.tgz:382365.got - 2010.06.03 11:33:40.
