data_PCOD9032215
_publ_section_title
;
Structure prediction by ZEFSAII (Michael W. Deem and Ramdas Pophale) SiO2 
 PCOD9032215
Probable space group: P -1
;
_chemical_formula_sum "Si O2"
_cell_formula_units_Z 12
_cell_length_a 19.251961
_cell_length_b 5.324726
_cell_length_c 10.259445
_cell_angle_alpha 70.006958
_cell_angle_beta 30.728794
_cell_angle_gamma 87.265306
_cell_volume 433.585469
_symmetry_space_group_name_H-M "P -1"
_symmetry_group_IT_number 2
_symmetry_cell_setting 'triclinic'
loop_
_space_group_symop_operation_xyz
x,y,z
-x,-y,-z
loop_
_atom_site_type_symbol
_atom_site_label
_atom_site_fract_x
_atom_site_fract_y
_atom_site_fract_z
Si Si1 0.851203 0.866559 0.862797
Si Si2 0.254612 0.101158 0.661194
Si Si3 0.714746 0.160427 0.876262
Si Si4 0.593734 0.224637 0.691998
Si Si5 0.002158 0.543605 0.832424
Si Si6 0.550932 0.332077 0.295569
O O1 0.907467 0.719887 0.913023
O O2 0.807200 0.135075 0.857478
O O3 0.689109 0.575525 0.121512
O O4 0.000000 0.000000 0.500000
O O5 0.289138 0.433242 0.496686
O O6 0.372119 0.245574 0.567904
O O7 0.318941 0.927707 0.496564
O O8 0.084736 0.810354 0.019817
O O9 0.832933 0.272456 0.543969
O O10 0.641499 0.366439 0.005375
O O11 0.555469 0.836299 0.149469
O O12 0.500000 0.000000 0.000000
O O13 0.000000 0.500000 0.000000
O O14 0.500000 0.000000 0.500000
#
# Coordination Sequence:
#
# PCOD9032215 Si02
#       6
#     2   2   2   2   2   2
#     4  10  22  43  70 101 140 184 242 299 364 430
#     4  11  24  44  71 105 142 189 245 303 360 439
#     4  10  24  44  71 103 143 189 241 304 365 436
#     4  11  23  44  71 105 144 193 242 300 367 436
#     4  11  24  46  68 105 148 192 241 299 371 439
#     4  11  22  43  70 105 137 182 248 301 363 426
#
# _framework density 27.676202
#
# number of rings (size 3 to 8) (size 9 to 14) (size 15 to 20)
#    0.000    1.333    3.333    1.500    0.000    4.667 
#    9.000    1.667    0.000    0.000    0.000    0.000 
#    0.000    0.000    0.000    0.000    0.000    0.000 
#
# Total GULP energy -66974.780315 kJ/mol
# GULP energy per Si atom -5581.231693 kJ/mol
# Density = 2.761321 g / cm^3
# Si number density = 27.676202 Si / 1000 Ang^3
#
#
#
# Elastic Constant Matrix: (Units=GPa)
#
#
# Indices 1 2 3 4 5 6 
#
# 1 163.2568 28.1032 35.2275 3.5723 5.5021 -15.2408
# 2 28.1032 112.2723 48.4576 -13.9105 -19.5920 12.0429
# 3 35.2275 48.4576 145.3302 -25.7752 -5.9993 22.5548
# 4 3.5723 -13.9105 -25.7752 49.2177 4.1601 -4.7311
# 5 5.5021 -19.5920 -5.9993 4.1601 51.6654 -4.4475
# 6 -15.2408 12.0429 22.5548 -4.7311 -4.4475 42.2396
#
#
#
# Elastic Compliance Matrix: (Units=1/GPa)
#
#
# Indices 1 2 3 4 5 6 
#
# 1 0.007344 -0.001753 -0.002162 -0.001674 -0.001220 0.003988
# 2 -0.001753 0.011603 -0.002725 0.001459 0.003989 -0.001902
# 3 -0.002162 -0.002725 0.009765 0.004073 -0.000411 -0.004804
# 4 -0.001674 0.001459 0.004073 0.022978 -0.000705 -0.000696
# 5 -0.001220 0.003989 -0.000411 -0.000705 0.021074 0.000782
# 6 0.003988 -0.001902 -0.004804 -0.000696 0.000782 0.028225
#
#
# Mechanical properties :
#
#
# Convention : Reuss Voigt Hill
#
# Bulk Modulus (GPa) = 64.80442 71.60399 68.20420
# Shear Modulus (GPa) = 41.87185 49.22927 45.55056
#
# Velocity S-wave (km/s) = 3.89385 4.22211 4.06129
# Velocity P-wave (km/s) = 6.60924 7.04957 6.83296
#
# Compressibility (1/GPa) = 0.01543105
#
# Stress axis : x y z
#
# Youngs Moduli (GPa) = 136.17298 86.18548 102.41177
#
# Poissons Ratio (x) = 0.15111 0.22138
# Poissons Ratio (y) = 0.23875 0.27908
# Poissons Ratio (z) = 0.29436 0.23486
#
# Static dielectric constant tensor:
#      x y z
#    x 2.258470 -0.324600 -0.022270 
#    y -0.324600 2.073260 -0.180720 
#    z -0.022270 -0.180720 2.120020 
# 
# From -- ./inp_files/34843.got.cif
#   From: 2010.05.17/outbox.cif.g08.bks.cpg/sg2_18_cif.got.tgz:34843.got - 2010.06.03 11:33:40.
