data_PCOD9032252
_publ_section_title
;
Structure prediction by ZEFSAII (Michael W. Deem and Ramdas Pophale) SiO2 
 PCOD9032252
Probable space group: P -1
;
_chemical_formula_sum "Si O2"
_cell_formula_units_Z 15
_cell_length_a 6.100845
_cell_length_b 19.989698
_cell_length_c 6.208424
_cell_angle_alpha 112.807699
_cell_angle_beta 76.406533
_cell_angle_gamma 77.558897
_cell_volume 637.452653
_symmetry_space_group_name_H-M "P -1"
_symmetry_group_IT_number 2
_symmetry_cell_setting 'triclinic'
loop_
_space_group_symop_operation_xyz
x,y,z
-x,-y,-z
loop_
_atom_site_type_symbol
_atom_site_label
_atom_site_fract_x
_atom_site_fract_y
_atom_site_fract_z
Si Si1 0.000000 0.000000 0.000000
Si Si2 0.739213 0.530218 0.708303
Si Si3 0.536103 0.309460 0.261315
Si Si4 0.047829 0.711133 0.192429
Si Si5 0.374543 0.206581 0.888533
Si Si6 0.106265 0.856617 0.530548
Si Si7 0.425659 0.599942 0.251354
Si Si8 0.760908 0.937680 0.340329
O O1 0.109536 0.904685 0.800789
O O2 0.100105 0.019748 0.778279
O O3 0.608783 0.607782 0.704707
O O4 0.631640 0.460532 0.651004
O O5 0.000000 0.500000 0.500000
O O6 0.669336 0.559566 0.009256
O O7 0.558938 0.328275 0.526310
O O8 0.786442 0.282845 0.041303
O O9 0.404706 0.249945 0.151872
O O10 0.040534 0.778700 0.446076
O O11 0.199326 0.631934 0.178623
O O12 0.790499 0.730513 0.164529
O O13 0.637622 0.166747 0.676206
O O14 0.263537 0.139165 0.856144
O O15 0.889940 0.912381 0.505272
O O16 0.500000 0.000000 0.500000
#
# Coordination Sequence:
#
# PCOD9032252 Si02
#       8
#     1   2   2   2   2   2   2   2
#     4  12  24  42  72 102 130 178 236 278 348 422
#     4  10  23  44  69 105 143 184 229 284 352 417
#     4  10  22  43  70 104 140 179 239 292 345 414
#     4   9  22  44  67  98 142 183 234 289 347 413
#     4  10  22  46  72  96 147 186 222 302 351 402
#     4  10  23  45  66 102 140 175 235 290 336 427
#     4  10  22  46  73 101 138 186 233 290 340 417
#     4  11  24  46  70  99 142 180 226 288 350 411
#
# _framework density 23.53116
#
# number of rings (size 3 to 8) (size 9 to 14) (size 15 to 20)
#    0.000    1.867    1.333    0.800    1.867    4.267 
#    7.200    4.000    0.000    0.000    0.000    0.000 
#    0.000    0.000    0.000    0.000    0.000    0.000 
#
# Total GULP energy -83507.500441 kJ/mol
# GULP energy per Si atom -5567.166696 kJ/mol
# Density = 2.347760 g / cm^3
# Si number density = 23.531160 Si / 1000 Ang^3
#
#
#
# Elastic Constant Matrix: (Units=GPa)
#
#
# Indices 1 2 3 4 5 6 
#
# 1 78.5126 38.3711 43.2784 20.1494 2.5292 -6.5397
# 2 38.3711 82.8324 22.6400 7.4915 -10.0568 -7.3520
# 3 43.2784 22.6400 118.3799 34.1667 0.2819 5.1224
# 4 20.1494 7.4915 34.1667 37.4122 9.0949 -1.9141
# 5 2.5292 -10.0568 0.2819 9.0949 30.8152 18.4969
# 6 -6.5397 -7.3520 5.1224 -1.9141 18.4969 40.1139
#
#
#
# Elastic Compliance Matrix: (Units=1/GPa)
#
#
# Indices 1 2 3 4 5 6 
#
# 1 0.021407 -0.008485 -0.005702 -0.002559 -0.007251 0.005884
# 2 -0.008485 0.016779 0.000225 -0.000931 0.007568 -0.001871
# 3 -0.005702 0.000225 0.014404 -0.012552 0.008450 -0.007223
# 4 -0.002559 -0.000931 -0.012552 0.045580 -0.021219 0.012974
# 5 -0.007251 0.007568 0.008450 -0.021219 0.059227 -0.029197
# 6 0.005884 -0.001871 -0.007223 0.012974 -0.029197 0.040550
#
#
# Mechanical properties :
#
#
# Convention : Reuss Voigt Hill
#
# Bulk Modulus (GPa) = 40.54262 54.25597 47.39929
# Shear Modulus (GPa) = 21.35895 33.36396 27.36145
#
# Velocity S-wave (km/s) = 3.01605 3.76954 3.41365
# Velocity P-wave (km/s) = 5.42176 6.48483 5.97698
#
# Compressibility (1/GPa) = 0.02466540
#
# Stress axis : x y z
#
# Youngs Moduli (GPa) = 46.71315 59.59989 69.42296
#
# Poissons Ratio (x) = 0.50568 0.39587
# Poissons Ratio (y) = 0.39635 -0.01559
# Poissons Ratio (z) = 0.26637 -0.01338
#
# Static dielectric constant tensor:
#      x y z
#    x 1.918060 0.024930 0.019390 
#    y 0.024930 1.898630 0.050940 
#    z 0.019390 0.050940 1.902660 
# 
# From -- ./inp_files/11523.got.cif
#   From: 2010.05.17/outbox.cif.g08.bks.cpg/sg2_6_cif.got.tgz:11523.got - 2010.06.03 11:33:40.
