data_PCOD9032225
_publ_section_title
;
Structure prediction by ZEFSAII (Michael W. Deem and Ramdas Pophale) SiO2 
 PCOD9032225
Probable space group: P -1
;
_chemical_formula_sum "Si O2"
_cell_formula_units_Z 12
_cell_length_a 4.990352
_cell_length_b 15.897471
_cell_length_c 7.617438
_cell_angle_alpha 108.235785
_cell_angle_beta 64.791758
_cell_angle_gamma 105.401534
_cell_volume 513.117250
_symmetry_space_group_name_H-M "P -1"
_symmetry_group_IT_number 2
_symmetry_cell_setting 'triclinic'
loop_
_space_group_symop_operation_xyz
x,y,z
-x,-y,-z
loop_
_atom_site_type_symbol
_atom_site_label
_atom_site_fract_x
_atom_site_fract_y
_atom_site_fract_z
Si Si1 0.845337 0.511068 0.863340
Si Si2 0.245603 0.694268 0.831165
Si Si3 0.854418 0.167982 0.346815
Si Si4 0.780480 0.911003 0.550830
Si Si5 0.003664 0.741299 0.281718
Si Si6 0.280515 0.406015 0.526516
O O1 0.777680 0.277165 0.943494
O O2 0.500000 0.500000 0.000000
O O3 0.000000 0.500000 0.000000
O O4 0.987792 0.608591 0.817980
O O5 0.171642 0.773343 0.778703
O O6 0.562463 0.660965 0.682937
O O7 0.569625 0.089711 0.371754
O O8 0.837337 0.235643 0.559900
O O9 0.247517 0.345311 0.673223
O O10 0.858756 0.830722 0.351749
O O11 0.860649 0.876915 0.701496
O O12 0.000000 0.000000 0.500000
O O13 0.044395 0.560026 0.349601
O O14 0.500000 0.500000 0.500000
#
# Coordination Sequence:
#
# PCOD9032225 Si02
#       6
#     2   2   2   2   2   2
#     4  11  25  43  70  99 143 192 242 294 352 411
#     4  11  22  47  72 104 146 194 241 297 362 424
#     4  10  23  44  70 104 137 186 237 291 358 435
#     4  10  22  46  74 100 144 184 228 300 367 425
#     4  10  23  42  72 102 146 185 239 293 364 411
#     4  10  22  43  70 101 144 190 245 289 345 424
#
# _framework density 23.386467
#
# number of rings (size 3 to 8) (size 9 to 14) (size 15 to 20)
#    1.000    0.667    3.333    0.500    0.000    6.667 
#    6.000    7.500    0.000    0.000    0.000    0.000 
#    0.000    0.000    0.000    0.000    0.000    0.000 
#
# Total GULP energy -66904.437291 kJ/mol
# GULP energy per Si atom -5575.369774 kJ/mol
# Density = 2.333324 g / cm^3
# Si number density = 23.386467 Si / 1000 Ang^3
#
#
#
# Elastic Constant Matrix: (Units=GPa)
#
#
# Indices 1 2 3 4 5 6 
#
# 1 109.2943 13.8305 30.7324 -14.3016 -21.8443 -0.6742
# 2 13.8305 104.6341 1.4744 -20.5012 3.0178 4.3913
# 3 30.7324 1.4744 127.4656 -14.5439 -10.5545 -7.1839
# 4 -14.3016 -20.5012 -14.5439 28.1128 -7.7563 -0.9943
# 5 -21.8443 3.0178 -10.5545 -7.7563 40.2847 -7.6813
# 6 -0.6742 4.3913 -7.1839 -0.9943 -7.6813 26.9000
#
#
#
# Elastic Compliance Matrix: (Units=1/GPa)
#
#
# Indices 1 2 3 4 5 6 
#
# 1 0.012238 -0.000455 -0.001228 0.007656 0.008341 0.002718
# 2 -0.000455 0.011328 0.000953 0.008651 0.000608 -0.001113
# 3 -0.001228 0.000953 0.009303 0.005980 0.003524 0.003525
# 4 0.007656 0.008651 0.005980 0.053752 0.016784 0.007156
# 5 0.008341 0.000608 0.003524 0.016784 0.035719 0.011871
# 6 0.002718 -0.001113 0.003525 0.007156 0.011871 0.042020
#
#
# Mechanical properties :
#
#
# Convention : Reuss Voigt Hill
#
# Bulk Modulus (GPa) = 31.83679 48.16318 39.99998
# Shear Modulus (GPa) = 28.36246 38.74995 33.55620
#
# Velocity S-wave (km/s) = 3.48627 4.07497 3.79206
# Velocity P-wave (km/s) = 5.46336 6.54062 6.02611
#
# Compressibility (1/GPa) = 0.03141021
#
# Stress axis : x y z
#
# Youngs Moduli (GPa) = 81.71212 88.27681 107.49083
#
# Poissons Ratio (x) = 0.04015 0.13200
# Poissons Ratio (y) = 0.03717 -0.10248
# Poissons Ratio (z) = 0.10034 -0.08416
#
# Static dielectric constant tensor:
#      x y z
#    x 2.029970 0.017450 0.034140 
#    y 0.017450 1.912660 0.012170 
#    z 0.034140 0.012170 1.858510 
# 
# From -- ./inp_files/60351.got.cif
#   From: 2010.05.17/outbox.cif.g08.bks.cpg/sg2_31_cif.got.tgz:60351.got - 2010.06.03 11:33:40.
