data_PCOD9032321
_publ_section_title
;
Structure prediction by ZEFSAII (Michael W. Deem and Ramdas Pophale) SiO2 
 PCOD9032321
Probable space group: P -1
;
_chemical_formula_sum "Si O2"
_cell_formula_units_Z 16
_cell_length_a 8.212273
_cell_length_b 11.860405
_cell_length_c 11.346928
_cell_angle_alpha 71.538371
_cell_angle_beta 40.288250
_cell_angle_gamma 56.712417
_cell_volume 586.672953
_symmetry_space_group_name_H-M "P -1"
_symmetry_group_IT_number 2
_symmetry_cell_setting 'triclinic'
loop_
_space_group_symop_operation_xyz
x,y,z
-x,-y,-z
loop_
_atom_site_type_symbol
_atom_site_label
_atom_site_fract_x
_atom_site_fract_y
_atom_site_fract_z
Si Si1 0.438614 0.616654 0.234777
Si Si2 0.152244 0.060322 0.680963
Si Si3 0.850725 0.329555 0.213313
Si Si4 0.161599 0.296994 0.460655
Si Si5 0.248723 0.926550 0.288896
Si Si6 0.809599 0.861402 0.114520
Si Si7 0.251030 0.358203 0.145234
Si Si8 0.321419 0.348353 0.600018
O O1 0.710599 0.484320 0.187194
O O2 0.389733 0.759459 0.268584
O O3 0.175004 0.586299 0.406842
O O4 0.501102 0.623252 0.059499
O O5 0.083428 0.186046 0.589991
O O6 0.101537 0.077399 0.843347
O O7 0.938641 0.015816 0.749084
O O8 0.500000 0.000000 0.500000
O O9 0.634114 0.337463 0.434800
O O10 0.151659 0.285331 0.128526
O O11 0.934537 0.229463 0.087987
O O12 0.317817 0.281967 0.257157
O O13 0.329171 0.312300 0.470250
O O14 0.511012 0.952734 0.174723
O O15 0.000000 0.000000 0.500000
O O16 0.727447 0.760388 0.265987
O O17 0.964016 0.506526 0.268921
#
# Coordination Sequence:
#
# PCOD9032321 Si02
#       8
#     2   2   2   2   2   2   2   2
#     4  11  23  40  66  99 131 177 222 264 332 400
#     4  10  22  43  70  97 125 176 229 277 328 389
#     4  12  24  39  66 100 138 175 215 265 335 407
#     4  10  25  40  61  99 130 174 221 270 334 390
#     4  11  22  41  71  96 126 173 229 273 328 392
#     4  11  23  44  67 101 135 175 221 270 336 400
#     4  12  22  37  63  94 136 172 217 263 323 406
#     4  11  24  39  63  94 140 178 206 273 333 398
#
# _framework density 27.272437
#
# number of rings (size 3 to 8) (size 9 to 14) (size 15 to 20)
#    0.000    1.000    5.000    1.875    3.500    3.500 
#    0.000    0.000    2.750    9.000    0.000    0.000 
#    0.000    0.000    0.000    0.000    0.000    0.000 
#
# Total GULP energy -89392.116429 kJ/mol
# GULP energy per Si atom -5587.007277 kJ/mol
# Density = 2.721036 g / cm^3
# Si number density = 27.272437 Si / 1000 Ang^3
#
#
#
# Elastic Constant Matrix: (Units=GPa)
#
#
# Indices 1 2 3 4 5 6 
#
# 1 171.6743 3.5248 25.6706 7.6110 23.7027 -15.9222
# 2 3.5248 61.0920 45.3874 -11.5754 5.8523 -11.7593
# 3 25.6706 45.3874 175.6909 -7.2141 25.6620 -3.7836
# 4 7.6110 -11.5754 -7.2141 43.2044 5.7404 6.3427
# 5 23.7027 5.8523 25.6620 5.7404 33.9114 3.7382
# 6 -15.9222 -11.7593 -3.7836 6.3427 3.7382 17.5414
#
#
#
# Elastic Compliance Matrix: (Units=1/GPa)
#
#
# Indices 1 2 3 4 5 6 
#
# 1 0.007763 0.002348 -0.000676 -0.001548 -0.006199 0.010355
# 2 0.002348 0.024742 -0.005630 0.003297 -0.004103 0.017185
# 3 -0.000676 -0.005630 0.007882 0.000815 -0.004434 -0.002037
# 4 -0.001548 0.003297 0.000815 0.026050 -0.003670 -0.007656
# 5 -0.006199 -0.004103 -0.004434 -0.003670 0.040336 -0.016603
# 6 0.010355 0.017185 -0.002037 -0.007656 -0.016603 0.083795
#
#
# Mechanical properties :
#
#
# Convention : Reuss Voigt Hill
#
# Bulk Modulus (GPa) = 30.79660 61.95809 46.37735
# Shear Modulus (GPa) = 23.88838 41.18974 32.53906
#
# Velocity S-wave (km/s) = 2.96280 3.89048 3.45789
# Velocity P-wave (km/s) = 4.79802 6.55352 5.74324
#
# Compressibility (1/GPa) = 0.03247111
#
# Stress axis : x y z
#
# Youngs Moduli (GPa) = 128.81998 40.41758 126.86711
#
# Poissons Ratio (x) = -0.09490 0.08575
# Poissons Ratio (y) = -0.30248 0.71426
# Poissons Ratio (z) = 0.08707 0.22755
#
# Static dielectric constant tensor:
#      x y z
#    x 1.906260 0.472400 -0.137930 
#    y 0.472400 1.610250 0.185280 
#    z -0.137930 0.185280 2.108540 
# 
# From -- ./inp_files/273977.got.cif
#   From: 2010.05.17/outbox.cif.g08.bks.cpg/sg2_137_cif.got.tgz:273977.got - 2010.06.03 11:33:40.
