data_PCOD9032672
_publ_section_title
;
Structure prediction by ZEFSAII (Michael W. Deem and Ramdas Pophale) SiO2 
 PCOD9032672
Probable space group: P -1
;
_chemical_formula_sum "Si O2"
_cell_formula_units_Z 13
_cell_length_a 12.879120
_cell_length_b 14.241380
_cell_length_c 6.337444
_cell_angle_alpha 58.610099
_cell_angle_beta 119.867064
_cell_angle_gamma 148.104129
_cell_volume 520.267231
_symmetry_space_group_name_H-M "P -1"
_symmetry_group_IT_number 2
_symmetry_cell_setting 'triclinic'
loop_
_space_group_symop_operation_xyz
x,y,z
-x,-y,-z
loop_
_atom_site_type_symbol
_atom_site_label
_atom_site_fract_x
_atom_site_fract_y
_atom_site_fract_z
Si Si1 0.648903 0.152065 0.291394
Si Si2 0.813970 0.927223 0.111373
Si Si3 0.892491 0.675643 0.118320
Si Si4 0.625295 0.943113 0.234888
Si Si5 0.722640 0.678136 0.598857
Si Si6 0.525177 0.684631 0.726529
Si Si7 0.000000 0.500000 0.500000
O O1 0.811567 0.350030 0.323667
O O2 0.500000 0.000000 0.500000
O O3 0.735216 0.112063 0.293769
O O4 0.516532 0.110722 0.023697
O O5 0.765160 0.967694 0.214742
O O6 0.845993 0.833109 0.365143
O O7 0.625584 0.779271 0.941750
O O8 0.975880 0.120563 0.932844
O O9 0.688687 0.525185 0.219459
O O10 0.000819 0.638679 0.305486
O O11 0.821582 0.643814 0.840769
O O12 0.498051 0.777168 0.462108
O O13 0.500000 0.500000 0.500000
O O14 0.678328 0.723976 0.702109
#
# Coordination Sequence:
#
# PCOD9032672 Si02
#       7
#     2   2   2   2   2   2   1
#     4  11  23  45  69 100 146 200 247 299 355 433
#     4  11  24  46  73 106 144 186 243 306 369 432
#     4  12  25  46  71 106 147 191 241 299 364 434
#     4  10  22  43  73 101 146 195 243 300 368 433
#     4  11  25  48  75 105 142 192 245 306 367 432
#     4  11  24  46  73 105 143 190 240 305 369 434
#     4  12  26  42  70 106 146 188 234 294 358 436
#
# _framework density 24.987158000000001
#
# number of rings (size 3 to 8) (size 9 to 14) (size 15 to 20)
#    0.000    0.923    1.538    5.538    2.154    1.846 
#    8.308   13.846    0.000    0.000    0.000    0.000 
#    0.000    0.000    0.000    0.000    0.000    0.000 
#
# Total GULP energy -72494.873975 kJ/mol
# GULP energy per Si atom -5576.528767 kJ/mol
# Density = 2.493029 g / cm^3
# Si number density = 24.987158 Si / 1000 Ang^3
#
#
#
# Elastic Constant Matrix: (Units=GPa)
#
#
# Indices 1 2 3 4 5 6 
#
# 1 62.5467 6.9971 32.2200 -5.2359 -10.5003 -9.2383
# 2 6.9971 134.4353 20.0669 -4.4012 -12.4007 0.8539
# 3 32.2200 20.0669 155.6259 -20.1540 24.8442 3.5216
# 4 -5.2359 -4.4012 -20.1540 50.3472 -5.6645 -6.1748
# 5 -10.5003 -12.4007 24.8442 -5.6645 46.8213 3.9577
# 6 -9.2383 0.8539 3.5216 -6.1748 3.9577 24.3425
#
#
#
# Elastic Compliance Matrix: (Units=1/GPa)
#
#
# Indices 1 2 3 4 5 6 
#
# 1 0.021458 0.000419 -0.005629 0.001858 0.007441 0.008205
# 2 0.000419 0.007949 -0.001543 0.000433 0.003095 -0.000290
# 3 -0.005629 -0.001543 0.009061 0.001990 -0.006078 -0.001900
# 4 0.001858 0.000433 0.001990 0.021767 0.001631 0.005659
# 5 0.007441 0.003095 -0.006078 0.001631 0.027305 -0.000431
# 6 0.008205 -0.000290 -0.001900 0.005659 -0.000431 0.045985
#
#
# Mechanical properties :
#
#
# Convention : Reuss Voigt Hill
#
# Bulk Modulus (GPa) = 40.06438 52.35288 46.20863
# Shear Modulus (GPa) = 32.18499 43.85713 38.02106
#
# Velocity S-wave (km/s) = 3.59285 4.19404 3.90503
# Velocity P-wave (km/s) = 5.76890 6.66714 6.23422
#
# Compressibility (1/GPa) = 0.02495983
#
# Stress axis : x y z
#
# Youngs Moduli (GPa) = 46.60297 125.80925 110.36211
#
# Poissons Ratio (x) = -0.05266 0.62128
# Poissons Ratio (y) = -0.01951 0.17028
# Poissons Ratio (z) = 0.26235 0.19412
#
# Static dielectric constant tensor:
#      x y z
#    x 2.048430 -0.007620 0.037770 
#    y -0.007620 1.990910 -0.050250 
#    z 0.037770 -0.050250 2.015550 
# 
# From -- ./inp_files/96861.got.cif
#   From: 2010.05.17/outbox.cif.g08.bks.cpg/sg2_49_cif.got.tgz:96861.got - 2010.06.03 11:33:40.
