data_PCOD9032665
_publ_section_title
;
Structure prediction by ZEFSAII (Michael W. Deem and Ramdas Pophale) SiO2 
 PCOD9032665
Probable space group: P -1
;
_chemical_formula_sum "Si O2"
_cell_formula_units_Z 14
_cell_length_a 9.694082
_cell_length_b 9.309559
_cell_length_c 7.042060
_cell_angle_alpha 92.260457
_cell_angle_beta 70.138372
_cell_angle_gamma 84.361103
_cell_volume 593.029560
_symmetry_space_group_name_H-M "P -1"
_symmetry_group_IT_number 2
_symmetry_cell_setting 'triclinic'
loop_
_space_group_symop_operation_xyz
x,y,z
-x,-y,-z
loop_
_atom_site_type_symbol
_atom_site_label
_atom_site_fract_x
_atom_site_fract_y
_atom_site_fract_z
Si Si1 0.498938 0.847665 0.601654
Si Si2 0.194556 0.923582 0.944661
Si Si3 0.627966 0.656479 0.830552
Si Si4 0.043532 0.451619 0.188631
Si Si5 0.012273 0.137272 0.274036
Si Si6 0.579528 0.342462 0.721451
Si Si7 0.085793 0.744083 0.315531
O O1 0.630469 0.779728 0.675355
O O2 0.473770 0.728803 0.447633
O O3 0.500000 0.000000 0.500000
O O4 0.009458 0.142102 0.501342
O O5 0.360811 0.872885 0.811240
O O6 0.517432 0.701679 0.058114
O O7 0.120367 0.805119 0.096511
O O8 0.161622 0.067188 0.096853
O O9 0.783847 0.597827 0.850530
O O10 0.570146 0.516966 0.746802
O O11 0.971422 0.307959 0.259006
O O12 0.008039 0.599066 0.330832
O O13 0.000000 0.500000 0.000000
O O14 0.890534 0.058709 0.214791
O O15 0.751186 0.285455 0.671281
#
# Coordination Sequence:
#
# PCOD9032665 Si02
#       7
#     2   2   2   2   2   2   2
#     4  12  26  45  71 106 140 184 232 288 349 415
#     4  11  24  44  68  97 142 185 230 285 341 420
#     4  10  24  46  71 101 138 181 231 295 348 405
#     4  11  24  45  72 104 139 177 232 298 343 409
#     4  11  24  43  66 102 138 185 229 280 347 418
#     4  10  22  43  73 101 132 183 234 285 352 417
#     4  11  21  45  73  97 137 186 230 285 352 407
#
# _framework density 23.607592
#
# number of rings (size 3 to 8) (size 9 to 14) (size 15 to 20)
#    0.000    1.143    4.286    1.286    2.000    1.714 
#   12.857    0.000    0.000    0.000    0.000    0.000 
#    0.000    0.000    0.000    0.000    0.000    0.000 
#
# Total GULP energy -78224.253999 kJ/mol
# GULP energy per Si atom -5587.446714 kJ/mol
# Density = 2.355386 g / cm^3
# Si number density = 23.607592 Si / 1000 Ang^3
#
#
#
# Elastic Constant Matrix: (Units=GPa)
#
#
# Indices 1 2 3 4 5 6 
#
# 1 60.2942 21.7837 45.2233 6.9315 17.6347 -11.2896
# 2 21.7837 112.8211 64.5538 4.1928 4.8820 -0.8009
# 3 45.2233 64.5538 150.2229 21.4931 11.9858 -12.8266
# 4 6.9315 4.1928 21.4931 58.6706 -2.2374 4.6193
# 5 17.6347 4.8820 11.9858 -2.2374 34.1269 -2.8600
# 6 -11.2896 -0.8009 -12.8266 4.6193 -2.8600 21.1636
#
#
#
# Elastic Compliance Matrix: (Units=1/GPa)
#
#
# Indices 1 2 3 4 5 6 
#
# 1 0.026350 -0.001440 -0.005283 -0.002263 -0.010880 0.009824
# 2 -0.001440 0.012102 -0.005378 0.001603 0.000686 -0.003827
# 3 -0.005283 -0.005378 0.011502 -0.003588 -0.000383 0.004681
# 4 -0.002263 0.001603 -0.003588 0.019181 0.002861 -0.007121
# 5 -0.010880 0.000686 -0.000383 0.002861 0.034989 -0.001906
# 6 0.009824 -0.003827 0.004681 -0.007121 -0.001906 0.056480
#
#
# Mechanical properties :
#
#
# Convention : Reuss Voigt Hill
#
# Bulk Modulus (GPa) = 38.83225 65.16219 51.99722
# Shear Modulus (GPa) = 25.85456 35.57738 30.71597
#
# Velocity S-wave (km/s) = 3.31294 3.88626 3.61100
# Velocity P-wave (km/s) = 5.57843 6.91372 6.28165
#
# Compressibility (1/GPa) = 0.02575179
#
# Stress axis : x y z
#
# Youngs Moduli (GPa) = 37.95123 82.62864 86.94372
#
# Poissons Ratio (x) = 0.11901 0.45930
# Poissons Ratio (y) = 0.05466 0.46757
# Poissons Ratio (z) = 0.20049 0.44436
#
# Static dielectric constant tensor:
#      x y z
#    x 1.880980 0.003230 -0.008480 
#    y 0.003230 1.957530 -0.028330 
#    z -0.008480 -0.028330 1.904750 
# 
# From -- ./inp_files/150860.got.cif
#   From: 2010.05.17/outbox.cif.g08.bks.cpg/sg2_76_cif.got.tgz:150860.got - 2010.06.03 11:33:40.
