data_PCOD9032201
_publ_section_title
;
Structure prediction by ZEFSAII (Michael W. Deem and Ramdas Pophale) SiO2 
 PCOD9032201
Probable space group: P -1
;
_chemical_formula_sum "Si O2"
_cell_formula_units_Z 16
_cell_length_a 5.612265
_cell_length_b 11.746214
_cell_length_c 11.300302
_cell_angle_alpha 117.474026
_cell_angle_beta 84.101937
_cell_angle_gamma 85.237300
_cell_volume 650.213907
_symmetry_space_group_name_H-M "P -1"
_symmetry_group_IT_number 2
_symmetry_cell_setting 'triclinic'
loop_
_space_group_symop_operation_xyz
x,y,z
-x,-y,-z
loop_
_atom_site_type_symbol
_atom_site_label
_atom_site_fract_x
_atom_site_fract_y
_atom_site_fract_z
Si Si1 0.741182 0.659861 0.314468
Si Si2 0.668209 0.748303 0.868991
Si Si3 0.597249 0.489390 0.829091
Si Si4 0.914139 0.390324 0.533207
Si Si5 0.458707 0.900144 0.353756
Si Si6 0.183200 0.776880 0.749423
Si Si7 0.858981 0.252956 0.831955
Si Si8 0.189302 0.076082 0.872931
O O1 0.671154 0.523447 0.210943
O O2 0.508580 0.763810 0.354556
O O3 0.842907 0.675221 0.445582
O O4 0.924436 0.702481 0.231015
O O5 0.647818 0.634848 0.911374
O O6 0.438065 0.747517 0.793445
O O7 0.935137 0.729970 0.787467
O O8 0.659667 0.881325 0.004788
O O9 0.756005 0.448111 0.681467
O O10 0.668229 0.385554 0.882504
O O11 0.786712 0.294146 0.413429
O O12 0.000000 0.500000 0.500000
O O13 0.214763 0.876134 0.289075
O O14 0.641616 0.920918 0.249148
O O15 0.500000 0.000000 0.500000
O O16 0.124206 0.933090 0.820582
O O17 0.960906 0.192064 0.921517
#
# Coordination Sequence:
#
# PCOD9032201 Si02
#       8
#     2   2   2   2   2   2   2   2
#     4   9  21  38  62 100 137 171 226 289 351 416
#     4  12  28  49  71 101 144 191 236 293 338 420
#     4  10  22  43  70 100 144 175 237 293 352 419
#     4  11  22  39  65 102 136 183 230 287 355 405
#     4  10  23  40  66 101 136 178 225 290 349 417
#     4  12  29  45  73 104 142 191 237 291 343 419
#     4   9  22  43  68 101 134 178 231 295 347 420
#     4  11  27  45  71  99 141 188 236 281 357 418
#
# _framework density 24.607286999999999
#
# number of rings (size 3 to 8) (size 9 to 14) (size 15 to 20)
#    0.000    1.500    1.250    1.500   14.000    2.500 
#    0.000    5.625    0.000    0.000    0.000    0.000 
#    0.000    0.000    0.000    0.000    0.000    0.000 
#
# Total GULP energy -89284.528022 kJ/mol
# GULP energy per Si atom -5580.283001 kJ/mol
# Density = 2.455128 g / cm^3
# Si number density = 24.607287 Si / 1000 Ang^3
#
#
#
# Elastic Constant Matrix: (Units=GPa)
#
#
# Indices 1 2 3 4 5 6 
#
# 1 113.1257 43.8719 24.7688 -10.0756 27.1949 16.6475
# 2 43.8719 121.5503 13.6697 12.7093 13.9108 14.6224
# 3 24.7688 13.6697 75.5737 4.0208 19.8285 2.6175
# 4 -10.0756 12.7093 4.0208 37.8119 11.4806 8.8298
# 5 27.1949 13.9108 19.8285 11.4806 47.8559 -8.6744
# 6 16.6475 14.6224 2.6175 8.8298 -8.6744 47.0901
#
#
#
# Elastic Compliance Matrix: (Units=1/GPa)
#
#
# Indices 1 2 3 4 5 6 
#
# 1 0.015853 -0.004418 -0.001771 0.011234 -0.011191 -0.008302
# 2 -0.004418 0.010350 -0.000321 -0.004666 0.000638 -0.000642
# 3 -0.001771 -0.000321 0.015340 -0.000084 -0.005438 -0.001113
# 4 0.011234 -0.004666 -0.000084 0.039114 -0.016720 -0.012932
# 5 -0.011191 0.000638 -0.005438 -0.016720 0.035835 0.013797
# 6 -0.008302 -0.000642 -0.001113 -0.012932 0.013797 0.029398
#
#
# Mechanical properties :
#
#
# Convention : Reuss Voigt Hill
#
# Bulk Modulus (GPa) = 35.05821 52.76337 43.91079
# Shear Modulus (GPa) = 29.68787 41.74753 35.71770
#
# Velocity S-wave (km/s) = 3.47719 4.12339 3.81400
# Velocity P-wave (km/s) = 5.51354 6.64519 6.10564
#
# Compressibility (1/GPa) = 0.02852399
#
# Stress axis : x y z
#
# Youngs Moduli (GPa) = 63.07791 96.62014 65.18752
#
# Poissons Ratio (x) = 0.42688 0.11543
# Poissons Ratio (y) = 0.27868 0.02093
# Poissons Ratio (z) = 0.11169 0.03102
#
# Static dielectric constant tensor:
#      x y z
#    x 2.240440 -0.313960 0.082140 
#    y -0.313960 2.420950 -0.059280 
#    z 0.082140 -0.059280 2.078100 
# 
# From -- ./inp_files/70495.got.cif
#   From: 2010.05.17/outbox.cif.g08.bks.cpg/sg2_36_cif.got.tgz:70495.got - 2010.06.03 11:33:40.
