data_PCOD9032350
_publ_section_title
;
Structure prediction by ZEFSAII (Michael W. Deem and Ramdas Pophale) SiO2 
 PCOD9032350
Probable space group: P -1
;
_chemical_formula_sum "Si O2"
_cell_formula_units_Z 15
_cell_length_a 19.143303
_cell_length_b 5.038435
_cell_length_c 8.642774
_cell_angle_alpha 124.903604
_cell_angle_beta 102.689955
_cell_angle_gamma 102.045713
_cell_volume 605.916415
_symmetry_space_group_name_H-M "P -1"
_symmetry_group_IT_number 2
_symmetry_cell_setting 'triclinic'
loop_
_space_group_symop_operation_xyz
x,y,z
-x,-y,-z
loop_
_atom_site_type_symbol
_atom_site_label
_atom_site_fract_x
_atom_site_fract_y
_atom_site_fract_z
Si Si1 0.546593 0.255974 0.410613
Si Si2 0.315474 0.187835 0.468105
Si Si3 0.935975 0.586814 0.819695
Si Si4 0.740837 0.918724 0.259348
Si Si5 0.000000 0.500000 0.500000
Si Si6 0.612547 0.286532 0.795104
Si Si7 0.844213 0.513605 0.285444
Si Si8 0.152056 0.982065 0.161324
O O1 0.500000 0.500000 0.500000
O O2 0.612682 0.421195 0.368321
O O3 0.591183 0.289034 0.605036
O O4 0.473734 0.876444 0.221416
O O5 0.299281 0.053835 0.590838
O O6 0.343535 0.974134 0.285556
O O7 0.232264 0.135576 0.344527
O O8 0.914293 0.304138 0.853882
O O9 0.964173 0.447984 0.638530
O O10 0.861195 0.677350 0.787942
O O11 0.000000 0.000000 0.000000
O O12 0.810249 0.784764 0.289105
O O13 0.780862 0.273100 0.298509
O O14 0.673859 0.634300 0.023666
O O15 0.070986 0.371295 0.552613
O O16 0.844884 0.250472 0.060618
#
# Coordination Sequence:
#
# PCOD9032350 Si02
#       8
#     2   2   2   2   1   2   2   2
#     4   9  21  42  68 104 134 185 225 279 346 410
#     4  11  24  41  71  97 140 180 230 287 341 408
#     4  12  27  46  70 102 134 181 229 285 345 414
#     4  12  27  45  71 105 138 182 236 285 343 409
#     4  12  28  46  74  98 148 174 232 292 344 408
#     4  10  22  43  70  98 142 181 229 282 344 410
#     4  12  27  47  70 103 138 185 233 288 347 408
#     4  12  25  47  73  99 139 184 233 281 348 407
#
# _framework density 24.755889
#
# number of rings (size 3 to 8) (size 9 to 14) (size 15 to 20)
#    0.000    0.800    2.667    3.600    5.600    1.600 
#    0.000    6.000    0.000    0.000    0.000    0.000 
#    0.000    0.000    0.000    0.000    0.000    0.000 
#
# Total GULP energy -83645.038961 kJ/mol
# GULP energy per Si atom -5576.335931 kJ/mol
# Density = 2.469954 g / cm^3
# Si number density = 24.755889 Si / 1000 Ang^3
#
#
#
# Elastic Constant Matrix: (Units=GPa)
#
#
# Indices 1 2 3 4 5 6 
#
# 1 74.3103 35.6507 36.3016 11.3007 14.8812 19.5597
# 2 35.6507 103.8995 17.9688 0.9032 -3.9461 10.9715
# 3 36.3016 17.9688 80.4883 5.8791 14.0112 13.8817
# 4 11.3007 0.9032 5.8791 27.0459 9.9682 -3.6109
# 5 14.8812 -3.9461 14.0112 9.9682 49.9255 -16.8607
# 6 19.5597 10.9715 13.8817 -3.6109 -16.8607 43.9596
#
#
#
# Elastic Compliance Matrix: (Units=1/GPa)
#
#
# Indices 1 2 3 4 5 6 
#
# 1 0.025723 -0.006824 -0.005875 -0.007485 -0.009115 -0.011998
# 2 -0.006824 0.012010 -0.000594 0.001547 0.003401 0.001658
# 3 -0.005875 -0.000594 0.016701 -0.000102 -0.004381 -0.004200
# 4 -0.007485 0.001547 -0.000102 0.042354 -0.004474 0.004740
# 5 -0.009115 0.003401 -0.004381 -0.004474 0.030517 0.015928
# 6 -0.011998 0.001658 -0.004200 0.004740 0.015928 0.035497
#
#
# Mechanical properties :
#
#
# Convention : Reuss Voigt Hill
#
# Bulk Modulus (GPa) = 35.91206 48.72669 42.31937
# Shear Modulus (GPa) = 25.16708 35.43799 30.30253
#
# Velocity S-wave (km/s) = 3.19189 3.78762 3.50244
# Velocity P-wave (km/s) = 5.30304 6.23327 5.78688
#
# Compressibility (1/GPa) = 0.02784580
#
# Stress axis : x y z
#
# Youngs Moduli (GPa) = 38.87583 83.26603 59.87614
#
# Poissons Ratio (x) = 0.56824 0.35179
# Poissons Ratio (y) = 0.26530 0.03559
# Poissons Ratio (z) = 0.22841 0.04949
#
# Static dielectric constant tensor:
#      x y z
#    x 2.177190 -0.095610 0.067360 
#    y -0.095610 2.040370 0.073970 
#    z 0.067360 0.073970 1.966530 
# 
# From -- ./inp_files/323040.got.cif
#   From: 2010.05.17/outbox.cif.g08.bks.cpg/sg2_162_cif.got.tgz:323040.got - 2010.06.03 11:33:40.
