data_PCOD9032714
_publ_section_title
;
Structure prediction by ZEFSAII (Michael W. Deem and Ramdas Pophale) SiO2 
 PCOD9032714
Probable space group: P -1
;
_chemical_formula_sum "Si O2"
_cell_formula_units_Z 14
_cell_length_a 14.821178
_cell_length_b 14.960828
_cell_length_c 8.409913
_cell_angle_alpha 137.426139
_cell_angle_beta 148.829083
_cell_angle_gamma 41.907535
_cell_volume 617.337826
_symmetry_space_group_name_H-M "P -1"
_symmetry_group_IT_number 2
_symmetry_cell_setting 'triclinic'
loop_
_space_group_symop_operation_xyz
x,y,z
-x,-y,-z
loop_
_atom_site_type_symbol
_atom_site_label
_atom_site_fract_x
_atom_site_fract_y
_atom_site_fract_z
Si Si1 0.578357 0.350222 0.711329
Si Si2 0.175660 0.536443 0.257784
Si Si3 0.803746 0.531540 0.161354
Si Si4 0.748863 0.835385 0.536679
Si Si5 0.113577 0.844352 0.614765
Si Si6 0.566873 0.140805 0.683224
Si Si7 0.894987 0.126384 0.733744
O O1 0.366734 0.422341 0.443802
O O2 0.587611 0.268748 0.782904
O O3 0.693624 0.224971 0.604942
O O4 0.673790 0.470582 0.993855
O O5 0.152301 0.683600 0.497305
O O6 0.178446 0.543470 0.079740
O O7 0.000000 0.500000 0.000000
O O8 0.735538 0.698713 0.249346
O O9 0.000000 0.500000 0.500000
O O10 0.638923 0.832595 0.531863
O O11 0.644486 0.990643 0.516052
O O12 0.958077 0.826246 0.878800
O O13 0.073385 0.858503 0.385563
O O14 0.298630 0.877227 0.984925
O O15 0.952244 0.958315 0.617984
#
# Coordination Sequence:
#
# PCOD9032714 Si02
#       7
#     2   2   2   2   2   2   2
#     4  12  26  44  70 105 137 179 235 277 343 401
#     4  12  29  45  67 101 141 180 225 285 344 407
#     4  12  25  45  72  99 137 178 225 283 343 407
#     4  10  22  45  69 100 139 177 227 275 349 394
#     4  10  22  44  69  95 136 176 226 270 345 393
#     4  10  25  42  72 100 135 181 227 282 329 415
#     4  10  22  43  73  95 131 182 224 282 334 407
#
# _framework density 22.678018999999999
#
# number of rings (size 3 to 8) (size 9 to 14) (size 15 to 20)
#    0.000    1.143    2.857    1.286    8.000    4.571 
#    0.000    1.429    0.000    0.000    0.000    0.000 
#    0.000    0.000    0.000    0.000    0.000    0.000 
#
# Total GULP energy -78227.331878 kJ/mol
# GULP energy per Si atom -5587.666563 kJ/mol
# Density = 2.262640 g / cm^3
# Si number density = 22.678019 Si / 1000 Ang^3
#
#
#
# Elastic Constant Matrix: (Units=GPa)
#
#
# Indices 1 2 3 4 5 6 
#
# 1 48.2577 30.6881 31.5934 3.9854 19.9670 2.3897
# 2 30.6881 153.8532 65.3819 20.2722 9.3443 -32.0101
# 3 31.5934 65.3819 86.7822 12.0020 14.7230 -5.9018
# 4 3.9854 20.2722 12.0020 43.5208 -8.1676 -0.9603
# 5 19.9670 9.3443 14.7230 -8.1676 28.9267 -4.3613
# 6 2.3897 -32.0101 -5.9018 -0.9603 -4.3613 42.8200
#
#
#
# Elastic Compliance Matrix: (Units=1/GPa)
#
#
# Indices 1 2 3 4 5 6 
#
# 1 0.039139 -0.005004 -0.006296 -0.004390 -0.024855 -0.009423
# 2 -0.005004 0.012593 -0.007355 -0.002469 0.003791 0.009010
# 3 -0.006296 -0.007355 0.020326 -0.002564 -0.004784 -0.002890
# 4 -0.004390 -0.002469 -0.002564 0.027665 0.012942 -0.000016
# 5 -0.024855 0.003791 -0.004784 0.012942 0.058064 0.009766
# 6 -0.009423 0.009010 -0.002890 -0.000016 0.009766 0.031211
#
#
# Mechanical properties :
#
#
# Convention : Reuss Voigt Hill
#
# Bulk Modulus (GPa) = 28.77755 60.46888 44.62322
# Shear Modulus (GPa) = 21.01814 33.80215 27.41014
#
# Velocity S-wave (km/s) = 3.04765 3.86492 3.48036
# Velocity P-wave (km/s) = 5.01013 6.82926 5.98917
#
# Compressibility (1/GPa) = 0.03474931
#
# Stress axis : x y z
#
# Youngs Moduli (GPa) = 25.54997 79.40879 49.19826
#
# Poissons Ratio (x) = 0.39735 0.30974
# Poissons Ratio (y) = 0.12785 0.36185
# Poissons Ratio (z) = 0.16085 0.58404
#
# Static dielectric constant tensor:
#      x y z
#    x 1.696660 -0.008630 -0.355990 
#    y -0.008630 1.944720 0.047290 
#    z -0.355990 0.047290 1.076700 
# 
# From -- ./inp_files/314430.got.cif
#   From: 2010.05.17/outbox.cif.g08.bks.cpg/sg2_158_cif.got.tgz:314430.got - 2010.06.03 11:33:40.
