data_PCOD9032674
_publ_section_title
;
Structure prediction by ZEFSAII (Michael W. Deem and Ramdas Pophale) SiO2 
 PCOD9032674
Probable space group: P -1
;
_chemical_formula_sum "Si O2"
_cell_formula_units_Z 12
_cell_length_a 8.580919
_cell_length_b 9.112158
_cell_length_c 13.238831
_cell_angle_alpha 144.212333
_cell_angle_beta 96.842936
_cell_angle_gamma 63.644077
_cell_volume 481.655843
_symmetry_space_group_name_H-M "P -1"
_symmetry_group_IT_number 2
_symmetry_cell_setting 'triclinic'
loop_
_space_group_symop_operation_xyz
x,y,z
-x,-y,-z
loop_
_atom_site_type_symbol
_atom_site_label
_atom_site_fract_x
_atom_site_fract_y
_atom_site_fract_z
Si Si1 0.973893 0.659004 0.921079
Si Si2 0.339536 0.860883 0.228133
Si Si3 0.341207 0.051057 0.120003
Si Si4 0.047290 0.073176 0.717907
Si Si5 0.603815 0.570609 0.253237
Si Si6 0.546021 0.512860 0.624481
O O1 0.002340 0.362019 0.809407
O O2 0.182595 0.568793 0.849310
O O3 0.837614 0.778847 0.878445
O O4 0.902905 0.893350 0.142950
O O5 0.445229 0.867521 0.339667
O O6 0.144264 0.911480 0.277022
O O7 0.289463 0.086747 0.255772
O O8 0.500000 0.500000 0.000000
O O9 0.473556 0.169830 0.183305
O O10 0.442264 0.684632 0.908868
O O11 0.222636 0.764683 0.503210
O O12 0.574901 0.577896 0.373516
O O13 0.500000 0.500000 0.500000
#
# Coordination Sequence:
#
# PCOD9032674 Si02
#       6
#     2   2   2   2   2   2
#     4  11  24  45  78 100 139 187 238 284 342 429
#     4  10  22  43  73 102 135 182 236 282 339 417
#     4  11  24  45  73 102 140 189 236 284 346 414
#     4  11  25  46  70 105 144 183 233 288 355 403
#     4  11  24  47  73 104 139 190 234 280 351 421
#     4  12  29  45  70 105 148 179 236 295 348 411
#
# _framework density 24.914054
#
# number of rings (size 3 to 8) (size 9 to 14) (size 15 to 20)
#    0.000    1.000    3.333    3.000    4.667    6.667 
#    0.000    0.000    0.000    0.000    0.000    0.000 
#    0.000    0.000    0.000    0.000    0.000    0.000 
#
# Total GULP energy -67092.433370 kJ/mol
# GULP energy per Si atom -5591.036114 kJ/mol
# Density = 2.485735 g / cm^3
# Si number density = 24.914054 Si / 1000 Ang^3
#
#
#
# Elastic Constant Matrix: (Units=GPa)
#
#
# Indices 1 2 3 4 5 6 
#
# 1 99.1281 45.2122 10.4105 6.3344 -3.0766 42.8833
# 2 45.2122 191.4492 17.6025 -36.8860 9.0589 26.9623
# 3 10.4105 17.6025 34.0244 4.0446 2.8978 15.9411
# 4 6.3344 -36.8860 4.0446 40.4381 0.1411 -3.4458
# 5 -3.0766 9.0589 2.8978 0.1411 45.7213 -10.3663
# 6 42.8833 26.9623 15.9411 -3.4458 -10.3663 55.6855
#
#
#
# Elastic Compliance Matrix: (Units=1/GPa)
#
#
# Indices 1 2 3 4 5 6 
#
# 1 0.018041 -0.004240 0.004244 -0.008291 -0.001321 -0.013814
# 2 -0.004240 0.008254 -0.004219 0.008683 -0.001514 0.000732
# 3 0.004244 -0.004219 0.038106 -0.009462 -0.004331 -0.013526
# 4 -0.008291 0.008683 -0.009462 0.035496 -0.000190 0.007050
# 5 -0.001321 -0.001514 -0.004331 -0.000190 0.024048 0.007456
# 6 -0.013814 0.000732 -0.013526 0.007050 0.007456 0.033938
#
#
# Mechanical properties :
#
#
# Convention : Reuss Voigt Hill
#
# Bulk Modulus (GPa) = 17.86666 52.33915 35.10290
# Shear Modulus (GPa) = 27.03146 45.12740 36.07943
#
# Velocity S-wave (km/s) = 3.29749 4.26058 3.80959
# Velocity P-wave (km/s) = 4.65669 6.72732 5.78540
#
# Compressibility (1/GPa) = 0.05597017
#
# Stress axis : x y z
#
# Youngs Moduli (GPa) = 55.42925 121.15341 26.24291
#
# Poissons Ratio (x) = 0.51369 -0.11137
# Poissons Ratio (y) = 0.23502 0.11072
# Poissons Ratio (z) = -0.23523 0.51114
#
# Static dielectric constant tensor:
#      x y z
#    x 1.891610 -0.034130 0.037330 
#    y -0.034130 1.926190 0.118280 
#    z 0.037330 0.118280 1.813140 
# 
# From -- ./inp_files/206513.got.cif
#   From: 2010.05.17/outbox.cif.g08.bks.cpg/sg2_104_cif.got.tgz:206513.got - 2010.06.03 11:33:40.
