data_PCOD9032568
_publ_section_title
;
Structure prediction by ZEFSAII (Michael W. Deem and Ramdas Pophale) SiO2 
 PCOD9032568
Probable space group: P -1
;
_chemical_formula_sum "Si O2"
_cell_formula_units_Z 14
_cell_length_a 21.357134
_cell_length_b 5.091719
_cell_length_c 5.451279
_cell_angle_alpha 84.502774
_cell_angle_beta 114.418359
_cell_angle_gamma 75.675870
_cell_volume 509.639855
_symmetry_space_group_name_H-M "P -1"
_symmetry_group_IT_number 2
_symmetry_cell_setting 'triclinic'
loop_
_space_group_symop_operation_xyz
x,y,z
-x,-y,-z
loop_
_atom_site_type_symbol
_atom_site_label
_atom_site_fract_x
_atom_site_fract_y
_atom_site_fract_z
Si Si1 0.248301 0.504090 0.224170
Si Si2 0.516360 0.744729 0.737954
Si Si3 0.716589 0.667811 0.206575
Si Si4 0.849399 0.717604 0.624487
Si Si5 0.013465 0.751621 0.242631
Si Si6 0.883063 0.069363 0.272822
Si Si7 0.591650 0.141636 0.043130
O O1 0.291334 0.499396 0.546976
O O2 0.203506 0.289821 0.237465
O O3 0.300317 0.412163 0.084329
O O4 0.182988 0.773207 0.021053
O O5 0.557186 0.415288 0.794340
O O6 0.500000 0.000000 0.500000
O O7 0.566885 0.864675 0.985977
O O8 0.442188 0.758506 0.755948
O O9 0.802784 0.617489 0.349128
O O10 0.676240 0.994634 0.157447
O O11 0.931500 0.514759 0.779700
O O12 0.853550 0.997537 0.490244
O O13 0.060476 0.780596 0.555669
O O14 0.934368 0.803251 0.229306
O O15 0.000000 0.000000 0.000000
#
# Coordination Sequence:
#
# PCOD9032568 Si02
#       7
#     2   2   2   2   2   2   2
#     4  10  22  45  60  94 135 166 227 275 336 411
#     4  10  22  43  72 103 144 184 230 292 337 418
#     4  10  23  44  66  96 136 175 222 283 332 420
#     4  10  23  40  60  92 125 167 220 274 341 403
#     4  11  21  39  59  90 122 165 222 277 337 408
#     4  11  22  39  64  85 126 172 213 285 338 398
#     4  10  23  43  67 107 140 182 241 278 353 409
#
# _framework density 27.470381
#
# number of rings (size 3 to 8) (size 9 to 14) (size 15 to 20)
#    0.857    0.857    2.857    0.857    2.000    2.857 
#    0.000    0.000    0.000    0.000    0.000    0.000 
#    0.000    0.000    0.000    0.000    0.000    0.000 
#
# Total GULP energy -78115.128776 kJ/mol
# GULP energy per Si atom -5579.652055 kJ/mol
# Density = 2.740786 g / cm^3
# Si number density = 27.470381 Si / 1000 Ang^3
#
#
#
# Elastic Constant Matrix: (Units=GPa)
#
#
# Indices 1 2 3 4 5 6 
#
# 1 85.8838 42.2243 40.9328 -19.0393 -12.8241 -24.0261
# 2 42.2243 126.2059 57.0475 -19.4558 -5.2913 -19.4036
# 3 40.9328 57.0475 174.1583 -23.6825 -31.1393 -30.9792
# 4 -19.0393 -19.4558 -23.6825 56.2116 -8.4032 -2.1533
# 5 -12.8241 -5.2913 -31.1393 -8.4032 37.6340 -7.5258
# 6 -24.0261 -19.4036 -30.9792 -2.1533 -7.5258 46.5907
#
#
#
# Elastic Compliance Matrix: (Units=1/GPa)
#
#
# Indices 1 2 3 4 5 6 
#
# 1 0.019731 -0.003843 0.002245 0.008641 0.012466 0.012481
# 2 -0.003843 0.010553 -0.002649 0.000995 -0.001711 0.000421
# 3 0.002245 -0.002649 0.011113 0.006862 0.013095 0.009876
# 4 0.008641 0.000995 0.006862 0.027088 0.017512 0.013514
# 5 0.012466 -0.001711 0.013095 0.017512 0.049985 0.023307
# 6 0.012481 0.000421 0.009876 0.013514 0.023307 0.039031
#
#
# Mechanical properties :
#
#
# Convention : Reuss Voigt Hill
#
# Bulk Modulus (GPa) = 30.39133 74.07302 52.23218
# Shear Modulus (GPa) = 28.25432 44.49015 36.37224
#
# Velocity S-wave (km/s) = 3.21056 4.02875 3.64270
# Velocity P-wave (km/s) = 4.98306 6.97598 6.06198
#
# Compressibility (1/GPa) = 0.03290412
#
# Stress axis : x y z
#
# Youngs Moduli (GPa) = 50.68082 94.75763 89.98251
#
# Poissons Ratio (x) = 0.36413 -0.20204
# Poissons Ratio (y) = 0.19476 0.23840
# Poissons Ratio (z) = -0.11379 0.25105
#
# Static dielectric constant tensor:
#      x y z
#    x 2.225530 0.007740 0.048600 
#    y 0.007740 2.291180 0.086750 
#    z 0.048600 0.086750 2.257350 
# 
# From -- ./inp_files/125514.got.cif
#   From: 2010.05.17/outbox.cif.g08.bks.cpg/sg2_63_cif.got.tgz:125514.got - 2010.06.03 11:33:40.
