data_PCOD9032597
_publ_section_title
;
Structure prediction by ZEFSAII (Michael W. Deem and Ramdas Pophale) SiO2 
 PCOD9032597
Probable space group: P -1
;
_chemical_formula_sum "Si O2"
_cell_formula_units_Z 16
_cell_length_a 5.031856
_cell_length_b 17.313614
_cell_length_c 16.115397
_cell_angle_alpha 27.944324
_cell_angle_beta 96.800179
_cell_angle_gamma 99.213490
_cell_volume 648.623746
_symmetry_space_group_name_H-M "P -1"
_symmetry_group_IT_number 2
_symmetry_cell_setting 'triclinic'
loop_
_space_group_symop_operation_xyz
x,y,z
-x,-y,-z
loop_
_atom_site_type_symbol
_atom_site_label
_atom_site_fract_x
_atom_site_fract_y
_atom_site_fract_z
Si Si1 0.392449 0.971230 0.769550
Si Si2 0.883261 0.002041 0.636186
Si Si3 0.037176 0.338410 0.229984
Si Si4 0.776780 0.318717 0.843076
Si Si5 0.468055 0.333379 0.469571
Si Si6 0.726843 0.381363 0.603338
Si Si7 0.473459 0.285507 0.170559
Si Si8 0.220903 0.447999 0.855927
O O1 0.678110 0.012899 0.694940
O O2 0.141233 0.910971 0.757001
O O3 0.314861 0.148943 0.630879
O O4 0.393542 0.827357 0.973681
O O5 0.687250 0.899628 0.660380
O O6 0.013773 0.173877 0.440091
O O7 0.780075 0.304888 0.191409
O O8 0.990667 0.484635 0.152809
O O9 0.306919 0.368188 0.157970
O O10 0.685977 0.504805 0.671492
O O11 0.752879 0.270725 0.790882
O O12 0.069861 0.344594 0.873127
O O13 0.665772 0.312995 0.574088
O O14 0.616216 0.392283 0.333590
O O15 0.500000 0.500000 0.500000
O O16 0.000000 0.500000 0.500000
O O17 0.403654 0.348217 0.016510
#
# Coordination Sequence:
#
# PCOD9032597 Si02
#       8
#     2   2   2   2   2   2   2   2
#     4  12  26  44  74 108 139 182 243 282 342 426
#     4  12  24  47  68  97 139 184 233 291 354 407
#     4  12  26  43  65  97 134 179 236 289 347 411
#     4  11  25  45  75 104 144 186 230 287 350 416
#     4  11  25  45  75 104 144 186 230 287 350 416
#     4  10  22  43  72 107 141 183 228 279 347 417
#     4  12  26  43  65  97 134 179 236 289 347 411
#     4  12  24  43  70  94 138 184 232 287 352 410
#
# _framework density 24.667611999999998
#
# number of rings (size 3 to 8) (size 9 to 14) (size 15 to 20)
#    0.000    0.500    3.750    4.500    3.500    0.500 
#    0.000    0.000    0.000    4.500    0.000    0.000 
#    0.000    0.000    0.000    0.000    0.000    0.000 
#
# Total GULP energy -89562.295258 kJ/mol
# GULP energy per Si atom -5597.643454 kJ/mol
# Density = 2.461147 g / cm^3
# Si number density = 24.667612 Si / 1000 Ang^3
#
#
#
# Elastic Constant Matrix: (Units=GPa)
#
#
# Indices 1 2 3 4 5 6 
#
# 1 117.6663 16.9231 36.9966 23.7856 -7.8210 10.9709
# 2 16.9231 90.3417 47.2328 24.0968 10.1253 20.5492
# 3 36.9966 47.2328 159.2724 26.8970 -3.0625 -1.1390
# 4 23.7856 24.0968 26.8970 55.7833 4.2025 3.5913
# 5 -7.8210 10.1253 -3.0625 4.2025 29.4309 5.6547
# 6 10.9709 20.5492 -1.1390 3.5913 5.6547 36.7718
#
#
#
# Elastic Compliance Matrix: (Units=1/GPa)
#
#
# Indices 1 2 3 4 5 6 
#
# 1 0.010353 0.000441 -0.001858 -0.003752 0.003631 -0.003585
# 2 0.000441 0.016957 -0.004510 -0.004486 -0.003871 -0.008714
# 3 -0.001858 -0.004510 0.008375 -0.001623 0.001535 0.003257
# 4 -0.003752 -0.004486 -0.001623 0.022365 -0.003178 0.001880
# 5 0.003631 -0.003871 0.001535 -0.003178 0.037726 -0.004364
# 6 -0.003585 -0.008714 0.003257 0.001880 -0.004364 0.033722
#
#
# Mechanical properties :
#
#
# Convention : Reuss Voigt Hill
#
# Bulk Modulus (GPa) = 41.96262 63.28728 52.62495
# Shear Modulus (GPa) = 33.49046 42.13906 37.81476
#
# Velocity S-wave (km/s) = 3.68865 4.13761 3.91957
# Velocity P-wave (km/s) = 5.93209 6.96693 6.47023
#
# Compressibility (1/GPa) = 0.02383073
#
# Stress axis : x y z
#
# Youngs Moduli (GPa) = 96.58679 58.97268 119.40942
#
# Poissons Ratio (x) = -0.02602 0.22186
# Poissons Ratio (y) = -0.04262 0.53858
# Poissons Ratio (z) = 0.17946 0.26599
#
# Static dielectric constant tensor:
#      x y z
#    x 1.984360 -0.061000 0.038240 
#    y -0.061000 2.061770 -0.014050 
#    z 0.038240 -0.014050 1.996260 
# 
# From -- ./inp_files/44238.got.cif
#   From: 2010.05.17/outbox.cif.g08.bks.cpg/sg2_23_cif.got.tgz:44238.got - 2010.06.03 11:33:40.
