data_PCOD9032020
_publ_section_title
;
Structure prediction by ZEFSAII (Michael W. Deem and Ramdas Pophale) SiO2 
 PCOD9032020
Probable space group: P -1
;
_chemical_formula_sum "Si O2"
_cell_formula_units_Z 16
_cell_length_a 9.267758
_cell_length_b 9.059102
_cell_length_c 11.135834
_cell_angle_alpha 57.279854
_cell_angle_beta 120.552827
_cell_angle_gamma 103.262402
_cell_volume 676.044994
_symmetry_space_group_name_H-M "P -1"
_symmetry_group_IT_number 2
_symmetry_cell_setting 'triclinic'
loop_
_space_group_symop_operation_xyz
x,y,z
-x,-y,-z
loop_
_atom_site_type_symbol
_atom_site_label
_atom_site_fract_x
_atom_site_fract_y
_atom_site_fract_z
Si Si1 0.376587 0.386502 0.164635
Si Si2 0.317795 0.521764 0.348316
Si Si3 0.700404 0.338596 0.179023
Si Si4 0.380034 0.985407 0.342540
Si Si5 0.049514 0.998769 0.316963
Si Si6 0.524889 0.958259 0.888479
Si Si7 0.920201 0.765446 0.549390
Si Si8 0.859246 0.102733 0.971901
O O1 0.277831 0.509590 0.974136
O O2 0.346806 0.441768 0.263059
O O3 0.572206 0.397868 0.205215
O O4 0.328202 0.189911 0.208101
O O5 0.500000 0.500000 0.500000
O O6 0.189276 0.401628 0.416029
O O7 0.596023 0.194038 0.128863
O O8 0.771995 0.283544 0.802091
O O9 0.880942 0.278731 0.329936
O O10 0.208332 0.907208 0.351290
O O11 0.485122 0.925826 0.293283
O O12 0.500000 0.000000 0.500000
O O13 0.122989 0.105262 0.412921
O O14 0.941030 0.127634 0.125773
O O15 0.918868 0.870635 0.377489
O O16 0.500000 0.000000 0.000000
O O17 0.725137 0.953734 0.983133
O O18 0.000000 0.000000 0.000000
#
# Coordination Sequence:
#
# PCOD9032020 Si02
#       8
#     2   2   2   2   2   2   2   2
#     4  10  22  43  69 105 143 189 251 308 385 449
#     4  12  29  47  74 109 152 202 249 321 387 457
#     4  10  23  42  73 106 139 194 247 318 373 456
#     4  11  23  40  73 104 149 198 254 313 377 457
#     4  11  23  44  72 108 142 198 247 315 376 450
#     4  11  23  43  71 109 150 198 251 313 384 457
#     4  11  25  45  74 108 148 188 261 311 383 457
#     4  12  28  47  74 107 153 203 253 310 388 464
#
# _framework density 23.667065999999998
#
# number of rings (size 3 to 8) (size 9 to 14) (size 15 to 20)
#    0.000    1.000    2.500    3.750    3.500    8.000 
#    0.000    1.250    0.000    0.000    0.000    0.000 
#    0.000    0.000    0.000    0.000    0.000    0.000 
#
# Total GULP energy -89247.712758 kJ/mol
# GULP energy per Si atom -5577.982047 kJ/mol
# Density = 2.361320 g / cm^3
# Si number density = 23.667066 Si / 1000 Ang^3
#
#
#
# Elastic Constant Matrix: (Units=GPa)
#
#
# Indices 1 2 3 4 5 6 
#
# 1 107.6189 32.5210 62.8263 -7.0737 -12.3706 -1.5382
# 2 32.5210 105.2527 50.5071 -17.5340 -1.4946 12.6513
# 3 62.8263 50.5071 126.9823 -15.3528 -10.8485 7.2796
# 4 -7.0737 -17.5340 -15.3528 32.2046 0.5082 -3.1152
# 5 -12.3706 -1.4946 -10.8485 0.5082 49.1420 2.7491
# 6 -1.5382 12.6513 7.2796 -3.1152 2.7491 34.5807
#
#
#
# Elastic Compliance Matrix: (Units=1/GPa)
#
#
# Indices 1 2 3 4 5 6 
#
# 1 0.013554 -0.001605 -0.006111 -0.000620 0.001893 0.002270
# 2 -0.001605 0.012934 -0.003645 0.004618 -0.000663 -0.003567
# 3 -0.006111 -0.003645 0.012860 0.002639 0.001247 -0.001507
# 4 -0.000620 0.004618 0.002639 0.034767 0.000160 0.000847
# 5 0.001893 -0.000663 0.001247 0.000160 0.021169 -0.001604
# 6 0.002270 -0.003567 -0.001507 0.000847 -0.001604 0.030845
#
#
# Mechanical properties :
#
#
# Convention : Reuss Voigt Hill
#
# Bulk Modulus (GPa) = 60.14013 70.17362 65.15687
# Shear Modulus (GPa) = 32.38508 36.11877 34.25192
#
# Velocity S-wave (km/s) = 3.70315 3.91080 3.80839
# Velocity P-wave (km/s) = 6.61441 7.07864 6.85046
#
# Compressibility (1/GPa) = 0.01662783
#
# Stress axis : x y z
#
# Youngs Moduli (GPa) = 73.77985 77.31404 77.75927
#
# Poissons Ratio (x) = 0.12406 0.47519
# Poissons Ratio (y) = 0.11839 0.28339
# Poissons Ratio (z) = 0.45087 0.28177
#
# Static dielectric constant tensor:
#      x y z
#    x 1.952500 -0.027630 -0.065090 
#    y -0.027630 1.873620 0.072640 
#    z -0.065090 0.072640 1.776100 
# 
# From -- ./inp_files/387647.got.cif
#   From: 2010.05.17/outbox.cif.g08.bks.cpg/sg2_194_cif.got.tgz:387647.got - 2010.06.03 11:33:40.
