data_PCOD9032964
_publ_section_title
;
Structure prediction by ZEFSAII (Michael W. Deem and Ramdas Pophale) SiO2 
 PCOD9032964
Probable space group: P -1
;
_chemical_formula_sum "Si O2"
_cell_formula_units_Z 14
_cell_length_a 11.113436
_cell_length_b 13.556720
_cell_length_c 9.136810
_cell_angle_alpha 54.554246
_cell_angle_beta 101.222359
_cell_angle_gamma 141.795080
_cell_volume 593.194558
_symmetry_space_group_name_H-M "P -1"
_symmetry_group_IT_number 2
_symmetry_cell_setting 'triclinic'
loop_
_space_group_symop_operation_xyz
x,y,z
-x,-y,-z
loop_
_atom_site_type_symbol
_atom_site_label
_atom_site_fract_x
_atom_site_fract_y
_atom_site_fract_z
Si Si1 0.285523 0.764043 0.070961
Si Si2 0.981813 0.311158 0.400479
Si Si3 0.337869 0.773442 0.737448
Si Si4 0.057166 0.923604 0.656036
Si Si5 0.917977 0.093130 0.824394
Si Si6 0.131008 0.388868 0.883561
Si Si7 0.701122 0.766670 0.305078
O O1 0.206329 0.568223 0.291282
O O2 0.098274 0.718102 0.069193
O O3 0.355129 0.788148 0.901205
O O4 0.500000 0.000000 0.000000
O O5 0.895158 0.353504 0.251187
O O6 0.963385 0.193068 0.375328
O O7 0.852679 0.144818 0.650936
O O8 0.334439 0.643795 0.763965
O O9 0.500000 0.000000 0.500000
O O10 0.278617 0.133287 0.630590
O O11 0.000000 0.000000 0.500000
O O12 0.880636 0.727791 0.902185
O O13 0.108073 0.309997 0.789164
O O14 0.061092 0.111798 0.753217
O O15 0.727424 0.872476 0.073374
O O16 0.500000 0.500000 0.500000
#
# Coordination Sequence:
#
# PCOD9032964 Si02
#       7
#     2   2   2   2   2   2   2
#     4  11  24  41  68  98 126 172 222 271 339 395
#     4  11  22  43  66  91 135 169 218 271 330 390
#     4  11  24  41  63  98 130 167 219 272 332 398
#     4  11  20  41  67  89 127 180 211 264 328 383
#     4  10  23  40  66  94 129 171 220 268 326 384
#     4  10  22  44  64  88 138 169 213 274 333 389
#     4  10  23  43  65  92 131 172 225 267 320 385
#
# _framework density 23.601023999999999
#
# number of rings (size 3 to 8) (size 9 to 14) (size 15 to 20)
#    0.000    1.429    4.286    0.857    4.000    4.571 
#    2.571    0.714    0.000    0.000    0.000    0.000 
#    0.000    0.000    0.000    0.000    0.000    0.000 
#
# Total GULP energy -77997.287770 kJ/mol
# GULP energy per Si atom -5571.234841 kJ/mol
# Density = 2.354731 g / cm^3
# Si number density = 23.601024 Si / 1000 Ang^3
#
#
#
# Elastic Constant Matrix: (Units=GPa)
#
#
# Indices 1 2 3 4 5 6 
#
# 1 43.5490 5.2452 18.6097 -5.6985 12.0877 -14.7104
# 2 5.2452 112.0546 65.5078 -13.4440 8.8666 -37.2698
# 3 18.6097 65.5078 181.3708 -8.7279 22.5841 -10.2497
# 4 -5.6985 -13.4440 -8.7279 57.3782 -4.1177 10.4464
# 5 12.0877 8.8666 22.5841 -4.1177 33.5490 -8.5683
# 6 -14.7104 -37.2698 -10.2497 10.4464 -8.5683 35.8930
#
#
#
# Elastic Compliance Matrix: (Units=1/GPa)
#
#
# Indices 1 2 3 4 5 6 
#
# 1 0.031613 0.007450 -0.004158 0.000564 -0.005912 0.017929
# 2 0.007450 0.019890 -0.006981 0.000481 0.002479 0.022165
# 3 -0.004158 -0.006981 0.008588 0.000336 -0.004347 -0.007636
# 4 0.000564 0.000481 0.000336 0.018494 0.000586 -0.004416
# 5 -0.005912 0.002479 -0.004347 0.000586 0.036163 0.007372
# 6 0.017929 0.022165 -0.007636 -0.004416 0.007372 0.059088
#
#
# Mechanical properties :
#
#
# Convention : Reuss Voigt Hill
#
# Bulk Modulus (GPa) = 18.97105 57.29997 38.13551
# Shear Modulus (GPa) = 25.15271 41.87148 33.51209
#
# Velocity S-wave (km/s) = 3.26812 4.21662 3.77230
# Velocity P-wave (km/s) = 4.72192 6.93093 5.93019
#
# Compressibility (1/GPa) = 0.05271190
#
# Stress axis : x y z
#
# Youngs Moduli (GPa) = 31.63252 50.27534 116.44709
#
# Poissons Ratio (x) = -0.37453 0.48417
# Poissons Ratio (y) = -0.23565 0.81296
# Poissons Ratio (z) = 0.13152 0.35099
#
# Static dielectric constant tensor:
#      x y z
#    x 1.888840 -0.097590 0.061310 
#    y -0.097590 1.919370 0.010580 
#    z 0.061310 0.010580 1.848910 
# 
# From -- ./inp_files/178349.got.cif
#   From: 2010.05.17/outbox.cif.g08.bks.cpg/sg2_90_cif.got.tgz:178349.got - 2010.06.03 11:33:40.
