data_PCOD9032975
_publ_section_title
;
Structure prediction by ZEFSAII (Michael W. Deem and Ramdas Pophale) SiO2 
 PCOD9032975
Probable space group: P -1
;
_chemical_formula_sum "Si O2"
_cell_formula_units_Z 14
_cell_length_a 5.262534
_cell_length_b 27.769162
_cell_length_c 9.216689
_cell_angle_alpha 31.151737
_cell_angle_beta 124.047475
_cell_angle_gamma 125.930358
_cell_volume 558.807141
_symmetry_space_group_name_H-M "P -1"
_symmetry_group_IT_number 2
_symmetry_cell_setting 'triclinic'
loop_
_space_group_symop_operation_xyz
x,y,z
-x,-y,-z
loop_
_atom_site_type_symbol
_atom_site_label
_atom_site_fract_x
_atom_site_fract_y
_atom_site_fract_z
Si Si1 0.045201 0.928264 0.074813
Si Si2 0.524719 0.415223 0.333352
Si Si3 0.353978 0.291721 0.145869
Si Si4 0.281157 0.166512 0.037158
Si Si5 0.150603 0.704673 0.459486
Si Si6 0.365931 0.097822 0.531563
Si Si7 0.742091 0.358082 0.819331
O O1 0.272845 0.871016 0.372892
O O2 0.743152 0.864430 0.058917
O O3 0.218626 0.998380 0.820806
O O4 0.000000 0.000000 0.000000
O O5 0.752486 0.357624 0.476210
O O6 0.679578 0.438417 0.482729
O O7 0.163913 0.355561 0.402006
O O8 0.500000 0.500000 0.000000
O O9 0.558543 0.276258 0.387788
O O10 0.217772 0.184906 0.309837
O O11 0.575275 0.353780 0.932303
O O12 0.089903 0.343607 0.976306
O O13 0.549161 0.259800 0.929396
O O14 0.957038 0.201007 0.866605
O O15 0.329888 0.089362 0.369291
#
# Coordination Sequence:
#
# PCOD9032975 Si02
#       7
#     2   2   2   2   2   2   2
#     4  11  24  41  60  94 128 170 222 275 334 381
#     4  11  23  43  66 100 136 171 214 266 332 395
#     4  11  22  43  67  96 130 169 228 272 314 393
#     4  10  22  44  64  92 128 175 225 264 333 389
#     4  11  23  42  70  98 126 180 219 266 325 394
#     4  10  23  40  61  90 130 169 214 281 325 381
#     4  10  23  41  68  95 128 172 218 269 328 391
#
# _framework density 25.053366
#
# number of rings (size 3 to 8) (size 9 to 14) (size 15 to 20)
#    0.000    1.429    1.429    4.286    4.000    2.857 
#   10.286    4.286    0.000    0.000    0.000    0.000 
#    0.000    0.000    0.000    0.000    0.000    0.000 
#
# Total GULP energy -78334.069462 kJ/mol
# GULP energy per Si atom -5595.290676 kJ/mol
# Density = 2.499634 g / cm^3
# Si number density = 25.053366 Si / 1000 Ang^3
#
#
#
# Elastic Constant Matrix: (Units=GPa)
#
#
# Indices 1 2 3 4 5 6 
#
# 1 114.9384 13.9438 38.5902 4.4405 3.0882 1.2985
# 2 13.9438 82.2670 24.2183 26.2914 2.0453 -0.9042
# 3 38.5902 24.2183 156.9593 37.4276 -9.6941 -0.8535
# 4 4.4405 26.2914 37.4276 49.6770 -3.3778 4.7071
# 5 3.0882 2.0453 -9.6941 -3.3778 30.6451 15.3421
# 6 1.2985 -0.9042 -0.8535 4.7071 15.3421 15.1806
#
#
#
# Elastic Compliance Matrix: (Units=1/GPa)
#
#
# Indices 1 2 3 4 5 6 
#
# 1 0.009750 -0.001404 -0.002707 0.001826 -0.001467 -0.000153
# 2 -0.001404 0.015983 -0.000198 -0.009957 -0.008424 0.012662
# 3 -0.002707 -0.000198 0.008648 -0.006062 0.002143 0.000420
# 4 0.001826 -0.009957 -0.006062 0.033549 0.016222 -0.027887
# 5 -0.001467 -0.008424 0.002143 0.016222 0.077836 -0.083950
# 6 -0.000153 0.012662 0.000420 -0.027887 -0.083950 0.160154
#
#
# Mechanical properties :
#
#
# Convention : Reuss Voigt Hill
#
# Bulk Modulus (GPa) = 38.81918 56.40768 47.61343
# Shear Modulus (GPa) = 15.47379 37.59471 26.53425
#
# Velocity S-wave (km/s) = 2.48792 3.87794 3.25793
# Velocity P-wave (km/s) = 4.87660 6.52803 5.76179
#
# Compressibility (1/GPa) = 0.02576046
#
# Stress axis : x y z
#
# Youngs Moduli (GPa) = 102.56073 62.56842 115.63945
#
# Poissons Ratio (x) = 0.08788 0.31309
# Poissons Ratio (y) = 0.14405 0.02290
# Poissons Ratio (z) = 0.27768 0.01239
#
# Static dielectric constant tensor:
#      x y z
#    x 2.015550 0.018050 -0.041970 
#    y 0.018050 2.072820 -0.040810 
#    z -0.041970 -0.040810 2.021610 
# 
# From -- ./inp_files/46913.got.cif
#   From: 2010.05.17/outbox.cif.g08.bks.cpg/sg2_24_cif.got.tgz:46913.got - 2010.06.03 11:33:40.
