data_PCOD9032978
_publ_section_title
;
Structure prediction by ZEFSAII (Michael W. Deem and Ramdas Pophale) SiO2 
 PCOD9032978
Probable space group: P -1
;
_chemical_formula_sum "Si O2"
_cell_formula_units_Z 15
_cell_length_a 6.868371
_cell_length_b 8.356541
_cell_length_c 20.984061
_cell_angle_alpha 130.095348
_cell_angle_beta 52.681125
_cell_angle_gamma 123.248369
_cell_volume 707.631634
_symmetry_space_group_name_H-M "P -1"
_symmetry_group_IT_number 2
_symmetry_cell_setting 'triclinic'
loop_
_space_group_symop_operation_xyz
x,y,z
-x,-y,-z
loop_
_atom_site_type_symbol
_atom_site_label
_atom_site_fract_x
_atom_site_fract_y
_atom_site_fract_z
Si Si1 0.984311 0.884459 0.726227
Si Si2 0.693220 0.468115 0.865547
Si Si3 0.557642 0.312509 0.265949
Si Si4 0.520373 0.269381 0.411340
Si Si5 0.000000 0.000000 0.500000
Si Si6 0.000196 0.917081 0.879475
Si Si7 0.124655 0.385103 0.998754
Si Si8 0.053773 0.223311 0.684901
O O1 0.196169 0.753337 0.640191
O O2 0.015761 0.966856 0.813630
O O3 0.696500 0.742205 0.738622
O O4 0.033225 0.067861 0.709737
O O5 0.400856 0.382720 0.917206
O O6 0.764901 0.711883 0.887011
O O7 0.805128 0.317108 0.758927
O O8 0.837298 0.486833 0.909704
O O9 0.477280 0.261033 0.341955
O O10 0.751717 0.166740 0.173845
O O11 0.714939 0.562509 0.296954
O O12 0.500000 0.500000 0.500000
O O13 0.300047 0.088670 0.441538
O O14 0.071102 0.105467 0.585131
O O15 0.982950 0.134615 0.973285
O O16 0.000000 0.500000 0.000000
#
# Coordination Sequence:
#
# PCOD9032978 Si02
#       8
#     2   2   2   2   1   2   2   2
#     4  11  24  40  67  95 127 175 217 267 321 386
#     4  10  24  43  65  95 134 170 211 271 323 383
#     4  10  22  44  64  92 132 170 214 269 324 384
#     4  11  24  43  61  92 129 170 216 271 326 380
#     4  12  24  42  70  92 134 170 218 274 326 382
#     4  10  23  41  67  97 130 174 209 265 326 382
#     4  11  23  41  68  99 131 170 215 264 320 391
#     4  11  23  44  67  96 128 173 220 272 328 379
#
# _framework density 21.197471
#
# number of rings (size 3 to 8) (size 9 to 14) (size 15 to 20)
#    0.000    1.333    2.667    2.000    1.867    6.933 
#    0.000    0.000    0.000    0.000    0.000    0.000 
#    0.000    0.000    0.000    0.000    0.000    0.000 
#
# Total GULP energy -83617.808479 kJ/mol
# GULP energy per Si atom -5574.520565 kJ/mol
# Density = 2.114922 g / cm^3
# Si number density = 21.197471 Si / 1000 Ang^3
#
#
#
# Elastic Constant Matrix: (Units=GPa)
#
#
# Indices 1 2 3 4 5 6 
#
# 1 90.9413 25.1244 18.7694 12.3331 16.8327 8.3986
# 2 25.1244 65.8380 18.4985 -6.5062 8.2891 -7.5601
# 3 18.7694 18.4985 61.0420 -5.3259 15.0487 4.3741
# 4 12.3331 -6.5062 -5.3259 34.8466 -3.3938 -4.2611
# 5 16.8327 8.2891 15.0487 -3.3938 12.8296 -4.3815
# 6 8.3986 -7.5601 4.3741 -4.2611 -4.3815 24.0358
#
#
#
# Elastic Compliance Matrix: (Units=1/GPa)
#
#
# Indices 1 2 3 4 5 6 
#
# 1 0.027180 -0.011098 0.008283 -0.018900 -0.052574 -0.027430
# 2 -0.011098 0.022535 -0.008383 0.010868 0.018803 0.017846
# 3 0.008283 -0.008383 0.029328 -0.007369 -0.049010 -0.021109
# 4 -0.018900 0.010868 -0.007369 0.044347 0.047685 0.027918
# 5 -0.052574 0.018803 -0.049010 0.047685 0.233648 0.084249
# 6 -0.027430 0.017846 -0.021109 0.027918 0.084249 0.080950
#
#
# Mechanical properties :
#
#
# Convention : Reuss Voigt Hill
#
# Bulk Modulus (GPa) = 17.65294 38.06734 27.86014
# Shear Modulus (GPa) = 10.43262 24.70434 17.56848
#
# Velocity S-wave (km/s) = 2.22088 3.41756 2.88201
# Velocity P-wave (km/s) = 3.86295 5.79399 4.92406
#
# Compressibility (1/GPa) = 0.05664780
#
# Stress axis : x y z
#
# Youngs Moduli (GPa) = 36.79165 44.37542 34.09749
#
# Poissons Ratio (x) = 0.49247 -0.28244
# Poissons Ratio (y) = 0.40831 0.28583
# Poissons Ratio (z) = -0.30475 0.37199
#
# Static dielectric constant tensor:
#      x y z
#    x 1.744640 0.005640 -0.000170 
#    y 0.005640 1.788320 0.013530 
#    z -0.000170 0.013530 1.749630 
# 
# From -- ./inp_files/35602.got.cif
#   From: 2010.05.17/outbox.cif.g08.bks.cpg/sg2_18_cif.got.tgz:35602.got - 2010.06.03 11:33:40.
