data_PCOD9032531
_publ_section_title
;
Structure prediction by ZEFSAII (Michael W. Deem and Ramdas Pophale) SiO2 
 PCOD9032531
Probable space group: P -1
;
_chemical_formula_sum "Si O2"
_cell_formula_units_Z 15
_cell_length_a 10.958928
_cell_length_b 17.490379
_cell_length_c 9.185938
_cell_angle_alpha 131.451820
_cell_angle_beta 127.412708
_cell_angle_gamma 29.223925
_cell_volume 642.158227
_symmetry_space_group_name_H-M "P -1"
_symmetry_group_IT_number 2
_symmetry_cell_setting 'triclinic'
loop_
_space_group_symop_operation_xyz
x,y,z
-x,-y,-z
loop_
_atom_site_type_symbol
_atom_site_label
_atom_site_fract_x
_atom_site_fract_y
_atom_site_fract_z
Si Si1 0.886213 0.701381 0.641552
Si Si2 0.372872 0.985008 0.280602
Si Si3 0.893747 0.179154 0.349340
Si Si4 0.513117 0.235499 0.419736
Si Si5 0.426601 0.324766 0.025226
Si Si6 0.155961 0.552080 0.361491
Si Si7 0.000000 0.000000 0.500000
Si Si8 0.430335 0.419142 0.830157
O O1 0.768176 0.875007 0.766832
O O2 0.694365 0.727174 0.612799
O O3 0.938248 0.644362 0.437958
O O4 0.155982 0.558593 0.733356
O O5 0.160793 0.035463 0.279456
O O6 0.500000 0.000000 0.500000
O O7 0.559494 0.804415 0.123621
O O8 0.679642 0.235544 0.171553
O O9 0.823436 0.336730 0.494294
O O10 0.935415 0.111652 0.453864
O O11 0.386235 0.373480 0.383199
O O12 0.615025 0.259616 0.652561
O O13 0.768822 0.045898 0.330334
O O14 0.184569 0.494288 0.148317
O O15 0.425658 0.366283 0.913336
O O16 0.500000 0.500000 0.000000
#
# Coordination Sequence:
#
# PCOD9032531 Si02
#       8
#     2   2   2   2   2   2   1   2
#     4  10  23  47  72  94 138 187 229 279 349 415
#     4  11  24  45  68  98 141 190 225 278 358 414
#     4  11  24  43  69 102 138 185 225 289 342 420
#     4  11  23  46  69  98 136 186 224 280 348 414
#     4  12  23  42  69 106 137 175 239 285 343 410
#     4  10  22  43  72 100 138 174 230 291 345 398
#     4  12  24  38  74  98 138 178 236 272 348 408
#     4  11  23  39  69 103 135 178 228 282 342 416
#
# _framework density 23.358729
#
# number of rings (size 3 to 8) (size 9 to 14) (size 15 to 20)
#    0.000    1.067    1.333    7.200    1.867    2.133 
#    0.000   11.333    2.933    0.000    0.000    0.000 
#    0.000    0.000    0.000    0.000    0.000    0.000 
#
# Total GULP energy -83638.036972 kJ/mol
# GULP energy per Si atom -5575.869131 kJ/mol
# Density = 2.330556 g / cm^3
# Si number density = 23.358729 Si / 1000 Ang^3
#
#
#
# Elastic Constant Matrix: (Units=GPa)
#
#
# Indices 1 2 3 4 5 6 
#
# 1 119.2328 31.5408 29.7169 -13.2772 0.8232 19.9366
# 2 31.5408 88.1474 3.4026 -14.5286 4.8347 23.4676
# 3 29.7169 3.4026 63.7637 9.1089 2.1450 9.5865
# 4 -13.2772 -14.5286 9.1089 41.8227 3.0342 1.2116
# 5 0.8232 4.8347 2.1450 3.0342 37.7892 -13.1375
# 6 19.9366 23.4676 9.5865 1.2116 -13.1375 53.0496
#
#
#
# Elastic Compliance Matrix: (Units=1/GPa)
#
#
# Indices 1 2 3 4 5 6 
#
# 1 0.011209 -0.002449 -0.005264 0.003985 -0.000811 -0.002470
# 2 -0.002449 0.015193 0.000893 0.004870 -0.004862 -0.007277
# 3 -0.005264 0.000893 0.019222 -0.005385 -0.001392 -0.002112
# 4 0.003985 0.004870 -0.005385 0.028472 -0.004210 -0.004371
# 5 -0.000811 -0.004862 -0.001392 -0.004210 0.031178 0.010524
# 6 -0.002470 -0.007277 -0.002112 -0.004371 0.010524 0.026086
#
#
# Mechanical properties :
#
#
# Convention : Reuss Voigt Hill
#
# Bulk Modulus (GPa) = 31.26569 44.49606 37.88087
# Shear Modulus (GPa) = 32.12095 40.29787 36.20941
#
# Velocity S-wave (km/s) = 3.71228 4.15803 3.94146
# Velocity P-wave (km/s) = 5.63815 6.49173 6.07994
#
# Compressibility (1/GPa) = 0.03198395
#
# Stress axis : x y z
#
# Youngs Moduli (GPa) = 89.21462 65.81904 52.02324
#
# Poissons Ratio (x) = 0.16118 0.27384
# Poissons Ratio (y) = 0.21848 -0.04643
# Poissons Ratio (z) = 0.46961 -0.05875
#
# Static dielectric constant tensor:
#      x y z
#    x 1.852360 -0.000190 -0.002270 
#    y -0.000190 1.767950 -0.025940 
#    z -0.002270 -0.025940 1.894060 
# 
# From -- ./inp_files/279981.got.cif
#   From: 2010.05.17/outbox.cif.g08.bks.cpg/sg2_140_cif.got.tgz:279981.got - 2010.06.03 11:33:40.
