data_PCOD9032157
_publ_section_title
;
Structure prediction by ZEFSAII (Michael W. Deem and Ramdas Pophale) SiO2 
 PCOD9032157
Probable space group: P -1
;
_chemical_formula_sum "Si O2"
_cell_formula_units_Z 12
_cell_length_a 9.766998
_cell_length_b 8.710146
_cell_length_c 11.198366
_cell_angle_alpha 107.366540
_cell_angle_beta 130.669089
_cell_angle_gamma 49.291776
_cell_volume 534.315620
_symmetry_space_group_name_H-M "P -1"
_symmetry_group_IT_number 2
_symmetry_cell_setting 'triclinic'
loop_
_space_group_symop_operation_xyz
x,y,z
-x,-y,-z
loop_
_atom_site_type_symbol
_atom_site_label
_atom_site_fract_x
_atom_site_fract_y
_atom_site_fract_z
Si Si1 0.937058 0.869365 0.001002
Si Si2 0.423074 0.174887 0.345154
Si Si3 0.436220 0.444789 0.232948
Si Si4 0.850560 0.713610 0.546041
Si Si5 0.554596 0.141853 0.016296
Si Si6 0.340415 0.492474 0.812841
O O1 0.169605 0.642067 0.108944
O O2 0.813897 0.995854 0.081060
O O3 0.756292 0.846095 0.830183
O O4 0.000000 0.000000 0.000000
O O5 0.459929 0.327922 0.339320
O O6 0.301842 0.269475 0.427053
O O7 0.669251 0.941487 0.437865
O O8 0.512824 0.276947 0.136184
O O9 0.577218 0.520446 0.278862
O O10 0.000000 0.500000 0.500000
O O11 0.071586 0.684478 0.719927
O O12 0.393384 0.285794 0.846399
O O13 0.500000 0.000000 0.000000
O O14 0.500000 0.500000 0.000000
#
# Coordination Sequence:
#
# PCOD9032157 Si02
#       6
#     2   2   2   2   2   2
#     4  12  24  40  70 102 137 175 225 282 333 397
#     4  11  25  44  66  99 135 180 227 273 342 402
#     4  11  24  40  65 104 137 171 229 280 328 404
#     4  11  26  45  70  92 138 182 221 278 341 401
#     4  11  22  38  66 104 135 171 221 274 342 389
#     4  10  22  43  69  99 133 171 222 279 327 393
#
# _framework density 22.458635999999998
#
# number of rings (size 3 to 8) (size 9 to 14) (size 15 to 20)
#    0.000    1.000    3.333    3.500    4.667    0.667 
#    0.000    0.833    0.000    0.000    0.000    0.000 
#    0.000    0.000    0.000    0.000    0.000    0.000 
#
# Total GULP energy -66922.202887 kJ/mol
# GULP energy per Si atom -5576.850241 kJ/mol
# Density = 2.240752 g / cm^3
# Si number density = 22.458636 Si / 1000 Ang^3
#
#
#
# Elastic Constant Matrix: (Units=GPa)
#
#
# Indices 1 2 3 4 5 6 
#
# 1 172.2298 69.2162 42.3066 -41.8491 -23.7033 9.1489
# 2 69.2162 179.4389 72.7755 -75.1267 -16.5882 -25.1875
# 3 42.3066 72.7755 72.9072 -48.2921 3.6067 3.1604
# 4 -41.8491 -75.1267 -48.2921 120.6448 8.2663 -5.7869
# 5 -23.7033 -16.5882 3.6067 8.2663 36.0846 -14.3058
# 6 9.1489 -25.1875 3.1604 -5.7869 -14.3058 57.2180
#
#
#
# Elastic Compliance Matrix: (Units=1/GPa)
#
#
# Indices 1 2 3 4 5 6 
#
# 1 0.007854 -0.001073 -0.003510 0.000306 0.004829 -0.000296
# 2 -0.001073 0.015633 -0.013590 0.003673 0.011367 0.011017
# 3 -0.003510 -0.013590 0.033586 0.004417 -0.017348 -0.011167
# 4 0.000306 0.003673 0.004417 0.012600 -0.000453 0.002485
# 5 0.004829 0.011367 -0.017348 -0.000453 0.044387 0.016242
# 6 -0.000296 0.011017 -0.011167 0.002485 0.016242 0.027303
#
#
# Mechanical properties :
#
#
# Convention : Reuss Voigt Hill
#
# Bulk Modulus (GPa) = 48.24229 88.13026 68.18628
# Shear Modulus (GPa) = 27.08287 58.80799 42.94543
#
# Velocity S-wave (km/s) = 3.47637 5.12268 4.37762
# Velocity P-wave (km/s) = 6.13520 8.62064 7.48185
#
# Compressibility (1/GPa) = 0.02072870
#
# Stress axis : x y z
#
# Youngs Moduli (GPa) = 127.31719 63.96555 29.77456
#
# Poissons Ratio (x) = 0.06864 0.10450
# Poissons Ratio (y) = 0.13663 0.40462
# Poissons Ratio (z) = 0.44685 0.86926
#
# Static dielectric constant tensor:
#      x y z
#    x 1.912450 0.095810 0.031950 
#    y 0.095810 1.904260 0.077850 
#    z 0.031950 0.077850 1.926070 
# 
# From -- ./inp_files/374618.got.cif
#   From: 2010.05.17/outbox.cif.g08.bks.cpg/sg2_188_cif.got.tgz:374618.got - 2010.06.03 11:33:40.
