data_PCOD9032561
_publ_section_title
;
Structure prediction by ZEFSAII (Michael W. Deem and Ramdas Pophale) SiO2 
 PCOD9032561
Probable space group: P -1
;
_chemical_formula_sum "Si O2"
_cell_formula_units_Z 12
_cell_length_a 6.261616
_cell_length_b 9.504158
_cell_length_c 11.441702
_cell_angle_alpha 55.523644
_cell_angle_beta 89.817989
_cell_angle_gamma 76.156708
_cell_volume 537.519546
_symmetry_space_group_name_H-M "P -1"
_symmetry_group_IT_number 2
_symmetry_cell_setting 'triclinic'
loop_
_space_group_symop_operation_xyz
x,y,z
-x,-y,-z
loop_
_atom_site_type_symbol
_atom_site_label
_atom_site_fract_x
_atom_site_fract_y
_atom_site_fract_z
Si Si1 0.217024 0.092633 0.459986
Si Si2 0.231061 0.363337 0.525749
Si Si3 0.863543 0.703078 0.879065
Si Si4 0.543135 0.138630 0.030968
Si Si5 0.395303 0.660135 0.280598
Si Si6 0.993750 0.987170 0.147413
O O1 0.187614 0.205501 0.525342
O O2 0.169374 0.228942 0.285875
O O3 0.500000 0.000000 0.500000
O O4 0.000000 0.000000 0.500000
O O5 0.356176 0.470691 0.390249
O O6 0.388726 0.327140 0.656093
O O7 0.000000 0.500000 0.500000
O O8 0.633542 0.756223 0.925631
O O9 0.977100 0.836805 0.879462
O O10 0.000000 0.500000 0.000000
O O11 0.740776 0.006570 0.164477
O O12 0.594387 0.289003 0.878043
O O13 0.500000 0.000000 0.000000
O O14 0.185674 0.812983 0.262357
O O15 0.000000 0.000000 0.000000
#
# Coordination Sequence:
#
# PCOD9032561 Si02
#       6
#     2   2   2   2   2   2
#     4  12  33  55  80 114 169 215 260 325 416 480
#     4  11  28  46  80 106 152 206 270 321 380 487
#     4  12  29  47  74 117 154 199 254 333 398 459
#     4  11  24  41  78 105 143 196 252 316 383 468
#     4  10  24  44  77 114 142 192 276 319 383 452
#     4  10  22  43  72 102 145 190 249 305 381 459
#
# _framework density 22.324770000000001
#
# number of rings (size 3 to 8) (size 9 to 14) (size 15 to 20)
#    0.000    1.000    3.333    1.000   18.667    0.667 
#    0.000    0.000    0.000    0.000    0.000    0.000 
#    0.000    0.000    0.000    0.000    0.000    0.000 
#
# Total GULP energy -66833.477434 kJ/mol
# GULP energy per Si atom -5569.456453 kJ/mol
# Density = 2.227396 g / cm^3
# Si number density = 22.324770 Si / 1000 Ang^3
#
#
#
# Elastic Constant Matrix: (Units=GPa)
#
#
# Indices 1 2 3 4 5 6 
#
# 1 135.6292 47.3694 55.6124 -5.2724 24.8288 -16.8657
# 2 47.3694 113.6212 36.8926 6.1911 19.9054 -4.9232
# 3 55.6124 36.8926 160.2446 4.6754 5.6540 -3.8606
# 4 -5.2724 6.1911 4.6754 32.6827 -3.2200 -0.4420
# 5 24.8288 19.9054 5.6540 -3.2200 56.2628 -6.7182
# 6 -16.8657 -4.9232 -3.8606 -0.4420 -6.7182 53.7028
#
#
#
# Elastic Compliance Matrix: (Units=1/GPa)
#
#
# Indices 1 2 3 4 5 6 
#
# 1 0.010519 -0.002974 -0.002875 0.002423 -0.002865 0.002486
# 2 -0.002974 0.011077 -0.001356 -0.002652 -0.002666 -0.000371
# 3 -0.002875 -0.001356 0.007545 -0.001205 0.000875 -0.000385
# 4 0.002423 -0.002652 -0.001205 0.031865 0.001925 0.000934
# 5 -0.002865 -0.002666 0.000875 0.001925 0.020178 0.001459
# 6 0.002486 -0.000371 -0.000385 0.000934 0.001459 0.019530
#
#
# Mechanical properties :
#
#
# Convention : Reuss Voigt Hill
#
# Bulk Modulus (GPa) = 67.88499 76.58264 72.23382
# Shear Modulus (GPa) = 41.65485 46.50436 44.07960
#
# Velocity S-wave (km/s) = 4.32424 4.56903 4.44832
# Velocity P-wave (km/s) = 7.44352 7.88753 7.66874
#
# Compressibility (1/GPa) = 0.01473080
#
# Stress axis : x y z
#
# Youngs Moduli (GPa) = 95.07024 90.27966 132.52988
#
# Poissons Ratio (x) = 0.26849 0.38108
# Poissons Ratio (y) = 0.28273 0.17965
# Poissons Ratio (z) = 0.27337 0.12238
#
# Static dielectric constant tensor:
#      x y z
#    x 1.964750 -0.036130 0.001630 
#    y -0.036130 1.670970 0.004030 
#    z 0.001630 0.004030 1.890130 
# 
# From -- ./inp_files/359753.got.cif
#   From: 2010.05.17/outbox.cif.g08.bks.cpg/sg2_180_cif.got.tgz:359753.got - 2010.06.03 11:33:40.
