data_PCOD9032524
_publ_section_title
;
Structure prediction by ZEFSAII (Michael W. Deem and Ramdas Pophale) SiO2 
 PCOD9032524
Probable space group: P -1
;
_chemical_formula_sum "Si O2"
_cell_formula_units_Z 14
_cell_length_a 9.694401
_cell_length_b 8.971894
_cell_length_c 10.701056
_cell_angle_alpha 110.821488
_cell_angle_beta 75.189160
_cell_angle_gamma 135.257858
_cell_volume 612.374557
_symmetry_space_group_name_H-M "P -1"
_symmetry_group_IT_number 2
_symmetry_cell_setting 'triclinic'
loop_
_space_group_symop_operation_xyz
x,y,z
-x,-y,-z
loop_
_atom_site_type_symbol
_atom_site_label
_atom_site_fract_x
_atom_site_fract_y
_atom_site_fract_z
Si Si1 0.912134 0.977635 0.874588
Si Si2 0.534422 0.876311 0.864839
Si Si3 0.092815 0.529728 0.621759
Si Si4 0.702145 0.279460 0.792565
Si Si5 0.985090 0.856143 0.566648
Si Si6 0.155991 0.477340 0.927944
Si Si7 0.369429 0.001276 0.623746
O O1 0.691242 0.878454 0.893185
O O2 0.917168 0.853983 0.722233
O O3 0.045546 0.227422 0.869974
O O4 0.000000 0.000000 0.000000
O O5 0.636675 0.048835 0.778166
O O6 0.317552 0.633475 0.829864
O O7 0.500000 0.000000 0.000000
O O8 0.253817 0.789826 0.677180
O O9 0.000000 0.500000 0.500000
O O10 0.915013 0.419052 0.724996
O O11 0.140612 0.382211 0.539517
O O12 0.719518 0.414759 0.942404
O O13 0.531660 0.219416 0.727968
O O14 0.207434 0.970597 0.575889
O O15 0.000000 0.000000 0.500000
O O16 0.000000 0.500000 0.000000
O O17 0.500000 0.000000 0.500000
#
# Coordination Sequence:
#
# PCOD9032524 Si02
#       7
#     2   2   2   2   2   2   2
#     4  12  28  45  69 110 153 183 230 310 368 412
#     4  10  23  44  70  98 134 188 245 280 345 434
#     4  10  22  43  71  99 133 186 237 289 347 422
#     4  11  22  40  76 103 132 174 265 285 337 415
#     4  11  26  47  70 103 152 182 230 303 367 413
#     4  11  25  44  74 101 139 195 242 288 353 439
#     4  11  24  43  75 102 134 190 248 287 341 439
#
# _framework density 22.861827000000002
#
# number of rings (size 3 to 8) (size 9 to 14) (size 15 to 20)
#    0.000    1.143    5.714    0.857   10.000    0.571 
#    2.571    0.714    0.000    0.000    0.000    0.000 
#    0.000    0.000    0.000    0.000    0.000    0.000 
#
# Total GULP energy -78092.015575 kJ/mol
# GULP energy per Si atom -5578.001112 kJ/mol
# Density = 2.280979 g / cm^3
# Si number density = 22.861827 Si / 1000 Ang^3
#
#
#
# Elastic Constant Matrix: (Units=GPa)
#
#
# Indices 1 2 3 4 5 6 
#
# 1 137.2986 22.4529 27.2018 -13.2252 1.3671 17.5276
# 2 22.4529 116.3520 6.0462 -22.9098 -8.2880 15.0697
# 3 27.2018 6.0462 97.2376 -9.4321 -1.9520 6.1341
# 4 -13.2252 -22.9098 -9.4321 49.7732 3.8142 -0.5339
# 5 1.3671 -8.2880 -1.9520 3.8142 35.0905 -3.2637
# 6 17.5276 15.0697 6.1341 -0.5339 -3.2637 41.9727
#
#
#
# Elastic Compliance Matrix: (Units=1/GPa)
#
#
# Indices 1 2 3 4 5 6 
#
# 1 0.008352 -0.000916 -0.001973 0.001475 -0.001085 -0.002936
# 2 -0.000916 0.010128 0.000274 0.004308 0.001686 -0.003108
# 3 -0.001973 0.000274 0.011041 0.001647 0.000500 -0.000828
# 4 0.001475 0.004308 0.001647 0.022880 -0.001644 -0.002240
# 5 -0.001085 0.001686 0.000500 -0.001644 0.029334 0.002035
# 6 -0.002936 -0.003108 -0.000828 -0.002240 0.002035 0.026418
#
#
# Mechanical properties :
#
#
# Convention : Reuss Voigt Hill
#
# Bulk Modulus (GPa) = 41.16574 51.36553 46.26564
# Shear Modulus (GPa) = 41.15955 45.04642 43.10299
#
# Velocity S-wave (km/s) = 4.24767 4.44371 4.34679
# Velocity P-wave (km/s) = 6.48863 6.98894 6.74343
#
# Compressibility (1/GPa) = 0.02429205
#
# Stress axis : x y z
#
# Youngs Moduli (GPa) = 119.73527 98.73701 90.57149
#
# Poissons Ratio (x) = 0.09041 0.17869
# Poissons Ratio (y) = 0.10963 -0.02483
# Poissons Ratio (z) = 0.23622 -0.02707
#
# Static dielectric constant tensor:
#      x y z
#    x 1.867400 -0.018610 0.034150 
#    y -0.018610 1.972920 -0.006100 
#    z 0.034150 -0.006100 1.930420 
# 
# From -- ./inp_files/382595.got.cif
#   From: 2010.05.17/outbox.cif.g08.bks.cpg/sg2_192_cif.got.tgz:382595.got - 2010.06.03 11:33:40.
