data_PCOD9032675
_publ_section_title
;
Structure prediction by ZEFSAII (Michael W. Deem and Ramdas Pophale) SiO2 
 PCOD9032675
Probable space group: P -1
;
_chemical_formula_sum "Si O2"
_cell_formula_units_Z 16
_cell_length_a 11.398474
_cell_length_b 17.375869
_cell_length_c 10.347549
_cell_angle_alpha 149.313392
_cell_angle_beta 131.643757
_cell_angle_gamma 42.725282
_cell_volume 706.448258
_symmetry_space_group_name_H-M "P -1"
_symmetry_group_IT_number 2
_symmetry_cell_setting 'triclinic'
loop_
_space_group_symop_operation_xyz
x,y,z
-x,-y,-z
loop_
_atom_site_type_symbol
_atom_site_label
_atom_site_fract_x
_atom_site_fract_y
_atom_site_fract_z
Si Si1 0.638914 0.019433 0.040088
Si Si2 0.523653 0.318857 0.225700
Si Si3 0.954204 0.482759 0.288932
Si Si4 0.323412 0.669307 0.125596
Si Si5 0.826185 0.981230 0.360550
Si Si6 0.805760 0.145971 0.965657
Si Si7 0.853604 0.645593 0.011461
Si Si8 0.827477 0.855056 0.695846
O O1 0.577653 0.211494 0.240731
O O2 0.802159 0.935270 0.129529
O O3 0.500000 0.000000 0.000000
O O4 0.675118 0.938350 0.808910
O O5 0.500000 0.500000 0.500000
O O6 0.686132 0.236341 0.130059
O O7 0.340531 0.327258 0.054028
O O8 0.849897 0.670453 0.432119
O O9 0.000000 0.500000 0.500000
O O10 0.832612 0.386145 0.041596
O O11 0.110257 0.414522 0.199986
O O12 0.313574 0.827685 0.432864
O O13 0.500000 0.500000 0.000000
O O14 0.283502 0.751968 0.075978
O O15 0.845159 0.832627 0.258104
O O16 0.000000 0.000000 0.500000
O O17 0.996610 0.140472 0.110682
O O18 0.806357 0.963888 0.709993
O O19 0.000000 0.500000 0.000000
#
# Coordination Sequence:
#
# PCOD9032675 Si02
#       8
#     2   2   2   2   2   2   2   2
#     4  11  24  44  74 105 136 193 250 300 366 430
#     4  11  26  42  72 103 143 185 242 304 358 442
#     4  12  25  46  74 105 138 189 248 299 354 440
#     4  12  29  43  71 105 144 190 240 301 369 428
#     4  12  26  49  72 102 152 193 241 303 369 448
#     4  10  23  44  66 102 135 186 235 288 370 425
#     4  12  29  48  73 112 150 193 240 305 386 438
#     4  10  22  43  73 102 137 179 244 303 353 431
#
# _framework density 22.648508
#
# number of rings (size 3 to 8) (size 9 to 14) (size 15 to 20)
#    0.000    0.750    3.750    2.250    8.750    0.000 
#    0.000    1.250    0.000    0.000    0.000    0.000 
#    0.000    0.000    0.000    0.000    0.000    0.000 
#
# Total GULP energy -89251.446528 kJ/mol
# GULP energy per Si atom -5578.215408 kJ/mol
# Density = 2.259696 g / cm^3
# Si number density = 22.648508 Si / 1000 Ang^3
#
#
#
# Elastic Constant Matrix: (Units=GPa)
#
#
# Indices 1 2 3 4 5 6 
#
# 1 110.7457 18.5632 26.7846 9.2933 9.5344 6.5138
# 2 18.5632 105.0121 13.6108 29.8488 13.8062 20.9114
# 3 26.7846 13.6108 96.3855 41.7146 16.0447 19.2130
# 4 9.2933 29.8488 41.7146 46.9197 6.2121 8.8462
# 5 9.5344 13.8062 16.0447 6.2121 42.1126 6.0211
# 6 6.5138 20.9114 19.2130 8.8462 6.0211 45.6102
#
#
#
# Elastic Compliance Matrix: (Units=1/GPa)
#
#
# Indices 1 2 3 4 5 6 
#
# 1 0.010055 -0.002049 -0.003584 0.002472 -0.000693 0.000625
# 2 -0.002049 0.014191 0.005485 -0.011930 -0.003700 -0.005722
# 3 -0.003584 0.005485 0.021349 -0.019846 -0.005271 -0.006451
# 4 0.002472 -0.011930 -0.019846 0.044755 0.003695 0.004308
# 5 -0.000693 -0.003700 -0.005271 0.003695 0.026610 -0.000214
# 6 0.000625 -0.005722 -0.006451 0.004308 -0.000214 0.026369
#
#
# Mechanical properties :
#
#
# Convention : Reuss Voigt Hill
#
# Bulk Modulus (GPa) = 22.07567 47.78453 34.93010
# Shear Modulus (GPa) = 31.50103 43.80749 37.65426
#
# Velocity S-wave (km/s) = 3.73348 4.40276 4.08186
# Velocity P-wave (km/s) = 5.32479 6.85492 6.13772
#
# Compressibility (1/GPa) = 0.04529874
#
# Stress axis : x y z
#
# Youngs Moduli (GPa) = 99.44838 70.46811 46.84104
#
# Poissons Ratio (x) = 0.14439 0.16789
# Poissons Ratio (y) = 0.20378 -0.25693
# Poissons Ratio (z) = 0.35644 -0.38652
#
# Static dielectric constant tensor:
#      x y z
#    x 1.961790 -0.080900 -0.191210 
#    y -0.080900 1.934650 0.056480 
#    z -0.191210 0.056480 2.131920 
# 
# From -- ./inp_files/437150.got.cif
#   From: 2010.05.17/outbox.cif.g08.bks.cpg/sg2_219_cif.got.tgz:437150.got - 2010.06.03 11:33:40.
