data_PCOD9032424
_publ_section_title
;
Structure prediction by ZEFSAII (Michael W. Deem and Ramdas Pophale) SiO2 
 PCOD9032424
Probable space group: P -1
;
_chemical_formula_sum "Si O2"
_cell_formula_units_Z 16
_cell_length_a 23.728989
_cell_length_b 8.643636
_cell_length_c 13.561445
_cell_angle_alpha 42.407611
_cell_angle_beta 156.673621
_cell_angle_gamma 144.177018
_cell_volume 644.396298
_symmetry_space_group_name_H-M "P -1"
_symmetry_group_IT_number 2
_symmetry_cell_setting 'triclinic'
loop_
_space_group_symop_operation_xyz
x,y,z
-x,-y,-z
loop_
_atom_site_type_symbol
_atom_site_label
_atom_site_fract_x
_atom_site_fract_y
_atom_site_fract_z
Si Si1 0.342164 0.141182 0.632015
Si Si2 0.113617 0.066818 0.002370
Si Si3 0.753840 0.569876 0.313560
Si Si4 0.653251 0.970784 0.894704
Si Si5 0.435947 0.978974 0.061084
Si Si6 0.968396 0.311695 0.768206
Si Si7 0.706364 0.160127 0.687482
Si Si8 0.166685 0.299563 0.405025
O O1 0.300384 0.353050 0.509295
O O2 0.494094 0.210751 0.772628
O O3 0.186820 0.928480 0.423190
O O4 0.353738 0.005409 0.816368
O O5 0.994698 0.960671 0.766019
O O6 0.033792 0.824437 0.067461
O O7 0.279136 0.076981 0.228436
O O8 0.115433 0.317752 0.937171
O O9 0.596567 0.273703 0.197198
O O10 0.915803 0.538423 0.574611
O O11 0.771122 0.703917 0.384731
O O12 0.709775 0.750451 0.089032
O O13 0.661822 0.080558 0.966518
O O14 0.466290 0.868701 0.607809
O O15 0.745678 0.170856 0.860965
O O16 0.842055 0.435264 0.730901
#
# Coordination Sequence:
#
# PCOD9032424 Si02
#       8
#     2   2   2   2   2   2   2   2
#     4   9  18  29  54  84 110 139 189 232 276 315
#     4  10  20  37  59  85 114 147 189 232 276 334
#     4  11  19  34  60  90 107 145 196 233 273 327
#     4  11  22  35  56  84 122 145 181 233 287 335
#     4  10  17  32  54  83 114 144 180 233 275 331
#     4   9  19  34  58  85 110 142 193 239 273 318
#     4  11  22  36  54  86 118 152 177 230 291 334
#     4  11  19  34  61  85 108 146 197 231 269 331
#
# _framework density 24.829440000000002
#
# number of rings (size 3 to 8) (size 9 to 14) (size 15 to 20)
#    0.000    1.750    3.750    2.250    0.000    0.000 
#    0.000    1.875    0.000   13.500    0.000    0.000 
#    0.000    0.000    0.000    0.000    0.000    0.000 
#
# Total GULP energy -89228.780491 kJ/mol
# GULP energy per Si atom -5576.798781 kJ/mol
# Density = 2.477293 g / cm^3
# Si number density = 24.829440 Si / 1000 Ang^3
#
#
#
# Elastic Constant Matrix: (Units=GPa)
#
#
# Indices 1 2 3 4 5 6 
#
# 1 108.8402 15.0862 37.3160 -26.7118 1.2983 -29.2995
# 2 15.0862 51.5143 25.0529 -13.6272 3.3065 -16.3833
# 3 37.3160 25.0529 126.1048 -24.2425 1.5614 -5.7404
# 4 -26.7118 -13.6272 -24.2425 33.7090 -17.5294 3.1443
# 5 1.2983 3.3065 1.5614 -17.5294 51.7994 -5.4907
# 6 -29.2995 -16.3833 -5.7404 3.1443 -5.4907 34.7207
#
#
#
# Elastic Compliance Matrix: (Units=1/GPa)
#
#
# Indices 1 2 3 4 5 6 
#
# 1 0.017629 0.005113 -0.002467 0.016109 0.006501 0.016451
# 2 0.005113 0.028337 -0.003841 0.013552 0.004518 0.016538
# 3 -0.002467 -0.003841 0.010213 0.004768 0.001356 -0.002423
# 4 0.016109 0.013552 0.004768 0.060548 0.021051 0.018622
# 5 0.006501 0.004518 0.001356 0.021051 0.027019 0.010209
# 6 0.016451 0.016538 -0.002423 0.018622 0.010209 0.050015
#
#
# Mechanical properties :
#
#
# Convention : Reuss Voigt Hill
#
# Bulk Modulus (GPa) = 18.59108 49.04106 33.81607
# Shear Modulus (GPa) = 23.35570 37.97941 30.66755
#
# Velocity S-wave (km/s) = 3.07032 3.91527 3.51825
# Velocity P-wave (km/s) = 4.48028 6.34296 5.49118
#
# Compressibility (1/GPa) = 0.05378922
#
# Stress axis : x y z
#
# Youngs Moduli (GPa) = 56.72319 35.28938 97.91910
#
# Poissons Ratio (x) = -0.18044 0.24161
# Poissons Ratio (y) = -0.29003 0.37606
# Poissons Ratio (z) = 0.13996 0.13553
#
# Static dielectric constant tensor:
#      x y z
#    x 2.050070 -0.023620 0.135280 
#    y -0.023620 1.917930 -0.016220 
#    z 0.135280 -0.016220 2.072360 
# 
# From -- ./inp_files/238224.got.cif
#   From: 2010.05.17/outbox.cif.g08.bks.cpg/sg2_120_cif.got.tgz:238224.got - 2010.06.03 11:33:40.
