data_PCOD9032047
_publ_section_title
;
Structure prediction by ZEFSAII (Michael W. Deem and Ramdas Pophale) SiO2 
 PCOD9032047
Probable space group: P -1
;
_chemical_formula_sum "Si O2"
_cell_formula_units_Z 16
_cell_length_a 8.721396
_cell_length_b 7.449456
_cell_length_c 16.127847
_cell_angle_alpha 70.595738
_cell_angle_beta 125.900419
_cell_angle_gamma 131.089841
_cell_volume 637.274017
_symmetry_space_group_name_H-M "P -1"
_symmetry_group_IT_number 2
_symmetry_cell_setting 'triclinic'
loop_
_space_group_symop_operation_xyz
x,y,z
-x,-y,-z
loop_
_atom_site_type_symbol
_atom_site_label
_atom_site_fract_x
_atom_site_fract_y
_atom_site_fract_z
Si Si1 0.742136 0.013217 0.105840
Si Si2 0.555842 0.719252 0.918543
Si Si3 0.384596 0.834636 0.170139
Si Si4 0.070762 0.768312 0.480144
Si Si5 0.632990 0.466951 0.477127
Si Si6 0.178275 0.055701 0.303211
Si Si7 0.175585 0.486111 0.954080
Si Si8 0.600823 0.159563 0.650211
O O1 0.753053 0.246669 0.056737
O O2 0.996434 0.097549 0.204735
O O3 0.677797 0.868297 0.021259
O O4 0.557347 0.866447 0.146826
O O5 0.699867 0.623482 0.945379
O O6 0.286224 0.509424 0.893950
O O7 0.538216 0.898378 0.832211
O O8 0.404226 0.739446 0.278675
O O9 0.102070 0.677815 0.088684
O O10 0.000000 0.500000 0.500000
O O11 0.857690 0.715474 0.477193
O O12 0.074043 0.890153 0.377841
O O13 0.331981 0.945275 0.573815
O O14 0.500000 0.500000 0.500000
O O15 0.437090 0.293130 0.374000
O O16 0.703467 0.327023 0.576192
O O17 0.231632 0.921404 0.276134
#
# Coordination Sequence:
#
# PCOD9032047 Si02
#       8
#     2   2   2   2   2   2   2   2
#     4  11  26  43  66 100 139 169 224 279 323 396
#     4  10  23  47  68  96 134 174 219 278 326 397
#     4  11  24  41  68 101 131 169 225 273 327 396
#     4  11  21  45  68  92 129 177 217 267 335 391
#     4  11  25  40  69  94 132 173 215 269 331 389
#     4  11  24  43  63 100 132 171 224 270 323 397
#     4  10  22  43  69  91 129 174 218 262 343 384
#     4  11  24  42  66  98 132 171 225 274 318 398
#
# _framework density 25.106942
#
# number of rings (size 3 to 8) (size 9 to 14) (size 15 to 20)
#    0.000    1.250    2.500    3.375    5.250    4.000 
#    6.750    0.000    0.000    0.000    0.000    0.000 
#    0.000    0.000    0.000    0.000    0.000    0.000 
#
# Total GULP energy -89334.712248 kJ/mol
# GULP energy per Si atom -5583.419515 kJ/mol
# Density = 2.504980 g / cm^3
# Si number density = 25.106942 Si / 1000 Ang^3
#
#
#
# Elastic Constant Matrix: (Units=GPa)
#
#
# Indices 1 2 3 4 5 6 
#
# 1 117.5133 31.4299 37.9591 -3.1201 7.7152 14.0161
# 2 31.4299 94.2568 -1.1311 -10.0941 -0.7542 11.8898
# 3 37.9591 -1.1311 98.5762 -11.6609 2.7990 0.0553
# 4 -3.1201 -10.0941 -11.6609 10.1294 0.0013 5.3715
# 5 7.7152 -0.7542 2.7990 0.0013 33.7728 -15.2143
# 6 14.0161 11.8898 0.0553 5.3715 -15.2143 59.7270
#
#
#
# Elastic Compliance Matrix: (Units=1/GPa)
#
#
# Indices 1 2 3 4 5 6 
#
# 1 0.011626 -0.004243 -0.005052 -0.005265 -0.003349 -0.002259
# 2 -0.004243 0.014758 0.004244 0.020406 -0.000855 -0.003999
# 3 -0.005052 0.004244 0.014565 0.020333 -0.000718 -0.001684
# 4 -0.005265 0.020406 0.020333 0.150671 -0.008381 -0.018531
# 5 -0.003349 -0.000855 -0.000718 -0.008381 0.035229 0.010684
# 6 -0.002259 -0.003999 -0.001684 -0.018531 0.010684 0.022459
#
#
# Mechanical properties :
#
#
# Convention : Reuss Voigt Hill
#
# Bulk Modulus (GPa) = 32.41883 49.65135 41.03509
# Shear Modulus (GPa) = 18.53965 36.86506 27.70236
#
# Velocity S-wave (km/s) = 2.72035 3.83603 3.32531
# Velocity P-wave (km/s) = 4.77571 6.28005 5.57882
#
# Compressibility (1/GPa) = 0.03084627
#
# Stress axis : x y z
#
# Youngs Moduli (GPa) = 86.01525 67.76017 68.65726
#
# Poissons Ratio (x) = 0.28750 0.34685
# Poissons Ratio (y) = 0.36496 -0.29135
# Poissons Ratio (z) = 0.43454 -0.28755
#
# Static dielectric constant tensor:
#      x y z
#    x 2.184620 -0.087360 0.108690 
#    y -0.087360 2.144210 -0.078320 
#    z 0.108690 -0.078320 2.080640 
# 
# From -- ./inp_files/556161.got.cif
#   From: 2010.05.17/outbox.cif.g08.bks.cpg/sg2_279_cif.got.tgz:556161.got - 2010.06.03 11:33:40.
