data_PCOD9032318
_publ_section_title
;
Structure prediction by ZEFSAII (Michael W. Deem and Ramdas Pophale) SiO2 
 PCOD9032318
Probable space group: P -1
;
_chemical_formula_sum "Si O2"
_cell_formula_units_Z 14
_cell_length_a 8.973374
_cell_length_b 7.499781
_cell_length_c 17.338228
_cell_angle_alpha 98.148181
_cell_angle_beta 31.500130
_cell_angle_gamma 100.044082
_cell_volume 600.272304
_symmetry_space_group_name_H-M "P -1"
_symmetry_group_IT_number 2
_symmetry_cell_setting 'triclinic'
loop_
_space_group_symop_operation_xyz
x,y,z
-x,-y,-z
loop_
_atom_site_type_symbol
_atom_site_label
_atom_site_fract_x
_atom_site_fract_y
_atom_site_fract_z
Si Si1 0.665029 0.020504 0.662143
Si Si2 0.878939 0.378968 0.349529
Si Si3 0.254993 0.901622 0.972788
Si Si4 0.787188 0.034427 0.271990
Si Si5 0.519778 0.422438 0.071563
Si Si6 0.324880 0.397894 0.683434
Si Si7 0.702432 0.664110 0.143753
O O1 0.575456 0.225719 0.716703
O O2 0.522703 0.947338 0.801096
O O3 0.468088 0.935075 0.673111
O O4 0.000000 0.000000 0.500000
O O5 0.790667 0.173652 0.348378
O O6 0.648485 0.438654 0.514122
O O7 0.862239 0.502918 0.288230
O O8 0.194819 0.394411 0.243453
O O9 0.346817 0.765922 0.989362
O O10 0.989334 0.802413 0.034467
O O11 0.098871 0.058162 0.093551
O O12 0.745197 0.821367 0.300093
O O13 0.686680 0.558703 0.065656
O O14 0.500000 0.500000 0.000000
O O15 0.295992 0.457897 0.787882
#
# Coordination Sequence:
#
# PCOD9032318 Si02
#       7
#     2   2   2   2   2   2   2
#     4  10  23  41  70 102 127 174 232 276 330 407
#     4  11  24  41  70 100 140 176 225 278 343 396
#     4  10  23  44  68  95 132 180 221 275 342 397
#     4  10  22  43  70  96 139 179 222 272 347 400
#     4  12  27  40  66 101 132 172 234 280 330 400
#     4   9  22  45  67 100 134 184 222 274 344 405
#     4  10  23  46  69  91 138 175 224 275 339 397
#
# _framework density 23.322751
#
# number of rings (size 3 to 8) (size 9 to 14) (size 15 to 20)
#    0.000    2.000    0.000    4.286   10.000    3.429 
#    2.571    0.000    0.000    0.000    0.000    0.000 
#    0.000    0.000    0.000    0.000    0.000    0.000 
#
# Total GULP energy -78283.489030 kJ/mol
# GULP energy per Si atom -5591.677788 kJ/mol
# Density = 2.326967 g / cm^3
# Si number density = 23.322751 Si / 1000 Ang^3
#
#
#
# Elastic Constant Matrix: (Units=GPa)
#
#
# Indices 1 2 3 4 5 6 
#
# 1 86.8817 30.2618 47.2677 2.8362 2.7917 -13.5078
# 2 30.2618 46.5161 11.4571 2.8118 -7.6466 -19.3161
# 3 47.2677 11.4571 172.2958 18.0047 -28.9993 -16.6545
# 4 2.8362 2.8118 18.0047 29.2305 -12.8191 2.1646
# 5 2.7917 -7.6466 -28.9993 -12.8191 40.5438 10.8599
# 6 -13.5078 -19.3161 -16.6545 2.1646 10.8599 32.3682
#
#
#
# Elastic Compliance Matrix: (Units=1/GPa)
#
#
# Indices 1 2 3 4 5 6 
#
# 1 0.019204 -0.012115 -0.005681 -0.000793 -0.008090 0.000629
# 2 -0.012115 0.036723 0.003750 -0.004005 0.004474 0.017556
# 3 -0.005681 0.003750 0.008612 -0.002816 0.005676 0.002582
# 4 -0.000793 -0.004005 -0.002816 0.043522 0.014220 -0.011852
# 5 -0.008090 0.004474 0.005676 0.014220 0.037668 -0.011375
# 6 0.000629 0.017556 0.002582 -0.011852 -0.011375 0.047571
#
#
# Mechanical properties :
#
#
# Convention : Reuss Voigt Hill
#
# Bulk Modulus (GPa) = 27.43595 53.74075 40.58835
# Shear Modulus (GPa) = 21.40949 34.87564 28.14256
#
# Velocity S-wave (km/s) = 3.03308 3.87117 3.47747
# Velocity P-wave (km/s) = 4.90462 6.56304 5.79348
#
# Compressibility (1/GPa) = 0.03644853
#
# Stress axis : x y z
#
# Youngs Moduli (GPa) = 52.07297 27.23054 116.11232
#
# Poissons Ratio (x) = 0.32990 0.65960
# Poissons Ratio (y) = 0.63086 -0.43544
# Poissons Ratio (z) = 0.29581 -0.10212
#
# Static dielectric constant tensor:
#      x y z
#    x 1.845110 -0.028160 0.022820 
#    y -0.028160 1.929160 -0.030810 
#    z 0.022820 -0.030810 1.912770 
# 
# From -- ./inp_files/556194.got.cif
#   From: 2010.05.17/outbox.cif.g08.bks.cpg/sg2_279_cif.got.tgz:556194.got - 2010.06.03 11:33:40.
