data_PCOD9032212
_publ_section_title
;
Structure prediction by ZEFSAII (Michael W. Deem and Ramdas Pophale) SiO2 
 PCOD9032212
Probable space group: P -1
;
_chemical_formula_sum "Si O2"
_cell_formula_units_Z 12
_cell_length_a 7.010184
_cell_length_b 9.000483
_cell_length_c 10.295258
_cell_angle_alpha 102.223006
_cell_angle_beta 93.797791
_cell_angle_gamma 124.923989
_cell_volume 506.084124
_symmetry_space_group_name_H-M "P -1"
_symmetry_group_IT_number 2
_symmetry_cell_setting 'triclinic'
loop_
_space_group_symop_operation_xyz
x,y,z
-x,-y,-z
loop_
_atom_site_type_symbol
_atom_site_label
_atom_site_fract_x
_atom_site_fract_y
_atom_site_fract_z
Si Si1 0.373856 0.583780 0.941349
Si Si2 0.610630 0.996008 0.655657
Si Si3 0.143964 0.195174 0.126790
Si Si4 0.879465 0.261006 0.925995
Si Si5 0.731717 0.719722 0.558863
Si Si6 0.125590 0.714307 0.492026
O O1 0.572361 0.701705 0.863296
O O2 0.098862 0.411670 0.868132
O O3 0.500000 0.500000 0.000000
O O4 0.321799 0.708700 0.048198
O O5 0.744049 0.062877 0.810489
O O6 0.714457 0.188027 0.613412
O O7 0.665905 0.863001 0.563302
O O8 0.326319 0.861938 0.632199
O O9 0.135832 0.219512 0.283987
O O10 0.025054 0.286022 0.067036
O O11 0.000000 0.000000 0.000000
O O12 0.500000 0.500000 0.500000
O O13 0.917674 0.737796 0.470989
O O14 0.000000 0.500000 0.500000
#
# Coordination Sequence:
#
# PCOD9032212 Si02
#       6
#     2   2   2   2   2   2
#     4   9  22  41  63 102 137 179 231 293 355 423
#     4  11  25  46  73 104 140 189 243 293 362 425
#     4  11  24  42  68 103 138 181 239 288 360 429
#     4  10  22  43  70 101 137 186 231 301 358 418
#     4  12  26  47  71 103 146 191 236 299 360 425
#     4  11  26  46  69 105 140 188 243 297 352 433
#
# _framework density 23.711471
#
# number of rings (size 3 to 8) (size 9 to 14) (size 15 to 20)
#    0.000    1.333    3.333    0.500    4.667    6.000 
#    0.000    0.000    0.000    0.000    0.000    0.000 
#    0.000    0.000    0.000    0.000    0.000    0.000 
#
# Total GULP energy -66825.698489 kJ/mol
# GULP energy per Si atom -5568.808207 kJ/mol
# Density = 2.365750 g / cm^3
# Si number density = 23.711471 Si / 1000 Ang^3
#
#
#
# Elastic Constant Matrix: (Units=GPa)
#
#
# Indices 1 2 3 4 5 6 
#
# 1 151.0872 21.0737 5.1719 -8.8018 -5.1515 -0.2732
# 2 21.0737 107.6564 22.1623 -6.6182 3.8017 -1.6926
# 3 5.1719 22.1623 87.1245 4.7882 19.2704 -2.2853
# 4 -8.8018 -6.6182 4.7882 25.5116 1.6589 -1.7027
# 5 -5.1515 3.8017 19.2704 1.6589 29.9391 1.8792
# 6 -0.2732 -1.6926 -2.2853 -1.7027 1.8792 41.6346
#
#
#
# Elastic Compliance Matrix: (Units=1/GPa)
#
#
# Indices 1 2 3 4 5 6 
#
# 1 0.006980 -0.001173 -0.000589 0.002108 0.001614 -0.000021
# 2 -0.001173 0.010247 -0.002692 0.002780 0.000052 0.000373
# 3 -0.000589 -0.002692 0.014352 -0.002953 -0.008894 0.000955
# 4 0.002108 0.002780 -0.002953 0.041344 -0.000486 0.001677
# 5 0.001614 0.000052 -0.008894 -0.000486 0.039567 -0.002281
# 6 -0.000021 0.000373 0.000955 0.001677 -0.002281 0.024257
#
#
# Mechanical properties :
#
#
# Convention : Reuss Voigt Hill
#
# Bulk Modulus (GPa) = 44.10709 49.18710 46.64709
# Shear Modulus (GPa) = 32.63428 39.24774 35.94101
#
# Velocity S-wave (km/s) = 3.71389 4.07286 3.89751
# Velocity P-wave (km/s) = 6.08544 6.55031 6.32215
#
# Compressibility (1/GPa) = 0.02267209
#
# Stress axis : x y z
#
# Youngs Moduli (GPa) = 143.26112 97.58548 69.67687
#
# Poissons Ratio (x) = 0.11444 0.04107
# Poissons Ratio (y) = 0.16801 0.18754
# Poissons Ratio (z) = 0.08444 0.26266
#
# Static dielectric constant tensor:
#      x y z
#    x 1.948200 -0.041190 -0.029460 
#    y -0.041190 2.034690 -0.051200 
#    z -0.029460 -0.051200 1.985440 
# 
# From -- ./inp_files/360889.got.cif
#   From: 2010.05.17/outbox.cif.g08.bks.cpg/sg2_181_cif.got.tgz:360889.got - 2010.06.03 11:33:40.
