data_PCOD9032878
_publ_section_title
;
Structure prediction by ZEFSAII (Michael W. Deem and Ramdas Pophale) SiO2 
 PCOD9032878
Probable space group: P -1
;
_chemical_formula_sum "Si O2"
_cell_formula_units_Z 13
_cell_length_a 8.123086
_cell_length_b 18.930442
_cell_length_c 6.715012
_cell_angle_alpha 139.407281
_cell_angle_beta 107.400780
_cell_angle_gamma 69.309469
_cell_volume 627.746494
_symmetry_space_group_name_H-M "P -1"
_symmetry_group_IT_number 2
_symmetry_cell_setting 'triclinic'
loop_
_space_group_symop_operation_xyz
x,y,z
-x,-y,-z
loop_
_atom_site_type_symbol
_atom_site_label
_atom_site_fract_x
_atom_site_fract_y
_atom_site_fract_z
Si Si1 0.995749 0.175603 0.974307
Si Si2 0.527659 0.925075 0.653097
Si Si3 0.462236 0.431706 0.646026
Si Si4 0.789601 0.001786 0.610531
Si Si5 0.282363 0.284746 0.526815
Si Si6 0.000000 0.500000 0.000000
Si Si7 0.779061 0.410012 0.406415
O O1 0.894147 0.098355 0.901600
O O2 0.864070 0.287513 0.100732
O O3 0.077341 0.101713 0.659406
O O4 0.150092 0.212253 0.234114
O O5 0.353836 0.950672 0.509618
O O6 0.584650 0.796232 0.455078
O O7 0.683933 0.961610 0.664589
O O8 0.500000 0.000000 0.000000
O O9 0.389768 0.327630 0.478860
O O10 0.635579 0.401254 0.507685
O O11 0.315827 0.510970 0.630858
O O12 0.500000 0.500000 0.000000
O O13 0.169826 0.392191 0.825424
O O14 0.068961 0.541634 0.325927
#
# Coordination Sequence:
#
# PCOD9032878 Si02
#       7
#     2   2   2   2   2   1   2
#     4  10  23  44  64 100 127 178 214 283 332 390
#     4  11  24  44  68  98 128 180 220 275 324 412
#     4  11  24  44  65 100 131 181 222 276 332 417
#     4  10  24  45  66  95 137 168 229 266 341 392
#     4  11  24  42  68  95 136 170 228 267 342 392
#     4  10  22  44  62 102 126 174 220 276 334 396
#     4  10  24  43  68  93 137 174 229 274 338 401
#
# _framework density 20.708995999999999
#
# number of rings (size 3 to 8) (size 9 to 14) (size 15 to 20)
#    0.000    1.538    3.077    0.000    4.308    5.538 
#    0.000    0.000    0.000    0.000    0.000    0.000 
#    0.000    0.000    0.000    0.000    0.000    0.000 
#
# Total GULP energy -72441.740531 kJ/mol
# GULP energy per Si atom -5572.441579 kJ/mol
# Density = 2.066186 g / cm^3
# Si number density = 20.708996 Si / 1000 Ang^3
#
#
#
# Elastic Constant Matrix: (Units=GPa)
#
#
# Indices 1 2 3 4 5 6 
#
# 1 78.0714 52.2701 24.9875 -2.9743 0.5336 11.6689
# 2 52.2701 126.9017 32.9823 -5.1381 -19.2899 2.6497
# 3 24.9875 32.9823 64.3506 1.0592 1.9301 7.8812
# 4 -2.9743 -5.1381 1.0592 16.9524 -4.8492 -0.0196
# 5 0.5336 -19.2899 1.9301 -4.8492 34.7531 13.3268
# 6 11.6689 2.6497 7.8812 -0.0196 13.3268 31.2046
#
#
#
# Elastic Compliance Matrix: (Units=1/GPa)
#
#
# Indices 1 2 3 4 5 6 
#
# 1 0.019590 -0.007476 -0.003115 0.000705 -0.002290 -0.004925
# 2 -0.007476 0.013767 -0.004376 0.005787 0.009277 -0.001226
# 3 -0.003115 -0.004376 0.019398 -0.004021 -0.003264 -0.001972
# 4 0.000705 0.005787 -0.004021 0.065362 0.014863 -0.006046
# 5 -0.002290 0.009277 -0.003264 0.014863 0.042893 -0.017416
# 6 -0.004925 -0.001226 -0.001972 -0.006046 -0.017416 0.041925
#
#
# Mechanical properties :
#
#
# Convention : Reuss Voigt Hill
#
# Bulk Modulus (GPa) = 43.82069 54.42262 49.12166
# Shear Modulus (GPa) = 20.79215 27.18761 23.98988
#
# Velocity S-wave (km/s) = 3.17206 3.62724 3.40726
# Velocity P-wave (km/s) = 5.88405 6.62414 6.26504
#
# Compressibility (1/GPa) = 0.02282027
#
# Stress axis : x y z
#
# Youngs Moduli (GPa) = 51.04709 72.63717 51.55191
#
# Poissons Ratio (x) = 0.54305 0.16056
# Poissons Ratio (y) = 0.38164 0.22561
# Poissons Ratio (z) = 0.15899 0.31789
#
# Static dielectric constant tensor:
#      x y z
#    x 1.773920 -0.004690 0.014550 
#    y -0.004690 1.724080 0.024350 
#    z 0.014550 0.024350 1.712800 
# 
# From -- ./inp_files/23893.got.cif
#   From: 2010.05.17/outbox.cif.g08.bks.cpg/sg2_12_cif.got.tgz:23893.got - 2010.06.03 11:33:40.
