data_PCOD9032313
_publ_section_title
;
Structure prediction by ZEFSAII (Michael W. Deem and Ramdas Pophale) SiO2 
 PCOD9032313
Probable space group: P -1
;
_chemical_formula_sum "Si O2"
_cell_formula_units_Z 14
_cell_length_a 9.126495
_cell_length_b 8.450667
_cell_length_c 12.070668
_cell_angle_alpha 54.436203
_cell_angle_beta 123.154691
_cell_angle_gamma 109.936736
_cell_volume 633.649440
_symmetry_space_group_name_H-M "P -1"
_symmetry_group_IT_number 2
_symmetry_cell_setting 'triclinic'
loop_
_space_group_symop_operation_xyz
x,y,z
-x,-y,-z
loop_
_atom_site_type_symbol
_atom_site_label
_atom_site_fract_x
_atom_site_fract_y
_atom_site_fract_z
Si Si1 0.745788 0.935561 0.219345
Si Si2 0.726266 0.332450 0.621840
Si Si3 0.328963 0.717762 0.792063
Si Si4 0.695073 0.613731 0.903266
Si Si5 0.479452 0.607623 0.270735
Si Si6 0.044215 0.030820 0.134113
Si Si7 0.989263 0.634615 0.550612
O O1 0.595874 0.775795 0.189992
O O2 0.873141 0.815000 0.399919
O O3 0.676258 0.108089 0.193781
O O4 0.865730 0.009143 0.138209
O O5 0.604984 0.438592 0.437885
O O6 0.608848 0.301651 0.694629
O O7 0.880437 0.493453 0.646516
O O8 0.822715 0.138112 0.706713
O O9 0.514365 0.723065 0.805325
O O10 0.172983 0.710397 0.642215
O O11 0.295222 0.522088 0.929642
O O12 0.660957 0.483228 0.834155
O O13 0.856579 0.762705 0.894722
O O14 0.000000 0.000000 0.000000
O O15 0.000000 0.500000 0.500000
#
# Coordination Sequence:
#
# PCOD9032313 Si02
#       7
#     2   2   2   2   2   2   2
#     4  11  25  43  71  96 134 177 219 274 331 395
#     4  10  22  43  70  96 135 170 224 270 329 394
#     4  11  25  44  66  99 133 175 226 269 333 393
#     4  11  27  43  68  94 136 176 221 277 326 395
#     4  10  24  45  70  98 129 179 220 274 332 388
#     4  12  27  43  66 101 134 175 218 275 334 396
#     4  11  21  43  72  99 133 175 217 276 329 394
#
# _framework density 22.094235000000001
#
# number of rings (size 3 to 8) (size 9 to 14) (size 15 to 20)
#    0.000    1.143    1.429    3.857    8.000    1.714 
#    2.571    0.000    0.000    0.000    0.000    0.000 
#    0.000    0.000    0.000    0.000    0.000    0.000 
#
# Total GULP energy -78367.543999 kJ/mol
# GULP energy per Si atom -5597.681714 kJ/mol
# Density = 2.204395 g / cm^3
# Si number density = 22.094235 Si / 1000 Ang^3
#
#
#
# Elastic Constant Matrix: (Units=GPa)
#
#
# Indices 1 2 3 4 5 6 
#
# 1 79.2663 32.9700 4.3812 -8.3116 -27.0616 17.9527
# 2 32.9700 117.4483 27.5880 7.1033 -14.2120 30.0653
# 3 4.3812 27.5880 26.0127 3.1091 -3.3750 13.4170
# 4 -8.3116 7.1033 3.1091 32.0186 3.1026 1.4677
# 5 -27.0616 -14.2120 -3.3750 3.1026 30.6437 -9.9286
# 6 17.9527 30.0653 13.4170 1.4677 -9.9286 43.2072
#
#
#
# Elastic Compliance Matrix: (Units=1/GPa)
#
#
# Indices 1 2 3 4 5 6 
#
# 1 0.020618 -0.004360 0.004412 0.004599 0.015038 -0.003603
# 2 -0.004360 0.013612 -0.011256 -0.002895 0.000214 -0.004017
# 3 0.004412 -0.011256 0.055607 -0.001395 0.001411 -0.010897
# 4 0.004599 -0.002895 -0.001395 0.033347 -0.001085 -0.000845
# 5 0.015038 0.000214 0.001411 -0.001085 0.047621 0.004144
# 6 -0.003603 -0.004017 -0.010897 -0.000845 0.004144 0.031801
#
#
# Mechanical properties :
#
#
# Convention : Reuss Voigt Hill
#
# Bulk Modulus (GPa) = 14.83062 39.17840 27.00451
# Shear Modulus (GPa) = 20.20277 31.69312 25.94795
#
# Velocity S-wave (km/s) = 3.02717 3.79153 3.43070
# Velocity P-wave (km/s) = 4.35263 6.07770 5.28601
#
# Compressibility (1/GPa) = 0.06742805
#
# Stress axis : x y z
#
# Youngs Moduli (GPa) = 48.50170 73.46666 17.98329
#
# Poissons Ratio (x) = 0.32032 -0.07933
# Poissons Ratio (y) = 0.21147 0.20242
# Poissons Ratio (z) = -0.21397 0.82692
#
# Static dielectric constant tensor:
#      x y z
#    x 1.826050 0.001160 0.013210 
#    y 0.001160 1.766350 -0.018440 
#    z 0.013210 -0.018440 1.838910 
# 
# From -- ./inp_files/209410.got.cif
#   From: 2010.05.17/outbox.cif.g08.bks.cpg/sg2_105_cif.got.tgz:209410.got - 2010.06.03 11:33:40.
