data_PCOD9032162
_publ_section_title
;
Structure prediction by ZEFSAII (Michael W. Deem and Ramdas Pophale) SiO2 
 PCOD9032162
Probable space group: P -1
;
_chemical_formula_sum "Si O2"
_cell_formula_units_Z 16
_cell_length_a 9.987407
_cell_length_b 8.720656
_cell_length_c 16.474043
_cell_angle_alpha 107.192345
_cell_angle_beta 131.529898
_cell_angle_gamma 110.230677
_cell_volume 669.832570
_symmetry_space_group_name_H-M "P -1"
_symmetry_group_IT_number 2
_symmetry_cell_setting 'triclinic'
loop_
_space_group_symop_operation_xyz
x,y,z
-x,-y,-z
loop_
_atom_site_type_symbol
_atom_site_label
_atom_site_fract_x
_atom_site_fract_y
_atom_site_fract_z
Si Si1 0.008652 0.181143 0.824566
Si Si2 0.629953 0.313112 0.860909
Si Si3 0.855563 0.843454 0.836120
Si Si4 0.702135 0.113505 0.983717
Si Si5 0.914299 0.012945 0.304735
Si Si6 0.930564 0.392518 0.364904
Si Si7 0.904700 0.393436 0.699084
Si Si8 0.496636 0.309296 0.629215
O O1 0.808001 0.946309 0.766265
O O2 0.881639 0.216666 0.714044
O O3 0.194564 0.417340 0.994334
O O4 0.164645 0.151397 0.829497
O O5 0.747605 0.226235 0.930920
O O6 0.598010 0.293231 0.749161
O O7 0.335328 0.134473 0.757214
O O8 0.596133 0.561382 0.709995
O O9 0.086686 0.877522 0.903543
O O10 0.000000 0.000000 0.000000
O O11 0.398378 0.837350 0.816994
O O12 0.798043 0.326858 0.112255
O O13 0.006121 0.256818 0.358425
O O14 0.172554 0.098160 0.460376
O O15 0.080356 0.603290 0.390969
O O16 0.000000 0.500000 0.500000
O O17 0.660261 0.339232 0.625535
#
# Coordination Sequence:
#
# PCOD9032162 Si02
#       8
#     2   2   2   2   2   2   2   2
#     4  11  24  42  70  99 134 177 227 276 331 398
#     4  10  22  43  69  99 135 181 223 275 333 400
#     4  11  23  39  67  98 130 176 222 273 322 393
#     4   9  22  41  67  94 132 175 224 271 329 398
#     4  11  25  44  65  98 137 178 223 282 333 397
#     4  11  25  45  69  96 134 181 222 275 339 407
#     4  10  24  44  69  98 134 178 223 277 338 392
#     4  11  24  43  66 100 142 176 223 278 336 397
#
# _framework density 23.886565000000001
#
# number of rings (size 3 to 8) (size 9 to 14) (size 15 to 20)
#    0.000    1.500    1.250    2.625    3.500   10.000 
#    0.000    0.000    0.000    0.000    0.000    0.000 
#    0.000    0.000    0.000    0.000    0.000    0.000 
#
# Total GULP energy -89455.305163 kJ/mol
# GULP energy per Si atom -5590.956573 kJ/mol
# Density = 2.383220 g / cm^3
# Si number density = 23.886565 Si / 1000 Ang^3
#
#
#
# Elastic Constant Matrix: (Units=GPa)
#
#
# Indices 1 2 3 4 5 6 
#
# 1 68.4153 21.5905 21.9385 -6.7745 -16.8587 8.5490
# 2 21.5905 133.1550 17.8737 -19.5238 -20.5886 14.1602
# 3 21.9385 17.8737 85.3869 -4.0100 0.7335 7.2336
# 4 -6.7745 -19.5238 -4.0100 31.3007 4.0114 -9.5565
# 5 -16.8587 -20.5886 0.7335 4.0114 32.0887 -6.2520
# 6 8.5490 14.1602 7.2336 -9.5565 -6.2520 41.1202
#
#
#
# Elastic Compliance Matrix: (Units=1/GPa)
#
#
# Indices 1 2 3 4 5 6 
#
# 1 0.018863 -0.000674 -0.004616 0.001553 0.009171 -0.001122
# 2 -0.000674 0.009361 -0.001529 0.004559 0.004921 -0.001007
# 3 -0.004616 -0.001529 0.013371 -0.000192 -0.003983 -0.001516
# 4 0.001553 0.004559 -0.000192 0.037135 0.000435 0.006838
# 5 0.009171 0.004921 -0.003983 0.000435 0.039810 0.003253
# 6 -0.001122 -0.001007 -0.001516 0.006838 0.003253 0.027249
#
#
# Mechanical properties :
#
#
# Convention : Reuss Voigt Hill
#
# Bulk Modulus (GPa) = 35.76949 45.52917 40.64933
# Shear Modulus (GPa) = 29.63006 35.93890 32.78448
#
# Velocity S-wave (km/s) = 3.52582 3.88308 3.70876
# Velocity P-wave (km/s) = 5.61983 6.26150 5.94932
#
# Compressibility (1/GPa) = 0.02795679
#
# Stress axis : x y z
#
# Youngs Moduli (GPa) = 53.01267 106.82595 74.78760
#
# Poissons Ratio (x) = 0.07199 0.34524
# Poissons Ratio (y) = 0.03573 0.11437
# Poissons Ratio (z) = 0.24472 0.16336
#
# Static dielectric constant tensor:
#      x y z
#    x 1.996710 -0.051910 -0.039350 
#    y -0.051910 1.947250 0.025420 
#    z -0.039350 0.025420 1.923140 
# 
# From -- ./inp_files/566044.got.cif
#   From: 2010.05.17/outbox.cif.g08.bks.cpg/sg2_284_cif.got.tgz:566044.got - 2010.06.03 11:33:40.
