data_PCOD9032290
_publ_section_title
;
Structure prediction by ZEFSAII (Michael W. Deem and Ramdas Pophale) SiO2 
 PCOD9032290
Probable space group: P -1
;
_chemical_formula_sum "Si O2"
_cell_formula_units_Z 14
_cell_length_a 24.048037
_cell_length_b 7.767758
_cell_length_c 24.256126
_cell_angle_alpha 41.011832
_cell_angle_beta 168.264552
_cell_angle_gamma 137.786754
_cell_volume 604.696397
_symmetry_space_group_name_H-M "P -1"
_symmetry_group_IT_number 2
_symmetry_cell_setting 'triclinic'
loop_
_space_group_symop_operation_xyz
x,y,z
-x,-y,-z
loop_
_atom_site_type_symbol
_atom_site_label
_atom_site_fract_x
_atom_site_fract_y
_atom_site_fract_z
Si Si1 0.439170 0.559335 0.336546
Si Si2 0.008856 0.550137 0.158160
Si Si3 0.015945 0.706128 0.316598
Si Si4 0.673448 0.984360 0.615889
Si Si5 0.140665 0.041925 0.455214
Si Si6 0.663841 0.708826 0.072638
Si Si7 0.559009 0.842758 0.764490
O O1 0.307720 0.326138 0.302489
O O2 0.425849 0.854878 0.272936
O O3 0.753792 0.491929 0.646936
O O4 0.275036 0.526520 0.127398
O O5 0.050410 0.851498 0.143777
O O6 0.090910 0.348585 0.335139
O O7 0.058468 0.976115 0.327605
O O8 0.823467 0.571502 0.209229
O O9 0.326961 0.659430 0.613325
O O10 0.842771 0.731727 0.087524
O O11 0.528902 0.128618 0.390454
O O12 0.500000 0.000000 0.500000
O O13 0.437879 0.921658 0.782673
O O14 0.908882 0.866974 0.303289
O O15 0.500000 0.500000 0.000000
#
# Coordination Sequence:
#
# PCOD9032290 Si02
#       7
#     2   2   2   2   2   2   2
#     4  11  19  37  56  76 104 146 191 237 279 310
#     4  11  20  37  55  76 112 147 182 229 272 339
#     4  10  19  33  56  82 107 143 180 220 276 326
#     4  10  26  38  53  80 113 148 194 241 281 309
#     4  10  17  32  54  81 113 142 175 212 279 321
#     4  10  18  31  55  92 117 129 168 229 278 322
#     4  12  20  37  56  79 108 151 193 230 270 328
#
# _framework density 23.152114000000001
#
# number of rings (size 3 to 8) (size 9 to 14) (size 15 to 20)
#    0.857    0.571    4.286    2.143    0.000    4.571 
#    0.000    5.000    0.000    0.000    0.000    6.000 
#    0.000    0.000    0.000    0.000    0.000    0.000 
#
# Total GULP energy -77994.811924 kJ/mol
# GULP energy per Si atom -5571.057995 kJ/mol
# Density = 2.309942 g / cm^3
# Si number density = 23.152114 Si / 1000 Ang^3
#
#
#
# Elastic Constant Matrix: (Units=GPa)
#
#
# Indices 1 2 3 4 5 6 
#
# 1 75.4606 25.1593 18.6892 11.4613 -0.7951 5.8551
# 2 25.1593 59.3300 10.8335 15.4205 6.1501 15.8588
# 3 18.6892 10.8335 115.2507 15.1775 0.1342 -7.1570
# 4 11.4613 15.4205 15.1775 28.9599 4.7803 0.1226
# 5 -0.7951 6.1501 0.1342 4.7803 25.1501 3.2490
# 6 5.8551 15.8588 -7.1570 0.1226 3.2490 25.7410
#
#
#
# Elastic Compliance Matrix: (Units=1/GPa)
#
#
# Indices 1 2 3 4 5 6 
#
# 1 0.016153 -0.005837 -0.001762 -0.002785 0.002591 -0.000882
# 2 -0.005837 0.026610 -0.001060 -0.010795 -0.002700 -0.014969
# 3 -0.001762 -0.001060 0.009817 -0.003969 0.000421 0.003749
# 4 -0.002785 -0.010795 -0.003969 0.044551 -0.006776 0.006824
# 5 0.002591 -0.002700 0.000421 -0.006776 0.042321 -0.004118
# 6 -0.000882 -0.014969 0.003749 0.006824 -0.004118 0.049801
#
#
# Mechanical properties :
#
#
# Convention : Reuss Voigt Hill
#
# Bulk Modulus (GPa) = 28.35781 39.93392 34.14587
# Shear Modulus (GPa) = 22.90165 28.99416 25.94791
#
# Velocity S-wave (km/s) = 3.14854 3.54267 3.35140
# Velocity P-wave (km/s) = 5.04904 5.83266 5.45494
#
# Compressibility (1/GPa) = 0.03526365
#
# Stress axis : x y z
#
# Youngs Moduli (GPa) = 61.90729 37.57919 101.86414
#
# Poissons Ratio (x) = 0.21936 0.17945
# Poissons Ratio (y) = 0.36136 0.10794
# Poissons Ratio (z) = 0.10906 0.03982
#
# Static dielectric constant tensor:
#      x y z
#    x 1.946760 0.019660 0.046960 
#    y 0.019660 1.935530 0.011540 
#    z 0.046960 0.011540 1.880910 
# 
# From -- ./inp_files/99428.got.cif
#   From: 2010.05.17/outbox.cif.g08.bks.cpg/sg2_50_cif.got.tgz:99428.got - 2010.06.03 11:33:40.
