data_PCOD9032969
_publ_section_title
;
Structure prediction by ZEFSAII (Michael W. Deem and Ramdas Pophale) SiO2 
 PCOD9032969
Probable space group: P -1
;
_chemical_formula_sum "Si O2"
_cell_formula_units_Z 15
_cell_length_a 10.154346
_cell_length_b 8.328796
_cell_length_c 9.529377
_cell_angle_alpha 115.051039
_cell_angle_beta 56.405518
_cell_angle_gamma 121.931689
_cell_volume 559.903032
_symmetry_space_group_name_H-M "P -1"
_symmetry_group_IT_number 2
_symmetry_cell_setting 'triclinic'
loop_
_space_group_symop_operation_xyz
x,y,z
-x,-y,-z
loop_
_atom_site_type_symbol
_atom_site_label
_atom_site_fract_x
_atom_site_fract_y
_atom_site_fract_z
Si Si1 0.500000 0.000000 0.000000
Si Si2 0.194821 0.394467 0.259715
Si Si3 0.695855 0.216306 0.519382
Si Si4 0.732091 0.888568 0.566350
Si Si5 0.530553 0.400034 0.207223
Si Si6 0.930294 0.047460 0.751647
Si Si7 0.341660 0.023182 0.792813
Si Si8 0.139549 0.278966 0.945389
O O1 0.413930 0.020080 0.901387
O O2 0.418010 0.765637 0.945265
O O3 0.186787 0.574115 0.416535
O O4 0.391427 0.420735 0.187207
O O5 0.145005 0.395247 0.127049
O O6 0.089231 0.171787 0.284936
O O7 0.719362 0.038741 0.518815
O O8 0.500257 0.169753 0.660778
O O9 0.713219 0.178448 0.332003
O O10 0.758402 0.004594 0.745076
O O11 0.577997 0.691762 0.621828
O O12 0.904168 0.860272 0.412752
O O13 0.701264 0.586082 0.192310
O O14 0.974030 0.186011 0.910315
O O15 0.195236 0.106617 0.898505
#
# Coordination Sequence:
#
# PCOD9032969 Si02
#       8
#     1   2   2   2   2   2   2   2
#     4  12  22  42  62 106 138 168 212 292 348 380
#     4  11  23  42  69  94 135 181 224 271 342 400
#     4  11  22  43  67 100 132 179 227 272 335 405
#     4  10  22  44  64  90 139 178 219 280 326 395
#     4  11  23  38  71  95 134 173 222 282 335 391
#     4  10  24  44  63  94 136 182 226 273 331 402
#     4  11  23  40  68 102 137 168 223 286 334 399
#     4  12  22  43  68 103 130 178 225 275 340 404
#
# _framework density 26.790351999999999
#
# number of rings (size 3 to 8) (size 9 to 14) (size 15 to 20)
#    0.000    1.067    5.333    1.600    0.000    1.067 
#    7.200    0.667    0.000    0.000    0.000    0.000 
#    0.000    0.000    0.000    0.000    0.000    0.000 
#
# Total GULP energy -83758.906976 kJ/mol
# GULP energy per Si atom -5583.927132 kJ/mol
# Density = 2.672938 g / cm^3
# Si number density = 26.790352 Si / 1000 Ang^3
#
#
#
# Elastic Constant Matrix: (Units=GPa)
#
#
# Indices 1 2 3 4 5 6 
#
# 1 88.2988 32.9324 2.4068 12.6026 22.3351 11.8376
# 2 32.9324 128.5618 39.7321 8.8031 12.9257 30.2609
# 3 2.4068 39.7321 112.0787 26.6343 25.3564 0.6682
# 4 12.6026 8.8031 26.6343 46.3359 15.0510 3.4467
# 5 22.3351 12.9257 25.3564 15.0510 39.0795 -6.1330
# 6 11.8376 30.2609 0.6682 3.4467 -6.1330 36.1441
#
#
#
# Elastic Compliance Matrix: (Units=1/GPa)
#
#
# Indices 1 2 3 4 5 6 
#
# 1 0.015794 -0.002964 0.003554 -0.002144 -0.010199 -0.004283
# 2 -0.002964 0.012194 -0.004310 0.002327 -0.001964 -0.009714
# 3 0.003554 -0.004310 0.013244 -0.005684 -0.006760 0.001595
# 4 -0.002144 0.002327 -0.005684 0.027745 -0.007332 -0.005031
# 5 -0.010199 -0.001964 -0.006760 -0.007332 0.041288 0.012814
# 6 -0.004283 -0.009714 0.001595 -0.005031 0.012814 0.039827
#
#
# Mechanical properties :
#
#
# Convention : Reuss Voigt Hill
#
# Bulk Modulus (GPa) = 29.59263 53.23132 41.41198
# Shear Modulus (GPa) = 29.62141 41.23643 35.42892
#
# Velocity S-wave (km/s) = 3.32878 3.92755 3.64050
# Velocity P-wave (km/s) = 5.08373 6.36241 5.75867
#
# Compressibility (1/GPa) = 0.03379220
#
# Stress axis : x y z
#
# Youngs Moduli (GPa) = 63.31680 82.00659 75.50378
#
# Poissons Ratio (x) = 0.24304 -0.26832
# Poissons Ratio (y) = 0.18765 0.32543
# Poissons Ratio (z) = -0.22501 0.35346
#
# Static dielectric constant tensor:
#      x y z
#    x 2.103220 0.008140 0.029940 
#    y 0.008140 2.023140 -0.013230 
#    z 0.029940 -0.013230 2.118750 
# 
# From -- ./inp_files/159293.got.cif
#   From: 2010.05.17/outbox.cif.g08.bks.cpg/sg2_80_cif.got.tgz:159293.got - 2010.06.03 11:33:40.
