data_PCOD9032814
_publ_section_title
;
Structure prediction by ZEFSAII (Michael W. Deem and Ramdas Pophale) SiO2 
 PCOD9032814
Probable space group: P -1
;
_chemical_formula_sum "Si O2"
_cell_formula_units_Z 16
_cell_length_a 11.499524
_cell_length_b 11.662713
_cell_length_c 11.816741
_cell_angle_alpha 34.391732
_cell_angle_beta 130.361717
_cell_angle_gamma 138.793587
_cell_volume 588.189251
_symmetry_space_group_name_H-M "P -1"
_symmetry_group_IT_number 2
_symmetry_cell_setting 'triclinic'
loop_
_space_group_symop_operation_xyz
x,y,z
-x,-y,-z
loop_
_atom_site_type_symbol
_atom_site_label
_atom_site_fract_x
_atom_site_fract_y
_atom_site_fract_z
Si Si1 0.096726 0.544847 0.901469
Si Si2 0.609316 0.354731 0.270208
Si Si3 0.381499 0.444980 0.234097
Si Si4 0.877114 0.777574 0.229082
Si Si5 0.195406 0.035145 0.615418
Si Si6 0.782651 0.374511 0.669485
Si Si7 0.719102 0.033498 0.699958
Si Si8 0.663379 0.961329 0.050631
O O1 0.957679 0.451065 0.789717
O O2 0.204054 0.825776 0.728162
O O3 0.214911 0.424058 0.078804
O O4 0.000000 0.500000 0.000000
O O5 0.490654 0.363899 0.291418
O O6 0.788567 0.603819 0.206461
O O7 0.673900 0.164443 0.465091
O O8 0.448707 0.232183 0.175828
O O9 0.323649 0.285690 0.437986
O O10 0.490158 0.714211 0.121340
O O11 0.811892 0.612528 0.436050
O O12 0.797361 0.944760 0.058957
O O13 0.087579 0.924840 0.234561
O O14 0.245992 0.016836 0.790163
O O15 0.000000 0.000000 0.500000
O O16 0.741253 0.211942 0.667185
O O17 0.640781 0.183716 0.824362
#
# Coordination Sequence:
#
# PCOD9032814 Si02
#       8
#     2   2   2   2   2   2   2   2
#     4  12  25  43  66 100 134 175 231 273 340 408
#     4   9  21  43  67 103 133 173 236 273 344 411
#     4  11  26  45  67 101 138 178 223 289 339 411
#     4  10  23  44  73 100 138 184 226 283 346 408
#     4  12  24  44  73  96 133 184 226 280 340 413
#     4  11  23  43  66 100 134 176 226 281 336 404
#     4  10  22  43  75  99 136 185 230 284 344 409
#     4  11  25  44  66 103 138 173 232 277 347 409
#
# _framework density 27.202127999999998
#
# number of rings (size 3 to 8) (size 9 to 14) (size 15 to 20)
#    0.000    1.250    2.500    2.625    5.250    4.000 
#    6.750    1.250    0.000    0.000    0.000    0.000 
#    0.000    0.000    0.000    0.000    0.000    0.000 
#
# Total GULP energy -89522.996094 kJ/mol
# GULP energy per Si atom -5595.187256 kJ/mol
# Density = 2.714021 g / cm^3
# Si number density = 27.202128 Si / 1000 Ang^3
#
#
#
# Elastic Constant Matrix: (Units=GPa)
#
#
# Indices 1 2 3 4 5 6 
#
# 1 86.9361 14.0442 7.8674 -2.2416 14.8899 7.0096
# 2 14.0442 171.8124 26.9372 -1.7415 2.9772 -5.2277
# 3 7.8674 26.9372 154.9457 -12.0706 -1.4469 13.0415
# 4 -2.2416 -1.7415 -12.0706 48.4044 5.2940 3.1327
# 5 14.8899 2.9772 -1.4469 5.2940 32.3198 7.1526
# 6 7.0096 -5.2277 13.0415 3.1327 7.1526 39.5043
#
#
#
# Elastic Compliance Matrix: (Units=1/GPa)
#
#
# Indices 1 2 3 4 5 6 
#
# 1 0.012802 -0.000923 -0.000338 0.001188 -0.005726 -0.001340
# 2 -0.000923 0.006129 -0.001158 -0.000152 -0.000489 0.001457
# 3 -0.000338 -0.001158 0.007048 0.001779 0.000889 -0.002722
# 4 0.001188 -0.000152 0.001779 0.021667 -0.003585 -0.001887
# 5 -0.005726 -0.000489 0.000889 -0.003585 0.035463 -0.005479
# 6 -0.001340 0.001457 -0.002722 -0.001887 -0.005479 0.027785
#
#
# Mechanical properties :
#
#
# Convention : Reuss Voigt Hill
#
# Bulk Modulus (GPa) = 47.29927 56.82130 52.06029
# Shear Modulus (GPa) = 40.72414 48.36872 44.54643
#
# Velocity S-wave (km/s) = 3.87343 4.22135 4.05113
# Velocity P-wave (km/s) = 6.11804 6.68533 6.40797
#
# Compressibility (1/GPa) = 0.02114197
#
# Stress axis : x y z
#
# Youngs Moduli (GPa) = 78.11425 163.17146 141.87813
#
# Poissons Ratio (x) = 0.15061 0.04791
# Poissons Ratio (y) = 0.07210 0.16424
# Poissons Ratio (z) = 0.02638 0.18889
#
# Static dielectric constant tensor:
#      x y z
#    x 2.104490 0.056030 -0.081620 
#    y 0.056030 2.174160 -0.007110 
#    z -0.081620 -0.007110 2.259100 
# 
# From -- ./inp_files/534151.got.cif
#   From: 2010.05.17/outbox.cif.g08.bks.cpg/sg2_268_cif.got.tgz:534151.got - 2010.06.03 11:33:40.
