data_PCOD9032914
_publ_section_title
;
Structure prediction by ZEFSAII (Michael W. Deem and Ramdas Pophale) SiO2 
 PCOD9032914
Probable space group: P -1
;
_chemical_formula_sum "Si O2"
_cell_formula_units_Z 16
_cell_length_a 14.171964
_cell_length_b 8.494777
_cell_length_c 14.573345
_cell_angle_alpha 140.752328
_cell_angle_beta 37.336265
_cell_angle_gamma 134.337193
_cell_volume 657.207599
_symmetry_space_group_name_H-M "P -1"
_symmetry_group_IT_number 2
_symmetry_cell_setting 'triclinic'
loop_
_space_group_symop_operation_xyz
x,y,z
-x,-y,-z
loop_
_atom_site_type_symbol
_atom_site_label
_atom_site_fract_x
_atom_site_fract_y
_atom_site_fract_z
Si Si1 0.431645 0.212509 0.597768
Si Si2 0.765411 0.182626 0.561667
Si Si3 0.985408 0.212833 0.257797
Si Si4 0.155647 0.795997 0.954264
Si Si5 0.224298 0.534524 0.601181
Si Si6 0.318877 0.036428 0.271016
Si Si7 0.321331 0.373689 0.107072
Si Si8 0.677445 0.323992 0.061311
O O1 0.585206 0.373087 0.501112
O O2 0.355250 0.395945 0.803649
O O3 0.500000 0.000000 0.500000
O O4 0.311878 0.060528 0.548799
O O5 0.943842 0.232044 0.406558
O O6 0.702744 0.442349 0.706156
O O7 0.711257 0.094762 0.665777
O O8 0.858051 0.304662 0.334261
O O9 0.159780 0.388424 0.182724
O O10 0.009650 0.925958 0.099215
O O11 0.173163 0.607381 0.773798
O O12 0.180687 0.658755 0.967162
O O13 0.290627 0.065918 0.988802
O O14 0.207202 0.243717 0.451379
O O15 0.504430 0.172523 0.167300
O O16 0.281570 0.826890 0.125787
O O17 0.500000 0.500000 0.000000
#
# Coordination Sequence:
#
# PCOD9032914 Si02
#       8
#     2   2   2   2   2   2   2   2
#     4  11  23  39  73 100 147 177 238 286 352 424
#     4  12  23  45  66 108 140 190 238 287 357 418
#     4  10  25  42  71 102 150 180 233 299 353 416
#     4  10  23  41  72  96 144 184 235 289 349 414
#     4  11  21  45  68 106 136 197 230 293 353 418
#     4  10  24  39  74  97 148 185 243 288 352 420
#     4  10  23  40  71 101 134 183 240 283 353 416
#     4  10  22  44  63 108 140 189 236 299 346 410
#
# _framework density 24.345428999999999
#
# number of rings (size 3 to 8) (size 9 to 14) (size 15 to 20)
#    0.750    0.750    1.250    3.750    1.750    5.000 
#    0.000    5.000    0.000    0.000    0.000    0.000 
#    0.000    0.000    0.000    0.000    0.000    0.000 
#
# Total GULP energy -89151.644442 kJ/mol
# GULP energy per Si atom -5571.977778 kJ/mol
# Density = 2.429002 g / cm^3
# Si number density = 24.345429 Si / 1000 Ang^3
#
#
#
# Elastic Constant Matrix: (Units=GPa)
#
#
# Indices 1 2 3 4 5 6 
#
# 1 88.1799 36.2359 69.4162 11.5509 1.7676 -7.3587
# 2 36.2359 70.6692 48.7731 13.6912 1.9991 -1.1276
# 3 69.4162 48.7731 225.6515 39.4597 16.8423 -14.3985
# 4 11.5509 13.6912 39.4597 43.1332 -0.3364 -5.2549
# 5 1.7676 1.9991 16.8423 -0.3364 38.7584 -6.9307
# 6 -7.3587 -1.1276 -14.3985 -5.2549 -6.9307 32.2751
#
#
#
# Elastic Compliance Matrix: (Units=1/GPa)
#
#
# Indices 1 2 3 4 5 6 
#
# 1 0.017154 -0.006219 -0.004175 0.001514 0.001807 0.002466
# 2 -0.006219 0.019148 -0.001809 -0.003018 -0.000323 -0.002117
# 3 -0.004175 -0.001809 0.007208 -0.004822 -0.002742 0.000826
# 4 0.001514 -0.003018 -0.004822 0.028585 0.003037 0.003395
# 5 0.001807 -0.000323 -0.002742 0.003037 0.027968 0.005678
# 6 0.002466 -0.002117 0.000826 0.003395 0.005678 0.033612
#
#
# Mechanical properties :
#
#
# Convention : Reuss Voigt Hill
#
# Bulk Modulus (GPa) = 52.34742 77.03899 64.69320
# Shear Modulus (GPa) = 30.40444 38.17170 34.28807
#
# Velocity S-wave (km/s) = 3.53778 3.96399 3.75694
# Velocity P-wave (km/s) = 6.18356 7.25698 6.74167
#
# Compressibility (1/GPa) = 0.01910314
#
# Stress axis : x y z
#
# Youngs Moduli (GPa) = 58.29518 52.22540 138.74294
#
# Poissons Ratio (x) = 0.32482 0.57926
# Poissons Ratio (y) = 0.36257 0.25093
# Poissons Ratio (z) = 0.24339 0.09445
#
# Static dielectric constant tensor:
#      x y z
#    x 1.991860 0.020510 0.011750 
#    y 0.020510 2.110840 0.038430 
#    z 0.011750 0.038430 1.991530 
# 
# From -- ./inp_files/529113.got.cif
#   From: 2010.05.17/outbox.cif.g08.bks.cpg/sg2_265_cif.got.tgz:529113.got - 2010.06.03 11:33:40.
