data_PCOD9032538
_publ_section_title
;
Structure prediction by ZEFSAII (Michael W. Deem and Ramdas Pophale) SiO2 
 PCOD9032538
Probable space group: P -1
;
_chemical_formula_sum "Si O2"
_cell_formula_units_Z 16
_cell_length_a 7.629357
_cell_length_b 11.772813
_cell_length_c 8.880655
_cell_angle_alpha 115.763852
_cell_angle_beta 77.158812
_cell_angle_gamma 110.093781
_cell_volume 672.122165
_symmetry_space_group_name_H-M "P -1"
_symmetry_group_IT_number 2
_symmetry_cell_setting 'triclinic'
loop_
_space_group_symop_operation_xyz
x,y,z
-x,-y,-z
loop_
_atom_site_type_symbol
_atom_site_label
_atom_site_fract_x
_atom_site_fract_y
_atom_site_fract_z
Si Si1 0.763747 0.977604 0.786273
Si Si2 0.090197 0.819172 0.878165
Si Si3 0.381206 0.878734 0.351772
Si Si4 0.453685 0.724190 0.793023
Si Si5 0.260674 0.473667 0.531979
Si Si6 0.895402 0.542376 0.773566
Si Si7 0.979048 0.813307 0.546179
Si Si8 0.410730 0.622581 0.080354
O O1 0.637077 0.842274 0.801183
O O2 0.888032 0.931989 0.611323
O O3 0.644464 0.061647 0.773012
O O4 0.883124 0.061022 0.945335
O O5 0.289217 0.787912 0.819023
O O6 0.035098 0.825652 0.719663
O O7 0.939327 0.692473 0.902670
O O8 0.170570 0.823624 0.427432
O O9 0.470334 0.756117 0.247079
O O10 0.500000 0.000000 0.500000
O O11 0.436208 0.593118 0.621926
O O12 0.429538 0.673159 0.937121
O O13 0.240097 0.477861 0.357599
O O14 0.087138 0.523494 0.662479
O O15 0.184087 0.323839 0.519704
O O16 0.802148 0.444141 0.865252
O O17 0.500000 0.500000 0.000000
#
# Coordination Sequence:
#
# PCOD9032538 Si02
#       8
#     2   2   2   2   2   2   2   2
#     4  12  26  44  70 107 148 184 236 283 360 434
#     4  10  22  43  72 101 139 189 232 287 353 427
#     4  12  28  48  73 104 149 189 232 300 358 425
#     4  11  25  43  70 102 141 189 231 293 353 421
#     4   9  20  41  71  97 133 181 234 282 348 412
#     4   9  20  41  69  97 130 180 233 289 346 410
#     4  11  24  44  74 104 140 189 234 291 354 422
#     4  12  28  45  69 101 141 184 242 294 351 415
#
# _framework density 23.805197
#
# number of rings (size 3 to 8) (size 9 to 14) (size 15 to 20)
#    0.000    1.250    2.500    2.625    7.000    5.500 
#    0.000    0.000    0.000    0.000    0.000    0.000 
#    0.000    0.000    0.000    0.000    0.000    0.000 
#
# Total GULP energy -89437.941610 kJ/mol
# GULP energy per Si atom -5589.871351 kJ/mol
# Density = 2.375102 g / cm^3
# Si number density = 23.805197 Si / 1000 Ang^3
#
#
#
# Elastic Constant Matrix: (Units=GPa)
#
#
# Indices 1 2 3 4 5 6 
#
# 1 32.2077 28.1323 8.5091 12.1655 3.5250 -4.0918
# 2 28.1323 165.1175 83.8592 16.4030 6.9126 24.7259
# 3 8.5091 83.8592 97.7005 36.8155 2.3539 21.2830
# 4 12.1655 16.4030 36.8155 60.6175 -0.7604 -4.4653
# 5 3.5250 6.9126 2.3539 -0.7604 31.9944 11.7338
# 6 -4.0918 24.7259 21.2830 -4.4653 11.7338 45.6073
#
#
#
# Elastic Compliance Matrix: (Units=1/GPa)
#
#
# Indices 1 2 3 4 5 6 
#
# 1 0.044597 -0.011903 0.009123 -0.010855 -0.005691 0.006598
# 2 -0.011903 0.014595 -0.013481 0.006475 0.000064 -0.002072
# 3 0.009123 -0.013481 0.028621 -0.016080 0.002114 -0.007347
# 4 -0.010855 0.006475 -0.016080 0.027111 -0.000504 0.005804
# 5 -0.005691 0.000064 0.002114 -0.000504 0.035644 -0.010752
# 6 0.006598 -0.002072 -0.007347 0.005804 -0.010752 0.030405
#
#
# Mechanical properties :
#
#
# Convention : Reuss Voigt Hill
#
# Bulk Modulus (GPa) = 18.08626 59.55854 38.82240
# Shear Modulus (GPa) = 21.55864 39.27886 30.41875
#
# Velocity S-wave (km/s) = 3.01263 4.06644 3.57854
# Velocity P-wave (km/s) = 4.44020 6.86450 5.78086
#
# Compressibility (1/GPa) = 0.05529059
#
# Stress axis : x y z
#
# Youngs Moduli (GPa) = 22.42322 68.51472 34.93934
#
# Poissons Ratio (x) = 0.81553 -0.31875
# Poissons Ratio (y) = 0.26690 0.47102
# Poissons Ratio (z) = -0.20456 0.92365
#
# Static dielectric constant tensor:
#      x y z
#    x 1.995030 -0.006510 -0.060260 
#    y -0.006510 1.908980 0.046470 
#    z -0.060260 0.046470 1.899680 
# 
# From -- ./inp_files/189903.got.cif
#   From: 2010.05.17/outbox.cif.g08.bks.cpg/sg2_95_cif.got.tgz:189903.got - 2010.06.03 11:33:40.
