data_PCOD9032142
_publ_section_title
;
Structure prediction by ZEFSAII (Michael W. Deem and Ramdas Pophale) SiO2 
 PCOD9032142
Probable space group: P -1
;
_chemical_formula_sum "Si O2"
_cell_formula_units_Z 16
_cell_length_a 14.705998
_cell_length_b 18.997501
_cell_length_c 9.518860
_cell_angle_alpha 32.024162
_cell_angle_beta 124.777047
_cell_angle_gamma 147.777782
_cell_volume 642.531529
_symmetry_space_group_name_H-M "P -1"
_symmetry_group_IT_number 2
_symmetry_cell_setting 'triclinic'
loop_
_space_group_symop_operation_xyz
x,y,z
-x,-y,-z
loop_
_atom_site_type_symbol
_atom_site_label
_atom_site_fract_x
_atom_site_fract_y
_atom_site_fract_z
Si Si1 0.941216 0.951276 0.769964
Si Si2 0.199407 0.948160 0.365851
Si Si3 0.382810 0.692596 0.809883
Si Si4 0.018893 0.231069 0.105540
Si Si5 0.656090 0.073283 0.702265
Si Si6 0.206364 0.543753 0.274030
Si Si7 0.683331 0.589246 0.525422
Si Si8 0.259014 0.791855 0.142300
O O1 0.958050 0.068967 0.451513
O O2 0.138127 0.147014 0.705121
O O3 0.804518 0.903985 0.834750
O O4 0.939401 0.807720 0.935346
O O5 0.263854 0.979466 0.210189
O O6 0.981414 0.658288 0.659273
O O7 0.379899 0.067732 0.414656
O O8 0.317050 0.777966 0.632701
O O9 0.237479 0.501508 0.882785
O O10 0.353766 0.557385 0.136488
O O11 0.848104 0.174852 0.049504
O O12 0.765201 0.225302 0.682492
O O13 0.420338 0.817800 0.953339
O O14 0.258778 0.439409 0.511750
O O15 0.164281 0.585269 0.307015
O O16 0.500000 0.500000 0.500000
O O17 0.500000 0.000000 0.000000
#
# Coordination Sequence:
#
# PCOD9032142 Si02
#       8
#     2   2   2   2   2   2   2   2
#     4   9  23  41  69 100 132 193 224 287 343 413
#     4  11  23  41  69 103 136 181 239 272 354 416
#     4  11  24  41  68 102 137 187 224 293 349 402
#     4  10  22  45  66  97 145 176 240 283 341 414
#     4  11  24  43  66 102 145 175 231 294 343 408
#     4  10  23  43  68 105 132 185 227 285 351 407
#     4  10  22  43  69  98 139 179 229 285 347 406
#     4  10  24  41  69 101 135 184 228 283 351 407
#
# _framework density 24.901501
#
# number of rings (size 3 to 8) (size 9 to 14) (size 15 to 20)
#    0.000    1.750    1.250    1.125    7.000    3.000 
#    0.000    6.875    0.000    0.000    0.000    0.000 
#    0.000    0.000    0.000    0.000    0.000    0.000 
#
# Total GULP energy -89164.298635 kJ/mol
# GULP energy per Si atom -5572.768665 kJ/mol
# Density = 2.484482 g / cm^3
# Si number density = 24.901501 Si / 1000 Ang^3
#
#
#
# Elastic Constant Matrix: (Units=GPa)
#
#
# Indices 1 2 3 4 5 6 
#
# 1 246.8935 89.8606 54.5654 -5.8457 37.5789 -6.1655
# 2 89.8606 128.8249 35.9945 -2.3513 26.6545 17.5096
# 3 54.5654 35.9945 64.4170 -5.4532 18.9573 2.3560
# 4 -5.8457 -2.3513 -5.4532 37.3051 1.4865 8.5585
# 5 37.5789 26.6545 18.9573 1.4865 53.1629 -9.8123
# 6 -6.1655 17.5096 2.3560 8.5585 -9.8123 57.5706
#
#
#
# Elastic Compliance Matrix: (Units=1/GPa)
#
#
# Indices 1 2 3 4 5 6 
#
# 1 0.006204 -0.003438 -0.003014 -0.000004 -0.001289 0.001615
# 2 -0.003438 0.012341 -0.002610 0.001112 -0.003747 -0.004819
# 3 -0.003014 -0.002610 0.021170 0.003006 -0.004491 -0.001608
# 4 -0.000004 0.001112 0.003006 0.028667 -0.003407 -0.005304
# 5 -0.001289 -0.003747 -0.004491 -0.003407 0.024375 0.005846
# 6 0.001615 -0.004819 -0.001608 -0.005304 0.005846 0.020859
#
#
# Mechanical properties :
#
#
# Convention : Reuss Voigt Hill
#
# Bulk Modulus (GPa) = 46.31850 88.99737 67.65794
# Shear Modulus (GPa) = 35.98696 46.92203 41.45449
#
# Velocity S-wave (km/s) = 3.80567 4.34557 4.08455
# Velocity P-wave (km/s) = 6.16051 7.80999 7.03377
#
# Compressibility (1/GPa) = 0.02158964
#
# Stress axis : x y z
#
# Youngs Moduli (GPa) = 161.17677 81.03321 47.23580
#
# Poissons Ratio (x) = 0.27863 0.14238
# Poissons Ratio (y) = 0.55420 0.12329
# Poissons Ratio (z) = 0.48584 0.21150
#
# Static dielectric constant tensor:
#      x y z
#    x 2.062020 0.024780 -0.052880 
#    y 0.024780 1.979690 0.012420 
#    z -0.052880 0.012420 2.080230 
# 
# From -- ./inp_files/457635.got.cif
#   From: 2010.05.17/outbox.cif.g08.bks.cpg/sg2_229_cif.got.tgz:457635.got - 2010.06.03 11:33:40.
