data_PCOD9032993
_publ_section_title
;
Structure prediction by ZEFSAII (Michael W. Deem and Ramdas Pophale) SiO2 
 PCOD9032993
Probable space group: P -1
;
_chemical_formula_sum "Si O2"
_cell_formula_units_Z 16
_cell_length_a 11.277252
_cell_length_b 11.774219
_cell_length_c 6.927188
_cell_angle_alpha 80.343959
_cell_angle_beta 52.363677
_cell_angle_gamma 72.472278
_cell_volume 694.412826
_symmetry_space_group_name_H-M "P -1"
_symmetry_group_IT_number 2
_symmetry_cell_setting 'triclinic'
loop_
_space_group_symop_operation_xyz
x,y,z
-x,-y,-z
loop_
_atom_site_type_symbol
_atom_site_label
_atom_site_fract_x
_atom_site_fract_y
_atom_site_fract_z
Si Si1 0.582526 0.126330 0.825091
Si Si2 0.853531 0.611798 0.160539
Si Si3 0.938875 0.857478 0.046569
Si Si4 0.605198 0.991852 0.208552
Si Si5 0.097541 0.001713 0.594892
Si Si6 0.650192 0.493644 0.148917
Si Si7 0.162097 0.511619 0.420167
Si Si8 0.684433 0.354991 0.518508
O O1 0.435045 0.108237 0.862024
O O2 0.725698 0.019686 0.638299
O O3 0.631816 0.242541 0.678247
O O4 0.570525 0.107491 0.071252
O O5 0.908481 0.731428 0.066101
O O6 0.719195 0.593948 0.157731
O O7 0.794536 0.596150 0.439754
O O8 0.000000 0.500000 0.000000
O O9 0.782231 0.954084 0.108391
O O10 0.956671 0.882818 0.248210
O O11 0.073926 0.892435 0.782004
O O12 0.500000 0.000000 0.500000
O O13 0.000000 0.000000 0.500000
O O14 0.702725 0.376453 0.265995
O O15 0.465500 0.535549 0.314506
O O16 0.725705 0.482197 0.868855
O O17 0.170109 0.624143 0.513742
O O18 0.000000 0.500000 0.500000
#
# Coordination Sequence:
#
# PCOD9032993 Si02
#       8
#     2   2   2   2   2   2   2   2
#     4  11  24  41  68  98 129 174 222 274 335 390
#     4  11  24  42  66  99 132 173 223 273 334 394
#     4  11  25  43  68  96 135 176 220 279 331 396
#     4  11  23  44  66  96 134 171 228 271 332 398
#     4  11  24  44  66  99 132 173 222 272 334 394
#     4  10  22  44  64  94 134 171 223 269 334 393
#     4  11  23  40  64  97 130 172 221 266 332 393
#     4  10  24  41  67  95 132 174 218 276 327 400
#
# _framework density 23.041051
#
# number of rings (size 3 to 8) (size 9 to 14) (size 15 to 20)
#    0.000    1.250    3.750    1.125    3.500    4.000 
#    0.000    0.000    0.000    0.000    0.000    0.000 
#    0.000    0.000    0.000    0.000    0.000    0.000 
#
# Total GULP energy -89433.853878 kJ/mol
# GULP energy per Si atom -5589.615867 kJ/mol
# Density = 2.298861 g / cm^3
# Si number density = 23.041051 Si / 1000 Ang^3
#
#
#
# Elastic Constant Matrix: (Units=GPa)
#
#
# Indices 1 2 3 4 5 6 
#
# 1 102.4862 15.8052 21.0260 7.1349 9.7179 25.2100
# 2 15.8052 90.8594 27.7594 -32.4761 13.3385 22.5156
# 3 21.0260 27.7594 178.2453 -14.6711 17.6729 -1.3321
# 4 7.1349 -32.4761 -14.6711 28.2915 9.0547 -8.5206
# 5 9.7179 13.3385 17.6729 9.0547 42.2473 0.6568
# 6 25.2100 22.5156 -1.3321 -8.5206 0.6568 28.7646
#
#
#
# Elastic Compliance Matrix: (Units=1/GPa)
#
#
# Indices 1 2 3 4 5 6 
#
# 1 0.015498 -0.003724 -0.002815 -0.014959 0.002232 -0.015280
# 2 -0.003724 0.029589 0.000567 0.038092 -0.016759 -0.008205
# 3 -0.002815 0.000567 0.006936 0.007711 -0.004159 0.004724
# 4 -0.014959 0.038092 0.007711 0.102122 -0.033927 0.014676
# 5 0.002232 -0.016759 -0.004159 -0.033927 0.037458 0.000064
# 6 -0.015280 -0.008205 0.004724 0.014676 0.000064 0.059144
#
#
# Mechanical properties :
#
#
# Convention : Reuss Voigt Hill
#
# Bulk Modulus (GPa) = 24.95053 55.64132 40.29593
# Shear Modulus (GPa) = 18.11256 40.32738 29.21997
#
# Velocity S-wave (km/s) = 2.80679 4.18813 3.56500
# Velocity P-wave (km/s) = 4.62129 6.89843 5.87132
#
# Compressibility (1/GPa) = 0.04007931
#
# Stress axis : x y z
#
# Youngs Moduli (GPa) = 64.52601 33.79587 144.16610
#
# Poissons Ratio (x) = 0.12585 0.40582
# Poissons Ratio (y) = 0.24029 -0.08170
# Poissons Ratio (z) = 0.18164 -0.01915
#
# Static dielectric constant tensor:
#      x y z
#    x 1.880550 -0.016650 0.005360 
#    y -0.016650 1.884570 0.011190 
#    z 0.005360 0.011190 1.873930 
# 
# From -- ./inp_files/69621.got.cif
#   From: 2010.05.17/outbox.cif.g08.bks.cpg/sg2_35_cif.got.tgz:69621.got - 2010.06.03 11:33:40.
