data_PCOD9032580
_publ_section_title
;
Structure prediction by ZEFSAII (Michael W. Deem and Ramdas Pophale) SiO2 
 PCOD9032580
Probable space group: P -1
;
_chemical_formula_sum "Si O2"
_cell_formula_units_Z 10
_cell_length_a 9.778513
_cell_length_b 9.923930
_cell_length_c 5.199184
_cell_angle_alpha 97.168442
_cell_angle_beta 101.559493
_cell_angle_gamma 44.727863
_cell_volume 347.747187
_symmetry_space_group_name_H-M "P -1"
_symmetry_group_IT_number 2
_symmetry_cell_setting 'triclinic'
loop_
_space_group_symop_operation_xyz
x,y,z
-x,-y,-z
loop_
_atom_site_type_symbol
_atom_site_label
_atom_site_fract_x
_atom_site_fract_y
_atom_site_fract_z
Si Si1 0.372072 0.492857 0.631003
Si Si2 0.996881 0.157134 0.121954
Si Si3 0.927156 0.437668 0.757940
Si Si4 0.684758 0.896828 0.364755
Si Si5 0.581453 0.138164 0.941877
O O1 0.500000 0.500000 0.500000
O O2 0.285076 0.423023 0.421862
O O3 0.501618 0.338766 0.871912
O O4 0.176195 0.704204 0.703765
O O5 0.232860 0.025462 0.221289
O O6 0.932604 0.298862 0.901087
O O7 0.000000 0.000000 0.000000
O O8 0.091450 0.305798 0.565156
O O9 0.000000 0.500000 0.000000
O O10 0.609367 0.827857 0.118047
O O11 0.500000 0.000000 0.500000
O O12 0.676618 0.041889 0.231389
#
# Coordination Sequence:
#
# PCOD9032580 Si02
#       5
#     2   2   2   2   2
#     4  12  28  48  77 111 152 205 258 316 383 455
#     4  11  26  48  73 109 156 202 254 314 383 464
#     4  11  26  48  75 110 152 199 256 319 383 455
#     4  10  22  43  72 104 147 196 243 308 384 452
#     4  10  24  43  70 108 149 192 250 311 376 452
#
# _framework density 28.756523000000001
#
# number of rings (size 3 to 8) (size 9 to 14) (size 15 to 20)
#    0.000    1.200    0.000    3.600    0.000   20.800 
#    0.000    5.000    0.000    0.000    0.000    0.000 
#    0.000    0.000    0.000    0.000    0.000    0.000 
#
# Total GULP energy -55989.936364 kJ/mol
# GULP energy per Si atom -5598.993636 kJ/mol
# Density = 2.869107 g / cm^3
# Si number density = 28.756523 Si / 1000 Ang^3
#
#
#
# Elastic Constant Matrix: (Units=GPa)
#
#
# Indices 1 2 3 4 5 6 
#
# 1 189.0692 76.9281 33.6481 5.2741 -27.5138 -31.1586
# 2 76.9281 189.5148 56.8532 9.1991 -31.1035 -17.5922
# 3 33.6481 56.8532 90.9616 1.1105 -38.0511 -15.0380
# 4 5.2741 9.1991 1.1105 67.4961 -7.0050 -18.1471
# 5 -27.5138 -31.1035 -38.0511 -7.0050 49.4044 -4.7330
# 6 -31.1586 -17.5922 -15.0380 -18.1471 -4.7330 74.8791
#
#
#
# Elastic Compliance Matrix: (Units=1/GPa)
#
#
# Indices 1 2 3 4 5 6 
#
# 1 0.007061 -0.002288 0.000766 0.000917 0.003500 0.002998
# 2 -0.002288 0.007387 -0.003553 -0.000735 0.000528 -0.000075
# 3 0.000766 -0.003553 0.019696 0.002939 0.014261 0.005053
# 4 0.000917 -0.000735 0.002939 0.016726 0.005179 0.005180
# 5 0.003500 0.000528 0.014261 0.005179 0.034998 0.007912
# 6 0.002998 -0.000075 0.005053 0.005180 0.007912 0.017355
#
#
# Mechanical properties :
#
#
# Convention : Reuss Voigt Hill
#
# Bulk Modulus (GPa) = 41.67568 89.37826 65.52697
# Shear Modulus (GPa) = 41.19600 58.49700 49.84650
#
# Velocity S-wave (km/s) = 3.78905 4.51512 4.16793
# Velocity P-wave (km/s) = 5.80229 7.63743 6.78221
#
# Compressibility (1/GPa) = 0.02399481
#
# Stress axis : x y z
#
# Youngs Moduli (GPa) = 141.61398 135.37838 50.77229
#
# Poissons Ratio (x) = 0.30977 -0.03891
# Poissons Ratio (y) = 0.32403 0.18038
# Poissons Ratio (z) = -0.10853 0.48097
#
# Static dielectric constant tensor:
#      x y z
#    x 2.362790 0.123990 0.437460 
#    y 0.123990 2.254800 0.267030 
#    z 0.437460 0.267030 2.835650 
# 
# From -- ./inp_files/16818.got.cif
#   From: 2010.05.17/outbox.cif.g08.bks.cpg/sg2_9_cif.got.tgz:16818.got - 2010.06.03 11:33:40.
