data_PCOD9032729
_publ_section_title
;
Structure prediction by ZEFSAII (Michael W. Deem and Ramdas Pophale) SiO2 
 PCOD9032729
Probable space group: P -1
;
_chemical_formula_sum "Si O2"
_cell_formula_units_Z 14
_cell_length_a 11.182523
_cell_length_b 16.672590
_cell_length_c 9.407821
_cell_angle_alpha 105.191409
_cell_angle_beta 52.439912
_cell_angle_gamma 145.001639
_cell_volume 680.231779
_symmetry_space_group_name_H-M "P -1"
_symmetry_group_IT_number 2
_symmetry_cell_setting 'triclinic'
loop_
_space_group_symop_operation_xyz
x,y,z
-x,-y,-z
loop_
_atom_site_type_symbol
_atom_site_label
_atom_site_fract_x
_atom_site_fract_y
_atom_site_fract_z
Si Si1 0.797884 0.132308 0.657722
Si Si2 0.873924 0.031726 0.095124
Si Si3 0.794513 0.642085 0.948039
Si Si4 0.653259 0.326236 0.204759
Si Si5 0.407644 0.844685 0.590547
Si Si6 0.557500 0.899433 0.971350
Si Si7 0.469155 0.424445 0.354065
O O1 0.144544 0.281925 0.452248
O O2 0.587824 0.002204 0.620326
O O3 0.698002 0.026836 0.811987
O O4 0.728861 0.191835 0.792538
O O5 0.101581 0.213395 0.050254
O O6 0.597819 0.910547 0.346540
O O7 0.778956 0.996574 0.985355
O O8 0.000000 0.000000 0.000000
O O9 0.082083 0.724871 0.730889
O O10 0.500000 0.500000 0.000000
O O11 0.711165 0.565400 0.127111
O O12 0.612443 0.243168 0.327202
O O13 0.511850 0.217066 0.116366
O O14 0.514757 0.351358 0.336580
O O15 0.000000 0.500000 0.000000
O O16 0.500000 0.500000 0.500000
#
# Coordination Sequence:
#
# PCOD9032729 Si02
#       7
#     2   2   2   2   2   2   2
#     4  10  22  43  73  99 132 184 233 284 346 414
#     4  12  28  45  71 102 142 186 239 283 345 428
#     4  12  27  48  70 102 145 185 231 290 357 416
#     4  11  24  45  69 103 139 176 232 293 349 403
#     4  11  25  47  73  97 138 190 230 285 349 422
#     4  10  23  42  71  97 138 181 236 280 346 411
#     4  12  26  42  73 103 141 177 234 292 351 407
#
# _framework density 20.581219999999998
#
# number of rings (size 3 to 8) (size 9 to 14) (size 15 to 20)
#    0.000    0.857    2.857    3.000   12.000    1.143 
#    0.000    1.429    0.000    0.000    0.000    0.000 
#    0.000    0.000    0.000    0.000    0.000    0.000 
#
# Total GULP energy -78321.938676 kJ/mol
# GULP energy per Si atom -5594.424191 kJ/mol
# Density = 2.053438 g / cm^3
# Si number density = 20.581220 Si / 1000 Ang^3
#
#
#
# Elastic Constant Matrix: (Units=GPa)
#
#
# Indices 1 2 3 4 5 6 
#
# 1 101.6956 59.0358 35.7363 12.5071 -25.2208 -6.5702
# 2 59.0358 138.1944 44.3685 11.4085 -16.8107 -2.2790
# 3 35.7363 44.3685 96.2338 2.3574 -11.9844 -1.8738
# 4 12.5071 11.4085 2.3574 38.0563 0.6987 -3.3131
# 5 -25.2208 -16.8107 -11.9844 0.6987 41.1611 4.8067
# 6 -6.5702 -2.2790 -1.8738 -3.3131 4.8067 46.0147
#
#
#
# Elastic Compliance Matrix: (Units=1/GPa)
#
#
# Indices 1 2 3 4 5 6 
#
# 1 0.015725 -0.004694 -0.002711 -0.003639 0.006883 0.000921
# 2 -0.004694 0.010366 -0.002937 -0.001432 0.000578 -0.000440
# 3 -0.002711 -0.002937 0.012836 0.000958 0.000864 -0.000031
# 4 -0.003639 -0.001432 0.000958 0.028059 -0.003223 0.001805
# 5 0.006883 0.000578 0.000864 -0.003223 0.029317 -0.002248
# 6 0.000921 -0.000440 -0.000031 0.001805 -0.002248 0.022206
#
#
# Mechanical properties :
#
#
# Convention : Reuss Voigt Hill
#
# Bulk Modulus (GPa) = 54.82072 68.26722 61.54397
# Shear Modulus (GPa) = 34.41766 38.17863 36.29814
#
# Velocity S-wave (km/s) = 4.09379 4.31167 4.20414
# Velocity P-wave (km/s) = 7.00283 7.61768 7.31672
#
# Compressibility (1/GPa) = 0.01824128
#
# Stress axis : x y z
#
# Youngs Moduli (GPa) = 63.59248 96.47002 77.90657
#
# Poissons Ratio (x) = 0.45287 0.21120
# Poissons Ratio (y) = 0.29853 0.22885
# Poissons Ratio (z) = 0.17239 0.28338
#
# Static dielectric constant tensor:
#      x y z
#    x 1.663540 0.050670 0.006090 
#    y 0.050670 1.692170 -0.022630 
#    z 0.006090 -0.022630 1.733490 
# 
# From -- ./inp_files/156574.got.cif
#   From: 2010.05.17/outbox.cif.g08.bks.cpg/sg2_79_cif.got.tgz:156574.got - 2010.06.03 11:33:40.
