data_PCOD9032882
_publ_section_title
;
Structure prediction by ZEFSAII (Michael W. Deem and Ramdas Pophale) SiO2 
 PCOD9032882
Probable space group: P -1
;
_chemical_formula_sum "Si O2"
_cell_formula_units_Z 12
_cell_length_a 12.320555
_cell_length_b 7.841319
_cell_length_c 12.691544
_cell_angle_alpha 120.683997
_cell_angle_beta 24.858380
_cell_angle_gamma 124.078701
_cell_volume 426.911136
_symmetry_space_group_name_H-M "P -1"
_symmetry_group_IT_number 2
_symmetry_cell_setting 'triclinic'
loop_
_space_group_symop_operation_xyz
x,y,z
-x,-y,-z
loop_
_atom_site_type_symbol
_atom_site_label
_atom_site_fract_x
_atom_site_fract_y
_atom_site_fract_z
Si Si1 0.009367 0.568003 0.812289
Si Si2 0.500000 0.500000 0.000000
Si Si3 0.137695 0.060098 0.204717
Si Si4 0.315765 0.922482 0.792549
Si Si5 0.224435 0.702714 0.466232
Si Si6 0.500000 0.000000 0.000000
Si Si7 0.540992 0.677570 0.681031
O O1 0.139198 0.794140 0.816640
O O2 0.965370 0.599188 0.735488
O O3 0.238700 0.447045 0.570893
O O4 0.742323 0.475742 0.082343
O O5 0.422137 0.240834 0.014327
O O6 0.330106 0.535293 0.261779
O O7 0.900613 0.161679 0.457512
O O8 0.191616 0.914018 0.200077
O O9 0.132506 0.964445 0.063427
O O10 0.485085 0.781067 0.653579
O O11 0.524108 0.139960 0.649435
O O12 0.405007 0.149627 0.221264
#
# Coordination Sequence:
#
# PCOD9032882 Si02
#       7
#     2   1   2   2   2   1   2
#     4  12  27  46  75 109 148 193 248 298 368 436
#     4  10  22  44  62 106 138 188 240 298 356 440
#     4  10  23  42  71  98 143 189 239 303 363 430
#     4  10  25  46  70 107 145 191 245 299 366 435
#     4  11  25  43  74 104 147 194 241 306 368 433
#     4  10  24  48  66 104 138 188 244 292 366 430
#     4  11  27  47  74 105 146 198 243 304 362 438
#
# _framework density 28.108891
#
# number of rings (size 3 to 8) (size 9 to 14) (size 15 to 20)
#    0.000    1.333    0.000    3.000   14.000    1.333 
#    6.000    0.000    0.000    0.000    0.000    0.000 
#    0.000    0.000    0.000    0.000    0.000    0.000 
#
# Total GULP energy -66841.253856 kJ/mol
# GULP energy per Si atom -5570.104488 kJ/mol
# Density = 2.804491 g / cm^3
# Si number density = 28.108891 Si / 1000 Ang^3
#
#
#
# Elastic Constant Matrix: (Units=GPa)
#
#
# Indices 1 2 3 4 5 6 
#
# 1 53.4230 5.9483 17.6992 8.5025 17.0780 5.2998
# 2 5.9483 105.3916 67.1102 -2.7873 2.5819 31.4997
# 3 17.6992 67.1102 176.3259 13.3837 -9.8043 8.9889
# 4 8.5025 -2.7873 13.3837 67.4891 -13.3952 2.6586
# 5 17.0780 2.5819 -9.8043 -13.3952 33.2313 14.6960
# 6 5.2998 31.4997 8.9889 2.6586 14.6960 50.7924
#
#
#
# Elastic Compliance Matrix: (Units=1/GPa)
#
#
# Indices 1 2 3 4 5 6 
#
# 1 0.026587 -0.000222 -0.003330 -0.006613 -0.018969 0.003788
# 2 -0.000222 0.016039 -0.005640 0.002722 0.002651 -0.009835
# 3 -0.003330 -0.005640 0.008350 -0.000787 0.003705 0.001337
# 4 -0.006613 0.002722 -0.000787 0.018713 0.012971 -0.005592
# 5 -0.018969 0.002651 0.003705 0.012971 0.053206 -0.016393
# 6 0.003788 -0.009835 0.001337 -0.005592 -0.016393 0.030191
#
#
# Mechanical properties :
#
#
# Convention : Reuss Voigt Hill
#
# Bulk Modulus (GPa) = 30.68323 57.40619 44.04471
# Shear Modulus (GPa) = 27.42206 46.59475 37.00841
#
# Velocity S-wave (km/s) = 3.12679 4.07584 3.63245
# Velocity P-wave (km/s) = 4.89646 6.52818 5.77029
#
# Compressibility (1/GPa) = 0.03259109
#
# Stress axis : x y z
#
# Youngs Moduli (GPa) = 37.61204 62.34838 119.76427
#
# Poissons Ratio (x) = 0.01386 0.39882
# Poissons Ratio (y) = 0.00836 0.67547
# Poissons Ratio (z) = 0.12525 0.35165
#
# Static dielectric constant tensor:
#      x y z
#    x 2.549440 0.188590 -0.357430 
#    y 0.188590 1.948140 -0.014820 
#    z -0.357430 -0.014820 2.298850 
# 
# From -- ./inp_files/29805.got.cif
#   From: 2010.05.17/outbox.cif.g08.bks.cpg/sg2_15_cif.got.tgz:29805.got - 2010.06.03 11:33:40.
