data_PCOD9032845
_publ_section_title
;
Structure prediction by ZEFSAII (Michael W. Deem and Ramdas Pophale) SiO2 
 PCOD9032845
Probable space group: P -1
;
_chemical_formula_sum "Si O2"
_cell_formula_units_Z 14
_cell_length_a 7.610667
_cell_length_b 9.316829
_cell_length_c 21.373219
_cell_angle_alpha 146.788941
_cell_angle_beta 137.451473
_cell_angle_gamma 49.213538
_cell_volume 558.527857
_symmetry_space_group_name_H-M "P -1"
_symmetry_group_IT_number 2
_symmetry_cell_setting 'triclinic'
loop_
_space_group_symop_operation_xyz
x,y,z
-x,-y,-z
loop_
_atom_site_type_symbol
_atom_site_label
_atom_site_fract_x
_atom_site_fract_y
_atom_site_fract_z
Si Si1 0.596004 0.352248 0.121208
Si Si2 0.158617 0.347208 0.902533
Si Si3 0.260555 0.199746 0.091477
Si Si4 0.206198 0.068231 0.285704
Si Si5 0.484787 0.052197 0.228570
Si Si6 0.949370 0.379338 0.508892
Si Si7 0.741233 0.874531 0.405122
O O1 0.766600 0.105849 0.044564
O O2 0.718910 0.621276 0.262737
O O3 0.496863 0.265267 0.131562
O O4 0.338079 0.405911 0.030006
O O5 0.355011 0.208802 0.852270
O O6 0.980729 0.124374 0.800649
O O7 0.977967 0.588506 0.912694
O O8 0.350691 0.200817 0.187380
O O9 0.715058 0.006344 0.791379
O O10 0.472587 0.050109 0.388875
O O11 0.096537 0.371534 0.366711
O O12 0.698665 0.219802 0.377937
O O13 0.000000 0.500000 0.500000
O O14 0.202286 0.207862 0.538827
O O15 0.000000 0.000000 0.500000
#
# Coordination Sequence:
#
# PCOD9032845 Si02
#       7
#     2   2   2   2   2   2   2
#     4  10  23  44  77 110 145 194 257 296 378 440
#     4  11  24  46  80 105 144 203 247 305 373 444
#     4  10  22  43  78 109 144 199 246 310 370 439
#     4  12  27  46  74 110 152 195 246 309 373 438
#     4  11  25  47  68 115 154 188 255 307 370 446
#     4  12  26  46  74 109 152 197 247 307 369 444
#     4  12  27  46  75 111 148 198 245 305 367 449
#
# _framework density 25.065894
#
# number of rings (size 3 to 8) (size 9 to 14) (size 15 to 20)
#    0.000    0.857    4.286    1.714    4.000    2.857 
#    0.000    3.571    0.000    0.000    0.000    0.000 
#    0.000    0.000    0.000    0.000    0.000    0.000 
#
# Total GULP energy -78548.309526 kJ/mol
# GULP energy per Si atom -5610.593538 kJ/mol
# Density = 2.500884 g / cm^3
# Si number density = 25.065894 Si / 1000 Ang^3
#
#
#
# Elastic Constant Matrix: (Units=GPa)
#
#
# Indices 1 2 3 4 5 6 
#
# 1 71.9241 9.1837 8.3335 -18.0807 -16.5553 5.5021
# 2 9.1837 138.0160 -2.2352 -43.8993 -1.9566 -18.0730
# 3 8.3335 -2.2352 84.5276 -4.1114 24.9493 -5.6645
# 4 -18.0807 -43.8993 -4.1114 51.7548 -2.2507 -4.2555
# 5 -16.5553 -1.9566 24.9493 -2.2507 39.7092 -8.9114
# 6 5.5021 -18.0730 -5.6645 -4.2555 -8.9114 39.0476
#
#
#
# Elastic Compliance Matrix: (Units=1/GPa)
#
#
# Indices 1 2 3 4 5 6 
#
# 1 0.018911 0.001516 -0.004806 0.008089 0.011634 0.000877
# 2 0.001516 0.011708 0.000205 0.011216 0.003336 0.007219
# 3 -0.004806 0.000205 0.015806 -0.000746 -0.011907 0.000266
# 4 0.008089 0.011216 -0.000746 0.032740 0.008363 0.009420
# 5 0.011634 0.003336 -0.011907 0.008363 0.039997 0.008217
# 6 0.000877 0.007219 0.000266 0.009420 0.008217 0.031768
#
#
# Mechanical properties :
#
#
# Convention : Reuss Voigt Hill
#
# Bulk Modulus (GPa) = 24.84169 36.11462 30.47815
# Shear Modulus (GPa) = 29.32252 44.71470 37.01861
#
# Velocity S-wave (km/s) = 3.42397 4.22819 3.84715
# Velocity P-wave (km/s) = 5.05604 6.18675 5.64975
#
# Compressibility (1/GPa) = 0.04025492
#
# Stress axis : x y z
#
# Youngs Moduli (GPa) = 52.87916 85.41256 63.26845
#
# Poissons Ratio (x) = -0.12953 0.30407
# Poissons Ratio (y) = -0.08019 -0.01295
# Poissons Ratio (z) = 0.25413 -0.01748
#
# Static dielectric constant tensor:
#      x y z
#    x 1.969640 0.006160 -0.006230 
#    y 0.006160 2.018530 0.061540 
#    z -0.006230 0.061540 2.067020 
# 
# From -- ./inp_files/610042.got.cif
#   From: 2010.05.17/outbox.cif.g08.bks.cpg/sg2_306_cif.got.tgz:610042.got - 2010.06.03 11:33:40.
