data_PCOD9032336
_publ_section_title
;
Structure prediction by ZEFSAII (Michael W. Deem and Ramdas Pophale) SiO2 
 PCOD9032336
Probable space group: P -1
;
_chemical_formula_sum "Si O2"
_cell_formula_units_Z 15
_cell_length_a 7.573004
_cell_length_b 12.337334
_cell_length_c 15.409166
_cell_angle_alpha 27.259191
_cell_angle_beta 81.201271
_cell_angle_gamma 86.890285
_cell_volume 640.930386
_symmetry_space_group_name_H-M "P -1"
_symmetry_group_IT_number 2
_symmetry_cell_setting 'triclinic'
loop_
_space_group_symop_operation_xyz
x,y,z
-x,-y,-z
loop_
_atom_site_type_symbol
_atom_site_label
_atom_site_fract_x
_atom_site_fract_y
_atom_site_fract_z
Si Si1 0.500000 0.000000 0.000000
Si Si2 0.495601 0.280012 0.549425
Si Si3 0.567866 0.204804 0.016635
Si Si4 0.190261 0.271153 0.828852
Si Si5 0.720006 0.611517 0.971677
Si Si6 0.108690 0.288241 0.633332
Si Si7 0.501697 0.901064 0.667770
Si Si8 0.036463 0.771456 0.956520
O O1 0.692025 0.925471 0.013906
O O2 0.599615 0.224168 0.898924
O O3 0.667887 0.485939 0.379461
O O4 0.314601 0.373028 0.525205
O O5 0.509637 0.084381 0.763395
O O6 0.473479 0.114630 0.582717
O O7 0.421388 0.339618 0.975944
O O8 0.756555 0.253446 0.020744
O O9 0.106300 0.185732 0.803724
O O10 0.069095 0.323393 0.880165
O O11 0.675813 0.792637 0.769696
O O12 0.919213 0.655388 0.966831
O O13 0.654524 0.335460 0.147251
O O14 0.000000 0.500000 0.500000
O O15 0.033241 0.056959 0.745632
O O16 0.500000 0.000000 0.500000
#
# Coordination Sequence:
#
# PCOD9032336 Si02
#       8
#     1   2   2   2   2   2   2   2
#     4  12  22  36  66  94 136 172 226 254 334 396
#     4  10  23  43  64  92 129 175 220 271 335 390
#     4  10  23  41  66  96 136 178 220 269 332 408
#     4  12  24  37  66  97 133 181 219 271 327 410
#     4  10  22  43  73  92 130 180 221 285 348 393
#     4  11  26  40  61  97 142 175 219 266 332 408
#     4  10  22  43  70  98 124 170 236 285 339 404
#     4  11  23  43  63 102 133 174 225 270 332 412
#
# _framework density 23.403479000000001
#
# number of rings (size 3 to 8) (size 9 to 14) (size 15 to 20)
#    0.000    1.333    4.000    1.600    5.600    0.000 
#    0.000   10.667    0.000    8.800    0.000    0.000 
#    0.000    0.000    0.000    0.000    0.000    0.000 
#
# Total GULP energy -83581.617392 kJ/mol
# GULP energy per Si atom -5572.107826 kJ/mol
# Density = 2.335021 g / cm^3
# Si number density = 23.403479 Si / 1000 Ang^3
#
#
#
# Elastic Constant Matrix: (Units=GPa)
#
#
# Indices 1 2 3 4 5 6 
#
# 1 98.7306 31.7745 17.6530 -4.7902 1.0642 14.4180
# 2 31.7745 99.2650 23.9611 -14.0328 12.2644 10.4939
# 3 17.6530 23.9611 71.3600 17.7609 -8.8685 -4.1309
# 4 -4.7902 -14.0328 17.7609 36.7053 8.4553 1.9293
# 5 1.0642 12.2644 -8.8685 8.4553 32.5664 3.7142
# 6 14.4180 10.4939 -4.1309 1.9293 3.7142 48.3555
#
#
#
# Elastic Compliance Matrix: (Units=1/GPa)
#
#
# Indices 1 2 3 4 5 6 
#
# 1 0.012056 -0.002314 -0.003108 0.002518 -0.000634 -0.003410
# 2 -0.002314 0.017467 -0.010766 0.014735 -0.012847 -0.003621
# 3 -0.003108 -0.010766 0.025931 -0.021045 0.016102 0.005081
# 4 0.002518 0.014735 -0.021045 0.049098 -0.023436 -0.005905
# 5 -0.000634 -0.012847 0.016102 -0.023436 0.045833 0.001767
# 6 -0.003410 -0.003621 0.005081 -0.005905 0.001767 0.023017
#
#
# Mechanical properties :
#
#
# Convention : Reuss Voigt Hill
#
# Bulk Modulus (GPa) = 43.33405 46.23699 44.78552
# Shear Modulus (GPa) = 23.42247 36.58991 30.00619
#
# Velocity S-wave (km/s) = 3.16699 3.95832 3.58456
# Velocity P-wave (km/s) = 5.65061 6.37891 6.02577
#
# Compressibility (1/GPa) = 0.02307654
#
# Stress axis : x y z
#
# Youngs Moduli (GPa) = 82.94615 57.25206 38.56460
#
# Poissons Ratio (x) = 0.13249 0.11987
# Poissons Ratio (y) = 0.19195 0.41519
# Poissons Ratio (z) = 0.25781 0.61638
#
# Static dielectric constant tensor:
#      x y z
#    x 1.985530 0.095110 0.098700 
#    y 0.095110 2.148580 0.399240 
#    z 0.098700 0.399240 2.551310 
# 
# From -- ./inp_files/499701.got.cif
#   From: 2010.05.17/outbox.cif.g08.bks.cpg/sg2_250_cif.got.tgz:499701.got - 2010.06.03 11:33:40.
