data_PCOD9032989
_publ_section_title
;
Structure prediction by ZEFSAII (Michael W. Deem and Ramdas Pophale) SiO2 
 PCOD9032989
Probable space group: P -1
;
_chemical_formula_sum "Si O2"
_cell_formula_units_Z 16
_cell_length_a 17.410261
_cell_length_b 11.532986
_cell_length_c 8.846261
_cell_angle_alpha 98.316301
_cell_angle_beta 51.476193
_cell_angle_gamma 139.403254
_cell_volume 691.163681
_symmetry_space_group_name_H-M "P -1"
_symmetry_group_IT_number 2
_symmetry_cell_setting 'triclinic'
loop_
_space_group_symop_operation_xyz
x,y,z
-x,-y,-z
loop_
_atom_site_type_symbol
_atom_site_label
_atom_site_fract_x
_atom_site_fract_y
_atom_site_fract_z
Si Si1 0.403289 0.155059 0.015672
Si Si2 0.966284 0.338906 0.724360
Si Si3 0.224982 0.529701 0.199401
Si Si4 0.122858 0.517229 0.996285
Si Si5 0.775018 0.970299 0.300599
Si Si6 0.033716 0.161094 0.775640
Si Si7 0.877142 0.982771 0.503715
Si Si8 0.403289 0.655059 0.515672
O O1 0.566858 0.298585 0.965876
O O2 0.500000 0.250000 0.750000
O O3 0.232522 0.882018 0.168885
O O4 0.286460 0.153682 0.197846
O O5 0.938368 0.412541 0.892187
O O6 0.141434 0.533831 0.428279
O O7 1.000000 0.250000 0.750000
O O8 0.217091 0.575587 0.052239
O O9 0.068008 0.261221 0.341945
O O10 0.931992 0.238779 0.158055
O O11 0.286460 0.653682 0.697846
O O12 0.782909 0.924413 0.447761
O O13 0.566858 0.798585 0.465876
O O14 0.858566 0.966169 0.071721
O O15 0.232522 0.382018 0.668885
O O16 0.061632 0.087459 0.607813
#
# Coordination Sequence:
#
# PCOD9032989 Si02
#       8
#     2   2   2   2   2   2   2   2
#     4  11  23  41  62  96 127 160 211 255 309 375
#     4  11  23  42  62  95 127 163 210 254 308 371
#     4  10  22  44  64  94 125 159 213 255 313 370
#     4  10  24  41  68  90 126 167 202 261 312 363
#     4  10  22  44  64  94 125 159 213 255 313 370
#     4  11  23  42  62  95 127 163 210 254 308 371
#     4  10  24  41  68  90 126 167 202 261 312 363
#     4  11  23  41  62  96 127 160 211 255 309 375
#
# _framework density 23.149363000000001
#
# number of rings (size 3 to 8) (size 9 to 14) (size 15 to 20)
#    0.000    1.500    2.500    1.500    0.000    8.000 
#    0.000    0.000    0.000    0.000    0.000    0.000 
#    0.000    0.000    0.000    0.000    0.000    0.000 
#
# Total GULP energy -89535.711368 kJ/mol
# GULP energy per Si atom -5595.981960 kJ/mol
# Density = 2.309667 g / cm^3
# Si number density = 23.149363 Si / 1000 Ang^3
#
#
#
# Elastic Constant Matrix: (Units=GPa)
#
#
# Indices 1 2 3 4 5 6 
#
# 1 117.5910 51.5998 41.7627 3.9585 -15.5503 10.7985
# 2 51.5998 98.7049 46.0624 31.0446 -30.7923 0.0856
# 3 41.7627 46.0624 138.7468 37.6076 -27.4943 -13.2658
# 4 3.9585 31.0446 37.6076 49.3142 5.9149 -18.5884
# 5 -15.5503 -30.7923 -27.4943 5.9149 41.5908 2.0156
# 6 10.7985 0.0856 -13.2658 -18.5884 2.0156 46.6369
#
#
#
# Elastic Compliance Matrix: (Units=1/GPa)
#
#
# Indices 1 2 3 4 5 6 
#
# 1 0.013268 -0.009738 -0.004599 0.009208 -0.006579 -0.000408
# 2 -0.009738 0.030124 0.005086 -0.028596 0.026522 -0.008898
# 3 -0.004599 0.005086 0.013549 -0.015445 0.013287 -0.001821
# 4 0.009208 -0.028596 -0.015445 0.061194 -0.037589 0.019542
# 5 -0.006579 0.026522 0.013287 -0.037589 0.055938 -0.012145
# 6 -0.000408 -0.008898 -0.001821 0.019542 -0.012145 0.029349
#
#
# Mechanical properties :
#
#
# Convention : Reuss Voigt Hill
#
# Bulk Modulus (GPa) = 26.01560 70.43249 48.22405
# Shear Modulus (GPa) = 21.30036 41.88290 31.59163
#
# Velocity S-wave (km/s) = 3.03665 4.25814 3.69817
# Velocity P-wave (km/s) = 4.85361 7.39371 6.25398
#
# Compressibility (1/GPa) = 0.03843847
#
# Stress axis : x y z
#
# Youngs Moduli (GPa) = 75.36866 33.19606 73.80836
#
# Poissons Ratio (x) = 0.32326 0.33948
# Poissons Ratio (y) = 0.73394 -0.37541
# Poissons Ratio (z) = 0.34665 -0.16884
#
# Static dielectric constant tensor:
#      x y z
#    x 1.887280 0.010400 0.007540 
#    y 0.010400 1.891050 0.046780 
#    z 0.007540 0.046780 1.893080 
# 
# From -- ./inp_files/333367.got.cif
#   From: 2010.05.17/outbox.cif.g08.bks.cpg/sg2_167_cif.got.tgz:333367.got - 2010.06.03 11:33:40.
