data_PCOD9032732
_publ_section_title
;
Structure prediction by ZEFSAII (Michael W. Deem and Ramdas Pophale) SiO2 
 PCOD9032732
Probable space group: P -1
;
_chemical_formula_sum "Si O2"
_cell_formula_units_Z 16
_cell_length_a 8.790588
_cell_length_b 9.443680
_cell_length_c 10.217831
_cell_angle_alpha 82.984480
_cell_angle_beta 121.638125
_cell_angle_gamma 67.959925
_cell_volume 612.277088
_symmetry_space_group_name_H-M "P -1"
_symmetry_group_IT_number 2
_symmetry_cell_setting 'triclinic'
loop_
_space_group_symop_operation_xyz
x,y,z
-x,-y,-z
loop_
_atom_site_type_symbol
_atom_site_label
_atom_site_fract_x
_atom_site_fract_y
_atom_site_fract_z
Si Si1 0.070022 0.381438 0.416704
Si Si2 0.748847 0.407884 0.611968
Si Si3 0.660090 0.729879 0.884267
Si Si4 0.640703 0.129654 0.032078
Si Si5 0.270213 0.586971 0.945970
Si Si6 0.083417 0.122292 0.991928
Si Si7 0.336713 0.005708 0.526068
Si Si8 0.960049 0.093341 0.608041
O O1 0.189509 0.452981 0.379544
O O2 0.221893 0.183319 0.528181
O O3 0.000000 0.500000 0.500000
O O4 0.887267 0.393516 0.241782
O O5 0.500000 0.500000 0.500000
O O6 0.826433 0.292642 0.527967
O O7 0.898830 0.262942 0.798797
O O8 0.574835 0.777624 0.993788
O O9 0.459824 0.846998 0.693661
O O10 0.727917 0.537295 0.930885
O O11 0.841241 0.763404 0.916284
O O12 0.739649 0.244855 0.033981
O O13 0.676024 0.021318 0.932042
O O14 0.816373 0.982038 0.217671
O O15 0.500000 0.500000 0.000000
O O16 0.000000 0.000000 0.000000
O O17 0.500000 0.000000 0.500000
O O18 0.174824 0.974812 0.375497
O O19 0.000000 0.000000 0.500000
#
# Coordination Sequence:
#
# PCOD9032732 Si02
#       8
#     2   2   2   2   2   2   2   2
#     4  12  26  46  76 110 142 192 251 300 353 437
#     4  11  26  47  67 102 148 187 234 297 361 427
#     4  11  24  45  73 101 140 187 239 302 360 430
#     4  10  22  43  73  99 135 185 239 297 350 430
#     4  10  23  46  71 109 142 181 242 306 363 418
#     4  11  26  45  68 100 143 187 240 288 367 431
#     4  12  27  44  72 105 144 188 240 295 367 432
#     4  11  21  43  72 100 133 183 240 288 350 419
#
# _framework density 26.131959999999999
#
# number of rings (size 3 to 8) (size 9 to 14) (size 15 to 20)
#    0.000    1.000    3.750    1.875    7.000    2.000 
#    4.500    1.250    0.000    0.000    0.000    0.000 
#    0.000    0.000    0.000    0.000    0.000    0.000 
#
# Total GULP energy -89344.795898 kJ/mol
# GULP energy per Si atom -5584.049744 kJ/mol
# Density = 2.607248 g / cm^3
# Si number density = 26.131960 Si / 1000 Ang^3
#
#
#
# Elastic Constant Matrix: (Units=GPa)
#
#
# Indices 1 2 3 4 5 6 
#
# 1 99.1634 42.6372 16.2541 -6.4068 15.0545 34.2756
# 2 42.6372 178.8814 43.0474 -22.5138 1.5535 12.8178
# 3 16.2541 43.0474 97.6088 -27.7089 10.1904 8.9484
# 4 -6.4068 -22.5138 -27.7089 38.2283 9.3714 0.6682
# 5 15.0545 1.5535 10.1904 9.3714 37.2786 -7.6749
# 6 34.2756 12.8178 8.9484 0.6682 -7.6749 76.3320
#
#
#
# Elastic Compliance Matrix: (Units=1/GPa)
#
#
# Indices 1 2 3 4 5 6 
#
# 1 0.015350 -0.002868 0.001626 0.004450 -0.009200 -0.007566
# 2 -0.002868 0.006993 -0.002298 0.001676 0.001174 0.000486
# 3 0.001626 -0.002298 0.015729 0.012497 -0.008654 -0.003168
# 4 0.004450 0.001676 0.012497 0.041176 -0.016828 -0.005797
# 5 -0.009200 0.001174 -0.008654 -0.016828 0.038943 0.009012
# 6 -0.007566 0.000486 -0.003168 -0.005797 0.009012 0.017744
#
#
# Mechanical properties :
#
#
# Convention : Reuss Voigt Hill
#
# Bulk Modulus (GPa) = 32.26574 64.39232 48.32903
# Shear Modulus (GPa) = 32.60595 48.61541 40.61068
#
# Velocity S-wave (km/s) = 3.53617 4.31789 3.94644
# Velocity P-wave (km/s) = 5.38950 7.03943 6.26899
#
# Compressibility (1/GPa) = 0.03099263
#
# Stress axis : x y z
#
# Youngs Moduli (GPa) = 65.14510 143.00563 63.57626
#
# Poissons Ratio (x) = 0.41015 -0.10337
# Poissons Ratio (y) = 0.18684 0.14608
# Poissons Ratio (z) = -0.10592 0.32859
#
# Static dielectric constant tensor:
#      x y z
#    x 2.225000 -0.104460 -0.116390 
#    y -0.104460 2.130640 0.079940 
#    z -0.116390 0.079940 2.058740 
# 
# From -- ./inp_files/378862.got.cif
#   From: 2010.05.17/outbox.cif.g08.bks.cpg/sg2_190_cif.got.tgz:378862.got - 2010.06.03 11:33:40.
