data_PCOD9032159
_publ_section_title
;
Structure prediction by ZEFSAII (Michael W. Deem and Ramdas Pophale) SiO2 
 PCOD9032159
Probable space group: P -1
;
_chemical_formula_sum "Si O2"
_cell_formula_units_Z 16
_cell_length_a 19.324447
_cell_length_b 18.600685
_cell_length_c 7.203661
_cell_angle_alpha 50.859588
_cell_angle_beta 41.080861
_cell_angle_gamma 25.488295
_cell_volume 721.041855
_symmetry_space_group_name_H-M "P -1"
_symmetry_group_IT_number 2
_symmetry_cell_setting 'triclinic'
loop_
_space_group_symop_operation_xyz
x,y,z
-x,-y,-z
loop_
_atom_site_type_symbol
_atom_site_label
_atom_site_fract_x
_atom_site_fract_y
_atom_site_fract_z
Si Si1 0.879884 0.409254 0.063421
Si Si2 0.143115 0.816853 0.080391
Si Si3 0.640775 0.215279 0.061099
Si Si4 0.229754 0.266303 0.698297
Si Si5 0.118098 0.058001 0.263201
Si Si6 0.627901 0.714586 0.313345
Si Si7 0.362627 0.525442 0.840498
Si Si8 0.535565 0.086330 0.058828
O O1 0.732220 0.545342 0.303267
O O2 0.742270 0.474966 0.071236
O O3 0.026839 0.216259 0.100792
O O4 0.028590 0.386170 0.813182
O O5 0.036159 0.853279 0.414043
O O6 0.324493 0.739594 0.915861
O O7 0.203762 0.700221 0.991632
O O8 0.000000 0.000000 0.000000
O O9 0.558403 0.180341 0.365204
O O10 0.492932 0.373467 0.967147
O O11 0.830350 0.052882 0.820740
O O12 0.228365 0.341596 0.743313
O O13 0.367509 0.202064 0.361665
O O14 0.334757 0.101001 0.858161
O O15 0.319976 0.935534 0.152923
O O16 0.557415 0.828019 0.095426
O O17 0.500000 0.500000 0.500000
#
# Coordination Sequence:
#
# PCOD9032159 Si02
#       8
#     2   2   2   2   2   2   2   2
#     4  11  25  42  67  98 133 174 225 281 330 400
#     4  12  24  41  67 102 131 176 225 277 340 401
#     4  12  24  42  70  96 138 179 224 278 335 407
#     4  10  23  45  67  98 139 174 228 276 337 394
#     4  11  22  44  64  97 137 173 225 278 335 399
#     4  12  23  43  68 102 133 181 224 273 342 398
#     4  12  25  46  68  98 137 180 224 278 340 400
#     4  10  22  43  69  99 134 183 220 276 336 408
#
# _framework density 22.190114000000001
#
# number of rings (size 3 to 8) (size 9 to 14) (size 15 to 20)
#    0.000    0.750    1.250    6.750    0.000    0.500 
#    6.750    0.000    0.000    0.000    0.000    0.000 
#    0.000    0.000    0.000    0.000    0.000    0.000 
#
# Total GULP energy -89388.471825 kJ/mol
# GULP energy per Si atom -5586.779489 kJ/mol
# Density = 2.213961 g / cm^3
# Si number density = 22.190114 Si / 1000 Ang^3
#
#
#
# Elastic Constant Matrix: (Units=GPa)
#
#
# Indices 1 2 3 4 5 6 
#
# 1 168.1796 28.0278 29.2821 -1.6355 5.3322 -10.4061
# 2 28.0278 79.1240 11.7470 6.0465 16.4660 2.0773
# 3 29.2821 11.7470 88.6723 3.3930 -0.8515 -5.5350
# 4 -1.6355 6.0465 3.3930 35.4204 -3.1560 11.3342
# 5 5.3322 16.4660 -0.8515 -3.1560 30.4005 10.8703
# 6 -10.4061 2.0773 -5.5350 11.3342 10.8703 44.8132
#
#
#
# Elastic Compliance Matrix: (Units=1/GPa)
#
#
# Indices 1 2 3 4 5 6 
#
# 1 0.006728 -0.002034 -0.001876 0.000300 -0.000637 0.001504
# 2 -0.002034 0.015747 -0.001224 -0.004121 -0.009332 0.001952
# 3 -0.001876 -0.001224 0.012201 -0.001401 0.000721 0.001308
# 4 0.000300 -0.004121 -0.001401 0.033319 0.009396 -0.010619
# 5 -0.000637 -0.009332 0.000721 0.009396 0.043550 -0.012567
# 6 0.001504 0.001952 0.001308 -0.010619 -0.012567 0.028469
#
#
# Mechanical properties :
#
#
# Convention : Reuss Voigt Hill
#
# Bulk Modulus (GPa) = 40.97286 52.67663 46.82475
# Shear Modulus (GPa) = 31.56202 39.92141 35.74171
#
# Velocity S-wave (km/s) = 3.77549 4.24614 4.01771
# Velocity P-wave (km/s) = 6.12457 6.91592 6.53224
#
# Compressibility (1/GPa) = 0.02440640
#
# Stress axis : x y z
#
# Youngs Moduli (GPa) = 148.63586 63.50597 81.95856
#
# Poissons Ratio (x) = 0.12920 0.15375
# Poissons Ratio (y) = 0.30239 0.10034
# Poissons Ratio (z) = 0.27883 0.07775
#
# Static dielectric constant tensor:
#      x y z
#    x 1.853950 -0.016430 -0.011050 
#    y -0.016430 1.783360 0.007110 
#    z -0.011050 0.007110 1.809640 
# 
# From -- ./inp_files/111616.got.cif
#   From: 2010.05.17/outbox.cif.g08.bks.cpg/sg2_56_cif.got.tgz:111616.got - 2010.06.03 11:33:40.
