data_PCOD9032908
_publ_section_title
;
Structure prediction by ZEFSAII (Michael W. Deem and Ramdas Pophale) SiO2 
 PCOD9032908
Probable space group: P -1
;
_chemical_formula_sum "Si O2"
_cell_formula_units_Z 16
_cell_length_a 10.072187
_cell_length_b 6.450014
_cell_length_c 13.661597
_cell_angle_alpha 105.717995
_cell_angle_beta 110.355655
_cell_angle_gamma 114.814113
_cell_volume 658.449063
_symmetry_space_group_name_H-M "P -1"
_symmetry_group_IT_number 2
_symmetry_cell_setting 'triclinic'
loop_
_space_group_symop_operation_xyz
x,y,z
-x,-y,-z
loop_
_atom_site_type_symbol
_atom_site_label
_atom_site_fract_x
_atom_site_fract_y
_atom_site_fract_z
Si Si1 0.564933 0.326581 0.026239
Si Si2 0.679850 0.043630 0.391057
Si Si3 0.258614 0.257228 0.499291
Si Si4 0.822812 0.806631 0.812620
Si Si5 0.904688 0.571279 0.634477
Si Si6 0.720574 0.216057 0.199944
Si Si7 0.883008 0.610755 0.003258
Si Si8 0.419436 0.142069 0.355378
O O1 0.646851 0.377032 0.161776
O O2 0.500000 0.500000 0.000000
O O3 0.721688 0.406305 0.002800
O O4 0.392568 0.037501 0.929576
O O5 0.817141 0.297773 0.522288
O O6 0.689834 0.124285 0.291914
O O7 0.488345 0.960478 0.359881
O O8 0.717279 0.832270 0.401983
O O9 0.085476 0.235208 0.423449
O O10 0.300788 0.108550 0.411368
O O11 0.408976 0.563376 0.562711
O O12 0.802107 0.613439 0.696588
O O13 0.821893 0.673302 0.895425
O O14 0.680261 0.868779 0.768524
O O15 0.999789 0.096269 0.882497
O O16 0.076959 0.641250 0.739759
O O17 0.000000 0.500000 0.000000
#
# Coordination Sequence:
#
# PCOD9032908 Si02
#       8
#     2   2   2   2   2   2   2   2
#     4  11  27  47  69  95 133 180 223 277 339 385
#     4  11  23  37  66  96 131 174 219 266 327 398
#     4   9  20  37  59  92 128 173 210 256 327 389
#     4  10  23  40  67  95 134 166 218 277 329 395
#     4  10  22  44  62  96 138 172 212 276 326 395
#     4  11  26  43  66  96 133 173 230 272 316 405
#     4  11  25  42  69 100 126 173 228 276 332 388
#     4   9  20  36  57  90 133 162 207 267 321 388
#
# _framework density 24.299524999999999
#
# number of rings (size 3 to 8) (size 9 to 14) (size 15 to 20)
#    0.000    1.750    0.000    3.000    5.250    8.500 
#    0.000    0.000    0.000    0.000    0.000    0.000 
#    0.000    0.000    0.000    0.000    0.000    0.000 
#
# Total GULP energy -89374.528024 kJ/mol
# GULP energy per Si atom -5585.908001 kJ/mol
# Density = 2.424422 g / cm^3
# Si number density = 24.299525 Si / 1000 Ang^3
#
#
#
# Elastic Constant Matrix: (Units=GPa)
#
#
# Indices 1 2 3 4 5 6 
#
# 1 55.5762 17.7630 27.4759 -10.9446 25.0522 -5.1515
# 2 17.7630 92.7665 51.5029 -34.7651 13.2083 -8.8000
# 3 27.4759 51.5029 138.5352 -28.8618 35.3830 -14.2125
# 4 -10.9446 -34.7651 -28.8618 41.2030 -11.0013 7.4054
# 5 25.0522 13.2083 35.3830 -11.0013 42.1960 -6.9090
# 6 -5.1515 -8.8000 -14.2125 7.4054 -6.9090 26.6204
#
#
#
# Elastic Compliance Matrix: (Units=1/GPa)
#
#
# Indices 1 2 3 4 5 6 
#
# 1 0.025299 -0.002340 -0.000494 0.000732 -0.013665 0.000108
# 2 -0.002340 0.017759 -0.004256 0.011990 0.002604 0.000486
# 3 -0.000494 -0.004256 0.011315 0.001943 -0.006999 0.002182
# 4 0.000732 0.011990 0.001943 0.037616 0.003258 -0.004476
# 5 -0.013665 0.002604 -0.006999 0.003258 0.038290 0.003511
# 6 0.000108 0.000486 0.002182 -0.004476 0.003511 0.041068
#
#
# Mechanical properties :
#
#
# Convention : Reuss Voigt Hill
#
# Bulk Modulus (GPa) = 24.87923 53.37352 39.12637
# Shear Modulus (GPa) = 25.13523 34.67962 29.90742
#
# Velocity S-wave (km/s) = 3.21969 3.78189 3.51206
# Velocity P-wave (km/s) = 4.90741 6.40959 5.70813
#
# Compressibility (1/GPa) = 0.04019417
#
# Stress axis : x y z
#
# Youngs Moduli (GPa) = 39.52649 56.30952 88.38213
#
# Poissons Ratio (x) = 0.13176 0.04366
# Poissons Ratio (y) = 0.09249 0.37611
# Poissons Ratio (z) = 0.01953 0.23963
#
# Static dielectric constant tensor:
#      x y z
#    x 1.999660 -0.020590 0.008090 
#    y -0.020590 2.281490 -0.146350 
#    z 0.008090 -0.146350 2.011170 
# 
# From -- ./inp_files/511005.got.cif
#   From: 2010.05.17/outbox.cif.g08.bks.cpg/sg2_256_cif.got.tgz:511005.got - 2010.06.03 11:33:40.
