data_PCOD9032892
_publ_section_title
;
Structure prediction by ZEFSAII (Michael W. Deem and Ramdas Pophale) SiO2 
 PCOD9032892
Probable space group: P -1
;
_chemical_formula_sum "Si O2"
_cell_formula_units_Z 10
_cell_length_a 6.632726
_cell_length_b 8.933987
_cell_length_c 10.160479
_cell_angle_alpha 99.260598
_cell_angle_beta 69.612377
_cell_angle_gamma 54.712947
_cell_volume 405.794570
_symmetry_space_group_name_H-M "P -1"
_symmetry_group_IT_number 2
_symmetry_cell_setting 'triclinic'
loop_
_space_group_symop_operation_xyz
x,y,z
-x,-y,-z
loop_
_atom_site_type_symbol
_atom_site_label
_atom_site_fract_x
_atom_site_fract_y
_atom_site_fract_z
Si Si1 0.683506 0.727073 0.074528
Si Si2 0.111947 0.927438 0.816723
Si Si3 0.150405 0.816613 0.332364
Si Si4 0.707600 0.505395 0.549657
Si Si5 0.742434 0.805940 0.786261
O O1 0.468648 0.723877 0.205874
O O2 0.546826 0.962277 0.169405
O O3 0.662351 0.744556 0.922885
O O4 0.000000 0.500000 0.000000
O O5 0.462623 0.738114 0.694052
O O6 0.939563 0.857863 0.798253
O O7 0.019170 0.097187 0.754536
O O8 0.000000 0.000000 0.000000
O O9 0.180615 0.645651 0.374391
O O10 0.000000 0.000000 0.500000
O O11 0.500000 0.500000 0.500000
O O12 0.003120 0.398935 0.385648
#
# Coordination Sequence:
#
# PCOD9032892 Si02
#       5
#     2   2   2   2   2
#     4  10  18  29  53  82 108 130 174 231 262 298
#     4  10  21  34  54  81 113 141 173 223 272 313
#     4  11  19  34  57  86 100 137 190 218 257 322
#     4  10  17  32  55  79 105 135 181 220 257 310
#     4   9  19  32  51  82 103 137 180 218 261 318
#
# _framework density 24.64301
#
# number of rings (size 3 to 8) (size 9 to 14) (size 15 to 20)
#    0.000    2.000    6.000    2.400    0.000    0.800 
#    0.000    0.000    0.000   12.000    0.000    0.000 
#    0.000    0.000    0.000    0.000    0.000    0.000 
#
# Total GULP energy -55845.078860 kJ/mol
# GULP energy per Si atom -5584.507886 kJ/mol
# Density = 2.458692 g / cm^3
# Si number density = 24.643010 Si / 1000 Ang^3
#
#
#
# Elastic Constant Matrix: (Units=GPa)
#
#
# Indices 1 2 3 4 5 6 
#
# 1 52.7781 39.3798 56.4908 14.8319 -17.2841 -16.2546
# 2 39.3798 193.0770 95.0035 21.4426 -7.7607 -18.8075
# 3 56.4908 95.0035 232.7599 26.7545 -27.0098 -13.3476
# 4 14.8319 21.4426 26.7545 68.4060 -3.0324 -14.5684
# 5 -17.2841 -7.7607 -27.0098 -3.0324 61.1967 10.3654
# 6 -16.2546 -18.8075 -13.3476 -14.5684 10.3654 47.4932
#
#
#
# Elastic Compliance Matrix: (Units=1/GPa)
#
#
# Indices 1 2 3 4 5 6 
#
# 1 0.030588 -0.002647 -0.005165 -0.002242 0.004859 0.006221
# 2 -0.002647 0.006932 -0.002178 -0.000517 -0.001076 0.001303
# 3 -0.005165 -0.002178 0.006637 -0.001026 0.001377 -0.001380
# 4 -0.002242 -0.000517 -0.001026 0.016479 -0.001015 0.004016
# 5 0.004859 -0.001076 0.001377 -0.001015 0.018600 -0.002747
# 6 0.006221 0.001303 -0.001380 0.004016 -0.002747 0.025144
#
#
# Mechanical properties :
#
#
# Convention : Reuss Voigt Hill
#
# Bulk Modulus (GPa) = 41.36016 95.59592 68.47804
# Shear Modulus (GPa) = 37.75947 54.60190 46.18069
#
# Velocity S-wave (km/s) = 3.91865 4.71225 4.33365
# Velocity P-wave (km/s) = 6.10693 8.27548 7.27249
#
# Compressibility (1/GPa) = 0.02417786
#
# Stress axis : x y z
#
# Youngs Moduli (GPa) = 32.69286 144.26355 150.66496
#
# Poissons Ratio (x) = 0.38186 0.77818
# Poissons Ratio (y) = 0.08654 0.32807
# Poissons Ratio (z) = 0.16886 0.31413
#
# Static dielectric constant tensor:
#      x y z
#    x 3.286440 -0.289010 0.199370 
#    y -0.289010 2.021260 0.059400 
#    z 0.199370 0.059400 1.938600 
# 
# From -- ./inp_files/145892.got.cif
#   From: 2010.05.17/outbox.cif.g08.bks.cpg/sg2_73_cif.got.tgz:145892.got - 2010.06.03 11:33:40.
