data_PCOD9032184
_publ_section_title
;
Structure prediction by ZEFSAII (Michael W. Deem and Ramdas Pophale) SiO2 
 PCOD9032184
Probable space group: P -1
;
_chemical_formula_sum "Si O2"
_cell_formula_units_Z 16
_cell_length_a 5.293153
_cell_length_b 16.999912
_cell_length_c 10.109700
_cell_angle_alpha 61.241666
_cell_angle_beta 67.691347
_cell_angle_gamma 97.625261
_cell_volume 679.760864
_symmetry_space_group_name_H-M "P -1"
_symmetry_group_IT_number 2
_symmetry_cell_setting 'triclinic'
loop_
_space_group_symop_operation_xyz
x,y,z
-x,-y,-z
loop_
_atom_site_type_symbol
_atom_site_label
_atom_site_fract_x
_atom_site_fract_y
_atom_site_fract_z
Si Si1 0.358164 0.878264 0.286959
Si Si2 0.422356 0.658909 0.009796
Si Si3 0.817909 0.546899 0.086690
Si Si4 0.458012 0.355972 0.469935
Si Si5 0.809578 0.949991 0.947648
Si Si6 0.265570 0.020274 0.617483
Si Si7 0.857327 0.380429 0.621974
Si Si8 0.766193 0.787612 0.604175
O O1 0.573967 0.921286 0.331536
O O2 0.080751 0.795739 0.476771
O O3 0.274320 0.966135 0.173122
O O4 0.534322 0.862714 0.137486
O O5 0.640095 0.744561 0.805482
O O6 0.590309 0.583772 0.028554
O O7 0.355334 0.661170 0.176070
O O8 0.092314 0.629300 0.038935
O O9 0.619106 0.464362 0.292772
O O10 0.000000 0.500000 0.000000
O O11 0.658367 0.349296 0.555804
O O12 0.442150 0.281616 0.413280
O O13 0.132878 0.346201 0.590563
O O14 0.001507 0.929382 0.810083
O O15 0.000000 0.000000 0.000000
O O16 0.182410 0.099152 0.492098
O O17 0.500000 0.000000 0.500000
O O18 0.000000 0.500000 0.500000
#
# Coordination Sequence:
#
# PCOD9032184 Si02
#       8
#     2   2   2   2   2   2   2   2
#     4   9  19  39  68  91 129 168 220 278 341 418
#     4  12  26  42  69 100 147 185 238 297 350 411
#     4  12  23  40  70 104 134 192 246 282 344 425
#     4  12  25  43  72 101 140 189 243 290 346 416
#     4   8  16  36  66  97 118 165 221 272 330 424
#     4  10  22  43  70 100 132 177 228 283 355 422
#     4  12  24  45  68 102 137 192 241 293 348 416
#     4  11  27  41  67 102 140 180 231 300 350 420
#
# _framework density 23.537687999999999
#
# number of rings (size 3 to 8) (size 9 to 14) (size 15 to 20)
#    0.000    1.250    3.750    1.500    5.250    2.000 
#    0.000    8.750    0.000    0.000    0.000    0.000 
#    0.000    0.000    0.000    0.000    0.000    0.000 
#
# Total GULP energy -89254.854317 kJ/mol
# GULP energy per Si atom -5578.428395 kJ/mol
# Density = 2.348412 g / cm^3
# Si number density = 23.537688 Si / 1000 Ang^3
#
#
#
# Elastic Constant Matrix: (Units=GPa)
#
#
# Indices 1 2 3 4 5 6 
#
# 1 83.0508 0.8166 36.4388 -2.6868 -17.4129 -12.0764
# 2 0.8166 41.4230 33.8539 6.3779 -10.9538 -13.1658
# 3 36.4388 33.8539 246.4526 12.6550 -43.1337 -6.6771
# 4 -2.6868 6.3779 12.6550 25.4048 -5.5630 -11.1545
# 5 -17.4129 -10.9538 -43.1337 -5.5630 43.9615 7.7459
# 6 -12.0764 -13.1658 -6.6771 -11.1545 7.7459 32.7455
#
#
#
# Elastic Compliance Matrix: (Units=1/GPa)
#
#
# Indices 1 2 3 4 5 6 
#
# 1 0.015195 0.004184 -0.002163 0.006039 0.004314 0.007882
# 2 0.004184 0.032433 -0.004161 0.000940 0.003442 0.013241
# 3 -0.002163 -0.004161 0.005678 -0.002516 0.003904 -0.003093
# 4 0.006039 0.000940 -0.002516 0.049750 0.003234 0.018274
# 5 0.004314 0.003442 0.003904 0.003234 0.029943 -0.002210
# 6 0.007882 0.013241 -0.003093 0.018274 -0.002210 0.044886
#
#
# Mechanical properties :
#
#
# Convention : Reuss Voigt Hill
#
# Bulk Modulus (GPa) = 20.39720 57.01612 38.70666
# Shear Modulus (GPa) = 25.18814 40.41015 32.79914
#
# Velocity S-wave (km/s) = 3.27482 4.14796 3.73698
# Velocity P-wave (km/s) = 4.79414 6.87144 5.92454
#
# Compressibility (1/GPa) = 0.04902635
#
# Stress axis : x y z
#
# Youngs Moduli (GPa) = 65.81253 30.83253 176.13250
#
# Poissons Ratio (x) = -0.12901 0.38094
# Poissons Ratio (y) = -0.27537 0.73288
# Poissons Ratio (z) = 0.14234 0.12829
#
# Static dielectric constant tensor:
#      x y z
#    x 1.987910 -0.009380 -0.055080 
#    y -0.009380 2.027310 -0.059930 
#    z -0.055080 -0.059930 1.932620 
# 
# From -- ./inp_files/138862.got.cif
#   From: 2010.05.17/outbox.cif.g08.bks.cpg/sg2_70_cif.got.tgz:138862.got - 2010.06.03 11:33:40.
