data_PCOD9032048
_publ_section_title
;
Structure prediction by ZEFSAII (Michael W. Deem and Ramdas Pophale) SiO2 
 PCOD9032048
Probable space group: P -1
;
_chemical_formula_sum "Si O2"
_cell_formula_units_Z 14
_cell_length_a 7.416390
_cell_length_b 11.891418
_cell_length_c 14.981446
_cell_angle_alpha 49.349729
_cell_angle_beta 108.920025
_cell_angle_gamma 67.533969
_cell_volume 533.467438
_symmetry_space_group_name_H-M "P -1"
_symmetry_group_IT_number 2
_symmetry_cell_setting 'triclinic'
loop_
_space_group_symop_operation_xyz
x,y,z
-x,-y,-z
loop_
_atom_site_type_symbol
_atom_site_label
_atom_site_fract_x
_atom_site_fract_y
_atom_site_fract_z
Si Si1 0.080221 0.614631 0.030469
Si Si2 0.096127 0.792533 0.784488
Si Si3 0.313409 0.008371 0.556154
Si Si4 0.634560 0.279366 0.881091
Si Si5 0.964207 0.513244 0.224110
Si Si6 0.957835 0.214651 0.581744
Si Si7 0.876182 0.816234 0.177668
O O1 0.199214 0.688636 0.059633
O O2 0.854389 0.670448 0.035983
O O3 0.392682 0.302228 0.229446
O O4 0.948191 0.754420 0.841728
O O5 0.954981 0.886648 0.613112
O O6 0.995753 0.012940 0.698672
O O7 0.500000 0.500000 0.000000
O O8 0.178412 0.109230 0.584154
O O9 0.280860 0.201869 0.419606
O O10 0.349188 0.384040 0.845384
O O11 0.413312 0.486455 0.657782
O O12 0.880844 0.981543 0.058189
O O13 0.084588 0.559554 0.290074
O O14 0.056371 0.224642 0.685698
O O15 0.500000 0.000000 0.000000
#
# Coordination Sequence:
#
# PCOD9032048 Si02
#       7
#     2   2   2   2   2   2   2
#     4  12  23  43  68  96 137 173 213 276 326 390
#     4  12  22  37  68 102 129 175 221 264 332 393
#     4  11  24  40  65 100 136 169 216 273 331 389
#     4  10  22  43  69  91 132 174 217 270 322 382
#     4  10  25  42  64 100 132 172 223 264 327 394
#     4  11  21  39  68  99 127 172 224 266 326 390
#     4  10  23  43  67  97 131 173 225 267 325 389
#
# _framework density 26.243402
#
# number of rings (size 3 to 8) (size 9 to 14) (size 15 to 20)
#    0.000    1.143    4.286    2.571    2.000    6.286 
#    0.000    7.857    0.000    0.000    0.000    0.000 
#    0.000    0.000    0.000    0.000    0.000    0.000 
#
# Total GULP energy -78407.311213 kJ/mol
# GULP energy per Si atom -5600.522230 kJ/mol
# Density = 2.618367 g / cm^3
# Si number density = 26.243402 Si / 1000 Ang^3
#
#
#
# Elastic Constant Matrix: (Units=GPa)
#
#
# Indices 1 2 3 4 5 6 
#
# 1 99.6452 18.5785 36.3033 -1.7308 -33.8309 10.0383
# 2 18.5785 170.9817 50.9335 0.5737 -4.1448 40.1663
# 3 36.3033 50.9335 134.1156 18.8482 -23.2719 5.1672
# 4 -1.7308 0.5737 18.8482 69.9375 -0.0133 -8.6148
# 5 -33.8309 -4.1448 -23.2719 -0.0133 50.7795 -0.8750
# 6 10.0383 40.1663 5.1672 -8.6148 -0.8750 38.8985
#
#
#
# Elastic Compliance Matrix: (Units=1/GPa)
#
#
# Indices 1 2 3 4 5 6 
#
# 1 0.013979 0.000109 -0.002372 0.000606 0.008182 -0.003087
# 2 0.000109 0.008821 -0.003135 -0.000310 -0.000796 -0.008807
# 3 -0.002372 -0.003135 0.010047 -0.002491 0.002803 0.002026
# 4 0.000606 -0.000310 -0.002491 0.015468 -0.000692 0.003905
# 5 0.008182 -0.000796 0.002803 -0.000692 0.026342 -0.001223
# 6 -0.003087 -0.008807 0.002026 0.003905 -0.001223 0.036167
#
#
# Mechanical properties :
#
#
# Convention : Reuss Voigt Hill
#
# Bulk Modulus (GPa) = 45.34722 68.48591 56.91656
# Shear Modulus (GPa) = 38.76884 51.85160 45.31022
#
# Velocity S-wave (km/s) = 3.84771 4.44981 4.15967
# Velocity P-wave (km/s) = 6.08743 7.24943 6.69369
#
# Compressibility (1/GPa) = 0.02205207
#
# Stress axis : x y z
#
# Youngs Moduli (GPa) = 71.53735 113.36345 99.53157
#
# Poissons Ratio (x) = -0.01236 0.23606
# Poissons Ratio (y) = -0.00780 0.31201
# Poissons Ratio (z) = 0.16966 0.35537
#
# Static dielectric constant tensor:
#      x y z
#    x 2.173500 -0.077780 0.028430 
#    y -0.077780 2.095150 -0.039180 
#    z 0.028430 -0.039180 2.035580 
# 
# From -- ./inp_files/306949.got.cif
#   From: 2010.05.17/outbox.cif.g08.bks.cpg/sg2_154_cif.got.tgz:306949.got - 2010.06.03 11:33:40.
