data_PCOD9032138
_publ_section_title
;
Structure prediction by ZEFSAII (Michael W. Deem and Ramdas Pophale) SiO2 
 PCOD9032138
Probable space group: P -1
;
_chemical_formula_sum "Si O2"
_cell_formula_units_Z 14
_cell_length_a 13.102920
_cell_length_b 9.613932
_cell_length_c 6.507155
_cell_angle_alpha 124.251733
_cell_angle_beta 58.347106
_cell_angle_gamma 118.555875
_cell_volume 556.986114
_symmetry_space_group_name_H-M "P -1"
_symmetry_group_IT_number 2
_symmetry_cell_setting 'triclinic'
loop_
_space_group_symop_operation_xyz
x,y,z
-x,-y,-z
loop_
_atom_site_type_symbol
_atom_site_label
_atom_site_fract_x
_atom_site_fract_y
_atom_site_fract_z
Si Si1 0.732021 0.818935 0.261235
Si Si2 0.964230 0.550739 0.356772
Si Si3 0.277946 0.452958 0.624966
Si Si4 0.212378 0.776990 0.856443
Si Si5 0.557487 0.672993 0.953760
Si Si6 0.106850 0.930610 0.430361
Si Si7 0.612117 0.094302 0.603561
O O1 0.743245 0.643796 0.215722
O O2 0.670851 0.777986 0.068831
O O3 0.859515 0.957626 0.303084
O O4 0.645770 0.934752 0.552289
O O5 0.838825 0.604055 0.460100
O O6 0.925844 0.358733 0.130484
O O7 0.000000 0.500000 0.500000
O O8 0.069841 0.726050 0.349855
O O9 0.292550 0.658442 0.780994
O O10 0.389259 0.390783 0.358208
O O11 0.274304 0.821340 0.603040
O O12 0.203838 0.934673 0.142652
O O13 0.448538 0.767816 0.109733
O O14 0.500000 0.500000 0.000000
O O15 0.000000 0.000000 0.500000
O O16 0.500000 0.000000 0.500000
#
# Coordination Sequence:
#
# PCOD9032138 Si02
#       7
#     2   2   2   2   2   2   2
#     4  11  26  42  69 106 139 177 236 288 350 409
#     4  10  22  43  69  98 136 188 233 279 347 407
#     4  10  24  44  69 103 134 183 242 279 336 432
#     4  10  23  44  67  96 139 179 238 279 337 430
#     4  11  23  47  73  98 141 182 238 288 348 417
#     4  12  24  43  68 104 143 178 228 297 345 411
#     4  10  23  44  67 101 137 177 228 294 351 394
#
# _framework density 25.135273999999999
#
# number of rings (size 3 to 8) (size 9 to 14) (size 15 to 20)
#    0.857    0.571    2.857    1.286    4.000    4.571 
#    2.571    2.143    0.000    0.000    0.000    0.000 
#    0.000    0.000    0.000    0.000    0.000    0.000 
#
# Total GULP energy -77935.324058 kJ/mol
# GULP energy per Si atom -5566.808861 kJ/mol
# Density = 2.507807 g / cm^3
# Si number density = 25.135274 Si / 1000 Ang^3
#
#
#
# Elastic Constant Matrix: (Units=GPa)
#
#
# Indices 1 2 3 4 5 6 
#
# 1 82.5503 25.9107 29.4977 3.5833 22.4301 -21.8278
# 2 25.9107 92.9792 21.3166 -8.7166 9.8667 -18.0067
# 3 29.4977 21.3166 86.4505 15.4975 -5.6432 -2.4504
# 4 3.5833 -8.7166 15.4975 28.4668 -2.2165 -0.7518
# 5 22.4301 9.8667 -5.6432 -2.2165 50.1129 16.0679
# 6 -21.8278 -18.0067 -2.4504 -0.7518 16.0679 59.1448
#
#
#
# Elastic Compliance Matrix: (Units=1/GPa)
#
#
# Indices 1 2 3 4 5 6 
#
# 1 0.022151 -0.000441 -0.008192 0.000719 -0.014449 0.011636
# 2 -0.000441 0.014060 -0.004659 0.006687 -0.004475 0.005226
# 3 -0.008192 -0.004659 0.017569 -0.009491 0.008075 -0.006028
# 4 0.000719 0.006687 -0.009491 0.042191 -0.001779 0.002928
# 5 -0.014449 -0.004475 0.008075 -0.001779 0.033061 -0.015365
# 6 0.011636 0.005226 -0.006028 0.002928 -0.015365 0.026755
#
#
# Mechanical properties :
#
#
# Convention : Reuss Voigt Hill
#
# Bulk Modulus (GPa) = 36.76923 46.15888 41.46405
# Shear Modulus (GPa) = 26.11859 39.89524 33.00691
#
# Velocity S-wave (km/s) = 3.22704 3.98832 3.62770
# Velocity P-wave (km/s) = 5.34278 6.29388 5.83773
#
# Compressibility (1/GPa) = 0.02719665
#
# Stress axis : x y z
#
# Youngs Moduli (GPa) = 45.14482 71.12439 56.91904
#
# Poissons Ratio (x) = 0.03134 0.46626
# Poissons Ratio (y) = 0.01989 0.26520
# Poissons Ratio (z) = 0.36981 0.33138
#
# Static dielectric constant tensor:
#      x y z
#    x 2.188300 -0.037070 0.122890 
#    y -0.037070 2.249850 -0.193210 
#    z 0.122890 -0.193210 2.249870 
# 
# From -- ./inp_files/87938.got.cif
#   From: 2010.05.17/outbox.cif.g08.bks.cpg/sg2_44_cif.got.tgz:87938.got - 2010.06.03 11:33:40.
