data_PCOD9032461
_publ_section_title
;
Structure prediction by ZEFSAII (Michael W. Deem and Ramdas Pophale) SiO2 
 PCOD9032461
Probable space group: P -1
;
_chemical_formula_sum "Si O2"
_cell_formula_units_Z 14
_cell_length_a 20.701612
_cell_length_b 16.896824
_cell_length_c 19.925631
_cell_angle_alpha 19.410541
_cell_angle_beta 166.306974
_cell_angle_gamma 162.583638
_cell_volume 480.875272
_symmetry_space_group_name_H-M "P -1"
_symmetry_group_IT_number 2
_symmetry_cell_setting 'triclinic'
loop_
_space_group_symop_operation_xyz
x,y,z
-x,-y,-z
loop_
_atom_site_type_symbol
_atom_site_label
_atom_site_fract_x
_atom_site_fract_y
_atom_site_fract_z
Si Si1 0.507207 0.460957 0.816132
Si Si2 0.702679 0.964614 0.528813
Si Si3 0.705830 0.918417 0.754674
Si Si4 0.834463 0.365797 0.107371
Si Si5 0.652021 0.817221 0.916754
Si Si6 0.452068 0.229332 0.706372
Si Si7 0.289263 0.874562 0.070710
O O1 0.788804 0.446138 0.072373
O O2 0.270534 0.150213 0.836477
O O3 0.470289 0.666748 0.564051
O O4 0.569228 0.627983 0.813738
O O5 0.488350 0.055468 0.392671
O O6 0.619367 0.944670 0.382881
O O7 0.595948 0.164400 0.294835
O O8 0.945591 0.908766 0.067530
O O9 0.044639 0.051091 0.831907
O O10 0.059358 0.618643 0.086451
O O11 0.835678 0.078863 0.340638
O O12 0.526654 0.286995 0.813646
O O13 0.500000 0.500000 0.000000
O O14 0.500000 0.500000 0.500000
O O15 0.708050 0.188836 0.953752
#
# Coordination Sequence:
#
# PCOD9032461 Si02
#       7
#     2   2   2   2   2   2   2
#     4  11  24  45  71 103 148 194 253 315 385 450
#     4  12  25  46  71 105 148 193 252 312 380 453
#     4  12  24  45  70  99 142 192 252 311 379 445
#     4  10  23  44  71 106 150 193 250 314 374 462
#     4  12  25  46  71 101 142 193 253 320 378 450
#     4  10  22  43  71 108 150 195 248 306 381 459
#     4  11  25  43  73 109 150 202 252 312 386 463
#
# _framework density 29.113579000000001
#
# number of rings (size 3 to 8) (size 9 to 14) (size 15 to 20)
#    0.000    0.857    2.857    3.429    0.000    2.857 
#    0.000    5.714    0.000    0.000    0.000    0.000 
#    0.000    0.000    0.000    0.000    0.000    0.000 
#
# Total GULP energy -78122.224182 kJ/mol
# GULP energy per Si atom -5580.158870 kJ/mol
# Density = 2.904732 g / cm^3
# Si number density = 29.113579 Si / 1000 Ang^3
#
#
#
# Elastic Constant Matrix: (Units=GPa)
#
#
# Indices 1 2 3 4 5 6 
#
# 1 116.9450 39.9838 33.6659 -4.9200 7.8896 5.2375
# 2 39.9838 204.7212 97.5334 -51.5535 19.6880 25.6973
# 3 33.6659 97.5334 167.0925 -8.7895 14.1015 -0.7433
# 4 -4.9200 -51.5535 -8.7895 83.3742 -0.1864 1.9544
# 5 7.8896 19.6880 14.1015 -0.1864 63.7898 -14.5747
# 6 5.2375 25.6973 -0.7433 1.9544 -14.5747 58.5397
#
#
#
# Elastic Compliance Matrix: (Units=1/GPa)
#
#
# Indices 1 2 3 4 5 6 
#
# 1 0.009352 -0.001268 -0.001111 -0.000341 -0.000620 -0.000437
# 2 -0.001268 0.009850 -0.004973 0.005607 -0.002955 -0.005196
# 3 -0.001111 -0.004973 0.008982 -0.002252 0.000259 0.002536
# 4 -0.000341 0.005607 -0.002252 0.015280 -0.001934 -0.003451
# 5 -0.000620 -0.002955 0.000259 -0.001934 0.017948 0.005889
# 6 -0.000437 -0.005196 0.002536 -0.003451 0.005889 0.021016
#
#
# Mechanical properties :
#
#
# Convention : Reuss Voigt Hill
#
# Bulk Modulus (GPa) = 74.18984 92.34723 83.26854
# Shear Modulus (GPa) = 49.20050 62.31245 55.75647
#
# Velocity S-wave (km/s) = 4.11536 4.63138 4.38097
# Velocity P-wave (km/s) = 6.93684 7.77098 7.36573
#
# Compressibility (1/GPa) = 0.01347894
#
# Stress axis : x y z
#
# Youngs Moduli (GPa) = 106.93257 101.52512 111.33171
#
# Poissons Ratio (x) = 0.12875 0.12374
# Poissons Ratio (y) = 0.13561 0.55362
# Poissons Ratio (z) = 0.11885 0.50486
#
# Static dielectric constant tensor:
#      x y z
#    x 2.690660 0.082900 0.031280 
#    y 0.082900 2.274490 0.113780 
#    z 0.031280 0.113780 2.316780 
# 
# From -- ./inp_files/601646.got.cif
#   From: 2010.05.17/outbox.cif.g08.bks.cpg/sg2_301_cif.got.tgz:601646.got - 2010.06.03 11:33:40.
