data_PCOD9032555
_publ_section_title
;
Structure prediction by ZEFSAII (Michael W. Deem and Ramdas Pophale) SiO2 
 PCOD9032555
Probable space group: P -1
;
_chemical_formula_sum "Si O2"
_cell_formula_units_Z 14
_cell_length_a 8.671199
_cell_length_b 10.018319
_cell_length_c 7.365873
_cell_angle_alpha 78.987763
_cell_angle_beta 108.010447
_cell_angle_gamma 114.914218
_cell_volume 550.524322
_symmetry_space_group_name_H-M "P -1"
_symmetry_group_IT_number 2
_symmetry_cell_setting 'triclinic'
loop_
_space_group_symop_operation_xyz
x,y,z
-x,-y,-z
loop_
_atom_site_type_symbol
_atom_site_label
_atom_site_fract_x
_atom_site_fract_y
_atom_site_fract_z
Si Si1 0.760235 0.022024 0.965609
Si Si2 0.567171 0.483928 0.820293
Si Si3 0.205215 0.428329 0.685720
Si Si4 0.856317 0.769866 0.938569
Si Si5 0.795484 0.976724 0.390830
Si Si6 0.168002 0.702237 0.579772
Si Si7 0.574810 0.213347 0.689993
O O1 0.739244 0.940878 0.170053
O O2 0.936164 0.166606 0.029367
O O3 0.615409 0.077558 0.825818
O O4 0.802844 0.911280 0.874239
O O5 0.392106 0.467672 0.651640
O O6 0.735165 0.633010 0.811149
O O7 0.598372 0.338675 0.816049
O O8 0.500000 0.500000 0.000000
O O9 0.209432 0.579727 0.738924
O O10 0.040176 0.369568 0.509541
O O11 0.168401 0.299983 0.851492
O O12 0.785566 0.134229 0.379587
O O13 0.622755 0.851602 0.449438
O O14 0.000000 0.000000 0.500000
O O15 0.277357 0.719416 0.428476
#
# Coordination Sequence:
#
# PCOD9032555 Si02
#       7
#     2   2   2   2   2   2   2
#     4  11  25  43  76 104 137 182 236 287 343 412
#     4  10  23  41  70  97 139 179 226 285 342 409
#     4  10  22  44  65  98 142 179 226 279 350 404
#     4  10  22  43  72 102 141 175 231 290 344 406
#     4  12  27  44  70 104 145 184 230 286 355 406
#     4  11  25  43  71  99 142 183 228 289 342 416
#     4  12  26  46  74 105 137 183 240 284 341 419
#
# _framework density 25.430302000000001
#
# number of rings (size 3 to 8) (size 9 to 14) (size 15 to 20)
#    0.000    1.143    1.429    4.286    8.000    4.571 
#    0.000    0.000    0.000    0.000    0.000    0.000 
#    0.000    0.000    0.000    0.000    0.000    0.000 
#
# Total GULP energy -78253.552159 kJ/mol
# GULP energy per Si atom -5589.539440 kJ/mol
# Density = 2.537242 g / cm^3
# Si number density = 25.430302 Si / 1000 Ang^3
#
#
#
# Elastic Constant Matrix: (Units=GPa)
#
#
# Indices 1 2 3 4 5 6 
#
# 1 138.1485 53.3862 41.9121 11.9596 27.3702 10.5258
# 2 53.3862 154.9124 17.7663 8.6914 11.5700 -14.0583
# 3 41.9121 17.7663 72.0490 -0.6889 13.2269 -8.3751
# 4 11.9596 8.6914 -0.6889 35.0588 -5.1290 7.5054
# 5 27.3702 11.5700 13.2269 -5.1290 37.8165 4.2350
# 6 10.5258 -14.0583 -8.3751 7.5054 4.2350 59.5158
#
#
#
# Elastic Compliance Matrix: (Units=1/GPa)
#
#
# Indices 1 2 3 4 5 6 
#
# 1 0.011705 -0.003020 -0.005328 -0.003640 -0.005880 -0.002656
# 2 -0.003020 0.007862 0.000269 -0.001612 -0.000834 0.002692
# 3 -0.005328 0.000269 0.017843 0.000931 -0.002743 0.003594
# 4 -0.003640 -0.001612 0.000931 0.032203 0.007642 -0.004211
# 5 -0.005880 -0.000834 -0.002743 0.007642 0.033272 -0.002874
# 6 -0.002656 0.002692 0.003594 -0.004211 -0.002874 0.019149
#
#
# Mechanical properties :
#
#
# Convention : Reuss Voigt Hill
#
# Bulk Modulus (GPa) = 47.05747 65.69323 56.37535
# Shear Modulus (GPa) = 34.41718 43.28122 38.84920
#
# Velocity S-wave (km/s) = 3.68284 4.12995 3.91279
# Velocity P-wave (km/s) = 6.05220 6.97357 6.52916
#
# Compressibility (1/GPa) = 0.02125061
#
# Stress axis : x y z
#
# Youngs Moduli (GPa) = 85.43605 127.19042 56.04459
#
# Poissons Ratio (x) = 0.38414 0.29861
# Poissons Ratio (y) = 0.25803 -0.01506
# Poissons Ratio (z) = 0.45521 -0.03417
#
# Static dielectric constant tensor:
#      x y z
#    x 2.070620 0.030710 -0.060650 
#    y 0.030710 2.007350 -0.022610 
#    z -0.060650 -0.022610 2.121310 
# 
# From -- ./inp_files/158200.got.cif
#   From: 2010.05.17/outbox.cif.g08.bks.cpg/sg2_80_cif.got.tgz:158200.got - 2010.06.03 11:33:40.
