data_PCOD9032203
_publ_section_title
;
Structure prediction by ZEFSAII (Michael W. Deem and Ramdas Pophale) SiO2 
 PCOD9032203
Probable space group: P -1
;
_chemical_formula_sum "Si O2"
_cell_formula_units_Z 14
_cell_length_a 22.109432
_cell_length_b 5.448740
_cell_length_c 14.109796
_cell_angle_alpha 105.227351
_cell_angle_beta 159.394563
_cell_angle_gamma 83.136004
_cell_volume 535.771602
_symmetry_space_group_name_H-M "P -1"
_symmetry_group_IT_number 2
_symmetry_cell_setting 'triclinic'
loop_
_space_group_symop_operation_xyz
x,y,z
-x,-y,-z
loop_
_atom_site_type_symbol
_atom_site_label
_atom_site_fract_x
_atom_site_fract_y
_atom_site_fract_z
Si Si1 0.068182 0.649797 0.756280
Si Si2 0.254420 0.478547 0.329248
Si Si3 0.257536 0.170898 0.716211
Si Si4 0.451242 0.310603 0.749311
Si Si5 0.857558 0.173819 0.650419
Si Si6 0.791972 0.119903 0.204536
Si Si7 0.397544 0.717140 0.376846
O O1 0.185213 0.879921 0.874493
O O2 0.898890 0.733895 0.547604
O O3 0.971562 0.365580 0.531411
O O4 0.198193 0.610517 0.022898
O O5 0.400936 0.362461 0.573910
O O6 0.185341 0.590191 0.332456
O O7 0.351659 0.718518 0.421259
O O8 0.076568 0.255204 0.995410
O O9 0.218687 0.888988 0.574787
O O10 0.222714 0.128612 0.773650
O O11 0.459903 0.402593 0.034659
O O12 0.268484 0.101784 0.508432
O O13 0.613483 0.192080 0.974194
O O14 0.500000 0.500000 0.500000
O O15 0.500000 0.000000 0.500000
#
# Coordination Sequence:
#
# PCOD9032203 Si02
#       7
#     2   2   2   2   2   2   2
#     4  10  24  43  70 104 142 198 241 311 380 445
#     4  11  27  48  72 107 148 202 248 316 380 452
#     4  11  24  43  73 105 147 192 250 312 380 453
#     4  11  24  42  72 106 146 193 251 313 383 446
#     4  11  26  46  72 103 151 199 256 306 378 457
#     4  10  22  43  70 100 148 184 249 307 378 456
#     4  12  30  49  81 113 152 198 256 318 385 460
#
# _framework density 26.130535999999999
#
# number of rings (size 3 to 8) (size 9 to 14) (size 15 to 20)
#    0.000    1.143    0.000    3.857   10.000    6.857 
#    0.000    0.000    0.000    0.000    0.000    0.000 
#    0.000    0.000    0.000    0.000    0.000    0.000 
#
# Total GULP energy -78424.180821 kJ/mol
# GULP energy per Si atom -5601.727202 kJ/mol
# Density = 2.607106 g / cm^3
# Si number density = 26.130536 Si / 1000 Ang^3
#
#
#
# Elastic Constant Matrix: (Units=GPa)
#
#
# Indices 1 2 3 4 5 6 
#
# 1 89.9399 24.1649 35.9098 -8.7676 -5.4121 20.5286
# 2 24.1649 99.0653 66.8755 -16.5437 0.5423 18.5753
# 3 35.9098 66.8755 166.5917 -3.9409 -9.0529 12.2320
# 4 -8.7676 -16.5437 -3.9409 57.4839 6.4463 -0.6226
# 5 -5.4121 0.5423 -9.0529 6.4463 30.1186 3.0834
# 6 20.5286 18.5753 12.2320 -0.6226 3.0834 45.9463
#
#
#
# Elastic Compliance Matrix: (Units=1/GPa)
#
#
# Indices 1 2 3 4 5 6 
#
# 1 0.013641 -0.000639 -0.002142 0.001461 0.002057 -0.005384
# 2 -0.000639 0.015786 -0.005928 0.004291 -0.002661 -0.004282
# 3 -0.002142 -0.005928 0.008892 -0.001715 0.002681 0.000783
# 4 0.001461 0.004291 -0.001715 0.019204 -0.004299 -0.001382
# 5 0.002057 -0.002661 0.002681 -0.004299 0.035654 -0.003008
# 6 -0.005384 -0.004282 0.000783 -0.001382 -0.003008 0.025876
#
#
# Mechanical properties :
#
#
# Convention : Reuss Voigt Hill
#
# Bulk Modulus (GPa) = 47.84659 67.72193 57.78426
# Shear Modulus (GPa) = 34.85862 41.95288 38.40575
#
# Velocity S-wave (km/s) = 3.65638 4.01123 3.83791
# Velocity P-wave (km/s) = 6.01464 6.88668 6.46538
#
# Compressibility (1/GPa) = 0.02090013
#
# Stress axis : x y z
#
# Youngs Moduli (GPa) = 73.31042 63.34694 112.46345
#
# Poissons Ratio (x) = 0.04048 0.24091
# Poissons Ratio (y) = 0.04685 0.66669
# Poissons Ratio (z) = 0.15704 0.37552
#
# Static dielectric constant tensor:
#      x y z
#    x 2.138600 0.007580 0.011490 
#    y 0.007580 2.059440 0.030800 
#    z 0.011490 0.030800 2.001700 
# 
# From -- ./inp_files/542225.got.cif
#   From: 2010.05.17/outbox.cif.g08.bks.cpg/sg2_272_cif.got.tgz:542225.got - 2010.06.03 11:33:40.
