data_PCOD9032189
_publ_section_title
;
Structure prediction by ZEFSAII (Michael W. Deem and Ramdas Pophale) SiO2 
 PCOD9032189
Probable space group: P -1
;
_chemical_formula_sum "Si O2"
_cell_formula_units_Z 14
_cell_length_a 13.605924
_cell_length_b 6.902318
_cell_length_c 10.421263
_cell_angle_alpha 123.585560
_cell_angle_beta 63.161714
_cell_angle_gamma 79.704954
_cell_volume 594.468921
_symmetry_space_group_name_H-M "P -1"
_symmetry_group_IT_number 2
_symmetry_cell_setting 'triclinic'
loop_
_space_group_symop_operation_xyz
x,y,z
-x,-y,-z
loop_
_atom_site_type_symbol
_atom_site_label
_atom_site_fract_x
_atom_site_fract_y
_atom_site_fract_z
Si Si1 0.738623 0.144545 0.163870
Si Si2 0.985771 0.680519 0.742311
Si Si3 0.566222 0.947663 0.300032
Si Si4 0.719662 0.696745 0.463953
Si Si5 0.930462 0.237343 0.519782
Si Si6 0.366327 0.646512 0.972859
Si Si7 0.317969 0.767969 0.337104
O O1 0.645080 0.090075 0.283062
O O2 0.723450 0.435186 0.306242
O O3 0.694970 0.166885 0.049267
O O4 0.894657 0.880918 0.985374
O O5 0.144852 0.459573 0.590298
O O6 0.978684 0.871539 0.700429
O O7 0.926903 0.505282 0.668918
O O8 0.439358 0.093280 0.328747
O O9 0.500000 0.000000 0.500000
O O10 0.654806 0.608516 0.103631
O O11 0.731310 0.926787 0.463744
O O12 0.785268 0.308966 0.599613
O O13 0.000000 0.000000 0.500000
O O14 0.528907 0.473344 0.805693
O O15 0.316609 0.802891 0.195571
#
# Coordination Sequence:
#
# PCOD9032189 Si02
#       7
#     2   2   2   2   2   2   2
#     4  12  25  44  70  95 143 174 220 281 333 402
#     4  11  26  42  67 104 131 177 229 267 342 396
#     4  11  24  45  71  97 131 180 227 269 340 397
#     4  11  24  44  68 100 134 179 221 273 339 398
#     4  11  22  44  69  93 137 179 219 278 329 394
#     4  10  23  43  68 103 133 172 229 279 330 399
#     4  10  22  43  70 100 134 176 229 276 333 394
#
# _framework density 23.550436000000001
#
# number of rings (size 3 to 8) (size 9 to 14) (size 15 to 20)
#    0.000    1.143    2.857    2.571    4.000    1.143 
#    0.000    4.286    0.000    0.000    0.000    0.000 
#    0.000    0.000    0.000    0.000    0.000    0.000 
#
# Total GULP energy -78207.507507 kJ/mol
# GULP energy per Si atom -5586.250536 kJ/mol
# Density = 2.349683 g / cm^3
# Si number density = 23.550436 Si / 1000 Ang^3
#
#
#
# Elastic Constant Matrix: (Units=GPa)
#
#
# Indices 1 2 3 4 5 6 
#
# 1 103.9511 63.2431 19.7229 -8.5872 -12.7010 31.7912
# 2 63.2431 111.6244 52.9064 -10.0102 -14.9533 19.7377
# 3 19.7229 52.9064 73.3618 0.1013 -6.8796 15.9374
# 4 -8.5872 -10.0102 0.1013 27.7990 4.0003 -5.3413
# 5 -12.7010 -14.9533 -6.8796 4.0003 31.8416 0.7266
# 6 31.7912 19.7377 15.9374 -5.3413 0.7266 39.2379
#
#
#
# Elastic Compliance Matrix: (Units=1/GPa)
#
#
# Indices 1 2 3 4 5 6 
#
# 1 0.019753 -0.011282 0.006062 -0.001108 0.004327 -0.013023
# 2 -0.011282 0.021605 -0.013295 0.004872 0.002063 0.004298
# 3 0.006062 -0.013295 0.023649 -0.004944 0.002100 -0.008541
# 4 -0.001108 0.004872 -0.004944 0.039144 -0.004274 0.005862
# 5 0.004327 0.002063 0.002100 -0.004274 0.035242 -0.006631
# 6 -0.013023 0.004298 -0.008541 0.005862 -0.006631 0.038265
#
#
# Mechanical properties :
#
#
# Convention : Reuss Voigt Hill
#
# Bulk Modulus (GPa) = 35.74286 62.29803 49.02044
# Shear Modulus (GPa) = 22.31995 29.98001 26.14998
#
# Velocity S-wave (km/s) = 3.08190 3.57180 3.33585
# Velocity P-wave (km/s) = 5.27960 6.59703 5.97474
#
# Compressibility (1/GPa) = 0.02797762
#
# Stress axis : x y z
#
# Youngs Moduli (GPa) = 50.62401 46.28468 42.28574
#
# Poissons Ratio (x) = 0.52218 -0.25633
# Poissons Ratio (y) = 0.57113 0.56219
# Poissons Ratio (z) = -0.30688 0.61536
#
# Static dielectric constant tensor:
#      x y z
#    x 1.971580 -0.030030 0.016050 
#    y -0.030030 1.864340 0.001150 
#    z 0.016050 0.001150 1.908590 
# 
# From -- ./inp_files/78016.got.cif
#   From: 2010.05.17/outbox.cif.g08.bks.cpg/sg2_40_cif.got.tgz:78016.got - 2010.06.03 11:33:40.
