data_PCOD9032504
_publ_section_title
;
Structure prediction by ZEFSAII (Michael W. Deem and Ramdas Pophale) SiO2 
 PCOD9032504
Probable space group: P -1
;
_chemical_formula_sum "Si O2"
_cell_formula_units_Z 12
_cell_length_a 12.280472
_cell_length_b 8.733727
_cell_length_c 9.056360
_cell_angle_alpha 63.707817
_cell_angle_beta 89.788726
_cell_angle_gamma 132.350318
_cell_volume 572.808303
_symmetry_space_group_name_H-M "P -1"
_symmetry_group_IT_number 2
_symmetry_cell_setting 'triclinic'
loop_
_space_group_symop_operation_xyz
x,y,z
-x,-y,-z
loop_
_atom_site_type_symbol
_atom_site_label
_atom_site_fract_x
_atom_site_fract_y
_atom_site_fract_z
Si Si1 0.318083 0.236011 0.564340
Si Si2 0.270195 0.386304 0.036970
Si Si3 0.867896 0.333568 0.698970
Si Si4 0.156483 0.313495 0.376412
Si Si5 0.363954 0.148017 0.269918
Si Si6 0.040759 0.731930 0.976218
O O1 0.500000 0.500000 0.500000
O O2 0.240315 0.333120 0.509020
O O3 0.318917 0.139624 0.444605
O O4 0.201705 0.995423 0.778808
O O5 0.283414 0.455203 0.179079
O O6 0.272548 0.185190 0.153325
O O7 0.109574 0.305259 0.019391
O O8 0.437580 0.614441 0.848175
O O9 0.884126 0.539242 0.680191
O O10 0.000000 0.500000 0.500000
O O11 0.700803 0.096638 0.709334
O O12 0.913898 0.256597 0.860619
O O13 0.000000 0.000000 0.500000
O O14 0.000000 0.500000 0.000000
#
# Coordination Sequence:
#
# PCOD9032504 Si02
#       6
#     2   2   2   2   2   2
#     4  11  26  46  72 102 141 187 235 288 354 422
#     4  10  22  43  71  97 141 184 227 291 341 422
#     4  12  26  42  70 105 139 182 233 294 346 412
#     4  11  21  45  69  97 142 188 224 282 360 411
#     4  10  25  45  67 103 143 176 236 288 352 406
#     4  12  24  44  74 103 136 185 242 282 346 423
#
# _framework density 20.949415999999999
#
# number of rings (size 3 to 8) (size 9 to 14) (size 15 to 20)
#    0.000    1.000    3.333    3.000    7.000    4.000 
#    0.000    2.500    0.000    0.000    0.000    0.000 
#    0.000    0.000    0.000    0.000    0.000    0.000 
#
# Total GULP energy -66801.104066 kJ/mol
# GULP energy per Si atom -5566.758672 kJ/mol
# Density = 2.090173 g / cm^3
# Si number density = 20.949416 Si / 1000 Ang^3
#
#
#
# Elastic Constant Matrix: (Units=GPa)
#
#
# Indices 1 2 3 4 5 6 
#
# 1 110.8968 38.1831 49.9709 -13.6794 3.7457 11.5557
# 2 38.1831 96.0181 41.3469 -5.4227 10.2052 16.8468
# 3 49.9709 41.3469 172.4555 0.1610 -0.6122 13.3980
# 4 -13.6794 -5.4227 0.1610 21.8512 -0.3660 -3.7739
# 5 3.7457 10.2052 -0.6122 -0.3660 33.0729 7.4977
# 6 11.5557 16.8468 13.3980 -3.7739 7.4977 33.2773
#
#
#
# Elastic Compliance Matrix: (Units=1/GPa)
#
#
# Indices 1 2 3 4 5 6 
#
# 1 0.012263 -0.003158 -0.002746 0.006783 -0.000224 -0.000734
# 2 -0.003158 0.013640 -0.002035 0.000638 -0.002916 -0.004260
# 3 -0.002746 -0.002035 0.007207 -0.002516 0.001388 -0.001516
# 4 0.006783 0.000638 -0.002516 0.050929 -0.001454 0.004438
# 5 -0.000224 -0.002916 0.001388 -0.001454 0.032651 -0.006526
# 6 -0.000734 -0.004260 -0.001516 0.004438 -0.006526 0.035046
#
#
# Mechanical properties :
#
#
# Convention : Reuss Voigt Hill
#
# Bulk Modulus (GPa) = 58.03378 70.93024 64.48201
# Shear Modulus (GPa) = 28.84168 34.29826 31.56997
#
# Velocity S-wave (km/s) = 3.71446 4.05062 3.88617
# Velocity P-wave (km/s) = 6.79399 7.47048 7.14025
#
# Compressibility (1/GPa) = 0.01723134
#
# Stress axis : x y z
#
# Youngs Moduli (GPa) = 81.54563 73.31118 138.74753
#
# Poissons Ratio (x) = 0.23155 0.38103
# Poissons Ratio (y) = 0.25755 0.28238
# Poissons Ratio (z) = 0.22394 0.14920
#
# Static dielectric constant tensor:
#      x y z
#    x 1.816500 0.002530 0.008950 
#    y 0.002530 1.707710 -0.029710 
#    z 0.008950 -0.029710 1.740270 
# 
# From -- ./inp_files/151137.got.cif
#   From: 2010.05.17/outbox.cif.g08.bks.cpg/sg2_76_cif.got.tgz:151137.got - 2010.06.03 11:33:40.
