data_PCOD9032468
_publ_section_title
;
Structure prediction by ZEFSAII (Michael W. Deem and Ramdas Pophale) SiO2 
 PCOD9032468
Probable space group: P -1
;
_chemical_formula_sum "Si O2"
_cell_formula_units_Z 14
_cell_length_a 19.673370
_cell_length_b 12.456438
_cell_length_c 14.225918
_cell_angle_alpha 21.745253
_cell_angle_beta 29.163241
_cell_angle_gamma 40.446924
_cell_volume 604.673392
_symmetry_space_group_name_H-M "P -1"
_symmetry_group_IT_number 2
_symmetry_cell_setting 'triclinic'
loop_
_space_group_symop_operation_xyz
x,y,z
-x,-y,-z
loop_
_atom_site_type_symbol
_atom_site_label
_atom_site_fract_x
_atom_site_fract_y
_atom_site_fract_z
Si Si1 0.716592 0.375979 0.100789
Si Si2 0.095450 0.725854 0.775635
Si Si3 0.403815 0.191284 0.410971
Si Si4 0.664168 0.500332 0.281527
Si Si5 0.429570 0.507201 0.298483
Si Si6 0.703366 0.968277 0.995195
Si Si7 0.992007 0.664234 0.614238
O O1 0.683616 0.430809 0.205503
O O2 0.600582 0.523107 0.070732
O O3 0.680528 0.035717 0.381948
O O4 0.890594 0.511814 0.773315
O O5 0.264811 0.733602 0.560808
O O6 0.066277 0.043476 0.538779
O O7 0.040992 0.574616 0.065820
O O8 0.000000 0.500000 0.000000
O O9 0.336369 0.314225 0.482180
O O10 0.500000 0.000000 0.500000
O O11 0.500000 0.500000 0.000000
O O12 0.500000 0.500000 0.500000
O O13 0.750455 0.820590 0.965051
O O14 0.403823 0.833294 0.064015
O O15 0.370422 0.310176 0.621758
O O16 0.836280 0.188605 0.711732
#
# Coordination Sequence:
#
# PCOD9032468 Si02
#       7
#     2   2   2   2   2   2   2
#     4  10  24  43  67 100 125 176 224 267 320 389
#     4  11  23  41  60  88 130 185 216 248 318 395
#     4  10  22  43  71  93 128 170 222 272 320 383
#     4  11  24  38  66  97 139 161 217 270 326 387
#     4  11  24  43  68  94 131 170 223 267 329 376
#     4  12  25  42  63 101 135 175 204 271 339 382
#     4  11  25  41  65  92 134 175 221 260 319 399
#
# _framework density 23.152994
#
# number of rings (size 3 to 8) (size 9 to 14) (size 15 to 20)
#    0.000    1.143    2.857    3.000    4.000    4.000 
#    0.000    1.429    0.000    0.000    0.000    0.000 
#    0.000    0.000    0.000    0.000    0.000    0.000 
#
# Total GULP energy -78100.291033 kJ/mol
# GULP energy per Si atom -5578.592217 kJ/mol
# Density = 2.310030 g / cm^3
# Si number density = 23.152994 Si / 1000 Ang^3
#
#
#
# Elastic Constant Matrix: (Units=GPa)
#
#
# Indices 1 2 3 4 5 6 
#
# 1 109.6584 38.1531 46.8137 -10.7315 -14.5198 -1.6727
# 2 38.1531 50.6541 5.9686 -30.7815 7.4101 -1.3953
# 3 46.8137 5.9686 96.0808 -21.8950 -5.4373 1.7679
# 4 -10.7315 -30.7815 -21.8950 43.9942 -1.8367 -15.1098
# 5 -14.5198 7.4101 -5.4373 -1.8367 59.7674 -4.3120
# 6 -1.6727 -1.3953 1.7679 -15.1098 -4.3120 50.6022
#
#
#
# Elastic Compliance Matrix: (Units=1/GPa)
#
#
# Indices 1 2 3 4 5 6 
#
# 1 0.030391 -0.044141 -0.019593 -0.036104 0.009277 -0.009518
# 2 -0.044141 0.105260 0.033524 0.087476 -0.016232 0.025009
# 3 -0.019593 0.033524 0.025212 0.034172 -0.004910 0.009181
# 4 -0.036104 0.087476 0.034172 0.101782 -0.011254 0.029458
# 5 0.009277 -0.016232 -0.004910 -0.011254 0.020088 -0.001618
# 6 -0.009518 0.025009 0.009181 0.029458 -0.001618 0.028474
#
#
# Mechanical properties :
#
#
# Convention : Reuss Voigt Hill
#
# Bulk Modulus (GPa) = 9.95594 48.69602 29.32598
# Shear Modulus (GPa) = 12.34232 41.90328 27.12280
#
# Velocity S-wave (km/s) = 2.31135 4.25884 3.42637
# Velocity P-wave (km/s) = 3.38120 6.72767 5.32419
#
# Compressibility (1/GPa) = 0.10044254
#
# Stress axis : x y z
#
# Youngs Moduli (GPa) = 32.90401 9.50029 39.66357
#
# Poissons Ratio (x) = 0.41935 0.77712
# Poissons Ratio (y) = 1.45242 -1.32967
# Poissons Ratio (z) = 0.64468 -0.31848
#
# Static dielectric constant tensor:
#      x y z
#    x 1.953780 0.041380 -0.054260 
#    y 0.041380 1.909370 0.064110 
#    z -0.054260 0.064110 1.962280 
# 
# From -- ./inp_files/541036.got.cif
#   From: 2010.05.17/outbox.cif.g08.bks.cpg/sg2_271_cif.got.tgz:541036.got - 2010.06.03 11:33:40.
