data_PCOD9032106
_publ_section_title
;
Structure prediction by ZEFSAII (Michael W. Deem and Ramdas Pophale) SiO2 
 PCOD9032106
Probable space group: P -1
;
_chemical_formula_sum "Si O2"
_cell_formula_units_Z 14
_cell_length_a 5.552382
_cell_length_b 11.325626
_cell_length_c 19.175522
_cell_angle_alpha 147.224748
_cell_angle_beta 100.906652
_cell_angle_gamma 64.769835
_cell_volume 554.140004
_symmetry_space_group_name_H-M "P -1"
_symmetry_group_IT_number 2
_symmetry_cell_setting 'triclinic'
loop_
_space_group_symop_operation_xyz
x,y,z
-x,-y,-z
loop_
_atom_site_type_symbol
_atom_site_label
_atom_site_fract_x
_atom_site_fract_y
_atom_site_fract_z
Si Si1 0.647950 0.381141 0.375744
Si Si2 0.200801 0.096115 0.334139
Si Si3 0.359346 0.575536 0.106098
Si Si4 0.748466 0.640898 0.271465
Si Si5 0.464326 0.824494 0.492708
Si Si6 0.431116 0.072005 0.859112
Si Si7 0.793436 0.889333 0.918260
O O1 0.500000 0.500000 0.500000
O O2 0.458648 0.595268 0.416365
O O3 0.966502 0.303216 0.374412
O O4 0.683424 0.114951 0.223320
O O5 0.275198 0.180615 0.452091
O O6 0.134862 0.872418 0.236779
O O7 0.479076 0.972886 0.239161
O O8 0.595724 0.558503 0.164554
O O9 0.500000 0.500000 0.000000
O O10 0.262797 0.370933 0.014760
O O11 0.536223 0.750511 0.380054
O O12 0.029218 0.404007 0.197901
O O13 0.775330 0.881681 0.368639
O O14 0.705283 0.959729 0.868265
O O15 0.500000 0.000000 0.000000
O O16 0.000000 0.000000 0.000000
#
# Coordination Sequence:
#
# PCOD9032106 Si02
#       7
#     2   2   2   2   2   2   2
#     4  12  25  39  64 104 138 184 236 289 366 436
#     4  10  22  43  69  96 140 181 238 299 358 441
#     4   9  20  41  70  98 135 180 236 297 366 429
#     4  10  22  45  73 103 142 190 245 301 370 441
#     4  10  22  44  73  99 147 191 240 301 366 448
#     4  11  24  42  69 101 136 184 237 299 366 431
#     4  12  28  48  74 108 150 195 249 309 376 445
#
# _framework density 25.264372999999999
#
# number of rings (size 3 to 8) (size 9 to 14) (size 15 to 20)
#    0.000    1.429    2.857    1.286    6.000    0.571 
#    2.571    0.714    0.000    0.000    0.000    0.000 
#    0.000    0.000    0.000    0.000    0.000    0.000 
#
# Total GULP energy -78227.291776 kJ/mol
# GULP energy per Si atom -5587.663698 kJ/mol
# Density = 2.520687 g / cm^3
# Si number density = 25.264373 Si / 1000 Ang^3
#
#
#
# Elastic Constant Matrix: (Units=GPa)
#
#
# Indices 1 2 3 4 5 6 
#
# 1 54.1995 4.5171 34.5528 0.6086 9.8828 2.4246
# 2 4.5171 135.3023 50.7868 4.8028 7.3731 6.5420
# 3 34.5528 50.7868 136.3510 13.5502 31.6038 2.6223
# 4 0.6086 4.8028 13.5502 81.6883 8.2614 2.1203
# 5 9.8828 7.3731 31.6038 8.2614 39.1405 1.4837
# 6 2.4246 6.5420 2.6223 2.1203 1.4837 34.9651
#
#
#
# Elastic Compliance Matrix: (Units=1/GPa)
#
#
# Indices 1 2 3 4 5 6 
#
# 1 0.022467 0.001636 -0.006086 0.000904 -0.001204 -0.001411
# 2 0.001636 0.008826 -0.003946 0.000046 0.001158 -0.001521
# 3 -0.006086 -0.003946 0.012133 -0.001010 -0.007327 0.000623
# 4 0.000904 0.000046 -0.001010 0.012626 -0.002061 -0.000674
# 5 -0.001204 0.001158 -0.007327 -0.002061 0.032017 -0.000817
# 6 -0.001411 -0.001521 0.000623 -0.000674 -0.000817 0.029011
#
#
# Mechanical properties :
#
#
# Convention : Reuss Voigt Hill
#
# Bulk Modulus (GPa) = 37.54683 56.17404 46.86044
# Shear Modulus (GPa) = 35.02648 46.89185 40.95917
#
# Velocity S-wave (km/s) = 3.72748 4.31286 4.03081
# Velocity P-wave (km/s) = 5.78094 6.86176 6.34441
#
# Compressibility (1/GPa) = 0.02663340
#
# Stress axis : x y z
#
# Youngs Moduli (GPa) = 44.51040 113.29968 82.42130
#
# Poissons Ratio (x) = -0.18539 0.50165
# Poissons Ratio (y) = -0.07283 0.32523
# Poissons Ratio (z) = 0.27091 0.44707
#
# Static dielectric constant tensor:
#      x y z
#    x 2.235480 0.052180 -0.165490 
#    y 0.052180 2.000820 0.078550 
#    z -0.165490 0.078550 2.338830 
# 
# From -- ./inp_files/365327.got.cif
#   From: 2010.05.17/outbox.cif.g08.bks.cpg/sg2_183_cif.got.tgz:365327.got - 2010.06.03 11:33:40.
