data_PCOD9032174
_publ_section_title
;
Structure prediction by ZEFSAII (Michael W. Deem and Ramdas Pophale) SiO2 
 PCOD9032174
Probable space group: P -1
;
_chemical_formula_sum "Si O2"
_cell_formula_units_Z 12
_cell_length_a 14.090143
_cell_length_b 7.892681
_cell_length_c 9.260233
_cell_angle_alpha 72.860552
_cell_angle_beta 63.474739
_cell_angle_gamma 31.754175
_cell_volume 476.946396
_symmetry_space_group_name_H-M "P -1"
_symmetry_group_IT_number 2
_symmetry_cell_setting 'triclinic'
loop_
_space_group_symop_operation_xyz
x,y,z
-x,-y,-z
loop_
_atom_site_type_symbol
_atom_site_label
_atom_site_fract_x
_atom_site_fract_y
_atom_site_fract_z
Si Si1 0.045533 0.541214 0.258063
Si Si2 0.438271 0.468815 0.183568
Si Si3 0.018458 0.937841 0.334286
Si Si4 0.421394 0.819411 0.305818
Si Si5 0.852514 0.349161 0.085118
Si Si6 0.639859 0.972820 0.398180
O O1 0.961993 0.824921 0.337663
O O2 0.873219 0.638979 0.343240
O O3 0.240171 0.195618 0.286517
O O4 0.101147 0.538078 0.062563
O O5 0.250295 0.622841 0.226375
O O6 0.385622 0.681088 0.292030
O O7 0.599472 0.117238 0.234122
O O8 0.500000 0.500000 0.000000
O O9 0.000000 0.000000 0.500000
O O10 0.909369 0.243802 0.240267
O O11 0.627064 0.608249 0.160354
O O12 0.431451 0.806818 0.474553
O O13 0.000000 0.000000 0.000000
O O14 0.500000 0.000000 0.500000
#
# Coordination Sequence:
#
# PCOD9032174 Si02
#       6
#     2   2   2   2   2   2
#     4  11  24  46  70 103 144 187 236 296 357 424
#     4  12  25  45  71 103 140 186 235 290 355 426
#     4  11  22  42  71 103 138 185 236 290 352 424
#     4  12  25  44  72 106 142 186 236 299 358 423
#     4  10  22  43  69  99 139 187 234 287 354 424
#     4  12  27  48  72 104 143 189 241 296 356 427
#
# _framework density 25.160060000000001
#
# number of rings (size 3 to 8) (size 9 to 14) (size 15 to 20)
#    0.000    0.667    0.000    9.500    0.000    4.000 
#    0.000    2.500    0.000    0.000    0.000    0.000 
#    0.000    0.000    0.000    0.000    0.000    0.000 
#
# Total GULP energy -67254.973446 kJ/mol
# GULP energy per Si atom -5604.581120 kJ/mol
# Density = 2.510279 g / cm^3
# Si number density = 25.160060 Si / 1000 Ang^3
#
#
#
# Elastic Constant Matrix: (Units=GPa)
#
#
# Indices 1 2 3 4 5 6 
#
# 1 145.9696 33.5130 46.4967 7.6059 -4.1731 -14.5471
# 2 33.5130 113.1483 68.6994 -10.5698 -7.8789 -29.2790
# 3 46.4967 68.6994 137.1824 -24.8201 -5.1186 -24.8141
# 4 7.6059 -10.5698 -24.8201 54.5980 -18.0927 -5.8369
# 5 -4.1731 -7.8789 -5.1186 -18.0927 35.6721 11.4009
# 6 -14.5471 -29.2790 -24.8141 -5.8369 11.4009 40.7315
#
#
#
# Elastic Compliance Matrix: (Units=1/GPa)
#
#
# Indices 1 2 3 4 5 6 
#
# 1 0.008118 -0.000975 -0.002766 -0.002963 -0.001311 0.000456
# 2 -0.000975 0.014272 -0.005312 0.001496 0.000915 0.006633
# 3 -0.002766 -0.005312 0.012683 0.006290 0.002517 0.003117
# 4 -0.002963 0.001496 0.006290 0.026655 0.013129 0.003994
# 5 -0.001311 0.000915 0.002517 0.013129 0.037286 -0.006832
# 6 0.000456 0.006633 0.003117 0.003994 -0.006832 0.033865
#
#
# Mechanical properties :
#
#
# Convention : Reuss Voigt Hill
#
# Bulk Modulus (GPa) = 58.93805 77.07982 68.00894
# Shear Modulus (GPa) = 31.92024 42.70642 37.31333
#
# Velocity S-wave (km/s) = 3.56573 4.12441 3.85520
# Velocity P-wave (km/s) = 6.35835 7.30639 6.84879
#
# Compressibility (1/GPa) = 0.01696697
#
# Stress axis : x y z
#
# Youngs Moduli (GPa) = 123.18451 70.06741 78.84645
#
# Poissons Ratio (x) = 0.06834 0.21805
# Poissons Ratio (y) = 0.12016 0.41883
# Poissons Ratio (z) = 0.34067 0.37220
#
# Static dielectric constant tensor:
#      x y z
#    x 1.962730 0.026090 0.022110 
#    y 0.026090 1.984710 -0.039780 
#    z 0.022110 -0.039780 2.139020 
# 
# From -- ./inp_files/156451.got.cif
#   From: 2010.05.17/outbox.cif.g08.bks.cpg/sg2_79_cif.got.tgz:156451.got - 2010.06.03 11:33:40.
