data_PCOD9032450
_publ_section_title
;
Structure prediction by ZEFSAII (Michael W. Deem and Ramdas Pophale) SiO2 
 PCOD9032450
Probable space group: P -1
;
_chemical_formula_sum "Si O2"
_cell_formula_units_Z 15
_cell_length_a 11.532686
_cell_length_b 13.412648
_cell_length_c 11.707711
_cell_angle_alpha 21.350099
_cell_angle_beta 66.527182
_cell_angle_gamma 66.277799
_cell_volume 602.095123
_symmetry_space_group_name_H-M "P -1"
_symmetry_group_IT_number 2
_symmetry_cell_setting 'triclinic'
loop_
_space_group_symop_operation_xyz
x,y,z
-x,-y,-z
loop_
_atom_site_type_symbol
_atom_site_label
_atom_site_fract_x
_atom_site_fract_y
_atom_site_fract_z
Si Si1 0.125117 0.511170 0.858896
Si Si2 0.644677 0.607890 0.544265
Si Si3 0.947791 0.744186 0.497954
Si Si4 0.315705 0.167168 0.460509
Si Si5 0.095103 0.686097 0.201451
Si Si6 0.500000 0.000000 0.000000
Si Si7 0.473775 0.263254 0.108169
Si Si8 0.696510 0.035882 0.669835
O O1 0.074074 0.679705 0.586864
O O2 0.235444 0.688304 0.671965
O O3 0.191526 0.215168 0.112191
O O4 0.000000 0.500000 0.000000
O O5 0.680607 0.756560 0.488553
O O6 0.767335 0.385111 0.717478
O O7 0.520810 0.456919 0.785951
O O8 0.604911 0.809070 0.241944
O O9 0.825891 0.845515 0.513523
O O10 0.909126 0.456787 0.768862
O O11 0.948122 0.993762 0.141450
O O12 0.386510 0.361744 0.142863
O O13 0.397177 0.876689 0.738436
O O14 0.000000 0.500000 0.500000
O O15 0.611990 0.033944 0.820473
O O16 0.399507 0.035199 0.316894
#
# Coordination Sequence:
#
# PCOD9032450 Si02
#       8
#     2   2   2   2   2   1   2   2
#     4  12  28  51  79 114 154 202 262 321 387 456
#     4  11  24  45  70 107 150 196 249 306 384 452
#     4  11  24  46  71 106 141 187 247 304 378 431
#     4  10  22  43  71 106 140 188 243 318 371 445
#     4  11  25  45  70 102 140 192 247 307 359 440
#     4  12  28  48  72 110 162 204 250 304 378 494
#     4  11  22  44  72 105 143 191 250 309 380 439
#     4  12  28  50  76 115 157 211 253 316 388 464
#
# _framework density 24.913005999999999
#
# number of rings (size 3 to 8) (size 9 to 14) (size 15 to 20)
#    0.000    0.800    2.667    3.600    3.733    3.200 
#    2.400    0.000    0.000    0.000    0.000    0.000 
#    0.000    0.000    0.000    0.000    0.000    0.000 
#
# Total GULP energy -83590.206535 kJ/mol
# GULP energy per Si atom -5572.680436 kJ/mol
# Density = 2.485630 g / cm^3
# Si number density = 24.913006 Si / 1000 Ang^3
#
#
#
# Elastic Constant Matrix: (Units=GPa)
#
#
# Indices 1 2 3 4 5 6 
#
# 1 85.4127 6.0036 42.8358 -0.1377 17.8275 -6.8401
# 2 6.0036 60.9693 42.1527 11.7210 -7.4851 -20.1773
# 3 42.8358 42.1527 123.0440 5.8241 4.0027 3.6379
# 4 -0.1377 11.7210 5.8241 41.6776 -3.8276 -5.0350
# 5 17.8275 -7.4851 4.0027 -3.8276 58.7644 1.1710
# 6 -6.8401 -20.1773 3.6379 -5.0350 1.1710 39.2697
#
#
#
# Elastic Compliance Matrix: (Units=1/GPa)
#
#
# Indices 1 2 3 4 5 6 
#
# 1 0.016487 0.005261 -0.007606 0.000050 -0.003938 0.006403
# 2 0.005261 0.032308 -0.013297 -0.004776 0.002754 0.018054
# 3 -0.007606 -0.013297 0.015603 0.000359 -0.000236 -0.009549
# 4 0.000050 -0.004776 0.000359 0.025470 0.000996 0.000757
# 5 -0.003938 0.002754 -0.000236 0.000996 0.018637 0.000323
# 6 0.006403 0.018054 -0.009549 0.000757 0.000323 0.036829
#
#
# Mechanical properties :
#
#
# Convention : Reuss Voigt Hill
#
# Bulk Modulus (GPa) = 30.19750 50.15669 40.17710
# Shear Modulus (GPa) = 26.64446 39.83791 33.24119
#
# Velocity S-wave (km/s) = 3.27387 4.00319 3.65676
# Velocity P-wave (km/s) = 5.14183 6.44545 5.83019
#
# Compressibility (1/GPa) = 0.03311533
#
# Stress axis : x y z
#
# Youngs Moduli (GPa) = 60.65285 30.95202 64.08884
#
# Poissons Ratio (x) = -0.16284 0.48744
# Poissons Ratio (y) = -0.31910 0.85219
# Poissons Ratio (z) = 0.46131 0.41157
#
# Static dielectric constant tensor:
#      x y z
#    x 1.960110 -0.035090 -0.004650 
#    y -0.035090 2.141710 -0.014780 
#    z -0.004650 -0.014780 2.024080 
# 
# From -- ./inp_files/433614.got.cif
#   From: 2010.05.17/outbox.cif.g08.bks.cpg/sg2_217_cif.got.tgz:433614.got - 2010.06.03 11:33:40.
