data_PCOD9032270
_publ_section_title
;
Structure prediction by ZEFSAII (Michael W. Deem and Ramdas Pophale) SiO2 
 PCOD9032270
Probable space group: P -1
;
_chemical_formula_sum "Si O2"
_cell_formula_units_Z 14
_cell_length_a 11.369787
_cell_length_b 8.113996
_cell_length_c 9.672395
_cell_angle_alpha 64.091577
_cell_angle_beta 81.399491
_cell_angle_gamma 42.479693
_cell_volume 519.675952
_symmetry_space_group_name_H-M "P -1"
_symmetry_group_IT_number 2
_symmetry_cell_setting 'triclinic'
loop_
_space_group_symop_operation_xyz
x,y,z
-x,-y,-z
loop_
_atom_site_type_symbol
_atom_site_label
_atom_site_fract_x
_atom_site_fract_y
_atom_site_fract_z
Si Si1 0.504489 0.786302 0.331123
Si Si2 0.890416 0.875057 0.357831
Si Si3 0.508396 0.409015 0.318045
Si Si4 0.374204 0.344595 0.096505
Si Si5 0.247768 0.054770 0.936730
Si Si6 0.908979 0.423102 0.298811
Si Si7 0.016460 0.079204 0.160075
O O1 0.439732 0.677862 0.301981
O O2 0.503407 0.732381 0.510747
O O3 0.711567 0.583973 0.323098
O O4 0.390866 0.106794 0.211360
O O5 0.799175 0.881346 0.242270
O O6 0.974473 0.675766 0.547002
O O7 0.722073 0.188717 0.330435
O O8 0.033388 0.843249 0.270325
O O9 0.425925 0.412655 0.193287
O O10 0.535181 0.190996 0.011773
O O11 0.182792 0.636272 0.966901
O O12 0.141900 0.360991 0.883119
O O13 0.152299 0.003692 0.052278
O O14 0.026471 0.147982 0.287309
#
# Coordination Sequence:
#
# PCOD9032270 Si02
#       7
#     2   2   2   2   2   2   2
#     4  10  22  43  70 107 135 188 237 291 360 413
#     4  11  24  46  67 101 141 182 240 291 347 433
#     4  10  22  43  70 107 135 188 237 291 360 413
#     4  10  25  46  71 103 148 179 243 292 348 440
#     4  10  25  46  73 102 137 189 233 293 365 408
#     4  11  24  46  67 101 141 182 240 291 347 433
#     4  12  25  46  69 106 140 190 226 295 366 409
#
# _framework density 26.939864
#
# number of rings (size 3 to 8) (size 9 to 14) (size 15 to 20)
#    0.000    1.429    1.429    2.143    4.000    4.571 
#    7.714    0.000    0.000    0.000    0.000    0.000 
#    0.000    0.000    0.000    0.000    0.000    0.000 
#
# Total GULP energy -78414.690494 kJ/mol
# GULP energy per Si atom -5601.049321 kJ/mol
# Density = 2.687855 g / cm^3
# Si number density = 26.939864 Si / 1000 Ang^3
#
#
#
# Elastic Constant Matrix: (Units=GPa)
#
#
# Indices 1 2 3 4 5 6 
#
# 1 63.6768 39.6070 42.4487 -5.5033 -8.4548 -8.1171
# 2 39.6070 61.3612 29.6248 -14.9698 1.7585 -18.0204
# 3 42.4487 29.6248 132.6093 5.4421 5.8812 -18.1738
# 4 -5.5033 -14.9698 5.4421 36.2751 3.0266 6.3696
# 5 -8.4548 1.7585 5.8812 3.0266 61.9954 3.3221
# 6 -8.1171 -18.0204 -18.1738 6.3696 3.3221 42.9390
#
#
#
# Elastic Compliance Matrix: (Units=1/GPa)
#
#
# Indices 1 2 3 4 5 6 
#
# 1 0.032696 -0.019928 -0.006938 -0.001794 0.006055 -0.005322
# 2 -0.019928 0.034674 -0.000263 0.010039 -0.004678 0.009546
# 3 -0.006938 -0.000263 0.010544 -0.003223 -0.001978 0.003672
# 4 -0.001794 0.010039 -0.003223 0.032444 -0.001691 -0.002172
# 5 0.006055 -0.004678 -0.001978 -0.001691 0.017507 -0.002760
# 6 -0.005322 0.009546 0.003672 -0.002172 -0.002760 0.028379
#
#
# Mechanical properties :
#
#
# Convention : Reuss Voigt Hill
#
# Bulk Modulus (GPa) = 42.27676 53.44538 47.86107
# Shear Modulus (GPa) = 22.89511 37.97303 30.43407
#
# Velocity S-wave (km/s) = 2.91840 3.75847 3.36475
# Velocity P-wave (km/s) = 5.20415 6.22227 5.73584
#
# Compressibility (1/GPa) = 0.02365366
#
# Stress axis : x y z
#
# Youngs Moduli (GPa) = 30.58516 28.84008 94.84119
#
# Poissons Ratio (x) = 0.57474 0.65803
# Poissons Ratio (y) = 0.60951 0.02497
# Poissons Ratio (z) = 0.21221 0.00759
#
# Static dielectric constant tensor:
#      x y z
#    x 2.160330 0.081680 0.010230 
#    y 0.081680 2.172850 -0.062610 
#    z 0.010230 -0.062610 2.093230 
# 
# From -- ./inp_files/242533.got.cif
#   From: 2010.05.17/outbox.cif.g08.bks.cpg/sg2_122_cif.got.tgz:242533.got - 2010.06.03 11:33:40.
