data_PCOD9032170
_publ_section_title
;
Structure prediction by ZEFSAII (Michael W. Deem and Ramdas Pophale) SiO2 
 PCOD9032170
Probable space group: P -1
;
_chemical_formula_sum "Si O2"
_cell_formula_units_Z 14
_cell_length_a 14.276326
_cell_length_b 8.199072
_cell_length_c 9.615637
_cell_angle_alpha 32.187520
_cell_angle_beta 114.974334
_cell_angle_gamma 114.897511
_cell_volume 538.756858
_symmetry_space_group_name_H-M "P -1"
_symmetry_group_IT_number 2
_symmetry_cell_setting 'triclinic'
loop_
_space_group_symop_operation_xyz
x,y,z
-x,-y,-z
loop_
_atom_site_type_symbol
_atom_site_label
_atom_site_fract_x
_atom_site_fract_y
_atom_site_fract_z
Si Si1 0.054618 0.874125 0.917377
Si Si2 0.426157 0.711507 0.726255
Si Si3 0.287284 0.565807 0.493627
Si Si4 0.574667 0.279040 0.776774
Si Si5 0.287380 0.207004 0.335705
Si Si6 0.865941 0.787947 0.532970
Si Si7 0.161275 0.080472 0.098174
O O1 0.059468 0.983820 0.682036
O O2 0.132076 0.101869 0.902210
O O3 0.090452 0.537277 0.189375
O O4 0.943126 0.871196 0.921186
O O5 0.500000 0.000000 0.500000
O O6 0.346662 0.909968 0.610026
O O7 0.500000 0.500000 0.000000
O O8 0.257200 0.254877 0.120694
O O9 0.350165 0.788257 0.255606
O O10 0.239181 0.274832 0.583678
O O11 0.364363 0.526814 0.694906
O O12 0.194064 0.736700 0.372193
O O13 0.500000 0.500000 0.500000
O O14 0.646202 0.486013 0.783882
O O15 0.500000 0.000000 0.000000
O O16 0.179913 0.128613 0.409936
#
# Coordination Sequence:
#
# PCOD9032170 Si02
#       7
#     2   2   2   2   2   2   2
#     4  10  22  43  69  99 139 179 221 274 342 410
#     4  11  25  43  64  95 132 174 227 285 341 401
#     4   9  22  42  65  93 133 176 224 280 341 403
#     4  11  25  45  67  94 132 179 229 284 343 401
#     4  10  24  45  71 101 136 180 234 286 340 406
#     4  10  23  43  67  98 134 178 224 277 338 403
#     4   9  21  43  69 101 136 179 225 278 339 408
#
# _framework density 25.985748000000001
#
# number of rings (size 3 to 8) (size 9 to 14) (size 15 to 20)
#    0.000    2.000    0.000    0.857    0.000   22.286 
#    0.000   14.286    0.000    0.000    0.000    0.000 
#    0.000    0.000    0.000    0.000    0.000    0.857 
#
# Total GULP energy -78364.183306 kJ/mol
# GULP energy per Si atom -5597.441665 kJ/mol
# Density = 2.592660 g / cm^3
# Si number density = 25.985748 Si / 1000 Ang^3
#
#
#
# Elastic Constant Matrix: (Units=GPa)
#
#
# Indices 1 2 3 4 5 6 
#
# 1 135.5276 20.2659 61.0935 -8.1748 22.2189 -26.1308
# 2 20.2659 120.5647 41.8413 20.7645 17.5857 -4.6937
# 3 61.0935 41.8413 171.3374 2.5134 1.8434 -11.9480
# 4 -8.1748 20.7645 2.5134 36.6163 5.8758 2.6490
# 5 22.2189 17.5857 1.8434 5.8758 35.8176 2.6787
# 6 -26.1308 -4.6937 -11.9480 2.6490 2.6787 38.5888
#
#
#
# Elastic Compliance Matrix: (Units=1/GPa)
#
#
# Indices 1 2 3 4 5 6 
#
# 1 0.012126 0.000187 -0.003816 0.003705 -0.008578 0.007394
# 2 0.000187 0.010732 -0.002469 -0.005250 -0.004497 0.001340
# 3 -0.003816 -0.002469 0.007723 -0.000463 0.003309 -0.000691
# 4 0.003705 -0.005250 -0.000463 0.031946 -0.004928 -0.000124
# 5 -0.008578 -0.004497 0.003309 -0.004928 0.036651 -0.007537
# 6 0.007394 0.001340 -0.000691 -0.000124 -0.007537 0.031402
#
#
# Mechanical properties :
#
#
# Convention : Reuss Voigt Hill
#
# Bulk Modulus (GPa) = 54.38924 74.87011 64.62967
# Shear Modulus (GPa) = 33.57885 42.48647 38.03266
#
# Velocity S-wave (km/s) = 3.59862 4.04789 3.82985
# Velocity P-wave (km/s) = 6.18406 7.12192 6.66950
#
# Compressibility (1/GPa) = 0.01838599
#
# Stress axis : x y z
#
# Youngs Moduli (GPa) = 82.46612 93.18010 129.48453
#
# Poissons Ratio (x) = -0.01743 0.49411
# Poissons Ratio (y) = -0.01542 0.31965
# Poissons Ratio (z) = 0.31469 0.23002
#
# Static dielectric constant tensor:
#      x y z
#    x 1.861640 0.031100 0.049690 
#    y 0.031100 2.119830 0.036550 
#    z 0.049690 0.036550 1.968610 
# 
# From -- ./inp_files/432922.got.cif
#   From: 2010.05.17/outbox.cif.g08.bks.cpg/sg2_217_cif.got.tgz:432922.got - 2010.06.03 11:33:40.
