data_PCOD9032857
_publ_section_title
;
Structure prediction by ZEFSAII (Michael W. Deem and Ramdas Pophale) SiO2 
 PCOD9032857
Probable space group: P -1
;
_chemical_formula_sum "Si O2"
_cell_formula_units_Z 16
_cell_length_a 11.340241
_cell_length_b 20.972171
_cell_length_c 20.581368
_cell_angle_alpha 160.698345
_cell_angle_beta 149.688709
_cell_angle_gamma 38.046107
_cell_volume 805.604866
_symmetry_space_group_name_H-M "P -1"
_symmetry_group_IT_number 2
_symmetry_cell_setting 'triclinic'
loop_
_space_group_symop_operation_xyz
x,y,z
-x,-y,-z
loop_
_atom_site_type_symbol
_atom_site_label
_atom_site_fract_x
_atom_site_fract_y
_atom_site_fract_z
Si Si1 0.285478 0.768388 0.011769
Si Si2 0.849603 0.848517 0.126102
Si Si3 0.554353 0.204230 0.029631
Si Si4 0.329170 0.407273 0.772073
Si Si5 0.172052 0.831681 0.675896
Si Si6 0.782572 0.889929 0.908482
Si Si7 0.555995 0.448229 0.388648
Si Si8 0.587847 0.077550 0.544552
O O1 0.378182 0.734257 0.951472
O O2 0.478273 0.919525 0.287889
O O3 0.246564 0.572430 0.847393
O O4 0.041158 0.852731 0.974305
O O5 0.726677 0.839383 0.129442
O O6 0.129396 0.877090 0.281834
O O7 0.760007 0.028047 0.218212
O O8 0.721296 0.647966 0.838004
O O9 0.666286 0.013920 0.919172
O O10 0.645480 0.368219 0.285324
O O11 0.474872 0.272807 0.670044
O O12 0.097105 0.273339 0.561123
O O13 0.500000 0.500000 0.000000
O O14 0.324950 0.665883 0.608585
O O15 0.187140 0.980014 0.886697
O O16 0.628309 0.678521 0.645125
O O17 0.500000 0.000000 0.500000
#
# Coordination Sequence:
#
# PCOD9032857 Si02
#       8
#     2   2   2   2   2   2   2   2
#     4  12  23  42  68  92 130 167 210 262 312 378
#     4  10  22  44  59  90 139 160 212 262 308 381
#     4   9  25  42  60  97 127 173 204 256 320 375
#     4  12  24  40  65  99 122 162 214 262 316 369
#     4  11  20  40  63  94 127 158 210 269 320 363
#     4  11  21  40  67  97 123 165 213 260 320 370
#     4   9  22  40  60  94 127 165 209 257 318 375
#     4  12  23  43  65  93 125 163 214 267 310 367
#
# _framework density 19.860854
#
# number of rings (size 3 to 8) (size 9 to 14) (size 15 to 20)
#    0.750    0.500    5.000    0.750    0.000    2.500 
#    4.500    0.625    0.000    0.000    0.000    0.000 
#    0.000    0.000    0.000    0.000    0.000    0.000 
#
# Total GULP energy -89375.659749 kJ/mol
# GULP energy per Si atom -5585.978734 kJ/mol
# Density = 1.981565 g / cm^3
# Si number density = 19.860854 Si / 1000 Ang^3
#
#
#
# Elastic Constant Matrix: (Units=GPa)
#
#
# Indices 1 2 3 4 5 6 
#
# 1 84.4322 6.1205 16.2275 -9.4787 9.6758 7.1820
# 2 6.1205 30.3372 14.9091 -5.2356 5.2976 -12.9599
# 3 16.2275 14.9091 127.6823 -5.5787 12.9463 0.1863
# 4 -9.4787 -5.2356 -5.5787 34.0027 -10.9895 7.7860
# 5 9.6758 5.2976 12.9463 -10.9895 29.6042 -7.0094
# 6 7.1820 -12.9599 0.1863 7.7860 -7.0094 30.0152
#
#
#
# Elastic Compliance Matrix: (Units=1/GPa)
#
#
# Indices 1 2 3 4 5 6 
#
# 1 0.013667 -0.004052 -0.000723 0.003401 -0.003767 -0.006777
# 2 -0.004052 0.044816 -0.004765 0.000456 0.000368 0.020317
# 3 -0.000723 -0.004765 0.008832 0.000041 -0.003408 -0.002746
# 4 0.003401 0.000456 0.000041 0.035426 0.010180 -0.007429
# 5 -0.003767 0.000368 -0.003408 0.010180 0.042177 0.008290
# 6 -0.006777 0.020317 -0.002746 -0.007429 0.008290 0.047591
#
#
# Mechanical properties :
#
#
# Convention : Reuss Voigt Hill
#
# Bulk Modulus (GPa) = 20.73263 35.21845 27.97554
# Shear Modulus (GPa) = 21.96190 32.40405 27.18297
#
# Velocity S-wave (km/s) = 3.32895 4.04363 3.70357
# Velocity P-wave (km/s) = 5.02369 6.29066 5.69253
#
# Compressibility (1/GPa) = 0.04823314
#
# Stress axis : x y z
#
# Youngs Moduli (GPa) = 73.17063 22.31347 113.22954
#
# Poissons Ratio (x) = 0.09042 0.08190
# Poissons Ratio (y) = 0.29650 0.53955
# Poissons Ratio (z) = 0.05292 0.10633
#
# Static dielectric constant tensor:
#      x y z
#    x 1.708450 -0.025790 0.007140 
#    y -0.025790 1.703870 0.007480 
#    z 0.007140 0.007480 1.708990 
# 
# From -- ./inp_files/596275.got.cif
#   From: 2010.05.17/outbox.cif.g08.bks.cpg/sg2_299_cif.got.tgz:596275.got - 2010.06.03 11:33:40.
