data_PCOD9032834
_publ_section_title
;
Structure prediction by ZEFSAII (Michael W. Deem and Ramdas Pophale) SiO2 
 PCOD9032834
Probable space group: P -1
;
_chemical_formula_sum "Si O2"
_cell_formula_units_Z 13
_cell_length_a 14.838207
_cell_length_b 8.280815
_cell_length_c 5.936460
_cell_angle_alpha 124.898271
_cell_angle_beta 64.598419
_cell_angle_gamma 95.730971
_cell_volume 529.884013
_symmetry_space_group_name_H-M "P -1"
_symmetry_group_IT_number 2
_symmetry_cell_setting 'triclinic'
loop_
_space_group_symop_operation_xyz
x,y,z
-x,-y,-z
loop_
_atom_site_type_symbol
_atom_site_label
_atom_site_fract_x
_atom_site_fract_y
_atom_site_fract_z
Si Si1 0.936852 0.694295 0.106354
Si Si2 0.780876 0.612740 0.861459
Si Si3 0.613125 0.698975 0.486228
Si Si4 0.252374 0.071188 0.225297
Si Si5 0.568165 0.373300 0.636721
Si Si6 0.000000 0.000000 0.000000
Si Si7 0.783551 0.209839 0.297886
O O1 0.848281 0.805415 0.450960
O O2 0.885853 0.623516 0.880832
O O3 0.000000 0.500000 0.000000
O O4 0.007999 0.846244 0.079207
O O5 0.740321 0.812816 0.924394
O O6 0.801504 0.429406 0.518994
O O7 0.697812 0.600206 0.132836
O O8 0.653694 0.888788 0.696012
O O9 0.604182 0.535183 0.558808
O O10 0.503977 0.744943 0.519931
O O11 0.231162 0.857127 0.998361
O O12 0.666629 0.231801 0.524253
O O13 0.500000 0.500000 0.000000
O O14 0.126705 0.944198 0.798628
#
# Coordination Sequence:
#
# PCOD9032834 Si02
#       7
#     2   2   2   2   2   1   2
#     4  11  27  49  78 107 158 213 258 322 394 452
#     4  11  23  49  72 107 155 198 248 322 389 459
#     4  10  22  43  77 104 146 194 258 310 385 468
#     4  11  24  47  70 112 147 197 258 314 386 468
#     4  11  22  45  74 110 145 204 254 314 395 459
#     4  12  28  48  72 122 150 198 270 312 378 480
#     4  12  26  44  76 103 157 197 248 323 379 452
#
# _framework density 24.533667999999999
#
# number of rings (size 3 to 8) (size 9 to 14) (size 15 to 20)
#    0.000    0.923    4.615    0.923    4.308    3.692 
#    0.000    3.077    0.000    0.000    0.000    0.000 
#    0.000    0.000    0.000    0.000    0.000    0.000 
#
# Total GULP energy -72469.997892 kJ/mol
# GULP energy per Si atom -5574.615222 kJ/mol
# Density = 2.447783 g / cm^3
# Si number density = 24.533668 Si / 1000 Ang^3
#
#
#
# Elastic Constant Matrix: (Units=GPa)
#
#
# Indices 1 2 3 4 5 6 
#
# 1 113.5799 1.5833 43.4468 19.0314 -4.6665 -9.7250
# 2 1.5833 102.0084 32.2784 -22.5099 -4.4926 0.0789
# 3 43.4468 32.2784 135.1841 9.1170 6.2561 13.5811
# 4 19.0314 -22.5099 9.1170 43.7502 10.2089 -0.5845
# 5 -4.6665 -4.4926 6.2561 10.2089 46.0264 8.8263
# 6 -9.7250 0.0789 13.5811 -0.5845 8.8263 24.3779
#
#
#
# Elastic Compliance Matrix: (Units=1/GPa)
#
#
# Indices 1 2 3 4 5 6 
#
# 1 0.011779 0.000267 -0.004270 -0.004370 0.001540 0.006415
# 2 0.000267 0.012595 -0.003818 0.007265 -0.000312 0.002480
# 3 -0.004270 -0.003818 0.010612 -0.002355 -0.000276 -0.007560
# 4 -0.004370 0.007265 -0.002355 0.030591 -0.006719 0.002711
# 5 0.001540 -0.000312 -0.000276 -0.006719 0.024999 -0.008443
# 6 0.006415 0.002480 -0.007560 0.002711 -0.008443 0.050905
#
#
# Mechanical properties :
#
#
# Convention : Reuss Voigt Hill
#
# Bulk Modulus (GPa) = 51.69650 56.15439 53.92544
# Shear Modulus (GPa) = 30.56758 41.06181 35.81470
#
# Velocity S-wave (km/s) = 3.53362 4.09552 3.82490
# Velocity P-wave (km/s) = 6.14541 6.73073 6.44472
#
# Compressibility (1/GPa) = 0.01934367
#
# Stress axis : x y z
#
# Youngs Moduli (GPa) = 84.89701 79.39915 94.22925
#
# Poissons Ratio (x) = -0.02119 0.40239
# Poissons Ratio (y) = -0.02266 0.35974
# Poissons Ratio (z) = 0.36254 0.30312
#
# Static dielectric constant tensor:
#      x y z
#    x 2.009350 0.157470 0.041150 
#    y 0.157470 2.482050 0.177440 
#    z 0.041150 0.177440 2.005660 
# 
# From -- ./inp_files/36459.got.cif
#   From: 2010.05.17/outbox.cif.g08.bks.cpg/sg2_19_cif.got.tgz:36459.got - 2010.06.03 11:33:40.
