data_PCOD9032965
_publ_section_title
;
Structure prediction by ZEFSAII (Michael W. Deem and Ramdas Pophale) SiO2 
 PCOD9032965
Probable space group: P -1
;
_chemical_formula_sum "Si O2"
_cell_formula_units_Z 14
_cell_length_a 6.829122
_cell_length_b 9.587506
_cell_length_c 16.253308
_cell_angle_alpha 69.435102
_cell_angle_beta 123.845275
_cell_angle_gamma 83.399577
_cell_volume 758.649826
_symmetry_space_group_name_H-M "P -1"
_symmetry_group_IT_number 2
_symmetry_cell_setting 'triclinic'
loop_
_space_group_symop_operation_xyz
x,y,z
-x,-y,-z
loop_
_atom_site_type_symbol
_atom_site_label
_atom_site_fract_x
_atom_site_fract_y
_atom_site_fract_z
Si Si1 0.020204 0.526079 0.134913
Si Si2 0.921771 0.849358 0.503195
Si Si3 0.240233 0.662016 0.305806
Si Si4 0.930937 0.242113 0.263253
Si Si5 0.641890 0.727366 0.863739
Si Si6 0.171142 0.588338 0.485733
Si Si7 0.675417 0.015584 0.711948
O O1 0.111708 0.619660 0.205368
O O2 0.253434 0.408039 0.156209
O O3 0.915491 0.404099 0.180218
O O4 0.807847 0.648020 0.999366
O O5 0.986105 0.753865 0.624018
O O6 0.093652 0.746862 0.490251
O O7 0.621333 0.903969 0.402705
O O8 0.000000 0.000000 0.500000
O O9 0.117364 0.636353 0.367978
O O10 0.533750 0.530638 0.407629
O O11 0.242549 0.840956 0.269506
O O12 0.657224 0.229211 0.201233
O O13 0.143106 0.088638 0.297786
O O14 0.688201 0.884068 0.811550
O O15 0.000000 0.500000 0.500000
#
# Coordination Sequence:
#
# PCOD9032965 Si02
#       7
#     2   2   2   2   2   2   2
#     4  10  23  41  66  89 117 161 207 251 296 357
#     4  12  22  38  64  91 123 163 197 245 308 356
#     4  11  24  39  60  91 126 159 198 244 307 360
#     4  11  22  39  64  90 121 158 204 252 300 351
#     4  10  22  44  64  89 119 157 210 253 294 351
#     4  11  23  40  58  88 129 161 195 242 301 367
#     4  11  24  39  59  93 128 156 198 252 299 366
#
# _framework density 18.453835999999999
#
# number of rings (size 3 to 8) (size 9 to 14) (size 15 to 20)
#    0.000    1.143    2.857    3.429    4.000    0.571 
#    0.000    0.714    0.000    0.000    0.000    0.000 
#    0.000    0.000    0.000    0.000    0.000    0.000 
#
# Total GULP energy -78252.690028 kJ/mol
# GULP energy per Si atom -5589.477859 kJ/mol
# Density = 1.841183 g / cm^3
# Si number density = 18.453836 Si / 1000 Ang^3
#
#
#
# Elastic Constant Matrix: (Units=GPa)
#
#
# Indices 1 2 3 4 5 6 
#
# 1 101.5100 44.5439 47.7157 0.4302 -15.7684 -2.7888
# 2 44.5439 134.5408 59.0525 17.2510 -11.9550 3.2314
# 3 47.7157 59.0525 126.9847 1.7216 -27.9290 -5.0947
# 4 0.4302 17.2510 1.7216 27.2871 -5.9235 -1.3407
# 5 -15.7684 -11.9550 -27.9290 -5.9235 23.7633 -3.0075
# 6 -2.7888 3.2314 -5.0947 -1.3407 -3.0075 30.3489
#
#
#
# Elastic Compliance Matrix: (Units=1/GPa)
#
#
# Indices 1 2 3 4 5 6 
#
# 1 0.013280 -0.003460 -0.002091 0.003448 0.005721 0.001957
# 2 -0.003460 0.011536 -0.005196 -0.008168 -0.005051 -0.003280
# 3 -0.002091 -0.005196 0.014497 0.005902 0.015084 0.004550
# 4 0.003448 -0.008168 0.005902 0.045403 0.017177 0.005885
# 5 0.005721 -0.005051 0.015084 0.017177 0.066735 0.010968
# 6 0.001957 -0.003280 0.004550 0.005885 0.010968 0.035590
#
#
# Mechanical properties :
#
#
# Convention : Reuss Voigt Hill
#
# Bulk Modulus (GPa) = 56.11947 73.96219 65.04083
# Shear Modulus (GPa) = 23.31263 30.39477 26.85370
#
# Velocity S-wave (km/s) = 3.55814 4.06281 3.81882
# Velocity P-wave (km/s) = 6.88166 7.88513 7.40042
#
# Compressibility (1/GPa) = 0.01781913
#
# Stress axis : x y z
#
# Youngs Moduli (GPa) = 75.29982 86.68273 68.97781
#
# Poissons Ratio (x) = 0.29989 0.14425
# Poissons Ratio (y) = 0.26051 0.35844
# Poissons Ratio (z) = 0.15747 0.45045
#
# Static dielectric constant tensor:
#      x y z
#    x 1.630420 0.007390 -0.018280 
#    y 0.007390 1.572220 -0.016760 
#    z -0.018280 -0.016760 1.611100 
# 
# From -- ./inp_files/26832.got.cif
#   From: 2010.05.17/outbox.cif.g08.bks.cpg/sg2_14_cif.got.tgz:26832.got - 2010.06.03 11:33:40.
