data_PCOD9032141
_publ_section_title
;
Structure prediction by ZEFSAII (Michael W. Deem and Ramdas Pophale) SiO2 
 PCOD9032141
Probable space group: P -1
;
_chemical_formula_sum "Si O2"
_cell_formula_units_Z 12
_cell_length_a 14.523081
_cell_length_b 5.601928
_cell_length_c 17.987341
_cell_angle_alpha 106.346148
_cell_angle_beta 21.921241
_cell_angle_gamma 106.099942
_cell_volume 523.712693
_symmetry_space_group_name_H-M "P -1"
_symmetry_group_IT_number 2
_symmetry_cell_setting 'triclinic'
loop_
_space_group_symop_operation_xyz
x,y,z
-x,-y,-z
loop_
_atom_site_type_symbol
_atom_site_label
_atom_site_fract_x
_atom_site_fract_y
_atom_site_fract_z
Si Si1 0.981773 0.249099 0.945967
Si Si2 0.140070 0.740314 0.379622
Si Si3 0.051350 0.000023 0.729770
Si Si4 0.394454 0.102592 0.730085
Si Si5 0.290419 0.802691 0.113717
Si Si6 0.627020 0.650247 0.086790
O O1 0.030827 0.237795 0.820821
O O2 0.205613 0.102214 0.802821
O O3 0.000000 0.500000 0.000000
O O4 0.719470 0.116089 0.150996
O O5 0.204478 0.662093 0.240264
O O6 0.392567 0.787628 0.241032
O O7 0.000000 0.500000 0.500000
O O8 0.000000 0.000000 0.500000
O O9 0.933104 0.060142 0.744749
O O10 0.330597 0.929557 0.505068
O O11 0.878751 0.786876 0.880101
O O12 0.382363 0.337204 0.815885
O O13 0.390949 0.619802 0.960509
O O14 0.500000 0.000000 0.000000
#
# Coordination Sequence:
#
# PCOD9032141 Si02
#       6
#     2   2   2   2   2   2
#     4  10  22  43  69  98 138 175 229 296 360 435
#     4  12  27  45  73 104 144 197 249 301 367 434
#     4  11  24  43  70 101 137 185 237 291 364 434
#     4  10  23  42  67 101 136 178 233 292 362 432
#     4  12  25  45  68 100 147 190 241 301 361 429
#     4  11  25  43  68  99 142 185 238 300 356 430
#
# _framework density 22.913323999999999
#
# number of rings (size 3 to 8) (size 9 to 14) (size 15 to 20)
#    0.000    1.000    1.667    4.000    4.667    2.000 
#    0.000    0.000    0.000    0.000    0.000    0.000 
#    0.000    0.000    0.000    0.000    0.000    0.000 
#
# Total GULP energy -67140.856320 kJ/mol
# GULP energy per Si atom -5595.071360 kJ/mol
# Density = 2.286117 g / cm^3
# Si number density = 22.913324 Si / 1000 Ang^3
#
#
#
# Elastic Constant Matrix: (Units=GPa)
#
#
# Indices 1 2 3 4 5 6 
#
# 1 122.1488 14.4568 43.8923 -15.0361 5.9071 10.7472
# 2 14.4568 102.1632 47.2213 -0.7633 5.8426 22.3422
# 3 43.8923 47.2213 165.0869 -17.4860 -13.6815 5.6118
# 4 -15.0361 -0.7633 -17.4860 25.8260 0.2270 6.9449
# 5 5.9071 5.8426 -13.6815 0.2270 45.7498 7.0893
# 6 10.7472 22.3422 5.6118 6.9449 7.0893 43.5711
#
#
#
# Elastic Compliance Matrix: (Units=1/GPa)
#
#
# Indices 1 2 3 4 5 6 
#
# 1 0.009899 0.000399 -0.002243 0.005052 -0.001574 -0.002907
# 2 0.000399 0.012865 -0.003785 -0.000364 -0.001920 -0.005837
# 3 -0.002243 -0.003785 0.008445 0.004216 0.003246 0.000206
# 4 0.005052 -0.000364 0.004216 0.047018 0.001879 -0.009403
# 5 -0.001574 -0.001920 0.003246 0.001879 0.023765 -0.003211
# 6 -0.002907 -0.005837 0.000206 -0.009403 -0.003211 0.028656
#
#
# Mechanical properties :
#
#
# Convention : Reuss Voigt Hill
#
# Bulk Modulus (GPa) = 50.12080 66.72663 58.42371
# Shear Modulus (GPa) = 33.65723 41.95129 37.80426
#
# Velocity S-wave (km/s) = 3.83677 4.28351 4.06628
# Velocity P-wave (km/s) = 6.44588 7.32456 6.89922
#
# Compressibility (1/GPa) = 0.01995180
#
# Stress axis : x y z
#
# Youngs Moduli (GPa) = 101.01883 77.72982 118.41383
#
# Poissons Ratio (x) = -0.03103 0.26556
# Poissons Ratio (y) = -0.04033 0.44823
# Poissons Ratio (z) = 0.22655 0.29423
#
# Static dielectric constant tensor:
#      x y z
#    x 1.881270 -0.012840 -0.004520 
#    y -0.012840 1.934720 0.044890 
#    z -0.004520 0.044890 1.840840 
# 
# From -- ./inp_files/3112.got.cif
#   From: 2010.05.17/outbox.cif.g08.bks.cpg/sg2_2_cif.got.tgz:3112.got - 2010.06.03 11:33:40.
