data_PCOD9032403
_publ_section_title
;
Structure prediction by ZEFSAII (Michael W. Deem and Ramdas Pophale) SiO2 
 PCOD9032403
Probable space group: P -1
;
_chemical_formula_sum "Si O2"
_cell_formula_units_Z 16
_cell_length_a 5.591280
_cell_length_b 16.789877
_cell_length_c 8.918716
_cell_angle_alpha 50.379317
_cell_angle_beta 85.629288
_cell_angle_gamma 83.763363
_cell_volume 641.085177
_symmetry_space_group_name_H-M "P -1"
_symmetry_group_IT_number 2
_symmetry_cell_setting 'triclinic'
loop_
_space_group_symop_operation_xyz
x,y,z
-x,-y,-z
loop_
_atom_site_type_symbol
_atom_site_label
_atom_site_fract_x
_atom_site_fract_y
_atom_site_fract_z
Si Si1 0.437217 0.868979 0.841454
Si Si2 0.992183 0.182288 0.624038
Si Si3 0.421833 0.941580 0.221239
Si Si4 0.616694 0.574913 0.018790
Si Si5 0.100832 0.579463 0.614946
Si Si6 0.615871 0.796279 0.613263
Si Si7 0.758953 0.431089 0.697255
Si Si8 0.063967 0.218185 0.922136
O O1 0.456664 0.848225 0.689529
O O2 0.485818 0.985683 0.741795
O O3 0.177838 0.837683 0.949914
O O4 0.681417 0.809382 0.974248
O O5 0.851139 0.079507 0.765817
O O6 0.895817 0.303762 0.470063
O O7 0.101536 0.190397 0.778231
O O8 0.124164 0.165543 0.477614
O O9 0.506770 0.826076 0.418637
O O10 0.500000 0.000000 0.000000
O O11 0.838647 0.505291 0.159602
O O12 0.439922 0.599210 0.139746
O O13 0.500000 0.500000 0.000000
O O14 0.656348 0.677596 0.802255
O O15 0.287876 0.568109 0.479897
O O16 0.853029 0.541468 0.606183
O O17 0.975876 0.338911 0.806819
#
# Coordination Sequence:
#
# PCOD9032403 Si02
#       8
#     2   2   2   2   2   2   2   2
#     4  12  27  48  78 109 151 193 255 309 383 436
#     4  11  26  46  73 106 149 195 259 303 373 452
#     4  12  27  49  76 103 145 199 254 311 379 450
#     4  12  24  41  68 104 151 186 239 304 379 438
#     4  10  23  43  69 104 140 199 248 296 364 447
#     4  12  28  45  72 111 148 194 247 318 378 445
#     4  10  22  43  71 101 145 194 248 295 364 445
#     4  11  25  48  78 110 147 203 246 310 368 457
#
# _framework density 24.957681999999998
#
# number of rings (size 3 to 8) (size 9 to 14) (size 15 to 20)
#    0.000    0.750    2.500    3.750    3.500    5.500 
#    4.500    0.000    0.000    0.000    0.000    0.000 
#    0.000    0.000    0.000    0.000    0.000    0.000 
#
# Total GULP energy -89262.306901 kJ/mol
# GULP energy per Si atom -5578.894181 kJ/mol
# Density = 2.490088 g / cm^3
# Si number density = 24.957682 Si / 1000 Ang^3
#
#
#
# Elastic Constant Matrix: (Units=GPa)
#
#
# Indices 1 2 3 4 5 6 
#
# 1 75.9068 36.9288 58.3369 -2.6202 -21.7381 0.9450
# 2 36.9288 82.1815 35.7218 -7.0803 -23.1824 7.3667
# 3 58.3369 35.7218 196.8401 -7.7804 -20.3610 -10.9389
# 4 -2.6202 -7.0803 -7.7804 43.0201 -5.4625 -12.4360
# 5 -21.7381 -23.1824 -20.3610 -5.4625 51.1300 -5.0074
# 6 0.9450 7.3667 -10.9389 -12.4360 -5.0074 33.4005
#
#
#
# Elastic Compliance Matrix: (Units=1/GPa)
#
#
# Indices 1 2 3 4 5 6 
#
# 1 0.020991 -0.006204 -0.004670 -0.000096 0.004226 -0.000157
# 2 -0.006204 0.017053 -0.000801 0.002227 0.004788 -0.002301
# 3 -0.004670 -0.000801 0.006983 0.001978 0.000984 0.003480
# 4 -0.000096 0.002227 0.001978 0.028026 0.005874 0.011475
# 5 0.004226 0.004788 0.000984 0.005874 0.025043 0.005088
# 6 -0.000157 -0.002301 0.003480 0.011475 0.005088 0.036627
#
#
# Mechanical properties :
#
#
# Convention : Reuss Voigt Hill
#
# Bulk Modulus (GPa) = 46.13440 68.54482 57.33961
# Shear Modulus (GPa) = 30.24834 40.43950 35.34392
#
# Velocity S-wave (km/s) = 3.48513 4.02969 3.76726
# Velocity P-wave (km/s) = 5.89237 7.01251 6.47670
#
# Compressibility (1/GPa) = 0.02167580
#
# Stress axis : x y z
#
# Youngs Moduli (GPa) = 47.64020 58.64154 143.20393
#
# Poissons Ratio (x) = 0.36383 0.66883
# Poissons Ratio (y) = 0.29558 0.11464
# Poissons Ratio (z) = 0.22250 0.04694
#
# Static dielectric constant tensor:
#      x y z
#    x 2.456370 -0.144490 -0.060390 
#    y -0.144490 1.793500 -0.307840 
#    z -0.060390 -0.307840 1.555280 
# 
# From -- ./inp_files/107178.got.cif
#   From: 2010.05.17/outbox.cif.g08.bks.cpg/sg2_54_cif.got.tgz:107178.got - 2010.06.03 11:33:40.
