data_PCOD9032287
_publ_section_title
;
Structure prediction by ZEFSAII (Michael W. Deem and Ramdas Pophale) SiO2 
 PCOD9032287
Probable space group: P -1
;
_chemical_formula_sum "Si O2"
_cell_formula_units_Z 16
_cell_length_a 10.063123
_cell_length_b 13.855187
_cell_length_c 6.929786
_cell_angle_alpha 107.077083
_cell_angle_beta 111.542622
_cell_angle_gamma 41.404272
_cell_volume 594.110932
_symmetry_space_group_name_H-M "P -1"
_symmetry_group_IT_number 2
_symmetry_cell_setting 'triclinic'
loop_
_space_group_symop_operation_xyz
x,y,z
-x,-y,-z
loop_
_atom_site_type_symbol
_atom_site_label
_atom_site_fract_x
_atom_site_fract_y
_atom_site_fract_z
Si Si1 0.932349 0.458657 0.059353
Si Si2 0.725430 0.855869 0.118387
Si Si3 0.834808 0.026033 0.294646
Si Si4 0.157484 0.440440 0.433460
Si Si5 0.480695 0.597757 0.897232
Si Si6 0.466493 0.133955 0.613763
Si Si7 0.552095 0.336699 0.476400
Si Si8 0.199959 0.862202 0.157066
O O1 0.697110 0.545745 0.983893
O O2 0.937332 0.480227 0.340590
O O3 0.920788 0.513213 0.828896
O O4 0.099327 0.283648 0.005401
O O5 0.809102 0.921844 0.271559
O O6 0.666067 0.805849 0.223495
O O7 0.500000 0.000000 0.000000
O O8 0.954999 0.972612 0.122568
O O9 0.623295 0.194185 0.319598
O O10 0.000000 0.000000 0.500000
O O11 0.319400 0.265744 0.463233
O O12 0.323570 0.444287 0.498647
O O13 0.294173 0.759856 0.965527
O O14 0.500000 0.500000 0.000000
O O15 0.430872 0.596238 0.651668
O O16 0.674486 0.095570 0.721475
O O17 0.500000 0.000000 0.500000
O O18 0.707177 0.257675 0.690340
#
# Coordination Sequence:
#
# PCOD9032287 Si02
#       8
#     2   2   2   2   2   2   2   2
#     4  12  23  42  68  97 137 183 231 294 355 415
#     4  12  25  42  70 108 138 180 235 299 353 417
#     4  10  22  45  71  98 141 189 233 285 363 428
#     4  11  22  42  68  97 135 185 232 283 359 423
#     4  12  26  44  64 100 140 177 238 287 351 429
#     4  11  23  42  67 102 134 174 234 290 343 423
#     4  10  22  43  70  93 138 182 227 296 350 410
#     4  10  23  45  69  97 136 187 231 284 357 424
#
# _framework density 26.930999
#
# number of rings (size 3 to 8) (size 9 to 14) (size 15 to 20)
#    0.000    1.000    1.250    7.500    1.750    1.000 
#    9.000    0.000    0.000    0.000    0.000    0.000 
#    0.000    0.000    0.000    0.000    0.000    0.000 
#
# Total GULP energy -89332.816373 kJ/mol
# GULP energy per Si atom -5583.301023 kJ/mol
# Density = 2.686970 g / cm^3
# Si number density = 26.930999 Si / 1000 Ang^3
#
#
#
# Elastic Constant Matrix: (Units=GPa)
#
#
# Indices 1 2 3 4 5 6 
#
# 1 213.2998 57.8197 50.4563 -10.7448 -28.0569 -11.6046
# 2 57.8197 126.9514 82.2875 -11.0714 9.8746 -11.6245
# 3 50.4563 82.2875 111.0292 15.2114 -12.6840 -0.2186
# 4 -10.7448 -11.0714 15.2114 37.8745 -9.3312 -8.3269
# 5 -28.0569 9.8746 -12.6840 -9.3312 58.4308 8.4526
# 6 -11.6046 -11.6245 -0.2186 -8.3269 8.4526 58.4825
#
#
#
# Elastic Compliance Matrix: (Units=1/GPa)
#
#
# Indices 1 2 3 4 5 6 
#
# 1 0.006130 -0.001764 -0.001488 0.002795 0.003251 0.000788
# 2 -0.001764 0.024242 -0.020037 0.014307 -0.008108 0.007603
# 3 -0.001488 -0.020037 0.027698 -0.017358 0.007020 -0.007661
# 4 0.002795 0.014307 -0.017358 0.040412 0.000302 0.009044
# 5 0.003251 -0.008108 0.007020 0.000302 0.022212 -0.004108
# 6 0.000788 0.007603 -0.007661 0.009044 -0.004108 0.020620
#
#
# Mechanical properties :
#
#
# Convention : Reuss Voigt Hill
#
# Bulk Modulus (GPa) = 87.01656 92.48970 89.75313
# Shear Modulus (GPa) = 26.07934 48.33868 37.20901
#
# Velocity S-wave (km/s) = 3.11525 4.24123 3.72108
# Velocity P-wave (km/s) = 6.73207 7.64211 7.20148
#
# Compressibility (1/GPa) = 0.01149207
#
# Stress axis : x y z
#
# Youngs Moduli (GPa) = 163.13870 41.24998 36.10378
#
# Poissons Ratio (x) = 0.07276 0.05373
# Poissons Ratio (y) = 0.28777 0.72340
# Poissons Ratio (z) = 0.24280 0.82651
#
# Static dielectric constant tensor:
#      x y z
#    x 2.247570 0.122340 -0.558250 
#    y 0.122340 2.134910 -0.042650 
#    z -0.558250 -0.042650 3.194230 
# 
# From -- ./inp_files/239730.got.cif
#   From: 2010.05.17/outbox.cif.g08.bks.cpg/sg2_120_cif.got.tgz:239730.got - 2010.06.03 11:33:40.
