data_PCOD9032692
_publ_section_title
;
Structure prediction by ZEFSAII (Michael W. Deem and Ramdas Pophale) SiO2 
 PCOD9032692
Probable space group: P -1
;
_chemical_formula_sum "Si O2"
_cell_formula_units_Z 14
_cell_length_a 14.740527
_cell_length_b 12.301935
_cell_length_c 8.491909
_cell_angle_alpha 53.041891
_cell_angle_beta 62.336570
_cell_angle_gamma 29.276025
_cell_volume 594.558752
_symmetry_space_group_name_H-M "P -1"
_symmetry_group_IT_number 2
_symmetry_cell_setting 'triclinic'
loop_
_space_group_symop_operation_xyz
x,y,z
-x,-y,-z
loop_
_atom_site_type_symbol
_atom_site_label
_atom_site_fract_x
_atom_site_fract_y
_atom_site_fract_z
Si Si1 0.466574 0.810468 0.736018
Si Si2 0.209044 0.328751 0.892882
Si Si3 0.874226 0.275846 0.851793
Si Si4 0.154282 0.098173 0.982785
Si Si5 0.425648 0.041328 0.278187
Si Si6 0.973291 0.218921 0.474968
Si Si7 0.722522 0.248622 0.546087
O O1 0.649843 0.511402 0.832555
O O2 0.536773 0.864192 0.733173
O O3 0.297657 0.933893 0.862614
O O4 0.401249 0.945430 0.504012
O O5 0.167302 0.233563 0.924858
O O6 0.048351 0.617434 0.743322
O O7 0.389102 0.189489 0.776105
O O8 0.266578 0.241891 0.102028
O O9 0.924521 0.291027 0.633166
O O10 0.949988 0.285092 0.923009
O O11 0.000000 0.000000 0.000000
O O12 0.218788 0.916534 0.216179
O O13 0.820290 0.283855 0.471000
O O14 0.175000 0.925959 0.538351
O O15 0.500000 0.500000 0.500000
#
# Coordination Sequence:
#
# PCOD9032692 Si02
#       7
#     2   2   2   2   2   2   2
#     4  10  23  44  71 101 143 183 228 285 354 407
#     4  10  22  43  73 105 139 181 239 288 351 407
#     4  12  26  46  68  98 145 184 229 284 350 418
#     4  11  27  45  70 107 135 185 239 286 344 423
#     4   9  20  41  70 103 143 183 220 295 354 404
#     4  11  26  49  72 101 145 187 226 296 350 409
#     4  11  28  47  71 104 141 184 241 283 347 423
#
# _framework density 23.546875
#
# number of rings (size 3 to 8) (size 9 to 14) (size 15 to 20)
#    0.000    1.429    2.857    0.000   10.000    4.000 
#    0.000    0.000    0.000    0.000    0.000    0.000 
#    0.000    0.000    0.000    0.000    0.000    0.000 
#
# Total GULP energy -78440.427068 kJ/mol
# GULP energy per Si atom -5602.887648 kJ/mol
# Density = 2.349328 g / cm^3
# Si number density = 23.546875 Si / 1000 Ang^3
#
#
#
# Elastic Constant Matrix: (Units=GPa)
#
#
# Indices 1 2 3 4 5 6 
#
# 1 75.4307 10.8118 26.6170 -8.5590 3.8187 10.4388
# 2 10.8118 113.6182 27.6386 -6.6966 -2.8178 -11.7171
# 3 26.6170 27.6386 117.3319 -2.4887 3.6548 6.8516
# 4 -8.5590 -6.6966 -2.4887 36.0475 -5.6595 -7.2454
# 5 3.8187 -2.8178 3.6548 -5.6595 32.5886 1.4058
# 6 10.4388 -11.7171 6.8516 -7.2454 1.4058 28.6929
#
#
#
# Elastic Compliance Matrix: (Units=1/GPa)
#
#
# Indices 1 2 3 4 5 6 
#
# 1 0.015390 -0.001165 -0.002860 0.002115 -0.001009 -0.004808
# 2 -0.001165 0.010339 -0.002503 0.002902 0.001561 0.005900
# 3 -0.002860 -0.002503 0.009922 -0.001149 -0.001082 -0.002588
# 4 0.002115 0.002902 -0.001149 0.031189 0.005190 0.008311
# 5 -0.001009 0.001561 -0.001082 0.005190 0.031918 0.001009
# 6 -0.004808 0.005900 -0.002588 0.008311 0.001009 0.041678
#
#
# Mechanical properties :
#
#
# Convention : Reuss Voigt Hill
#
# Bulk Modulus (GPa) = 44.25644 48.50174 46.37909
# Shear Modulus (GPa) = 31.05168 35.55336 33.30252
#
# Velocity S-wave (km/s) = 3.63535 3.88995 3.76481
# Velocity P-wave (km/s) = 6.03796 6.38892 6.21592
#
# Compressibility (1/GPa) = 0.02259558
#
# Stress axis : x y z
#
# Youngs Moduli (GPa) = 64.97816 96.71815 100.79039
#
# Poissons Ratio (x) = 0.11268 0.28823
# Poissons Ratio (y) = 0.07570 0.25226
# Poissons Ratio (z) = 0.18582 0.24207
#
# Static dielectric constant tensor:
#      x y z
#    x 1.884510 -0.020290 0.006020 
#    y -0.020290 1.982330 0.016010 
#    z 0.006020 0.016010 1.841610 
# 
# From -- ./inp_files/306466.got.cif
#   From: 2010.05.17/outbox.cif.g08.bks.cpg/sg2_154_cif.got.tgz:306466.got - 2010.06.03 11:33:40.
