data_PCOD9032563
_publ_section_title
;
Structure prediction by ZEFSAII (Michael W. Deem and Ramdas Pophale) SiO2 
 PCOD9032563
Probable space group: P -1
;
_chemical_formula_sum "Si O2"
_cell_formula_units_Z 16
_cell_length_a 9.185833
_cell_length_b 5.264599
_cell_length_c 17.677309
_cell_angle_alpha 88.544236
_cell_angle_beta 130.340582
_cell_angle_gamma 97.626088
_cell_volume 643.752897
_symmetry_space_group_name_H-M "P -1"
_symmetry_group_IT_number 2
_symmetry_cell_setting 'triclinic'
loop_
_space_group_symop_operation_xyz
x,y,z
-x,-y,-z
loop_
_atom_site_type_symbol
_atom_site_label
_atom_site_fract_x
_atom_site_fract_y
_atom_site_fract_z
Si Si1 0.699003 0.677949 0.589954
Si Si2 0.111531 0.582567 0.462257
Si Si3 0.721892 0.493794 0.066024
Si Si4 0.506415 0.897941 0.645689
Si Si5 0.571562 0.390485 0.766981
Si Si6 0.015746 0.833218 0.797751
Si Si7 0.205406 0.246262 0.752739
Si Si8 0.037323 0.827708 0.085086
O O1 0.500000 0.500000 0.500000
O O2 0.819538 0.658930 0.555319
O O3 0.634644 0.917031 0.611254
O O4 0.847524 0.617488 0.708049
O O5 0.294744 0.788104 0.544276
O O6 0.000000 0.500000 0.500000
O O7 0.960788 0.693250 0.358019
O O8 0.807509 0.232123 0.091237
O O9 0.796853 0.593418 0.172532
O O10 0.831415 0.660978 0.035871
O O11 0.500000 0.500000 0.000000
O O12 0.550390 0.669469 0.721251
O O13 0.513201 0.168751 0.686342
O O14 0.413607 0.315646 0.781583
O O15 0.789185 0.343902 0.864083
O O16 0.129289 0.964294 0.762205
O O17 0.917751 0.007790 0.823176
O O18 0.000000 0.000000 0.000000
#
# Coordination Sequence:
#
# PCOD9032563 Si02
#       8
#     2   2   2   2   2   2   2   2
#     4  10  22  43  72 102 146 197 248 306 377 462
#     4  11  23  45  69 110 150 198 259 312 386 458
#     4  11  27  50  77 106 150 202 258 321 399 471
#     4  11  26  46  74 108 152 202 253 320 381 471
#     4  12  27  47  75 111 154 198 260 319 393 456
#     4  11  24  48  75 104 148 202 256 315 396 467
#     4  11  27  43  75 105 152 199 253 323 386 468
#     4  11  28  48  76 113 149 197 261 329 394 469
#
# _framework density 24.854255999999999
#
# number of rings (size 3 to 8) (size 9 to 14) (size 15 to 20)
#    0.000    1.000    3.750    0.750    8.750    4.000 
#    0.000    4.375    0.000    0.000    0.000    0.000 
#    0.000    0.000    0.000    0.000    0.000    0.000 
#
# Total GULP energy -89321.569167 kJ/mol
# GULP energy per Si atom -5582.598073 kJ/mol
# Density = 2.479769 g / cm^3
# Si number density = 24.854256 Si / 1000 Ang^3
#
#
#
# Elastic Constant Matrix: (Units=GPa)
#
#
# Indices 1 2 3 4 5 6 
#
# 1 193.9011 29.5983 35.0880 -20.7612 -0.6621 11.9260
# 2 29.5983 73.1609 21.2745 -17.5970 -5.1420 12.8252
# 3 35.0880 21.2745 119.2103 -28.6168 17.6255 21.9148
# 4 -20.7612 -17.5970 -28.6168 46.8950 -4.6901 -12.1053
# 5 -0.6621 -5.1420 17.6255 -4.6901 55.1334 0.7639
# 6 11.9260 12.8252 21.9148 -12.1053 0.7639 34.6333
#
#
#
# Elastic Compliance Matrix: (Units=1/GPa)
#
#
# Indices 1 2 3 4 5 6 
#
# 1 0.005758 -0.001639 -0.001119 0.001225 0.000382 -0.000248
# 2 -0.001639 0.016408 -0.001185 0.004061 0.002282 -0.003393
# 3 -0.001119 -0.001185 0.011354 0.004435 -0.003311 -0.004738
# 4 0.001225 0.004061 0.004435 0.027471 0.001246 0.004843
# 5 0.000382 0.002282 -0.003311 0.001246 0.019504 0.001124
# 6 -0.000248 -0.003393 -0.004738 0.004843 0.001124 0.034881
#
#
# Mechanical properties :
#
#
# Convention : Reuss Voigt Hill
#
# Bulk Modulus (GPa) = 39.00914 62.02154 50.51534
# Shear Modulus (GPa) = 37.93433 47.35311 42.64372
#
# Velocity S-wave (km/s) = 3.91099 4.36963 4.14666
# Velocity P-wave (km/s) = 6.01030 7.10398 6.57990
#
# Compressibility (1/GPa) = 0.02563502
#
# Stress axis : x y z
#
# Youngs Moduli (GPa) = 173.68117 60.94606 88.07228
#
# Poissons Ratio (x) = 0.09989 0.09855
# Poissons Ratio (y) = 0.28466 0.10433
# Poissons Ratio (z) = 0.19433 0.07220
#
# Static dielectric constant tensor:
#      x y z
#    x 2.005010 0.062430 0.022490 
#    y 0.062430 2.169390 -0.088720 
#    z 0.022490 -0.088720 2.049320 
# 
# From -- ./inp_files/553560.got.cif
#   From: 2010.05.17/outbox.cif.g08.bks.cpg/sg2_277_cif.got.tgz:553560.got - 2010.06.03 11:33:40.
