data_PCOD9032963
_publ_section_title
;
Structure prediction by ZEFSAII (Michael W. Deem and Ramdas Pophale) SiO2 
 PCOD9032963
Probable space group: P -1
;
_chemical_formula_sum "Si O2"
_cell_formula_units_Z 14
_cell_length_a 7.975482
_cell_length_b 17.984106
_cell_length_c 5.991667
_cell_angle_alpha 107.071312
_cell_angle_beta 122.199336
_cell_angle_gamma 56.431057
_cell_volume 605.934783
_symmetry_space_group_name_H-M "P -1"
_symmetry_group_IT_number 2
_symmetry_cell_setting 'triclinic'
loop_
_space_group_symop_operation_xyz
x,y,z
-x,-y,-z
loop_
_atom_site_type_symbol
_atom_site_label
_atom_site_fract_x
_atom_site_fract_y
_atom_site_fract_z
Si Si1 0.239099 0.323112 0.064124
Si Si2 0.410295 0.419525 0.585328
Si Si3 0.421628 0.138548 0.180567
Si Si4 0.183133 0.614726 0.496977
Si Si5 0.309228 0.999231 0.100840
Si Si6 0.831238 0.096973 0.721790
Si Si7 0.331837 0.722803 0.971142
O O1 0.480079 0.280181 0.068458
O O2 0.038406 0.366158 0.781421
O O3 0.250947 0.390262 0.309819
O O4 0.234068 0.240358 0.107126
O O5 0.271090 0.524913 0.625681
O O6 0.618298 0.403624 0.556537
O O7 0.521262 0.355459 0.816875
O O8 0.650419 0.134751 0.429693
O O9 0.482748 0.084229 0.944051
O O10 0.359178 0.079782 0.247707
O O11 0.164764 0.695644 0.702762
O O12 0.097581 0.040357 0.811921
O O13 0.229206 0.966121 0.226061
O O14 0.791374 0.182040 0.914320
#
# Coordination Sequence:
#
# PCOD9032963 Si02
#       7
#     2   2   2   2   2   2   2
#     4  11  23  39  63  93 126 159 201 253 300 360
#     4  10  22  44  64  88 124 162 204 250 301 361
#     4  11  22  41  61  90 122 157 204 248 299 359
#     4  10  24  41  64  93 121 161 205 247 305 364
#     4  10  24  40  61  89 118 161 201 252 298 356
#     4  11  22  42  62  89 122 160 201 247 305 353
#     4  11  23  39  63  92 127 157 202 255 295 365
#
# _framework density 23.104793999999998
#
# number of rings (size 3 to 8) (size 9 to 14) (size 15 to 20)
#    0.000    1.429    2.857    1.714    2.000    2.857 
#   10.286    0.000    0.000    0.000    0.000    0.000 
#    0.000    0.000    0.000    0.000    0.000    0.000 
#
# Total GULP energy -78325.199914 kJ/mol
# GULP energy per Si atom -5594.657137 kJ/mol
# Density = 2.305221 g / cm^3
# Si number density = 23.104794 Si / 1000 Ang^3
#
#
#
# Elastic Constant Matrix: (Units=GPa)
#
#
# Indices 1 2 3 4 5 6 
#
# 1 46.3099 25.7031 8.5838 6.5410 6.5816 11.4687
# 2 25.7031 86.5267 -9.4405 6.8406 -0.6380 18.9192
# 3 8.5838 -9.4405 69.0809 -5.4387 15.6601 5.8346
# 4 6.5410 6.8406 -5.4387 41.8044 -0.2181 -0.7874
# 5 6.5816 -0.6380 15.6601 -0.2181 25.3467 -3.8560
# 6 11.4687 18.9192 5.8346 -0.7874 -3.8560 26.9966
#
#
#
# Elastic Compliance Matrix: (Units=1/GPa)
#
#
# Indices 1 2 3 4 5 6 
#
# 1 0.029669 -0.006999 -0.002525 -0.004023 -0.007627 -0.008360
# 2 -0.006999 0.016294 0.004242 -0.001211 -0.001874 -0.009666
# 3 -0.002525 0.004242 0.018904 0.001953 -0.012065 -0.007652
# 4 -0.004023 -0.001211 0.001953 0.025060 0.000469 0.002933
# 5 -0.007627 -0.001874 -0.012065 0.000469 0.051045 0.014466
# 6 -0.008360 -0.009666 -0.007652 0.002933 0.014466 0.051172
#
#
# Mechanical properties :
#
#
# Convention : Reuss Voigt Hill
#
# Bulk Modulus (GPa) = 18.41457 27.95672 23.18565
# Shear Modulus (GPa) = 22.64399 30.63428 26.63913
#
# Velocity S-wave (km/s) = 3.13398 3.64522 3.39922
# Velocity P-wave (km/s) = 4.59163 5.46288 5.04610
#
# Compressibility (1/GPa) = 0.05430481
#
# Stress axis : x y z
#
# Youngs Moduli (GPa) = 33.70564 61.37069 52.89787
#
# Poissons Ratio (x) = 0.42953 0.13355
# Poissons Ratio (y) = 0.23590 -0.22441
# Poissons Ratio (z) = 0.08510 -0.26036
#
# Static dielectric constant tensor:
#      x y z
#    x 1.867240 0.023960 0.008340 
#    y 0.023960 1.838280 0.001700 
#    z 0.008340 0.001700 1.872630 
# 
# From -- ./inp_files/9138.got.cif
#   From: 2010.05.17/outbox.cif.g08.bks.cpg/sg2_5_cif.got.tgz:9138.got - 2010.06.03 11:33:40.
