data_PCOD9032113
_publ_section_title
;
Structure prediction by ZEFSAII (Michael W. Deem and Ramdas Pophale) SiO2 
 PCOD9032113
Probable space group: P -1
;
_chemical_formula_sum "Si O2"
_cell_formula_units_Z 16
_cell_length_a 9.185110
_cell_length_b 11.564564
_cell_length_c 15.608158
_cell_angle_alpha 53.895854
_cell_angle_beta 79.908798
_cell_angle_gamma 37.442166
_cell_volume 654.078575
_symmetry_space_group_name_H-M "P -1"
_symmetry_group_IT_number 2
_symmetry_cell_setting 'triclinic'
loop_
_space_group_symop_operation_xyz
x,y,z
-x,-y,-z
loop_
_atom_site_type_symbol
_atom_site_label
_atom_site_fract_x
_atom_site_fract_y
_atom_site_fract_z
Si Si1 0.277678 0.580354 0.226156
Si Si2 0.164531 0.476944 0.139298
Si Si3 0.796106 0.028041 0.669395
Si Si4 0.044827 0.070203 0.543916
Si Si5 0.299166 0.002529 0.826663
Si Si6 0.397521 0.974484 0.144578
Si Si7 0.257584 0.135595 0.401478
Si Si8 0.467735 0.342522 0.881247
O O1 0.124875 0.651344 0.124253
O O2 0.602405 0.235501 0.341087
O O3 0.337076 0.697346 0.164715
O O4 0.054380 0.721732 0.262489
O O5 0.496107 0.196300 0.189074
O O6 0.146896 0.357201 0.256463
O O7 0.916051 0.687845 0.999113
O O8 0.839269 0.163146 0.593917
O O9 0.135173 0.682785 0.778312
O O10 0.668340 0.084045 0.748237
O O11 0.638597 0.074294 0.586540
O O12 0.010267 0.260615 0.430526
O O13 0.000000 0.000000 0.500000
O O14 0.386248 0.086241 0.814435
O O15 0.411833 0.797780 0.976768
O O16 0.517276 0.803120 0.120497
O O17 0.500000 0.000000 0.500000
#
# Coordination Sequence:
#
# PCOD9032113 Si02
#       8
#     2   2   2   2   2   2   2   2
#     4  11  25  42  63 100 132 176 220 271 333 388
#     4  12  24  40  69  99 136 176 219 270 334 397
#     4  10  22  43  69  97 131 175 221 269 336 397
#     4   9  21  43  70  88 126 178 222 270 322 387
#     4  12  24  39  65 100 140 170 217 271 334 400
#     4  12  24  40  69 104 135 174 218 268 340 406
#     4  11  21  40  69  96 125 174 231 269 323 385
#     4  11  24  41  64  97 140 178 209 271 335 406
#
# _framework density 24.461893
#
# number of rings (size 3 to 8) (size 9 to 14) (size 15 to 20)
#    0.000    1.000    5.000    1.875    1.750    2.500 
#    0.000    0.625    5.500    7.500    0.000    0.000 
#    0.000    0.000    0.000    0.000    0.000    0.000 
#
# Total GULP energy -89535.835817 kJ/mol
# GULP energy per Si atom -5595.989739 kJ/mol
# Density = 2.440622 g / cm^3
# Si number density = 24.461893 Si / 1000 Ang^3
#
#
#
# Elastic Constant Matrix: (Units=GPa)
#
#
# Indices 1 2 3 4 5 6 
#
# 1 121.3568 33.2449 33.8804 6.4727 -8.5146 -27.8045
# 2 33.2449 106.6044 25.4124 -3.1833 -1.1318 -22.0006
# 3 33.8804 25.4124 109.1752 16.8418 -10.5662 -24.0255
# 4 6.4727 -3.1833 16.8418 19.8671 -4.8808 0.7655
# 5 -8.5146 -1.1318 -10.5662 -4.8808 38.0579 6.8495
# 6 -27.8045 -22.0006 -24.0255 0.7655 6.8495 41.4450
#
#
#
# Elastic Compliance Matrix: (Units=1/GPa)
#
#
# Indices 1 2 3 4 5 6 
#
# 1 0.010510 -0.001995 -0.001137 -0.002820 0.000665 0.005275
# 2 -0.001995 0.011300 -0.001856 0.003695 -0.000809 0.003649
# 3 -0.001137 -0.001856 0.013007 -0.010973 0.000841 0.005856
# 4 -0.002820 0.003695 -0.010973 0.062953 0.006027 -0.008450
# 5 0.000665 -0.000809 0.000841 0.006027 0.028174 -0.004263
# 6 0.005275 0.003649 0.005856 -0.008450 -0.004263 0.033860
#
#
# Mechanical properties :
#
#
# Convention : Reuss Voigt Hill
#
# Bulk Modulus (GPa) = 40.25711 58.02352 49.14032
# Shear Modulus (GPa) = 28.08037 36.18059 32.13048
#
# Velocity S-wave (km/s) = 3.39178 3.85003 3.62814
# Velocity P-wave (km/s) = 5.64196 6.59811 6.13868
#
# Compressibility (1/GPa) = 0.02484033
#
# Stress axis : x y z
#
# Youngs Moduli (GPa) = 95.15045 88.49531 76.88050
#
# Poissons Ratio (x) = 0.17655 0.08741
# Poissons Ratio (y) = 0.18983 0.14271
# Poissons Ratio (z) = 0.10818 0.16428
#
# Static dielectric constant tensor:
#      x y z
#    x 1.950100 -0.031680 -0.005650 
#    y -0.031680 1.923210 -0.032640 
#    z -0.005650 -0.032640 2.025960 
# 
# From -- ./inp_files/500172.got.cif
#   From: 2010.05.17/outbox.cif.g08.bks.cpg/sg2_251_cif.got.tgz:500172.got - 2010.06.03 11:33:40.
