data_PCOD9032066
_publ_section_title
;
Structure prediction by ZEFSAII (Michael W. Deem and Ramdas Pophale) SiO2 
 PCOD9032066
Probable space group: P -1
;
_chemical_formula_sum "Si O2"
_cell_formula_units_Z 16
_cell_length_a 21.266414
_cell_length_b 9.034897
_cell_length_c 9.136974
_cell_angle_alpha 124.972050
_cell_angle_beta 151.087604
_cell_angle_gamma 52.011919
_cell_volume 666.219261
_symmetry_space_group_name_H-M "P -1"
_symmetry_group_IT_number 2
_symmetry_cell_setting 'triclinic'
loop_
_space_group_symop_operation_xyz
x,y,z
-x,-y,-z
loop_
_atom_site_type_symbol
_atom_site_label
_atom_site_fract_x
_atom_site_fract_y
_atom_site_fract_z
Si Si1 0.963737 0.825054 0.898168
Si Si2 0.671474 0.855741 0.419302
Si Si3 0.548396 0.325007 0.114669
Si Si4 0.784792 0.743790 0.903927
Si Si5 0.229962 0.594599 0.169837
Si Si6 0.677379 0.172746 0.018334
Si Si7 0.958391 0.196454 0.615702
Si Si8 0.597386 0.290425 0.617572
O O1 0.805186 0.834944 0.580612
O O2 0.076538 0.663824 0.953113
O O3 0.999272 0.830045 0.144327
O O4 0.000000 0.000000 0.000000
O O5 0.568669 0.745135 0.086489
O O6 0.722368 0.745637 0.615203
O O7 0.605403 0.081111 0.449053
O O8 0.500000 0.500000 0.000000
O O9 0.666021 0.344406 0.473223
O O10 0.613421 0.163194 0.038467
O O11 0.734735 0.628020 0.859903
O O12 0.948026 0.683667 0.188694
O O13 0.740242 0.961176 0.976212
O O14 0.257136 0.681912 0.121343
O O15 0.796922 0.272656 0.328409
O O16 0.582062 0.272600 0.749717
O O17 0.000000 0.000000 0.500000
O O18 0.500000 0.500000 0.500000
#
# Coordination Sequence:
#
# PCOD9032066 Si02
#       8
#     2   2   2   2   2   2   2   2
#     4  11  22  43  68 101 139 175 220 286 353 405
#     4  10  23  42  69  98 137 181 224 276 350 402
#     4  12  24  41  69 104 132 172 241 285 331 399
#     4   9  21  39  68  98 129 177 232 269 344 407
#     4  12  24  42  70 103 136 176 230 287 342 406
#     4  10  22  43  69  93 137 181 226 282 336 408
#     4   9  19  39  69  94 127 175 228 271 329 407
#     4  11  25  43  66  98 144 183 223 277 353 411
#
# _framework density 24.016117999999999
#
# number of rings (size 3 to 8) (size 9 to 14) (size 15 to 20)
#    0.000    1.500    3.750    1.500    1.750    4.500 
#    0.000    0.625    5.500    0.000    0.000    0.000 
#    0.000    0.000    0.000    0.000    0.000    0.000 
#
# Total GULP energy -89287.701108 kJ/mol
# GULP energy per Si atom -5580.481319 kJ/mol
# Density = 2.396146 g / cm^3
# Si number density = 24.016118 Si / 1000 Ang^3
#
#
#
# Elastic Constant Matrix: (Units=GPa)
#
#
# Indices 1 2 3 4 5 6 
#
# 1 72.0979 -3.6257 6.3294 4.9210 19.5878 -1.7917
# 2 -3.6257 80.8479 18.1327 3.4969 19.2341 16.5702
# 3 6.3294 18.1327 58.3166 -1.1364 33.6893 0.1001
# 4 4.9210 3.4969 -1.1364 18.3443 2.6382 16.0795
# 5 19.5878 19.2341 33.6893 2.6382 33.9066 0.5416
# 6 -1.7917 16.5702 0.1001 16.0795 0.5416 34.4078
#
#
#
# Elastic Compliance Matrix: (Units=1/GPa)
#
#
# Indices 1 2 3 4 5 6 
#
# 1 0.019876 0.004293 0.010310 -0.002478 -0.023976 0.000473
# 2 0.004293 0.017867 0.004111 0.008961 -0.017201 -0.012309
# 3 0.010310 0.004111 0.047835 0.013861 -0.056780 -0.007166
# 4 -0.002478 0.008961 0.013861 0.104116 -0.024682 -0.052752
# 5 -0.023976 -0.017201 -0.056780 -0.024682 0.111167 0.016985
# 6 0.000473 -0.012309 -0.007166 -0.052752 0.016985 0.059421
#
#
# Mechanical properties :
#
#
# Convention : Reuss Voigt Hill
#
# Bulk Modulus (GPa) = 8.12971 28.10389 18.11680
# Shear Modulus (GPa) = 13.74174 30.02683 21.88429
#
# Velocity S-wave (km/s) = 2.39464 3.53976 3.02194
# Velocity P-wave (km/s) = 3.32238 5.33236 4.44254
#
# Compressibility (1/GPa) = 0.12300568
#
# Stress axis : x y z
#
# Youngs Moduli (GPa) = 50.31298 55.96936 20.90534
#
# Poissons Ratio (x) = -0.24030 -0.21552
# Poissons Ratio (y) = -0.21601 -0.08595
# Poissons Ratio (z) = -0.51870 -0.23011
#
# Static dielectric constant tensor:
#      x y z
#    x 1.962030 -0.028020 0.069380 
#    y -0.028020 1.996330 -0.069360 
#    z 0.069380 -0.069360 1.966120 
# 
# From -- ./inp_files/343820.got.cif
#   From: 2010.05.17/outbox.cif.g08.bks.cpg/sg2_172_cif.got.tgz:343820.got - 2010.06.03 11:33:40.
