data_PCOD9032330
_publ_section_title
;
Structure prediction by ZEFSAII (Michael W. Deem and Ramdas Pophale) SiO2 
 PCOD9032330
Probable space group: P -1
;
_chemical_formula_sum "Si O2"
_cell_formula_units_Z 14
_cell_length_a 9.139368
_cell_length_b 9.240597
_cell_length_c 8.519026
_cell_angle_alpha 133.865151
_cell_angle_beta 93.297706
_cell_angle_gamma 97.821474
_cell_volume 502.141050
_symmetry_space_group_name_H-M "P -1"
_symmetry_group_IT_number 2
_symmetry_cell_setting 'triclinic'
loop_
_space_group_symop_operation_xyz
x,y,z
-x,-y,-z
loop_
_atom_site_type_symbol
_atom_site_label
_atom_site_fract_x
_atom_site_fract_y
_atom_site_fract_z
Si Si1 0.400715 0.938612 0.600026
Si Si2 0.041566 0.359702 0.538668
Si Si3 0.097421 0.824140 0.333888
Si Si4 0.690811 0.035826 0.858686
Si Si5 0.869491 0.940378 0.071351
Si Si6 0.325429 0.371893 0.021560
Si Si7 0.357315 0.515957 0.776631
O O1 0.527425 0.898360 0.692860
O O2 0.352766 0.143507 0.810720
O O3 0.500000 0.000000 0.500000
O O4 0.250897 0.795501 0.410900
O O5 0.014948 0.376700 0.739287
O O6 0.000000 0.500000 0.500000
O O7 0.924847 0.140663 0.332252
O O8 0.222458 0.372796 0.558594
O O9 0.838326 0.714691 0.976821
O O10 0.000000 0.000000 0.500000
O O11 0.821319 0.097573 0.773740
O O12 0.666067 0.256751 0.077163
O O13 0.731932 0.936979 0.945017
O O14 0.000000 0.000000 0.000000
O O15 0.331420 0.474733 0.930888
O O16 0.465748 0.485262 0.223568
#
# Coordination Sequence:
#
# PCOD9032330 Si02
#       7
#     2   2   2   2   2   2   2
#     4   9  19  38  65  98 126 171 233 273 331 407
#     4  12  25  41  62  99 137 172 223 286 347 396
#     4  11  22  40  68  97 133 181 226 285 339 401
#     4  10  23  41  65  97 136 179 229 276 341 423
#     4  12  26  43  67 105 137 181 235 284 344 409
#     4  10  22  43  70  97 136 184 226 287 340 416
#     4  10  23  43  68  99 137 180 228 279 359 405
#
# _framework density 27.880613
#
# number of rings (size 3 to 8) (size 9 to 14) (size 15 to 20)
#    0.000    1.429    2.857    1.714    2.000    6.286 
#    0.000    0.714    0.000    0.000    0.000    0.000 
#    0.000    0.000    0.000    0.000    0.000    0.000 
#
# Total GULP energy -77965.901398 kJ/mol
# GULP energy per Si atom -5568.992957 kJ/mol
# Density = 2.781716 g / cm^3
# Si number density = 27.880613 Si / 1000 Ang^3
#
#
#
# Elastic Constant Matrix: (Units=GPa)
#
#
# Indices 1 2 3 4 5 6 
#
# 1 99.5387 10.0299 10.4264 -3.5969 20.2253 11.7806
# 2 10.0299 133.1948 22.1536 -12.0461 -4.1443 10.3950
# 3 10.4264 22.1536 100.1302 -5.5643 33.3414 -7.9697
# 4 -3.5969 -12.0461 -5.5643 43.7544 1.4189 9.9505
# 5 20.2253 -4.1443 33.3414 1.4189 55.5274 -9.2193
# 6 11.7806 10.3950 -7.9697 9.9505 -9.2193 48.6429
#
#
#
# Elastic Compliance Matrix: (Units=1/GPa)
#
#
# Indices 1 2 3 4 5 6 
#
# 1 0.011684 -0.000636 0.000479 0.001932 -0.005307 -0.004016
# 2 -0.000636 0.008412 -0.002477 0.002380 0.001925 -0.002171
# 3 0.000479 -0.002477 0.013371 0.001145 -0.008284 0.000800
# 4 0.001932 0.002380 0.001145 0.025398 -0.002949 -0.006543
# 5 -0.005307 0.001925 -0.008284 -0.002949 0.025973 0.005042
# 6 -0.004016 -0.002171 0.000800 -0.006543 0.005042 0.024420
#
#
# Mechanical properties :
#
#
# Convention : Reuss Voigt Hill
#
# Bulk Modulus (GPa) = 35.46267 46.45373 40.95820
# Shear Modulus (GPa) = 40.34690 48.93517 44.64104
#
# Velocity S-wave (km/s) = 3.80824 4.19402 4.00578
# Velocity P-wave (km/s) = 5.66428 6.33647 6.00978
#
# Compressibility (1/GPa) = 0.02819867
#
# Stress axis : x y z
#
# Youngs Moduli (GPa) = 85.58900 118.87392 74.78960
#
# Poissons Ratio (x) = 0.07566 -0.03583
# Poissons Ratio (y) = 0.05448 0.18523
# Poissons Ratio (z) = -0.04100 0.29441
#
# Static dielectric constant tensor:
#      x y z
#    x 3.264680 0.097660 -0.511970 
#    y 0.097660 2.200830 -0.182550 
#    z -0.511970 -0.182550 2.401960 
# 
# From -- ./inp_files/385776.got.cif
#   From: 2010.05.17/outbox.cif.g08.bks.cpg/sg2_193_cif.got.tgz:385776.got - 2010.06.03 11:33:40.
