data_PCOD9032469
_publ_section_title
;
Structure prediction by ZEFSAII (Michael W. Deem and Ramdas Pophale) SiO2 
 PCOD9032469
Probable space group: P -1
;
_chemical_formula_sum "Si O2"
_cell_formula_units_Z 16
_cell_length_a 13.814280
_cell_length_b 8.730987
_cell_length_c 11.284612
_cell_angle_alpha 98.779900
_cell_angle_beta 32.929916
_cell_angle_gamma 113.767338
_cell_volume 628.238234
_symmetry_space_group_name_H-M "P -1"
_symmetry_group_IT_number 2
_symmetry_cell_setting 'triclinic'
loop_
_space_group_symop_operation_xyz
x,y,z
-x,-y,-z
loop_
_atom_site_type_symbol
_atom_site_label
_atom_site_fract_x
_atom_site_fract_y
_atom_site_fract_z
Si Si1 0.353407 0.718279 0.950822
Si Si2 0.358770 0.856089 0.725685
Si Si3 0.273508 0.596644 0.463374
Si Si4 0.252471 0.092922 0.999850
Si Si5 0.030494 0.278335 0.548921
Si Si6 0.919533 0.680357 0.889465
Si Si7 0.741897 0.934760 0.725153
Si Si8 0.276201 0.472596 0.691632
O O1 0.465865 0.838175 0.733511
O O2 0.509718 0.825696 0.906927
O O3 0.137874 0.710525 0.195085
O O4 0.275264 0.509153 0.983545
O O5 0.268499 0.654830 0.746618
O O6 0.500000 0.000000 0.500000
O O7 0.217255 0.927981 0.934447
O O8 0.511049 0.748941 0.248480
O O9 0.237632 0.453294 0.588455
O O10 0.210035 0.488271 0.390569
O O11 0.125780 0.677320 0.647938
O O12 0.099484 0.159540 0.125933
O O13 0.253923 0.068771 0.136501
O O14 0.151707 0.174605 0.443916
O O15 0.884149 0.148991 0.577871
O O16 0.880976 0.670102 0.069139
O O17 0.500000 0.500000 0.500000
#
# Coordination Sequence:
#
# PCOD9032469 Si02
#       8
#     2   2   2   2   2   2   2   2
#     4  10  22  43  71  93 133 185 223 269 340 403
#     4  11  22  41  70 100 135 173 224 277 334 402
#     4  11  23  42  68  97 136 179 225 278 337 405
#     4  12  24  44  67  99 141 173 225 282 339 388
#     4  10  23  42  65  99 128 174 231 270 328 406
#     4  10  23  41  64 100 135 180 226 271 339 406
#     4  11  24  43  70  96 135 179 227 279 330 401
#     4  11  21  42  71  96 135 185 224 270 339 412
#
# _framework density 25.468046000000001
#
# number of rings (size 3 to 8) (size 9 to 14) (size 15 to 20)
#    0.000    1.250    3.750    1.500    1.750    3.000 
#    2.250    3.125    0.000    0.000    0.000    0.000 
#    0.000    0.000    0.000    0.000    0.000    0.000 
#
# Total GULP energy -89391.339831 kJ/mol
# GULP energy per Si atom -5586.958739 kJ/mol
# Density = 2.541008 g / cm^3
# Si number density = 25.468046 Si / 1000 Ang^3
#
#
#
# Elastic Constant Matrix: (Units=GPa)
#
#
# Indices 1 2 3 4 5 6 
#
# 1 103.5476 38.1146 30.3003 10.4236 -5.4989 -0.7974
# 2 38.1146 102.9188 12.3948 28.3416 0.0155 10.3541
# 3 30.3003 12.3948 71.0474 19.7874 -3.3945 1.4466
# 4 10.4236 28.3416 19.7874 34.2065 -1.3120 -2.8097
# 5 -5.4989 0.0155 -3.3945 -1.3120 50.5834 -4.2005
# 6 -0.7974 10.3541 1.4466 -2.8097 -4.2005 40.3248
#
#
#
# Elastic Compliance Matrix: (Units=1/GPa)
#
#
# Indices 1 2 3 4 5 6 
#
# 1 0.013036 -0.005514 -0.005739 0.004156 0.001333 0.002308
# 2 -0.005514 0.015682 0.003522 -0.013834 -0.001171 -0.005348
# 3 -0.005739 0.003522 0.019491 -0.012651 0.000140 -0.002584
# 4 0.004156 -0.013834 -0.012651 0.047424 0.001464 0.007545
# 5 0.001333 -0.001171 0.000140 0.001464 0.020172 0.002525
# 6 0.002308 -0.005348 -0.002584 0.007545 0.002525 0.027099
#
#
# Mechanical properties :
#
#
# Convention : Reuss Voigt Hill
#
# Bulk Modulus (GPa) = 30.53633 48.79258 39.66446
# Shear Modulus (GPa) = 29.53667 38.13657 33.83662
#
# Velocity S-wave (km/s) = 3.40921 3.87386 3.64894
# Velocity P-wave (km/s) = 5.24529 6.26171 5.77590
#
# Compressibility (1/GPa) = 0.03274788
#
# Stress axis : x y z
#
# Youngs Moduli (GPa) = 76.70875 63.76711 51.30620
#
# Poissons Ratio (x) = 0.35158 0.29443
# Poissons Ratio (y) = 0.42294 -0.18068
# Poissons Ratio (z) = 0.44020 -0.22456
#
# Static dielectric constant tensor:
#      x y z
#    x 2.019150 0.007900 0.056740 
#    y 0.007900 2.062070 -0.061330 
#    z 0.056740 -0.061330 2.079550 
# 
# From -- ./inp_files/447608.got.cif
#   From: 2010.05.17/outbox.cif.g08.bks.cpg/sg2_224_cif.got.tgz:447608.got - 2010.06.03 11:33:40.
