data_PCOD9032923
_publ_section_title
;
Structure prediction by ZEFSAII (Michael W. Deem and Ramdas Pophale) SiO2 
 PCOD9032923
Probable space group: P -1
;
_chemical_formula_sum "Si O2"
_cell_formula_units_Z 12
_cell_length_a 5.034577
_cell_length_b 7.092617
_cell_length_c 24.669517
_cell_angle_alpha 140.956698
_cell_angle_beta 112.579809
_cell_angle_gamma 70.497781
_cell_volume 511.393276
_symmetry_space_group_name_H-M "P -1"
_symmetry_group_IT_number 2
_symmetry_cell_setting 'triclinic'
loop_
_space_group_symop_operation_xyz
x,y,z
-x,-y,-z
loop_
_atom_site_type_symbol
_atom_site_label
_atom_site_fract_x
_atom_site_fract_y
_atom_site_fract_z
Si Si1 0.087981 0.188339 0.762132
Si Si2 0.624637 0.200106 0.100436
Si Si3 0.921938 0.293134 0.524942
Si Si4 0.594366 0.312428 0.393302
Si Si5 0.417216 0.486956 0.250741
Si Si6 0.997706 0.179701 0.220761
O O1 0.232471 0.506201 0.845953
O O2 0.013739 0.055883 0.784856
O O3 0.795394 0.222618 0.710416
O O4 0.316994 0.969311 0.699815
O O5 0.388057 0.318452 0.152786
O O6 0.861470 0.042734 0.124533
O O7 0.500000 0.000000 0.000000
O O8 0.712939 0.231118 0.444371
O O9 0.733507 0.553576 0.600492
O O10 0.210367 0.424629 0.553918
O O11 0.000000 0.000000 0.500000
O O12 0.761922 0.459791 0.277725
O O13 0.287547 0.309984 0.250843
#
# Coordination Sequence:
#
# PCOD9032923 Si02
#       6
#     2   2   2   2   2   2
#     4  11  23  39  67  92 128 167 207 265 307 363
#     4   9  22  43  61  90 128 165 213 260 308 369
#     4  10  22  44  63  92 128 163 196 256 311 367
#     4  10  24  38  65  96 123 159 215 243 305 380
#     4   9  22  40  57  90 123 157 210 259 307 363
#     4   9  22  37  59  87 121 159 211 252 315 364
#
# _framework density 23.465306000000002
#
# number of rings (size 3 to 8) (size 9 to 14) (size 15 to 20)
#    1.000    1.333    0.000    0.500    4.667    7.333 
#    0.000    1.667    0.000    0.000    0.000    0.000 
#    0.000    0.000    0.000    0.000    0.000    0.000 
#
# Total GULP energy -67062.368002 kJ/mol
# GULP energy per Si atom -5588.530667 kJ/mol
# Density = 2.341190 g / cm^3
# Si number density = 23.465306 Si / 1000 Ang^3
#
#
#
# Elastic Constant Matrix: (Units=GPa)
#
#
# Indices 1 2 3 4 5 6 
#
# 1 138.1134 52.9037 22.6591 3.1899 -9.3481 5.8601
# 2 52.9037 192.1222 48.9452 8.2323 4.7707 20.9216
# 3 22.6591 48.9452 84.2951 -0.8316 10.5074 10.8603
# 4 3.1899 8.2323 -0.8316 22.7114 2.8720 -1.8707
# 5 -9.3481 4.7707 10.5074 2.8720 28.3956 -1.9794
# 6 5.8601 20.9216 10.8603 -1.8707 -1.9794 44.6517
#
#
#
# Elastic Compliance Matrix: (Units=1/GPa)
#
#
# Indices 1 2 3 4 5 6 
#
# 1 0.008562 -0.002027 -0.001668 -0.000993 0.003902 0.000363
# 2 -0.002027 0.006937 -0.003131 -0.002464 -0.000589 -0.002352
# 3 -0.001668 -0.003131 0.015188 0.002511 -0.006048 -0.002171
# 4 -0.000993 -0.002464 0.002511 0.046024 -0.005332 0.002366
# 5 0.003902 -0.000589 -0.006048 -0.005332 0.039570 0.002766
# 6 0.000363 -0.002352 -0.002171 0.002366 0.002766 0.024200
#
#
# Mechanical properties :
#
#
# Convention : Reuss Voigt Hill
#
# Bulk Modulus (GPa) = 58.69898 73.72739 66.21319
# Shear Modulus (GPa) = 31.28698 38.48658 34.88678
#
# Velocity S-wave (km/s) = 3.65544 4.05427 3.86001
# Velocity P-wave (km/s) = 6.54873 7.30781 6.93866
#
# Compressibility (1/GPa) = 0.01703607
#
# Stress axis : x y z
#
# Youngs Moduli (GPa) = 116.79556 144.15228 65.84243
#
# Poissons Ratio (x) = 0.29215 0.10980
# Poissons Ratio (y) = 0.23671 0.20615
# Poissons Ratio (z) = 0.19478 0.45135
#
# Static dielectric constant tensor:
#      x y z
#    x 1.934590 -0.040370 0.011670 
#    y -0.040370 1.912170 -0.041830 
#    z 0.011670 -0.041830 1.914690 
# 
# From -- ./inp_files/603498.got.cif
#   From: 2010.05.17/outbox.cif.g08.bks.cpg/sg2_302_cif.got.tgz:603498.got - 2010.06.03 11:33:40.
