data_PCOD9032224
_publ_section_title
;
Structure prediction by ZEFSAII (Michael W. Deem and Ramdas Pophale) SiO2 
 PCOD9032224
Probable space group: P -1
;
_chemical_formula_sum "Si O2"
_cell_formula_units_Z 15
_cell_length_a 21.168279
_cell_length_b 17.814023
_cell_length_c 8.322769
_cell_angle_alpha 37.265841
_cell_angle_beta 149.168642
_cell_angle_gamma 160.388521
_cell_volume 538.324580
_symmetry_space_group_name_H-M "P -1"
_symmetry_group_IT_number 2
_symmetry_cell_setting 'triclinic'
loop_
_space_group_symop_operation_xyz
x,y,z
-x,-y,-z
loop_
_atom_site_type_symbol
_atom_site_label
_atom_site_fract_x
_atom_site_fract_y
_atom_site_fract_z
Si Si1 0.247951 0.831689 0.225458
Si Si2 0.500000 0.000000 0.000000
Si Si3 0.832902 0.530778 0.683587
Si Si4 0.121136 0.156769 0.845490
Si Si5 0.375683 0.647580 0.128686
Si Si6 0.070209 0.714136 0.377562
Si Si7 0.617152 0.800091 0.824536
Si Si8 0.707940 0.837088 0.299352
O O1 0.140150 0.710049 0.368573
O O2 0.500000 0.000000 0.500000
O O3 0.057866 0.641120 0.004590
O O4 0.265290 0.992917 0.960294
O O5 0.490363 0.870408 0.067107
O O6 0.769204 0.204601 0.272920
O O7 0.860759 0.679433 0.389321
O O8 0.765999 0.513381 0.750488
O O9 0.592495 0.279833 0.522672
O O10 0.348184 0.274438 0.107218
O O11 0.949863 0.988929 0.609324
O O12 0.000000 0.000000 0.000000
O O13 0.552522 0.700801 0.348410
O O14 0.195830 0.507096 0.828460
O O15 0.169584 0.934618 0.191085
O O16 0.607291 0.720090 0.107269
#
# Coordination Sequence:
#
# PCOD9032224 Si02
#       8
#     2   1   2   2   2   2   2   2
#     4   9  19  40  63  90 137 183 229 289 346 407
#     4  12  22  40  72  98 138 190 246 276 366 408
#     4  10  22  43  70 101 144 186 238 295 355 424
#     4  11  24  43  74 102 137 189 238 299 355 432
#     4  11  23  44  68 103 143 187 236 294 353 421
#     4  10  23  40  66  99 141 184 234 298 344 423
#     4  11  22  45  67 104 143 189 234 293 364 418
#     4  10  23  41  65 100 144 177 237 291 349 429
#
# _framework density 27.864231
#
# number of rings (size 3 to 8) (size 9 to 14) (size 15 to 20)
#    0.000    1.600    1.333    3.600    0.000    2.133 
#    4.800    3.333    0.000    2.400    0.000    0.000 
#    0.000    0.000    0.000    0.000    0.000    0.000 
#
# Total GULP energy -83576.277538 kJ/mol
# GULP energy per Si atom -5571.751836 kJ/mol
# Density = 2.780081 g / cm^3
# Si number density = 27.864231 Si / 1000 Ang^3
#
#
#
# Elastic Constant Matrix: (Units=GPa)
#
#
# Indices 1 2 3 4 5 6 
#
# 1 86.0326 29.2263 24.2996 8.5546 -10.4568 6.0618
# 2 29.2263 106.4109 36.3855 19.8942 -1.8659 -5.5022
# 3 24.2996 36.3855 161.5353 52.1484 2.6931 -8.6371
# 4 8.5546 19.8942 52.1484 61.5634 2.6296 -11.6972
# 5 -10.4568 -1.8659 2.6931 2.6296 46.1084 3.8353
# 6 6.0618 -5.5022 -8.6371 -11.6972 3.8353 38.8355
#
#
#
# Elastic Compliance Matrix: (Units=1/GPa)
#
#
# Indices 1 2 3 4 5 6 
#
# 1 0.013865 -0.003356 -0.001432 -0.000424 0.003401 -0.003422
# 2 -0.003356 0.011177 -0.001386 -0.001713 -0.000239 0.001307
# 3 -0.001432 -0.001386 0.008962 -0.006925 -0.000508 -0.000015
# 4 -0.000424 -0.001713 -0.006925 0.023859 -0.001590 0.005627
# 5 0.003401 -0.000239 -0.000508 -0.001590 0.022854 -0.003414
# 6 -0.003422 0.001307 -0.000015 0.005627 -0.003414 0.028497
#
#
# Mechanical properties :
#
#
# Convention : Reuss Voigt Hill
#
# Bulk Modulus (GPa) = 46.18014 59.31128 52.74571
# Shear Modulus (GPa) = 38.82560 46.90595 42.86578
#
# Velocity S-wave (km/s) = 3.73686 4.10735 3.92647
# Velocity P-wave (km/s) = 5.93532 6.62010 6.28704
#
# Compressibility (1/GPa) = 0.02165433
#
# Stress axis : x y z
#
# Youngs Moduli (GPa) = 72.12455 89.47062 111.58692
#
# Poissons Ratio (x) = 0.30029 0.15984
# Poissons Ratio (y) = 0.24207 0.15464
# Poissons Ratio (z) = 0.10332 0.12399
#
# Static dielectric constant tensor:
#      x y z
#    x 2.247300 -0.081920 -0.043860 
#    y -0.081920 2.350370 -0.024310 
#    z -0.043860 -0.024310 2.316700 
# 
# From -- ./inp_files/355283.got.cif
#   From: 2010.05.17/outbox.cif.g08.bks.cpg/sg2_178_cif.got.tgz:355283.got - 2010.06.03 11:33:40.
