data_PCOD9032890
_publ_section_title
;
Structure prediction by ZEFSAII (Michael W. Deem and Ramdas Pophale) SiO2 
 PCOD9032890
Probable space group: P -1
;
_chemical_formula_sum "Si O2"
_cell_formula_units_Z 14
_cell_length_a 6.080511
_cell_length_b 5.341656
_cell_length_c 23.913757
_cell_angle_alpha 95.712663
_cell_angle_beta 80.340797
_cell_angle_gamma 49.300391
_cell_volume 557.363653
_symmetry_space_group_name_H-M "P -1"
_symmetry_group_IT_number 2
_symmetry_cell_setting 'triclinic'
loop_
_space_group_symop_operation_xyz
x,y,z
-x,-y,-z
loop_
_atom_site_type_symbol
_atom_site_label
_atom_site_fract_x
_atom_site_fract_y
_atom_site_fract_z
Si Si1 0.141600 0.931246 0.752166
Si Si2 0.069925 0.232701 0.155733
Si Si3 0.693487 0.900163 0.138659
Si Si4 0.507638 0.996878 0.621714
Si Si5 0.837976 0.222929 0.957121
Si Si6 0.316638 0.665282 0.454760
Si Si7 0.799795 0.507300 0.688049
O O1 0.462347 0.629557 0.700976
O O2 0.967786 0.819724 0.779458
O O3 0.237540 0.981377 0.808201
O O4 0.922360 0.288345 0.736086
O O5 0.749203 0.582189 0.154911
O O6 0.352258 0.208598 0.140185
O O7 0.169867 0.949758 0.100442
O O8 0.940749 0.729570 0.075057
O O9 0.664154 0.624828 0.580805
O O10 0.662219 0.874906 0.674972
O O11 0.577815 0.194183 0.588510
O O12 0.141190 0.235260 0.639898
O O13 0.500000 0.500000 0.000000
O O14 0.000000 0.000000 0.000000
O O15 0.500000 0.500000 0.500000
O O16 0.000000 0.000000 0.500000
#
# Coordination Sequence:
#
# PCOD9032890 Si02
#       7
#     2   2   2   2   2   2   2
#     4  10  22  44  62  92 126 174 220 264 346 390
#     4  11  23  40  63  91 122 162 223 267 321 416
#     4  11  23  40  63  91 122 162 223 267 321 416
#     4  11  24  44  66 106 138 180 234 285 342 406
#     4  11  24  40  60  88 126 164 204 275 334 394
#     4  12  24  44  72 100 140 186 232 280 340 406
#     4  10  22  44  64  92 136 172 216 282 334 406
#
# _framework density 25.118252999999999
#
# number of rings (size 3 to 8) (size 9 to 14) (size 15 to 20)
#    0.000    1.143    0.000    6.000    0.000    8.000 
#   25.714    0.000    0.000    0.000    0.000    0.000 
#    0.000    0.000    0.000    0.000    0.000    0.000 
#
# Total GULP energy -77981.319099 kJ/mol
# GULP energy per Si atom -5570.094221 kJ/mol
# Density = 2.506108 g / cm^3
# Si number density = 25.118253 Si / 1000 Ang^3
#
#
#
# Elastic Constant Matrix: (Units=GPa)
#
#
# Indices 1 2 3 4 5 6 
#
# 1 64.7783 59.4368 45.4269 -4.4099 -22.1459 -15.5605
# 2 59.4368 172.7942 64.6625 -18.9677 -18.1838 -35.0218
# 3 45.4269 64.6625 135.3559 -19.9336 -29.9023 -2.4027
# 4 -4.4099 -18.9677 -19.9336 66.4628 -8.7457 -3.5085
# 5 -22.1459 -18.1838 -29.9023 -8.7457 39.7882 -1.3163
# 6 -15.5605 -35.0218 -2.4027 -3.5085 -1.3163 62.9484
#
#
#
# Elastic Compliance Matrix: (Units=1/GPa)
#
#
# Indices 1 2 3 4 5 6 
#
# 1 0.028598 -0.006466 -0.004195 0.000295 0.009991 0.003537
# 2 -0.006466 0.009809 -0.002226 0.001874 -0.000249 0.003873
# 3 -0.004195 -0.002226 0.011665 0.003306 0.006091 -0.001519
# 4 0.000295 0.001874 0.003306 0.017702 0.007476 0.002385
# 5 0.009991 -0.000249 0.006091 0.007476 0.036925 0.003752
# 6 0.003537 0.003873 -0.001519 0.002385 0.003752 0.019069
#
#
# Mechanical properties :
#
#
# Convention : Reuss Voigt Hill
#
# Bulk Modulus (GPa) = 41.15806 79.10900 60.13353
# Shear Modulus (GPa) = 31.71768 47.40002 39.55885
#
# Velocity S-wave (km/s) = 3.55735 4.34876 3.97281
# Velocity P-wave (km/s) = 5.77012 7.53516 6.71092
#
# Compressibility (1/GPa) = 0.02429657
#
# Stress axis : x y z
#
# Youngs Moduli (GPa) = 34.96778 101.94626 85.72845
#
# Poissons Ratio (x) = 0.65922 0.35964
# Poissons Ratio (y) = 0.22611 0.19084
# Poissons Ratio (z) = 0.14669 0.22694
#
# Static dielectric constant tensor:
#      x y z
#    x 88.203100 19.443810 -48.920480 
#    y 19.443810 6.269930 -10.976180 
#    z -48.920480 -10.976180 29.967060 
# 
# From -- ./inp_files/603260.got.cif
#   From: 2010.05.17/outbox.cif.g08.bks.cpg/sg2_302_cif.got.tgz:603260.got - 2010.06.03 11:33:40.
