data_PCOD9032089
_publ_section_title
;
Structure prediction by ZEFSAII (Michael W. Deem and Ramdas Pophale) SiO2 
 PCOD9032089
Probable space group: P -1
;
_chemical_formula_sum "Si O2"
_cell_formula_units_Z 10
_cell_length_a 8.446441
_cell_length_b 11.337144
_cell_length_c 9.723575
_cell_angle_alpha 54.567661
_cell_angle_beta 46.413837
_cell_angle_gamma 90.586497
_cell_volume 395.344469
_symmetry_space_group_name_H-M "P -1"
_symmetry_group_IT_number 2
_symmetry_cell_setting 'triclinic'
loop_
_space_group_symop_operation_xyz
x,y,z
-x,-y,-z
loop_
_atom_site_type_symbol
_atom_site_label
_atom_site_fract_x
_atom_site_fract_y
_atom_site_fract_z
Si Si1 0.147068 0.842519 0.278303
Si Si2 0.208894 0.426539 0.063844
Si Si3 0.771957 0.566581 0.466616
Si Si4 0.329224 0.197827 0.799555
Si Si5 0.340956 0.796245 0.657512
O O1 0.940034 0.711748 0.620542
O O2 0.069772 0.702125 0.290729
O O3 0.500000 0.000000 0.000000
O O4 0.100032 0.986536 0.157565
O O5 0.971333 0.304838 0.162598
O O6 0.513299 0.492645 0.782031
O O7 0.272780 0.626747 0.909067
O O8 0.620249 0.367672 0.606703
O O9 0.797727 0.710031 0.244710
O O10 0.452517 0.168382 0.614299
O O11 0.500000 0.000000 0.500000
#
# Coordination Sequence:
#
# PCOD9032089 Si02
#       5
#     2   2   2   2   2
#     4  12  24  42  67 103 137 173 221 275 336 391
#     4  10  23  43  64 104 129 175 226 266 338 390
#     4  10  24  44  71  92 140 176 221 278 319 405
#     4  10  23  45  67 100 129 179 227 262 343 387
#     4  10  22  43  69  95 136 176 222 273 331 401
#
# _framework density 25.294395999999999
#
# number of rings (size 3 to 8) (size 9 to 14) (size 15 to 20)
#    0.000    1.600    2.000    1.200    0.000   12.800 
#    0.000    0.000    0.000    0.000    0.000    0.000 
#    0.000    0.000    0.000    0.000    0.000    0.000 
#
# Total GULP energy -56099.957459 kJ/mol
# GULP energy per Si atom -5609.995746 kJ/mol
# Density = 2.523683 g / cm^3
# Si number density = 25.294396 Si / 1000 Ang^3
#
#
#
# Elastic Constant Matrix: (Units=GPa)
#
#
# Indices 1 2 3 4 5 6 
#
# 1 74.2742 45.6914 61.4281 -8.0304 6.3970 22.1008
# 2 45.6914 183.7494 75.1481 -46.1576 11.8700 29.2788
# 3 61.4281 75.1481 187.2939 -10.7084 53.0336 14.4967
# 4 -8.0304 -46.1576 -10.7084 54.6524 14.3958 -5.5215
# 5 6.3970 11.8700 53.0336 14.3958 52.9842 -7.0549
# 6 22.1008 29.2788 14.4967 -5.5215 -7.0549 26.3819
#
#
#
# Elastic Compliance Matrix: (Units=1/GPa)
#
#
# Indices 1 2 3 4 5 6 
#
# 1 0.024036 -0.001253 -0.007196 -0.001165 0.003003 -0.014232
# 2 -0.001253 0.010016 -0.001250 0.008264 -0.004257 -0.008789
# 3 -0.007196 -0.001250 0.011831 0.003143 -0.011757 -0.001572
# 4 -0.001165 0.008264 0.003143 0.028543 -0.013623 -0.007591
# 5 0.003003 -0.004257 -0.011757 -0.013623 0.037027 0.015720
# 6 -0.014232 -0.008789 -0.001572 -0.007591 0.015720 0.063059
#
#
# Mechanical properties :
#
#
# Convention : Reuss Voigt Hill
#
# Bulk Modulus (GPa) = 37.75562 89.98364 63.86963
# Shear Modulus (GPa) = 24.66247 44.34037 34.50142
#
# Velocity S-wave (km/s) = 3.12591 4.19139 3.69724
# Velocity P-wave (km/s) = 5.29031 7.68606 6.59783
#
# Compressibility (1/GPa) = 0.02648612
#
# Stress axis : x y z
#
# Youngs Moduli (GPa) = 41.60470 99.83994 84.52317
#
# Poissons Ratio (x) = 0.12508 0.60822
# Poissons Ratio (y) = 0.05212 0.10562
# Poissons Ratio (z) = 0.29938 0.12476
#
# Static dielectric constant tensor:
#      x y z
#    x 2.066520 -0.023630 -0.015120 
#    y -0.023630 1.959820 -0.004770 
#    z -0.015120 -0.004770 1.974750 
# 
# From -- ./inp_files/94245.got.cif
#   From: 2010.05.17/outbox.cif.g08.bks.cpg/sg2_48_cif.got.tgz:94245.got - 2010.06.03 11:33:40.
