data_PCOD9032207
_publ_section_title
;
Structure prediction by ZEFSAII (Michael W. Deem and Ramdas Pophale) SiO2 
 PCOD9032207
Probable space group: P -1
;
_chemical_formula_sum "Si O2"
_cell_formula_units_Z 14
_cell_length_a 14.379124
_cell_length_b 12.343705
_cell_length_c 20.886437
_cell_angle_alpha 159.193558
_cell_angle_beta 148.974227
_cell_angle_gamma 42.724803
_cell_volume 632.471984
_symmetry_space_group_name_H-M "P -1"
_symmetry_group_IT_number 2
_symmetry_cell_setting 'triclinic'
loop_
_space_group_symop_operation_xyz
x,y,z
-x,-y,-z
loop_
_atom_site_type_symbol
_atom_site_label
_atom_site_fract_x
_atom_site_fract_y
_atom_site_fract_z
Si Si1 0.653920 0.359859 0.939689
Si Si2 0.311031 0.782775 0.486873
Si Si3 0.625024 0.992651 0.212404
Si Si4 0.370600 0.282779 0.146941
Si Si5 0.062811 0.178521 0.535449
Si Si6 0.038921 0.201622 0.390600
Si Si7 0.648062 0.892116 0.569310
O O1 0.474343 0.102743 0.729190
O O2 0.722336 0.150634 0.813655
O O3 0.588496 0.625887 0.011475
O O4 0.815867 0.557575 0.195256
O O5 0.321103 0.480654 0.285846
O O6 0.357853 0.790197 0.593493
O O7 0.113730 0.855771 0.401925
O O8 0.467946 0.039056 0.098372
O O9 0.838018 0.114650 0.375116
O O10 0.525656 0.543656 0.336836
O O11 0.167945 0.093049 0.888577
O O12 0.121785 0.284783 0.556516
O O13 0.182797 0.111519 0.379227
O O14 0.000000 0.500000 0.500000
O O15 0.500000 0.000000 0.500000
#
# Coordination Sequence:
#
# PCOD9032207 Si02
#       7
#     2   2   2   2   2   2   2
#     4  10  23  44  73 101 134 182 237 284 340 416
#     4  10  22  43  70 101 134 185 228 291 341 409
#     4  11  23  41  71 101 141 179 226 294 345 408
#     4  11  27  46  68 106 144 179 237 282 355 415
#     4  11  24  42  70 102 135 180 241 273 347 414
#     4  12  29  45  71 105 145 186 224 294 355 408
#     4  11  27  49  75 102 140 188 234 287 345 413
#
# _framework density 22.135366999999999
#
# number of rings (size 3 to 8) (size 9 to 14) (size 15 to 20)
#    0.000    1.143    0.000    6.429   12.000    2.286 
#    0.000    2.143    0.000    0.000    0.000    0.000 
#    0.000    0.000    0.000    0.000    0.000    0.000 
#
# Total GULP energy -78443.253203 kJ/mol
# GULP energy per Si atom -5603.089515 kJ/mol
# Density = 2.208499 g / cm^3
# Si number density = 22.135367 Si / 1000 Ang^3
#
#
#
# Elastic Constant Matrix: (Units=GPa)
#
#
# Indices 1 2 3 4 5 6 
#
# 1 155.3817 55.8386 60.5520 -14.1155 -15.1601 1.3043
# 2 55.8386 107.2814 38.1789 -17.3334 -11.7449 -3.2866
# 3 60.5520 38.1789 96.1474 -2.8544 -1.9323 -9.8141
# 4 -14.1155 -17.3334 -2.8544 20.3483 -3.6807 3.3681
# 5 -15.1601 -11.7449 -1.9323 -3.6807 21.6440 -2.5457
# 6 1.3043 -3.2866 -9.8141 3.3681 -2.5457 37.2167
#
#
#
# Elastic Compliance Matrix: (Units=1/GPa)
#
#
# Indices 1 2 3 4 5 6 
#
# 1 0.010653 -0.001644 -0.005943 0.006777 0.006930 -0.002225
# 2 -0.001644 0.014587 -0.004255 0.012264 0.008433 -0.000309
# 3 -0.005943 -0.004255 0.015940 -0.007267 -0.005778 0.004298
# 4 0.006777 0.012264 -0.007267 0.068145 0.021665 -0.005756
# 5 0.006930 0.008433 -0.005778 0.021665 0.058923 0.001048
# 6 -0.002225 -0.000309 0.004298 -0.005756 0.001048 0.028646
#
#
# Mechanical properties :
#
#
# Convention : Reuss Voigt Hill
#
# Bulk Modulus (GPa) = 57.15643 74.21661 65.68652
# Shear Modulus (GPa) = 22.08390 29.45787 25.77089
#
# Velocity S-wave (km/s) = 3.16203 3.65198 3.41580
# Velocity P-wave (km/s) = 6.26168 7.16826 6.73025
#
# Compressibility (1/GPa) = 0.01749584
#
# Stress axis : x y z
#
# Youngs Moduli (GPa) = 93.86966 68.55646 62.73664
#
# Poissons Ratio (x) = 0.11273 0.37283
# Poissons Ratio (y) = 0.15436 0.26691
# Poissons Ratio (z) = 0.55785 0.29167
#
# Static dielectric constant tensor:
#      x y z
#    x 1.706700 -0.017360 0.020910 
#    y -0.017360 1.768410 0.003240 
#    z 0.020910 0.003240 1.799550 
# 
# From -- ./inp_files/186219.got.cif
#   From: 2010.05.17/outbox.cif.g08.bks.cpg/sg2_94_cif.got.tgz:186219.got - 2010.06.03 11:33:40.
