data_PCOD9032227
_publ_section_title
;
Structure prediction by ZEFSAII (Michael W. Deem and Ramdas Pophale) SiO2 
 PCOD9032227
Probable space group: P -1
;
_chemical_formula_sum "Si O2"
_cell_formula_units_Z 14
_cell_length_a 9.402403
_cell_length_b 7.567564
_cell_length_c 11.273515
_cell_angle_alpha 56.443540
_cell_angle_beta 124.695845
_cell_angle_gamma 111.321386
_cell_volume 548.195565
_symmetry_space_group_name_H-M "P -1"
_symmetry_group_IT_number 2
_symmetry_cell_setting 'triclinic'
loop_
_space_group_symop_operation_xyz
x,y,z
-x,-y,-z
loop_
_atom_site_type_symbol
_atom_site_label
_atom_site_fract_x
_atom_site_fract_y
_atom_site_fract_z
Si Si1 0.719793 0.885004 0.914299
Si Si2 0.564986 0.927228 0.430766
Si Si3 0.358978 0.356154 0.614994
Si Si4 0.894850 0.681041 0.672000
Si Si5 0.528905 0.625989 0.090996
Si Si6 0.210167 0.898400 0.812508
Si Si7 0.953310 0.262413 0.974517
O O1 0.532237 0.908000 0.758839
O O2 0.833230 0.108243 0.888626
O O3 0.685850 0.793177 0.063271
O O4 0.845001 0.731861 0.965753
O O5 0.500000 0.000000 0.500000
O O6 0.514548 0.712566 0.406715
O O7 0.765496 0.869910 0.563765
O O8 0.191961 0.436541 0.441327
O O9 0.433363 0.471631 0.725550
O O10 0.286170 0.121815 0.716330
O O11 0.894537 0.498914 0.839940
O O12 0.089258 0.775242 0.701720
O O13 0.500000 0.500000 0.000000
O O14 0.365048 0.762998 0.979661
O O15 0.075047 0.862741 0.869413
#
# Coordination Sequence:
#
# PCOD9032227 Si02
#       7
#     2   2   2   2   2   2   2
#     4  11  23  45  68 104 136 198 239 292 349 439
#     4  10  22  43  70 101 148 183 239 287 370 425
#     4  10  23  44  71 101 143 188 233 293 362 413
#     4  10  24  42  69 110 141 188 233 301 362 419
#     4  12  24  44  73 103 139 189 248 294 348 431
#     4  12  21  44  74 100 141 192 238 289 357 436
#     4  11  24  42  72 100 149 186 246 288 357 424
#
# _framework density 25.538329000000001
#
# number of rings (size 3 to 8) (size 9 to 14) (size 15 to 20)
#    0.857    0.286    2.857    3.857    0.000    1.714 
#    2.571    2.857    0.000    0.000    0.000    0.000 
#    0.000    0.000    0.000    0.000    0.000    0.000 
#
# Total GULP energy -77955.594416 kJ/mol
# GULP energy per Si atom -5568.256744 kJ/mol
# Density = 2.548020 g / cm^3
# Si number density = 25.538329 Si / 1000 Ang^3
#
#
#
# Elastic Constant Matrix: (Units=GPa)
#
#
# Indices 1 2 3 4 5 6 
#
# 1 85.5513 10.8280 5.5623 0.8546 10.2303 -14.7817
# 2 10.8280 94.4779 17.0153 3.6847 -8.1886 5.1110
# 3 5.5623 17.0153 92.1763 10.3869 5.1416 -17.2605
# 4 0.8546 3.6847 10.3869 35.2534 -5.4248 -9.3889
# 5 10.2303 -8.1886 5.1416 -5.4248 37.1969 13.8085
# 6 -14.7817 5.1110 -17.2605 -9.3889 13.8085 32.6491
#
#
#
# Elastic Compliance Matrix: (Units=1/GPa)
#
#
# Indices 1 2 3 4 5 6 
#
# 1 0.015740 -0.004078 0.002914 0.001324 -0.010714 0.014217
# 2 -0.004078 0.013142 -0.004358 -0.001416 0.008145 -0.010060
# 3 0.002914 -0.004358 0.014600 -0.001833 -0.008848 0.012935
# 4 0.001324 -0.001416 -0.001833 0.031432 0.001021 0.008459
# 5 -0.010714 0.008145 -0.008848 0.001021 0.043769 -0.029021
# 6 0.014217 -0.010060 0.012935 0.008459 -0.029021 0.060185
#
#
# Mechanical properties :
#
#
# Convention : Reuss Voigt Hill
#
# Bulk Modulus (GPa) = 30.82960 37.66853 34.24907
# Shear Modulus (GPa) = 24.90955 36.93990 30.92473
#
# Velocity S-wave (km/s) = 3.12649 3.80735 3.48359
# Velocity P-wave (km/s) = 5.01312 5.84035 5.44248
#
# Compressibility (1/GPa) = 0.03243636
#
# Stress axis : x y z
#
# Youngs Moduli (GPa) = 63.53228 76.09064 68.49449
#
# Poissons Ratio (x) = 0.31030 -0.19957
# Poissons Ratio (y) = 0.25909 0.29853
# Poissons Ratio (z) = -0.18511 0.33163
#
# Static dielectric constant tensor:
#      x y z
#    x 1.994140 0.004500 -0.031800 
#    y 0.004500 2.380750 0.111000 
#    z -0.031800 0.111000 2.083550 
# 
# From -- ./inp_files/381452.got.cif
#   From: 2010.05.17/outbox.cif.g08.bks.cpg/sg2_191_cif.got.tgz:381452.got - 2010.06.03 11:33:40.
