data_PCOD9032183
_publ_section_title
;
Structure prediction by ZEFSAII (Michael W. Deem and Ramdas Pophale) SiO2 
 PCOD9032183
Probable space group: P -1
;
_chemical_formula_sum "Si O2"
_cell_formula_units_Z 16
_cell_length_a 9.488861
_cell_length_b 18.726387
_cell_length_c 13.348336
_cell_angle_alpha 147.816399
_cell_angle_beta 143.032765
_cell_angle_gamma 36.501146
_cell_volume 696.806532
_symmetry_space_group_name_H-M "P -1"
_symmetry_group_IT_number 2
_symmetry_cell_setting 'triclinic'
loop_
_space_group_symop_operation_xyz
x,y,z
-x,-y,-z
loop_
_atom_site_type_symbol
_atom_site_label
_atom_site_fract_x
_atom_site_fract_y
_atom_site_fract_z
Si Si1 0.793640 0.807335 0.786836
Si Si2 0.095052 0.947586 0.249014
Si Si3 0.280066 0.749755 0.607628
Si Si4 0.717461 0.054241 0.450481
Si Si5 0.998457 0.559569 0.182005
Si Si6 0.476759 0.164721 0.803963
Si Si7 0.151438 0.418049 0.304528
Si Si8 0.814158 0.280539 0.258726
O O1 0.499458 0.854539 0.644805
O O2 0.939931 0.647355 0.730384
O O3 0.928575 0.810819 0.762682
O O4 0.876827 0.903202 0.025631
O O5 0.258661 0.860113 0.333502
O O6 0.302738 0.932664 0.263329
O O7 0.932523 0.107811 0.391475
O O8 0.239748 0.604268 0.381728
O O9 0.574602 0.713237 0.716488
O O10 0.210979 0.780318 0.720635
O O11 0.619832 0.930849 0.290420
O O12 0.000000 0.000000 0.500000
O O13 0.012123 0.457443 0.164205
O O14 0.759814 0.713882 0.243721
O O15 0.000000 0.500000 0.000000
O O16 0.593412 0.263835 0.048281
O O17 0.186753 0.561353 0.532532
#
# Coordination Sequence:
#
# PCOD9032183 Si02
#       8
#     2   2   2   2   2   2   2   2
#     4  11  26  45  68 100 148 180 221 286 351 414
#     4  11  25  45  69 104 135 185 232 282 344 409
#     4  11  21  40  67  96 133 170 238 279 331 409
#     4  12  26  43  69 104 139 181 225 289 351 402
#     4  11  23  39  67  98 133 177 227 284 329 401
#     4  11  23  44  71 101 136 175 236 286 337 409
#     4  11  24  43  67 101 137 183 224 282 344 410
#     4  10  22  43  70 100 130 187 229 273 348 408
#
# _framework density 22.961897
#
# number of rings (size 3 to 8) (size 9 to 14) (size 15 to 20)
#    0.000    1.000    1.250    6.000    3.500    6.000 
#    2.250    1.250    0.000    0.000    0.000    0.000 
#    0.000    0.000    0.000    0.000    0.000    0.000 
#
# Total GULP energy -89284.376916 kJ/mol
# GULP energy per Si atom -5580.273557 kJ/mol
# Density = 2.290963 g / cm^3
# Si number density = 22.961897 Si / 1000 Ang^3
#
#
#
# Elastic Constant Matrix: (Units=GPa)
#
#
# Indices 1 2 3 4 5 6 
#
# 1 79.7997 8.6480 24.4305 -15.3462 -13.5583 5.6353
# 2 8.6480 76.5507 11.9579 -21.4266 -2.7539 11.6889
# 3 24.4305 11.9579 107.2426 -20.8651 -15.3157 0.8612
# 4 -15.3462 -21.4266 -20.8651 33.5478 2.6070 -1.6527
# 5 -13.5583 -2.7539 -15.3157 2.6070 28.2754 -9.2060
# 6 5.6353 11.6889 0.8612 -1.6527 -9.2060 37.1149
#
#
#
# Elastic Compliance Matrix: (Units=1/GPa)
#
#
# Indices 1 2 3 4 5 6 
#
# 1 0.015077 0.000466 -0.001553 0.005752 0.005663 -0.000739
# 2 0.000466 0.016759 0.000051 0.010758 -0.000756 -0.005058
# 3 -0.001553 0.000051 0.011659 0.006223 0.005522 0.001596
# 4 0.005752 0.010758 0.006223 0.042887 0.002622 -0.001846
# 5 0.005663 -0.000756 0.005522 0.002622 0.044114 0.010309
# 6 -0.000739 -0.005058 0.001596 -0.001846 0.010309 0.031086
#
#
# Mechanical properties :
#
#
# Convention : Reuss Voigt Hill
#
# Bulk Modulus (GPa) = 24.14092 39.29619 31.71855
# Shear Modulus (GPa) = 28.17521 34.35806 31.26664
#
# Velocity S-wave (km/s) = 3.50672 3.87241 3.69409
# Velocity P-wave (km/s) = 5.18964 6.09466 5.66027
#
# Compressibility (1/GPa) = 0.04142344
#
# Stress axis : x y z
#
# Youngs Moduli (GPa) = 66.32722 59.66917 85.76902
#
# Poissons Ratio (x) = -0.02780 0.13318
# Poissons Ratio (y) = -0.03090 -0.00437
# Poissons Ratio (z) = 0.10299 -0.00304
#
# Static dielectric constant tensor:
#      x y z
#    x 1.898270 0.012950 0.015720 
#    y 0.012950 1.910540 -0.025360 
#    z 0.015720 -0.025360 1.899790 
# 
# From -- ./inp_files/403441.got.cif
#   From: 2010.05.17/outbox.cif.g08.bks.cpg/sg2_202_cif.got.tgz:403441.got - 2010.06.03 11:33:40.
