data_PCOD9032339
_publ_section_title
;
Structure prediction by ZEFSAII (Michael W. Deem and Ramdas Pophale) SiO2 
 PCOD9032339
Probable space group: P -1
;
_chemical_formula_sum "Si O2"
_cell_formula_units_Z 16
_cell_length_a 11.573682
_cell_length_b 13.881582
_cell_length_c 7.823532
_cell_angle_alpha 75.292894
_cell_angle_beta 66.985453
_cell_angle_gamma 130.853606
_cell_volume 596.156727
_symmetry_space_group_name_H-M "P -1"
_symmetry_group_IT_number 2
_symmetry_cell_setting 'triclinic'
loop_
_space_group_symop_operation_xyz
x,y,z
-x,-y,-z
loop_
_atom_site_type_symbol
_atom_site_label
_atom_site_fract_x
_atom_site_fract_y
_atom_site_fract_z
Si Si1 0.770782 0.676652 0.565765
Si Si2 0.079429 0.066493 0.119082
Si Si3 0.142521 0.686084 0.513276
Si Si4 0.482846 0.076405 0.280275
Si Si5 0.215508 0.580788 0.908012
Si Si6 0.124448 0.792540 0.124094
Si Si7 0.767292 0.628606 0.983290
Si Si8 0.529805 0.815091 0.121364
O O1 0.800855 0.648615 0.748971
O O2 0.871709 0.673565 0.358617
O O3 0.501898 0.522600 0.763366
O O4 0.916580 0.878293 0.398096
O O5 0.065907 0.172389 0.133124
O O6 0.349136 0.210875 0.934339
O O7 0.000000 0.000000 0.000000
O O8 0.157229 0.748877 0.295849
O O9 0.279324 0.672962 0.416454
O O10 0.876514 0.490665 0.810577
O O11 0.279914 0.856173 0.482865
O O12 0.535191 0.196084 0.337834
O O13 0.728249 0.178014 0.102618
O O14 0.452446 0.120193 0.103634
O O15 0.207362 0.462345 0.904830
O O16 0.000000 0.500000 0.000000
O O17 0.291586 0.000393 0.950759
#
# Coordination Sequence:
#
# PCOD9032339 Si02
#       8
#     2   2   2   2   2   2   2   2
#     4  10  22  43  70  98 132 171 220 270 321 396
#     4  11  25  43  69  99 129 171 217 277 337 382
#     4   9  18  38  60  88 125 156 204 262 312 364
#     4   9  20  37  64  93 122 161 215 260 315 379
#     4  12  27  40  58  93 131 171 213 259 322 385
#     4   8  15  36  65  95 116 154 208 268 303 366
#     4  11  26  43  64  96 134 178 221 260 326 400
#     4   8  18  35  66  94 115 157 215 260 312 378
#
# _framework density 26.838578999999999
#
# number of rings (size 3 to 8) (size 9 to 14) (size 15 to 20)
#    0.000    2.250    1.250    1.875    3.500    9.000 
#    0.000    0.000    0.000    0.000    0.000    0.000 
#    0.000    0.000    0.000    0.000    0.000    0.000 
#
# Total GULP energy -89412.747729 kJ/mol
# GULP energy per Si atom -5588.296733 kJ/mol
# Density = 2.677749 g / cm^3
# Si number density = 26.838579 Si / 1000 Ang^3
#
#
#
# Elastic Constant Matrix: (Units=GPa)
#
#
# Indices 1 2 3 4 5 6 
#
# 1 134.1314 50.7779 16.5022 -12.1438 10.4347 -21.6026
# 2 50.7779 108.1511 25.6511 -29.8622 6.6935 -22.2014
# 3 16.5022 25.6511 80.6499 -17.6169 -10.7336 1.0562
# 4 -12.1438 -29.8622 -17.6169 36.5199 1.1655 12.0451
# 5 10.4347 6.6935 -10.7336 1.1655 27.4618 -4.6917
# 6 -21.6026 -22.2014 1.0562 12.0451 -4.6917 38.2544
#
#
#
# Elastic Compliance Matrix: (Units=1/GPa)
#
#
# Indices 1 2 3 4 5 6 
#
# 1 0.009696 -0.003751 -0.001564 -0.001678 -0.002706 0.003538
# 2 -0.003751 0.014899 -0.002520 0.008657 -0.002959 0.003509
# 3 -0.001564 -0.002520 0.015764 0.006109 0.006442 -0.003914
# 4 -0.001678 0.008657 0.006109 0.039868 -0.002302 -0.008928
# 5 -0.002706 -0.002959 0.006442 -0.002302 0.041181 0.002352
# 6 0.003538 0.003509 -0.003914 -0.008928 0.002352 0.033383
#
#
# Mechanical properties :
#
#
# Convention : Reuss Voigt Hill
#
# Bulk Modulus (GPa) = 40.50361 56.53274 48.51817
# Shear Modulus (GPa) = 27.98124 35.78062 31.88093
#
# Velocity S-wave (km/s) = 3.23240 3.65523 3.45030
# Velocity P-wave (km/s) = 5.39032 6.23891 5.83007
#
# Compressibility (1/GPa) = 0.02468916
#
# Stress axis : x y z
#
# Youngs Moduli (GPa) = 103.13273 67.11836 63.43631
#
# Poissons Ratio (x) = 0.25177 0.09921
# Poissons Ratio (y) = 0.38686 0.15986
# Poissons Ratio (z) = 0.16129 0.16914
#
# Static dielectric constant tensor:
#      x y z
#    x 2.193020 0.010140 0.037200 
#    y 0.010140 2.163900 0.082210 
#    z 0.037200 0.082210 2.153740 
# 
# From -- ./inp_files/272469.got.cif
#   From: 2010.05.17/outbox.cif.g08.bks.cpg/sg2_137_cif.got.tgz:272469.got - 2010.06.03 11:33:40.
