data_PCOD9032510
_publ_section_title
;
Structure prediction by ZEFSAII (Michael W. Deem and Ramdas Pophale) SiO2 
 PCOD9032510
Probable space group: P -1
;
_chemical_formula_sum "Si O2"
_cell_formula_units_Z 12
_cell_length_a 12.368818
_cell_length_b 8.878253
_cell_length_c 9.640578
_cell_angle_alpha 67.961692
_cell_angle_beta 92.262509
_cell_angle_gamma 141.349839
_cell_volume 550.977887
_symmetry_space_group_name_H-M "P -1"
_symmetry_group_IT_number 2
_symmetry_cell_setting 'triclinic'
loop_
_space_group_symop_operation_xyz
x,y,z
-x,-y,-z
loop_
_atom_site_type_symbol
_atom_site_label
_atom_site_fract_x
_atom_site_fract_y
_atom_site_fract_z
Si Si1 0.007740 0.457427 0.176789
Si Si2 0.649847 0.634567 0.288946
Si Si3 0.591160 0.054097 0.840251
Si Si4 0.421031 0.125951 0.635132
Si Si5 0.661786 0.570690 0.007966
Si Si6 0.019609 0.084717 0.317561
O O1 0.193369 0.743840 0.178328
O O2 0.035486 0.298454 0.239368
O O3 0.785968 0.212352 0.293364
O O4 0.000000 0.500000 0.000000
O O5 0.479018 0.302644 0.441468
O O6 0.602437 0.762687 0.283935
O O7 0.733172 0.707158 0.116488
O O8 0.818023 0.789030 0.344288
O O9 0.567525 0.174080 0.688508
O O10 0.446807 0.735934 0.890506
O O11 0.500000 0.000000 0.000000
O O12 0.500000 0.500000 0.000000
O O13 0.810957 0.767304 0.822422
O O14 0.000000 0.000000 0.500000
#
# Coordination Sequence:
#
# PCOD9032510 Si02
#       6
#     2   2   2   2   2   2
#     4  11  22  38  70  98 127 179 233 273 332 414
#     4  10  24  43  70  99 140 174 227 289 339 406
#     4  12  22  42  67  96 138 182 229 278 340 415
#     4  10  22  43  71  98 133 181 232 271 348 410
#     4  12  27  42  66 103 140 173 229 288 343 396
#     4  11  24  43  74 100 132 183 233 275 344 417
#
# _framework density 21.779458999999999
#
# number of rings (size 3 to 8) (size 9 to 14) (size 15 to 20)
#    0.000    1.000    3.333    2.500    9.333    0.667 
#    3.000    0.833    0.000    0.000    0.000    0.000 
#    0.000    0.000    0.000    0.000    0.000    0.000 
#
# Total GULP energy -66966.483104 kJ/mol
# GULP energy per Si atom -5580.540259 kJ/mol
# Density = 2.172989 g / cm^3
# Si number density = 21.779459 Si / 1000 Ang^3
#
#
#
# Elastic Constant Matrix: (Units=GPa)
#
#
# Indices 1 2 3 4 5 6 
#
# 1 75.3247 12.4101 42.2560 11.0095 16.6134 6.9841
# 2 12.4101 40.4521 15.7442 9.0939 -7.5464 27.2013
# 3 42.2560 15.7442 124.2017 12.2559 5.6205 3.1545
# 4 11.0095 9.0939 12.2559 43.0740 3.3646 -0.0193
# 5 16.6134 -7.5464 5.6205 3.3646 30.6388 2.8758
# 6 6.9841 27.2013 3.1545 -0.0193 2.8758 37.5013
#
#
#
# Elastic Compliance Matrix: (Units=1/GPa)
#
#
# Indices 1 2 3 4 5 6 
#
# 1 0.020195 -0.009374 -0.005151 -0.000727 -0.012651 0.004441
# 2 -0.009374 0.075942 -0.005008 -0.014699 0.031515 -0.055341
# 3 -0.005151 -0.005008 0.010426 -0.000540 -0.000647 0.003764
# 4 -0.000727 -0.014699 -0.000540 0.027225 -0.007188 0.011408
# 5 -0.012651 0.031515 -0.000647 -0.007188 0.050451 -0.024321
# 6 0.004441 -0.055341 0.003764 0.011408 -0.024321 0.067534
#
#
# Mechanical properties :
#
#
# Convention : Reuss Voigt Hill
#
# Bulk Modulus (GPa) = 14.81537 42.31101 28.56319
# Shear Modulus (GPa) = 15.95731 33.54736 24.75233
#
# Velocity S-wave (km/s) = 2.70974 3.92895 3.37486
# Velocity P-wave (km/s) = 4.07522 6.32862 5.32254
#
# Compressibility (1/GPa) = 0.06749745
#
# Stress axis : x y z
#
# Youngs Moduli (GPa) = 49.51828 13.16799 95.91714
#
# Poissons Ratio (x) = 0.12343 0.49407
# Poissons Ratio (y) = 0.46417 0.48031
# Poissons Ratio (z) = 0.25507 0.06594
#
# Static dielectric constant tensor:
#      x y z
#    x 1.816980 -0.007070 0.005650 
#    y -0.007070 1.917660 -0.094750 
#    z 0.005650 -0.094750 1.800890 
# 
# From -- ./inp_files/166961.got.cif
#   From: 2010.05.17/outbox.cif.g08.bks.cpg/sg2_84_cif.got.tgz:166961.got - 2010.06.03 11:33:40.
