data_PCOD9032430
_publ_section_title
;
Structure prediction by ZEFSAII (Michael W. Deem and Ramdas Pophale) SiO2 
 PCOD9032430
Probable space group: P -1
;
_chemical_formula_sum "Si O2"
_cell_formula_units_Z 13
_cell_length_a 8.798327
_cell_length_b 9.051161
_cell_length_c 9.050474
_cell_angle_alpha 68.192086
_cell_angle_beta 110.524801
_cell_angle_gamma 119.344982
_cell_volume 570.501568
_symmetry_space_group_name_H-M "P -1"
_symmetry_group_IT_number 2
_symmetry_cell_setting 'triclinic'
loop_
_space_group_symop_operation_xyz
x,y,z
-x,-y,-z
loop_
_atom_site_type_symbol
_atom_site_label
_atom_site_fract_x
_atom_site_fract_y
_atom_site_fract_z
Si Si1 0.000000 0.000000 0.000000
Si Si2 0.482147 0.378635 0.733127
Si Si3 0.624411 0.929876 0.972963
Si Si4 0.191350 0.373666 0.069772
Si Si5 0.923999 0.364746 0.240384
Si Si6 0.394507 0.849601 0.636480
Si Si7 0.730958 0.439114 0.544198
O O1 0.169646 0.948372 0.033391
O O2 0.142049 0.191033 0.040074
O O3 0.617722 0.543776 0.812491
O O4 0.611380 0.334860 0.681544
O O5 0.340211 0.413687 0.571647
O O6 0.381217 0.227162 0.867597
O O7 0.526897 0.867082 0.807507
O O8 0.500000 0.000000 0.000000
O O9 0.045864 0.344717 0.159387
O O10 0.178986 0.523068 0.902332
O O11 0.788300 0.178819 0.329090
O O12 0.065898 0.479588 0.368140
O O13 0.319004 0.678183 0.573198
O O14 0.500000 0.000000 0.500000
#
# Coordination Sequence:
#
# PCOD9032430 Si02
#       7
#     1   2   2   2   2   2   2
#     4  12  28  38  72 116 136 180 256 306 348 434
#     4  10  22  46  69  96 142 193 236 292 375 431
#     4  12  27  47  72 103 150 196 240 303 368 435
#     4  10  22  43  71 104 140 188 251 299 357 444
#     4  10  22  43  72  99 143 196 238 296 374 433
#     4  12  25  40  66 104 142 185 241 299 361 429
#     4  10  23  40  69 103 135 185 243 298 358 440
#
# _framework density 22.786966
#
# number of rings (size 3 to 8) (size 9 to 14) (size 15 to 20)
#    0.000    1.231    1.538    3.231    8.615    2.462 
#    0.000    0.000    0.000    9.231    0.000    0.000 
#    0.000    0.000    0.000    0.000    0.000    0.000 
#
# Total GULP energy -72386.591759 kJ/mol
# GULP energy per Si atom -5568.199366 kJ/mol
# Density = 2.273510 g / cm^3
# Si number density = 22.786966 Si / 1000 Ang^3
#
#
#
# Elastic Constant Matrix: (Units=GPa)
#
#
# Indices 1 2 3 4 5 6 
#
# 1 111.3337 14.1198 40.8667 8.9696 -1.6548 24.6885
# 2 14.1198 36.4514 16.1557 22.6914 -6.4172 -2.3528
# 3 40.8667 16.1557 129.6224 12.8353 -8.0591 19.2687
# 4 8.9696 22.6914 12.8353 33.0785 9.3826 -0.6149
# 5 -1.6548 -6.4172 -8.0591 9.3826 33.4754 5.4956
# 6 24.6885 -2.3528 19.2687 -0.6149 5.4956 38.3920
#
#
#
# Elastic Compliance Matrix: (Units=1/GPa)
#
#
# Indices 1 2 3 4 5 6 
#
# 1 0.011803 -0.004185 -0.002208 0.000324 0.000270 -0.006772
# 2 -0.004185 0.066112 -0.000549 -0.051434 0.026353 0.002422
# 3 -0.002208 -0.000549 0.009731 -0.003990 0.003924 -0.004123
# 4 0.000324 -0.051434 -0.003990 0.076413 -0.032974 0.004586
# 5 0.000270 0.026353 0.003924 -0.032974 0.046388 -0.007696
# 6 -0.006772 0.002422 -0.004123 0.004586 -0.007696 0.033795
#
#
# Mechanical properties :
#
#
# Convention : Reuss Voigt Hill
#
# Bulk Modulus (GPa) = 13.55716 46.63242 30.09479
# Shear Modulus (GPa) = 17.68580 34.74022 26.21301
#
# Velocity S-wave (km/s) = 2.78895 3.90880 3.39536
# Velocity P-wave (km/s) = 4.04146 6.39379 5.34855
#
# Compressibility (1/GPa) = 0.07376175
#
# Stress axis : x y z
#
# Youngs Moduli (GPa) = 84.72582 15.12589 102.76066
#
# Poissons Ratio (x) = 0.06330 0.22692
# Poissons Ratio (y) = 0.35454 0.05644
# Poissons Ratio (z) = 0.18710 0.00831
#
# Static dielectric constant tensor:
#      x y z
#    x 1.928500 -0.027260 -0.056510 
#    y -0.027260 1.858420 -0.017290 
#    z -0.056510 -0.017290 1.834030 
# 
# From -- ./inp_files/152856.got.cif
#   From: 2010.05.17/outbox.cif.g08.bks.cpg/sg2_77_cif.got.tgz:152856.got - 2010.06.03 11:33:40.
