data_PCOD9032118
_publ_section_title
;
Structure prediction by ZEFSAII (Michael W. Deem and Ramdas Pophale) SiO2 
 PCOD9032118
Probable space group: P -1
;
_chemical_formula_sum "Si O2"
_cell_formula_units_Z 16
_cell_length_a 8.969068
_cell_length_b 17.457399
_cell_length_c 11.612852
_cell_angle_alpha 115.961615
_cell_angle_beta 54.282255
_cell_angle_gamma 147.186541
_cell_volume 794.208611
_symmetry_space_group_name_H-M "P -1"
_symmetry_group_IT_number 2
_symmetry_cell_setting 'triclinic'
loop_
_space_group_symop_operation_xyz
x,y,z
-x,-y,-z
loop_
_atom_site_type_symbol
_atom_site_label
_atom_site_fract_x
_atom_site_fract_y
_atom_site_fract_z
Si Si1 0.541154 0.609299 0.599058
Si Si2 0.732688 0.113612 0.572086
Si Si3 0.755266 0.481392 0.079355
Si Si4 0.133283 0.371326 0.076808
Si Si5 0.143341 0.192759 0.041103
Si Si6 0.820015 0.389734 0.400651
Si Si7 0.269400 0.062996 0.495375
Si Si8 0.743422 0.935838 0.229566
O O1 0.500000 0.500000 0.500000
O O2 0.393130 0.553011 0.754507
O O3 0.364388 0.610570 0.596149
O O4 0.909770 0.758542 0.535858
O O5 0.607295 0.160304 0.691672
O O6 0.500000 0.000000 0.500000
O O7 0.679703 0.015757 0.618422
O O8 0.475352 0.339968 0.038177
O O9 0.919617 0.617787 0.023111
O O10 0.000000 0.500000 0.000000
O O11 0.012243 0.232938 0.076238
O O12 0.026649 0.406585 0.235071
O O13 0.500000 0.500000 0.000000
O O14 0.193704 0.135754 0.889664
O O15 0.941122 0.075506 0.156317
O O16 0.570119 0.231731 0.460197
O O17 0.000000 0.500000 0.500000
O O18 0.175519 0.029817 0.650019
O O19 0.000000 0.000000 0.500000
#
# Coordination Sequence:
#
# PCOD9032118 Si02
#       8
#     2   2   2   2   2   2   2   2
#     4  12  28  42  68 107 139 176 236 285 344 414
#     4  10  22  43  69  97 135 183 225 279 349 401
#     4  11  23  42  67  93 140 179 221 281 348 407
#     4  10  24  43  69  95 135 180 230 277 346 401
#     4  10  23  43  67  98 132 180 234 272 346 409
#     4  12  28  44  69 102 140 182 230 289 339 414
#     4  11  23  42  69  98 141 177 232 283 348 404
#     4  10  23  41  71  96 134 181 230 282 334 421
#
# _framework density 20.145841000000001
#
# number of rings (size 3 to 8) (size 9 to 14) (size 15 to 20)
#    0.000    1.250    2.500    2.250   12.250    0.000 
#    0.000    0.000    0.000    3.750    0.000    0.000 
#    0.000    0.000    0.000    0.000    0.000    0.000 
#
# Total GULP energy -89249.751157 kJ/mol
# GULP energy per Si atom -5578.109447 kJ/mol
# Density = 2.009999 g / cm^3
# Si number density = 20.145841 Si / 1000 Ang^3
#
#
#
# Elastic Constant Matrix: (Units=GPa)
#
#
# Indices 1 2 3 4 5 6 
#
# 1 165.4216 49.1542 78.4167 -0.6337 -8.7437 -13.3114
# 2 49.1542 99.3423 72.8160 -2.0035 0.6253 -7.8919
# 3 78.4167 72.8160 139.6630 -8.7012 -8.2570 -11.2180
# 4 -0.6337 -2.0035 -8.7012 21.2905 -2.5936 -5.9648
# 5 -8.7437 0.6253 -8.2570 -2.5936 37.6355 -3.1741
# 6 -13.3114 -7.8919 -11.2180 -5.9648 -3.1741 36.9420
#
#
#
# Elastic Compliance Matrix: (Units=1/GPa)
#
#
# Indices 1 2 3 4 5 6 
#
# 1 0.008477 -0.001147 -0.004027 -0.000928 0.001171 0.001537
# 2 -0.001147 0.016741 -0.008364 -0.002169 -0.002524 0.000056
# 3 -0.004027 -0.008364 0.014533 0.006076 0.003014 0.002415
# 4 -0.000928 -0.002169 0.006076 0.052721 0.005634 0.010044
# 5 0.001171 -0.002524 0.003014 0.005634 0.028283 0.004138
# 6 0.001537 0.000056 0.002415 0.010044 0.004138 0.030346
#
#
# Mechanical properties :
#
#
# Convention : Reuss Voigt Hill
#
# Bulk Modulus (GPa) = 78.89523 89.46673 84.18098
# Shear Modulus (GPa) = 27.41204 32.77626 30.09415
#
# Velocity S-wave (km/s) = 3.69274 4.03792 3.86918
# Velocity P-wave (km/s) = 7.57818 8.13915 7.86367
#
# Compressibility (1/GPa) = 0.01267504
#
# Stress axis : x y z
#
# Youngs Moduli (GPa) = 117.96946 59.73330 68.81064
#
# Poissons Ratio (x) = 0.06850 0.27708
# Poissons Ratio (y) = 0.13528 0.57555
# Poissons Ratio (z) = 0.47503 0.49963
#
# Static dielectric constant tensor:
#      x y z
#    x 1.776920 -0.022200 -0.057870 
#    y -0.022200 1.732620 -0.028910 
#    z -0.057870 -0.028910 1.754580 
# 
# From -- ./inp_files/403148.got.cif
#   From: 2010.05.17/outbox.cif.g08.bks.cpg/sg2_202_cif.got.tgz:403148.got - 2010.06.03 11:33:40.
