data_PCOD9032163
_publ_section_title
;
Structure prediction by ZEFSAII (Michael W. Deem and Ramdas Pophale) SiO2 
 PCOD9032163
Probable space group: P -1
;
_chemical_formula_sum "Si O2"
_cell_formula_units_Z 14
_cell_length_a 9.344354
_cell_length_b 12.586510
_cell_length_c 16.197846
_cell_angle_alpha 30.901060
_cell_angle_beta 136.655973
_cell_angle_gamma 125.618460
_cell_volume 666.827069
_symmetry_space_group_name_H-M "P -1"
_symmetry_group_IT_number 2
_symmetry_cell_setting 'triclinic'
loop_
_space_group_symop_operation_xyz
x,y,z
-x,-y,-z
loop_
_atom_site_type_symbol
_atom_site_label
_atom_site_fract_x
_atom_site_fract_y
_atom_site_fract_z
Si Si1 0.047320 0.455667 0.644859
Si Si2 0.155244 0.756012 0.871220
Si Si3 0.804314 0.119200 0.534233
Si Si4 0.484002 0.965331 0.379123
Si Si5 0.596954 0.900093 0.922693
Si Si6 0.287324 0.653696 0.297230
Si Si7 0.823956 0.573162 0.757231
O O1 0.088445 0.671007 0.561758
O O2 0.000000 0.500000 0.500000
O O3 0.857448 0.362778 0.672838
O O4 0.252713 0.292284 0.850411
O O5 0.357182 0.865823 0.861191
O O6 0.041155 0.667280 0.803461
O O7 0.213514 0.566205 0.085413
O O8 0.978055 0.921253 0.727712
O O9 0.632088 0.104433 0.400094
O O10 0.683740 0.102663 0.581102
O O11 0.378921 0.079126 0.179673
O O12 0.637660 0.763178 0.547595
O O13 0.656682 0.113142 0.844876
O O14 0.500000 0.500000 0.500000
O O15 0.173113 0.570542 0.225458
#
# Coordination Sequence:
#
# PCOD9032163 Si02
#       7
#     2   2   2   2   2   2   2
#     4  12  29  46  65  97 139 178 225 277 337 397
#     4  10  24  43  72 101 133 177 221 279 323 402
#     4  10  23  43  68  98 134 182 217 273 333 393
#     4  10  22  43  69  99 137 171 224 276 331 393
#     4  12  26  44  70  99 133 177 225 281 331 396
#     4  12  26  45  71  98 132 180 221 277 337 399
#     4  10  23  44  70 100 139 170 225 271 339 389
#
# _framework density 20.994949999999999
#
# number of rings (size 3 to 8) (size 9 to 14) (size 15 to 20)
#    0.000    1.143    1.429    3.000    8.000    3.429 
#    0.000    0.000    0.000    0.000    0.000    0.000 
#    0.000    0.000    0.000    0.000    0.000    0.000 
#
# Total GULP energy -78382.541583 kJ/mol
# GULP energy per Si atom -5598.752970 kJ/mol
# Density = 2.094716 g / cm^3
# Si number density = 20.994950 Si / 1000 Ang^3
#
#
#
# Elastic Constant Matrix: (Units=GPa)
#
#
# Indices 1 2 3 4 5 6 
#
# 1 78.6645 46.6180 -0.9333 14.0250 -2.6826 13.4073
# 2 46.6180 133.3487 43.3344 -5.4735 -11.8156 5.0414
# 3 -0.9333 43.3344 93.7271 14.3937 -3.7589 -4.1931
# 4 14.0250 -5.4735 14.3937 32.0271 2.3270 -12.0221
# 5 -2.6826 -11.8156 -3.7589 2.3270 19.9008 1.4401
# 6 13.4073 5.0414 -4.1931 -12.0221 1.4401 35.1540
#
#
#
# Elastic Compliance Matrix: (Units=1/GPa)
#
#
# Indices 1 2 3 4 5 6 
#
# 1 0.027823 -0.013053 0.009485 -0.024894 0.001876 -0.016198
# 2 -0.013053 0.015746 -0.009235 0.014735 0.003651 0.006508
# 3 0.009485 -0.009235 0.017244 -0.015700 0.001298 -0.005659
# 4 -0.024894 0.014735 -0.015700 0.062376 -0.006829 0.027120
# 5 0.001876 0.003651 0.001298 -0.006829 0.054121 -0.005637
# 6 -0.016198 0.006508 -0.005659 0.027120 -0.005637 0.042521
#
#
# Mechanical properties :
#
#
# Convention : Reuss Voigt Hill
#
# Bulk Modulus (GPa) = 28.40288 53.75317 41.07802
# Shear Modulus (GPa) = 19.44231 31.86445 25.65338
#
# Velocity S-wave (km/s) = 3.04640 3.90002 3.49934
# Velocity P-wave (km/s) = 5.09234 6.77781 5.99460
#
# Compressibility (1/GPa) = 0.03520770
#
# Stress axis : x y z
#
# Youngs Moduli (GPa) = 35.94134 63.50941 57.99262
#
# Poissons Ratio (x) = 0.82896 -0.55009
# Poissons Ratio (y) = 0.46913 0.53558
# Poissons Ratio (z) = -0.34092 0.58652
#
# Static dielectric constant tensor:
#      x y z
#    x 1.718090 0.001890 -0.003410 
#    y 0.001890 1.763800 0.012270 
#    z -0.003410 0.012270 1.716150 
# 
# From -- ./inp_files/189592.got.cif
#   From: 2010.05.17/outbox.cif.g08.bks.cpg/sg2_95_cif.got.tgz:189592.got - 2010.06.03 11:33:40.
