data_PCOD9032761
_publ_section_title
;
Structure prediction by ZEFSAII (Michael W. Deem and Ramdas Pophale) SiO2 
 PCOD9032761
Probable space group: P -1
;
_chemical_formula_sum "Si O2"
_cell_formula_units_Z 14
_cell_length_a 8.595579
_cell_length_b 7.902618
_cell_length_c 8.745411
_cell_angle_alpha 82.408741
_cell_angle_beta 74.556789
_cell_angle_gamma 84.942624
_cell_volume 566.714532
_symmetry_space_group_name_H-M "P -1"
_symmetry_group_IT_number 2
_symmetry_cell_setting 'triclinic'
loop_
_space_group_symop_operation_xyz
x,y,z
-x,-y,-z
loop_
_atom_site_type_symbol
_atom_site_label
_atom_site_fract_x
_atom_site_fract_y
_atom_site_fract_z
Si Si1 0.368054 0.784051 0.908918
Si Si2 0.009591 0.185054 0.544098
Si Si3 0.331014 0.708677 0.261506
Si Si4 0.178184 0.455432 0.891758
Si Si5 0.693485 0.693179 0.699213
Si Si6 0.140444 0.087517 0.861778
Si Si7 0.389688 0.351421 0.597009
O O1 0.295608 0.599001 0.906663
O O2 0.560851 0.779867 0.835473
O O3 0.277654 0.936837 0.821056
O O4 0.322059 0.810307 0.094301
O O5 0.117433 0.281331 0.379070
O O6 0.076908 0.158985 0.704726
O O7 0.827405 0.259612 0.600149
O O8 0.000000 0.000000 0.500000
O O9 0.331039 0.507035 0.247657
O O10 0.496995 0.745557 0.297811
O O11 0.193425 0.248072 0.932139
O O12 0.231172 0.448480 0.700083
O O13 0.000000 0.500000 0.000000
O O14 0.636099 0.750757 0.537170
O O15 0.000000 0.000000 0.000000
O O16 0.500000 0.500000 0.500000
#
# Coordination Sequence:
#
# PCOD9032761 Si02
#       7
#     2   2   2   2   2   2   2
#     4  12  26  48  77 108 149 195 244 301 370 436
#     4  12  28  48  72 108 150 191 243 310 367 424
#     4  11  24  48  73 108 146 184 251 297 359 451
#     4  12  23  43  78 104 142 198 241 292 365 432
#     4  11  25  48  75 105 145 193 243 303 371 427
#     4  12  26  48  71 111 148 191 250 296 360 447
#     4  10  22  43  74 106 142 186 246 299 362 437
#
# _framework density 24.703797999999999
#
# number of rings (size 3 to 8) (size 9 to 14) (size 15 to 20)
#    0.000    0.571    7.143    0.857    2.000    2.857 
#    2.571    1.429    0.000    0.000    0.000    0.000 
#    0.000    0.000    0.000    0.000    0.000    0.000 
#
# Total GULP energy -78089.214231 kJ/mol
# GULP energy per Si atom -5577.801016 kJ/mol
# Density = 2.464757 g / cm^3
# Si number density = 24.703798 Si / 1000 Ang^3
#
#
#
# Elastic Constant Matrix: (Units=GPa)
#
#
# Indices 1 2 3 4 5 6 
#
# 1 78.1014 32.7358 57.1453 8.8355 -29.7501 -11.9576
# 2 32.7358 91.0147 17.8097 11.1519 -9.8153 -0.6734
# 3 57.1453 17.8097 111.4208 -5.3158 -53.2302 1.2647
# 4 8.8355 11.1519 -5.3158 37.0648 -3.6023 -10.6897
# 5 -29.7501 -9.8153 -53.2302 -3.6023 67.8070 4.7497
# 6 -11.9576 -0.6734 1.2647 -10.6897 4.7497 35.2585
#
#
#
# Elastic Compliance Matrix: (Units=1/GPa)
#
#
# Indices 1 2 3 4 5 6 
#
# 1 0.026703 -0.006537 -0.013059 -0.003919 -0.000268 0.008248
# 2 -0.006537 0.013499 0.001050 -0.003213 -0.000053 -0.002964
# 3 -0.013059 0.001050 0.021565 0.005584 0.012006 -0.005107
# 4 -0.003919 -0.003213 0.005584 0.032238 0.003370 0.007729
# 5 -0.000268 -0.000053 0.012006 0.003370 0.024422 -0.002791
# 6 0.008248 -0.002964 -0.005107 0.007729 -0.002791 0.034005
#
#
# Mechanical properties :
#
#
# Convention : Reuss Voigt Hill
#
# Bulk Modulus (GPa) = 40.52691 55.10207 47.81449
# Shear Modulus (GPa) = 25.28476 39.54913 32.41695
#
# Velocity S-wave (km/s) = 3.20272 4.00551 3.62639
# Velocity P-wave (km/s) = 5.48792 6.61405 6.07713
#
# Compressibility (1/GPa) = 0.02467496
#
# Stress axis : x y z
#
# Youngs Moduli (GPa) = 37.44936 74.08032 46.37185
#
# Poissons Ratio (x) = 0.48424 0.60557
# Poissons Ratio (y) = 0.24479 -0.04869
# Poissons Ratio (z) = 0.48905 -0.07778
#
# Static dielectric constant tensor:
#      x y z
#    x 2.298270 -0.201370 -0.114320 
#    y -0.201370 2.168000 0.150000 
#    z -0.114320 0.150000 1.988150 
# 
# From -- ./inp_files/158376.got.cif
#   From: 2010.05.17/outbox.cif.g08.bks.cpg/sg2_80_cif.got.tgz:158376.got - 2010.06.03 11:33:40.
