data_PCOD9032690
_publ_section_title
;
Structure prediction by ZEFSAII (Michael W. Deem and Ramdas Pophale) SiO2 
 PCOD9032690
Probable space group: P -1
;
_chemical_formula_sum "Si O2"
_cell_formula_units_Z 14
_cell_length_a 11.289031
_cell_length_b 17.103553
_cell_length_c 9.292517
_cell_angle_alpha 149.972311
_cell_angle_beta 54.590065
_cell_angle_gamma 134.886671
_cell_volume 633.612616
_symmetry_space_group_name_H-M "P -1"
_symmetry_group_IT_number 2
_symmetry_cell_setting 'triclinic'
loop_
_space_group_symop_operation_xyz
x,y,z
-x,-y,-z
loop_
_atom_site_type_symbol
_atom_site_label
_atom_site_fract_x
_atom_site_fract_y
_atom_site_fract_z
Si Si1 0.128292 0.960400 0.428885
Si Si2 0.231182 0.674847 0.311505
Si Si3 0.472689 0.304534 0.676896
Si Si4 0.501112 0.169470 0.847197
Si Si5 0.455654 0.814778 0.822546
Si Si6 0.083023 0.606503 0.758650
Si Si7 0.136436 0.973671 0.774269
O O1 0.079328 0.907074 0.544850
O O2 0.308736 0.139803 0.598035
O O3 0.132757 0.811728 0.086499
O O4 0.000000 0.000000 0.500000
O O5 0.364691 0.700905 0.384285
O O6 0.330500 0.672637 0.094026
O O7 0.181006 0.830849 0.588388
O O8 0.054067 0.501268 0.194512
O O9 0.443165 0.258730 0.455716
O O10 0.500000 0.500000 0.000000
O O11 0.500000 0.000000 0.500000
O O12 0.321363 0.154269 0.925392
O O13 0.511547 0.147239 0.973135
O O14 0.269149 0.639677 0.674987
O O15 0.500000 0.000000 0.000000
O O16 0.000000 0.500000 0.500000
O O17 0.000000 0.000000 0.000000
#
# Coordination Sequence:
#
# PCOD9032690 Si02
#       7
#     2   2   2   2   2   2   2
#     4  12  28  46  74 109 151 199 254 307 385 449
#     4  11  24  49  75 104 157 197 252 308 380 444
#     4  12  26  48  76 110 153 200 253 314 375 456
#     4  10  22  43  73 104 145 195 244 308 372 440
#     4  12  24  43  76 108 141 199 253 302 379 449
#     4  12  26  43  74 112 147 196 252 314 368 446
#     4  11  26  44  76 113 150 196 251 320 378 443
#
# _framework density 22.095521000000002
#
# number of rings (size 3 to 8) (size 9 to 14) (size 15 to 20)
#    0.000    0.571    4.286    4.286    4.000    2.286 
#    0.000    0.714    0.000    0.000    0.000    0.000 
#    0.000    0.000    0.000    0.000    0.000    0.000 
#
# Total GULP energy -78047.971286 kJ/mol
# GULP energy per Si atom -5574.855092 kJ/mol
# Density = 2.204523 g / cm^3
# Si number density = 22.095521 Si / 1000 Ang^3
#
#
#
# Elastic Constant Matrix: (Units=GPa)
#
#
# Indices 1 2 3 4 5 6 
#
# 1 107.6760 40.8519 33.3986 -10.8707 10.0568 2.9572
# 2 40.8519 161.3869 47.1690 -14.6891 7.7700 17.8631
# 3 33.3986 47.1690 138.9074 -16.8151 14.9375 -13.3897
# 4 -10.8707 -14.6891 -16.8151 49.0910 -3.9171 8.8126
# 5 10.0568 7.7700 14.9375 -3.9171 42.2370 -12.9264
# 6 2.9572 17.8631 -13.3897 8.8126 -12.9264 36.4889
#
#
#
# Elastic Compliance Matrix: (Units=1/GPa)
#
#
# Indices 1 2 3 4 5 6 
#
# 1 0.010910 -0.001829 -0.001778 0.001403 -0.002021 -0.001696
# 2 -0.001829 0.008351 -0.002516 0.002169 -0.001860 -0.006046
# 3 -0.001778 -0.002516 0.009122 0.001165 -0.000978 0.004095
# 4 0.001403 0.002169 0.001165 0.022836 -0.001059 -0.006638
# 5 -0.002021 -0.001860 -0.000978 -0.001059 0.028090 0.010922
# 6 -0.001696 -0.006046 0.004095 -0.006638 0.010922 0.037478
#
#
# Mechanical properties :
#
#
# Convention : Reuss Voigt Hill
#
# Bulk Modulus (GPa) = 61.97588 72.31213 67.14400
# Shear Modulus (GPa) = 37.19910 44.66678 40.93294
#
# Velocity S-wave (km/s) = 4.10757 4.50102 4.30879
# Velocity P-wave (km/s) = 7.11380 7.73372 7.43023
#
# Compressibility (1/GPa) = 0.01613531
#
# Stress axis : x y z
#
# Youngs Moduli (GPa) = 91.66212 119.74849 109.62530
#
# Poissons Ratio (x) = 0.21903 0.19495
# Poissons Ratio (y) = 0.16766 0.27583
# Poissons Ratio (z) = 0.16301 0.30130
#
# Static dielectric constant tensor:
#      x y z
#    x 1.854290 -0.064500 0.040870 
#    y -0.064500 1.378930 0.132090 
#    z 0.040870 0.132090 1.814890 
# 
# From -- ./inp_files/280226.got.cif
#   From: 2010.05.17/outbox.cif.g08.bks.cpg/sg2_141_cif.got.tgz:280226.got - 2010.06.03 11:33:40.
