data_PCOD9032008
_publ_section_title
;
Structure prediction by ZEFSAII (Michael W. Deem and Ramdas Pophale) SiO2 
 PCOD9032008
Probable space group: P -1
;
_chemical_formula_sum "Si O2"
_cell_formula_units_Z 14
_cell_length_a 9.123950
_cell_length_b 12.015676
_cell_length_c 5.281402
_cell_angle_alpha 79.966353
_cell_angle_beta 107.206474
_cell_angle_gamma 82.997998
_cell_volume 535.291304
_symmetry_space_group_name_H-M "P -1"
_symmetry_group_IT_number 2
_symmetry_cell_setting 'triclinic'
loop_
_space_group_symop_operation_xyz
x,y,z
-x,-y,-z
loop_
_atom_site_type_symbol
_atom_site_label
_atom_site_fract_x
_atom_site_fract_y
_atom_site_fract_z
Si Si1 0.652668 0.185102 0.539885
Si Si2 0.325735 0.625799 0.876227
Si Si3 0.107436 0.708889 0.099452
Si Si4 0.819157 0.521013 0.473498
Si Si5 0.821609 0.979459 0.410487
Si Si6 0.222216 0.161638 0.053918
Si Si7 0.576569 0.727296 0.234253
O O1 0.611477 0.312114 0.351564
O O2 0.809758 0.193128 0.775413
O O3 0.513981 0.174969 0.664126
O O4 0.700787 0.094405 0.379202
O O5 0.283297 0.507793 0.808633
O O6 0.156515 0.701464 0.834674
O O7 0.447030 0.648030 0.141879
O O8 0.180727 0.580422 0.283050
O O9 0.928597 0.736994 0.065281
O O10 0.730574 0.646426 0.460806
O O11 0.000000 0.500000 0.500000
O O12 0.794207 0.928397 0.143162
O O13 0.790837 0.895749 0.658110
O O14 0.000000 0.000000 0.500000
O O15 0.367558 0.215871 0.012067
#
# Coordination Sequence:
#
# PCOD9032008 Si02
#       7
#     2   2   2   2   2   2   2
#     4  10  24  44  71  97 147 186 243 297 370 436
#     4  10  24  44  70 101 145 194 238 300 372 439
#     4  10  22  43  69 104 137 189 245 300 358 441
#     4  11  23  44  71 104 142 189 250 298 369 436
#     4  12  26  46  78 108 146 196 250 305 368 436
#     4  12  27  44  75 112 146 191 252 305 368 434
#     4  11  26  45  68 106 149 188 239 308 371 440
#
# _framework density 26.153983
#
# number of rings (size 3 to 8) (size 9 to 14) (size 15 to 20)
#    0.000    1.143    2.857    1.714    8.000    8.000 
#    0.000    0.000    0.000    0.000    0.000    0.000 
#    0.000    0.000    0.000    0.000    0.000    0.000 
#
# Total GULP energy -78286.270758 kJ/mol
# GULP energy per Si atom -5591.876483 kJ/mol
# Density = 2.609446 g / cm^3
# Si number density = 26.153983 Si / 1000 Ang^3
#
#
#
# Elastic Constant Matrix: (Units=GPa)
#
#
# Indices 1 2 3 4 5 6 
#
# 1 198.6782 43.5462 30.2737 3.1654 -19.6488 -6.5965
# 2 43.5462 77.9505 17.8419 3.3063 1.5586 -9.5506
# 3 30.2737 17.8419 63.8987 2.4639 -18.9071 0.7847
# 4 3.1654 3.3063 2.4639 41.7727 4.3112 -2.3090
# 5 -19.6488 1.5586 -18.9071 4.3112 40.2035 4.5350
# 6 -6.5965 -9.5506 0.7847 -2.3090 4.5350 49.0254
#
#
#
# Elastic Compliance Matrix: (Units=1/GPa)
#
#
# Indices 1 2 3 4 5 6 
#
# 1 0.006191 -0.003212 -0.001247 -0.000413 0.002612 -0.000034
# 2 -0.003212 0.016112 -0.004372 -0.000123 -0.004598 0.003196
# 3 -0.001247 -0.004372 0.020410 -0.001885 0.009623 -0.002325
# 4 -0.000413 -0.000123 -0.001885 0.024573 -0.003884 0.001467
# 5 0.002612 -0.004598 0.009623 -0.003884 0.031700 -0.003814
# 6 -0.000034 0.003196 -0.002325 0.001467 -0.003814 0.021475
#
#
# Mechanical properties :
#
#
# Convention : Reuss Voigt Hill
#
# Bulk Modulus (GPa) = 39.91876 58.20565 49.06221
# Shear Modulus (GPa) = 34.13549 42.79135 38.46342
#
# Velocity S-wave (km/s) = 3.61664 4.04930 3.83907
# Velocity P-wave (km/s) = 5.72156 6.64573 6.20088
#
# Compressibility (1/GPa) = 0.02505088
#
# Stress axis : x y z
#
# Youngs Moduli (GPa) = 161.52321 62.06367 48.99542
#
# Poissons Ratio (x) = 0.19935 0.06111
# Poissons Ratio (y) = 0.51881 0.21422
# Poissons Ratio (z) = 0.20145 0.27136
#
# Static dielectric constant tensor:
#      x y z
#    x 2.022960 -0.002130 0.015750 
#    y -0.002130 2.125200 -0.006430 
#    z 0.015750 -0.006430 2.157280 
# 
# From -- ./inp_files/27191.got.cif
#   From: 2010.05.17/outbox.cif.g08.bks.cpg/sg2_14_cif.got.tgz:27191.got - 2010.06.03 11:33:40.
