data_PCOD9032090
_publ_section_title
;
Structure prediction by ZEFSAII (Michael W. Deem and Ramdas Pophale) SiO2 
 PCOD9032090
Probable space group: P -1
;
_chemical_formula_sum "Si O2"
_cell_formula_units_Z 13
_cell_length_a 8.359239
_cell_length_b 21.013320
_cell_length_c 15.191681
_cell_angle_alpha 20.661090
_cell_angle_beta 54.760276
_cell_angle_gamma 44.434783
_cell_volume 612.687668
_symmetry_space_group_name_H-M "P -1"
_symmetry_group_IT_number 2
_symmetry_cell_setting 'triclinic'
loop_
_space_group_symop_operation_xyz
x,y,z
-x,-y,-z
loop_
_atom_site_type_symbol
_atom_site_label
_atom_site_fract_x
_atom_site_fract_y
_atom_site_fract_z
Si Si1 0.862995 0.522369 0.214183
Si Si2 0.000000 0.500000 0.000000
Si Si3 0.108080 0.854391 0.565319
Si Si4 0.444278 0.125536 0.999344
Si Si5 0.963567 0.198423 0.007081
Si Si6 0.652835 0.639271 0.627168
Si Si7 0.863843 0.112127 0.807670
O O1 0.643231 0.749543 0.039575
O O2 0.853310 0.324891 0.508859
O O3 0.119746 0.465531 0.242232
O O4 0.867409 0.518923 0.112209
O O5 0.038433 0.687214 0.784302
O O6 0.402000 0.717878 0.650954
O O7 0.000000 0.000000 0.500000
O O8 0.006634 0.033686 0.285753
O O9 0.594250 0.180129 0.821510
O O10 0.194993 0.204974 0.927934
O O11 0.603346 0.858431 0.313204
O O12 0.726098 0.448540 0.779311
O O13 0.981673 0.079855 0.065806
O O14 0.000000 0.000000 0.000000
#
# Coordination Sequence:
#
# PCOD9032090 Si02
#       7
#     2   1   2   2   2   2   2
#     4  11  24  45  67 102 136 181 229 285 344 405
#     4  12  24  44  74  96 138 180 232 282 348 412
#     4  11  24  46  70 100 137 185 229 286 349 406
#     4  10  22  43  69  95 137 183 223 280 347 404
#     4  10  23  43  66  97 135 177 229 278 345 407
#     4  10  22  45  68  98 135 173 232 280 343 412
#     4  12  23  43  67 102 139 177 228 283 339 408
#
# _framework density 21.217987999999998
#
# number of rings (size 3 to 8) (size 9 to 14) (size 15 to 20)
#    0.000    1.231    3.077    3.692    0.000    4.308 
#    8.308    3.846    0.000    0.000    0.000    0.000 
#    0.000    0.000    0.000    0.000    0.000    0.000 
#
# Total GULP energy -72459.978799 kJ/mol
# GULP energy per Si atom -5573.844523 kJ/mol
# Density = 2.116969 g / cm^3
# Si number density = 21.217988 Si / 1000 Ang^3
#
#
#
# Elastic Constant Matrix: (Units=GPa)
#
#
# Indices 1 2 3 4 5 6 
#
# 1 58.4543 57.6354 44.5476 -1.5376 -30.5431 14.8516
# 2 57.6354 151.3075 80.2233 -7.3565 -8.5682 26.4870
# 3 44.5476 80.2233 103.1136 -0.1266 -34.0514 -3.3977
# 4 -1.5376 -7.3565 -0.1266 42.8587 -3.4103 -10.6241
# 5 -30.5431 -8.5682 -34.0514 -3.4103 33.5683 2.3476
# 6 14.8516 26.4870 -3.3977 -10.6241 2.3476 47.9777
#
#
#
# Elastic Compliance Matrix: (Units=1/GPa)
#
#
# Indices 1 2 3 4 5 6 
#
# 1 0.095295 -0.042123 0.025070 0.002169 0.102235 -0.008991
# 2 -0.042123 0.035903 -0.029302 -0.001675 -0.058612 -0.006360
# 3 0.025070 -0.029302 0.040468 0.002713 0.056018 0.009142
# 4 0.002169 -0.001675 0.002713 0.025051 0.006445 0.005678
# 5 0.102235 -0.058612 0.056018 0.006445 0.165470 -0.001992
# 6 -0.008991 -0.006360 0.009142 0.005678 -0.001992 0.029139
#
#
# Mechanical properties :
#
#
# Convention : Reuss Voigt Hill
#
# Bulk Modulus (GPa) = 12.66519 75.29866 43.98193
# Shear Modulus (GPa) = 9.79711 33.57889 21.68800
#
# Velocity S-wave (km/s) = 2.15114 3.98246 3.20058
# Velocity P-wave (km/s) = 3.48596 7.53073 5.86787
#
# Compressibility (1/GPa) = 0.07895656
#
# Stress axis : x y z
#
# Youngs Moduli (GPa) = 10.49369 27.85288 24.71107
#
# Poissons Ratio (x) = 1.17324 -0.61950
# Poissons Ratio (y) = 0.44202 0.72408
# Poissons Ratio (z) = -0.26308 0.81614
#
# Static dielectric constant tensor:
#      x y z
#    x 1.815310 -0.024110 0.013700 
#    y -0.024110 1.771870 -0.020550 
#    z 0.013700 -0.020550 1.744670 
# 
# From -- ./inp_files/19341.got.cif
#   From: 2010.05.17/outbox.cif.g08.bks.cpg/sg2_10_cif.got.tgz:19341.got - 2010.06.03 11:33:40.
