data_PCOD9032512
_publ_section_title
;
Structure prediction by ZEFSAII (Michael W. Deem and Ramdas Pophale) SiO2 
 PCOD9032512
Probable space group: P -1
;
_chemical_formula_sum "Si O2"
_cell_formula_units_Z 14
_cell_length_a 18.397747
_cell_length_b 14.690886
_cell_length_c 7.335593
_cell_angle_alpha 50.874527
_cell_angle_beta 52.480546
_cell_angle_gamma 22.168499
_cell_volume 578.303371
_symmetry_space_group_name_H-M "P -1"
_symmetry_group_IT_number 2
_symmetry_cell_setting 'triclinic'
loop_
_space_group_symop_operation_xyz
x,y,z
-x,-y,-z
loop_
_atom_site_type_symbol
_atom_site_label
_atom_site_fract_x
_atom_site_fract_y
_atom_site_fract_z
Si Si1 0.750682 0.921776 0.632765
Si Si2 0.352695 0.694148 0.318480
Si Si3 0.575552 0.640117 0.876132
Si Si4 0.688016 0.864957 0.423145
Si Si5 0.950791 0.755815 0.879318
Si Si6 0.327298 0.463286 0.562016
Si Si7 0.058094 0.633889 0.276877
O O1 0.865403 0.767160 0.838750
O O2 0.883244 0.866378 0.385676
O O3 0.714108 0.868535 0.594072
O O4 0.537387 0.205143 0.656959
O O5 0.500000 0.500000 0.500000
O O6 0.268131 0.664636 0.427071
O O7 0.181602 0.977500 0.265820
O O8 0.494546 0.602074 0.078203
O O9 0.390526 0.932348 0.822756
O O10 0.631999 0.595605 0.638371
O O11 0.771897 0.463305 0.896579
O O12 0.500000 0.000000 0.500000
O O13 0.853834 0.581944 0.491391
O O14 0.166378 0.552898 0.751687
O O15 0.973543 0.692694 0.135581
#
# Coordination Sequence:
#
# PCOD9032512 Si02
#       7
#     2   2   2   2   2   2   2
#     4  11  23  44  69  98 140 175 226 278 331 402
#     4  12  24  43  67  99 138 178 226 281 337 397
#     4  10  22  43  71  98 135 182 227 278 335 402
#     4   9  21  43  72  99 134 178 226 272 339 403
#     4  12  25  43  70 102 138 176 228 277 336 402
#     4  11  23  45  67  98 140 178 228 279 332 403
#     4  11  23  44  70 101 136 181 223 279 339 398
#
# _framework density 24.208746999999999
#
# number of rings (size 3 to 8) (size 9 to 14) (size 15 to 20)
#    0.000    1.143    2.857    3.857    0.000    0.571 
#    0.000    5.000    0.000    0.000    0.000    0.000 
#    0.000    0.000    0.000    0.000    0.000    0.000 
#
# Total GULP energy -78132.012457 kJ/mol
# GULP energy per Si atom -5580.858033 kJ/mol
# Density = 2.415365 g / cm^3
# Si number density = 24.208747 Si / 1000 Ang^3
#
#
#
# Elastic Constant Matrix: (Units=GPa)
#
#
# Indices 1 2 3 4 5 6 
#
# 1 100.5756 13.0072 -0.8569 -5.3062 11.2449 -23.9707
# 2 13.0072 129.0238 17.7992 4.0410 4.8218 -20.5357
# 3 -0.8569 17.7992 58.2180 -1.7858 19.1583 -0.5835
# 4 -5.3062 4.0410 -1.7858 35.0637 1.6813 -4.0545
# 5 11.2449 4.8218 19.1583 1.6813 45.5351 -1.6432
# 6 -23.9707 -20.5357 -0.5835 -4.0545 -1.6432 42.9647
#
#
#
# Elastic Compliance Matrix: (Units=1/GPa)
#
#
# Indices 1 2 3 4 5 6 
#
# 1 0.012162 -0.000324 0.001587 0.002912 -0.003499 0.006793
# 2 -0.000324 0.008808 -0.002853 -0.000779 0.000518 0.003937
# 3 0.001587 -0.002853 0.021113 0.002039 -0.009061 -0.000345
# 4 0.002912 -0.000779 0.002039 0.029733 -0.002448 0.003992
# 5 -0.003499 0.000518 -0.009061 -0.002448 0.026635 -0.001040
# 6 0.006793 0.003937 -0.000345 0.003992 -0.001040 0.029279
#
#
# Mechanical properties :
#
#
# Convention : Reuss Voigt Hill
#
# Bulk Modulus (GPa) = 25.70464 38.63517 32.16991
# Shear Modulus (GPa) = 34.75156 41.90387 38.32772
#
# Velocity S-wave (km/s) = 3.79290 4.16497 3.98328
# Velocity P-wave (km/s) = 5.46099 6.25485 5.87135
#
# Compressibility (1/GPa) = 0.03890348
#
# Stress axis : x y z
#
# Youngs Moduli (GPa) = 82.22266 113.52841 47.36393
#
# Poissons Ratio (x) = 0.03682 -0.07517
# Poissons Ratio (y) = 0.02666 0.13512
# Poissons Ratio (z) = -0.13049 0.32388
#
# Static dielectric constant tensor:
#      x y z
#    x 2.103970 0.014670 -0.138440 
#    y 0.014670 2.047680 0.015050 
#    z -0.138440 0.015050 2.049930 
# 
# From -- ./inp_files/348798.got.cif
#   From: 2010.05.17/outbox.cif.g08.bks.cpg/sg2_175_cif.got.tgz:348798.got - 2010.06.03 11:33:40.
