data_PCOD9032495
_publ_section_title
;
Structure prediction by ZEFSAII (Michael W. Deem and Ramdas Pophale) SiO2 
 PCOD9032495
Probable space group: P -1
;
_chemical_formula_sum "Si O2"
_cell_formula_units_Z 10
_cell_length_a 15.138796
_cell_length_b 7.391539
_cell_length_c 13.773660
_cell_angle_alpha 127.050573
_cell_angle_beta 23.176337
_cell_angle_gamma 122.010963
_cell_volume 482.721661
_symmetry_space_group_name_H-M "P -1"
_symmetry_group_IT_number 2
_symmetry_cell_setting 'triclinic'
loop_
_space_group_symop_operation_xyz
x,y,z
-x,-y,-z
loop_
_atom_site_type_symbol
_atom_site_label
_atom_site_fract_x
_atom_site_fract_y
_atom_site_fract_z
Si Si1 0.434216 0.778865 0.779956
Si Si2 0.116857 0.396861 0.944780
Si Si3 0.755721 0.930894 0.764587
Si Si4 0.226394 0.479988 0.505286
Si Si5 0.382584 0.968142 0.505802
O O1 0.491805 0.916381 0.671289
O O2 0.649771 0.697793 0.601175
O O3 0.269910 0.945582 0.065724
O O4 0.334469 0.540505 0.778851
O O5 0.995610 0.438695 0.184023
O O6 0.000000 0.500000 0.000000
O O7 0.154659 0.129999 0.799594
O O8 0.785738 0.660330 0.627256
O O9 0.000000 0.000000 0.500000
O O10 0.500000 0.000000 0.000000
O O11 0.353993 0.705288 0.432487
O O12 0.500000 0.000000 0.500000
#
# Coordination Sequence:
#
# PCOD9032495 Si02
#       5
#     2   2   2   2   2
#     4  11  23  43  65  92 138 173 221 281 339 396
#     4  12  22  40  67  91 134 177 217 275 342 401
#     4  10  22  43  71  97 131 183 231 279 342 405
#     4  11  23  42  66  95 133 175 226 279 336 402
#     4  12  24  40  65  99 136 174 221 279 339 408
#
# _framework density 20.715871
#
# number of rings (size 3 to 8) (size 9 to 14) (size 15 to 20)
#    0.000    0.800    6.000    2.400    0.000    0.800 
#    0.000    0.000    0.000    7.200    0.000    0.000 
#    0.000    0.000    0.000    0.000    0.000    0.000 
#
# Total GULP energy -55690.137042 kJ/mol
# GULP energy per Si atom -5569.013704 kJ/mol
# Density = 2.066872 g / cm^3
# Si number density = 20.715871 Si / 1000 Ang^3
#
#
#
# Elastic Constant Matrix: (Units=GPa)
#
#
# Indices 1 2 3 4 5 6 
#
# 1 48.4584 35.9830 23.8738 10.6559 15.1269 -7.4020
# 2 35.9830 139.4098 28.7872 6.9809 22.4162 5.2364
# 3 23.8738 28.7872 93.0193 3.3004 32.5201 -3.9926
# 4 10.6559 6.9809 3.3004 37.9109 4.5075 9.2410
# 5 15.1269 22.4162 32.5201 4.5075 43.3989 3.2822
# 6 -7.4020 5.2364 -3.9926 9.2410 3.2822 41.5762
#
#
#
# Elastic Compliance Matrix: (Units=1/GPa)
#
#
# Indices 1 2 3 4 5 6 
#
# 1 0.032225 -0.006641 -0.003931 -0.009038 -0.004566 0.008565
# 2 -0.006641 0.009380 -0.000659 0.001040 -0.001955 -0.002504
# 3 -0.003931 -0.000659 0.015543 0.000707 -0.010124 0.001518
# 4 -0.009038 0.001040 0.000707 0.030788 -0.000473 -0.008478
# 5 -0.004566 -0.001955 -0.010124 -0.000473 0.033588 -0.004085
# 6 0.008565 -0.002504 0.001518 -0.008478 -0.004085 0.028245
#
#
# Mechanical properties :
#
#
# Convention : Reuss Voigt Hill
#
# Bulk Modulus (GPa) = 28.83091 50.90840 39.86965
# Shear Modulus (GPa) = 27.20460 37.39343 32.29902
#
# Velocity S-wave (km/s) = 3.62778 4.25321 3.95288
# Velocity P-wave (km/s) = 5.61206 6.98195 6.33415
#
# Compressibility (1/GPa) = 0.03468499
#
# Stress axis : x y z
#
# Youngs Moduli (GPa) = 31.03172 106.61440 64.33747
#
# Poissons Ratio (x) = 0.70802 0.25292
# Poissons Ratio (y) = 0.20608 0.04242
# Poissons Ratio (z) = 0.12199 0.07030
#
# Static dielectric constant tensor:
#      x y z
#    x 1.749440 0.107800 -0.017290 
#    y 0.107800 1.576540 -0.065480 
#    z -0.017290 -0.065480 1.837820 
# 
# From -- ./inp_files/526812.got.cif
#   From: 2010.05.17/outbox.cif.g08.bks.cpg/sg2_264_cif.got.tgz:526812.got - 2010.06.03 11:33:40.
