data_PCOD9032343
_publ_section_title
;
Structure prediction by ZEFSAII (Michael W. Deem and Ramdas Pophale) SiO2 
 PCOD9032343
Probable space group: P -1
;
_chemical_formula_sum "Si O2"
_cell_formula_units_Z 14
_cell_length_a 15.133921
_cell_length_b 7.801451
_cell_length_c 15.829236
_cell_angle_alpha 111.999967
_cell_angle_beta 152.084634
_cell_angle_gamma 49.921828
_cell_volume 562.441458
_symmetry_space_group_name_H-M "P -1"
_symmetry_group_IT_number 2
_symmetry_cell_setting 'triclinic'
loop_
_space_group_symop_operation_xyz
x,y,z
-x,-y,-z
loop_
_atom_site_type_symbol
_atom_site_label
_atom_site_fract_x
_atom_site_fract_y
_atom_site_fract_z
Si Si1 0.579542 0.749305 0.977283
Si Si2 0.198800 0.206488 0.395512
Si Si3 0.329404 0.815752 0.050192
Si Si4 0.153495 0.862280 0.192600
Si Si5 0.351710 0.052687 0.680230
Si Si6 0.110249 0.877630 0.698570
Si Si7 0.384473 0.488345 0.592359
O O1 0.549600 0.797297 0.860148
O O2 0.350741 0.771733 0.821951
O O3 0.889211 0.481181 0.207849
O O4 0.500000 0.000000 0.000000
O O5 0.324297 0.313368 0.493208
O O6 0.195654 0.037222 0.298694
O O7 0.353299 0.027138 0.576580
O O8 0.457730 0.624316 0.204901
O O9 0.548117 0.808905 0.200521
O O10 0.050150 0.096280 0.906994
O O11 0.229850 0.782829 0.876291
O O12 0.433747 0.574227 0.344971
O O13 0.000000 0.000000 0.000000
O O14 0.051443 0.192739 0.478217
O O15 0.883894 0.199457 0.568752
#
# Coordination Sequence:
#
# PCOD9032343 Si02
#       7
#     2   2   2   2   2   2   2
#     4  12  25  44  69 101 139 173 224 280 332 398
#     4  11  23  45  71  99 136 180 221 276 336 400
#     4  10  22  44  65  98 137 170 226 278 324 399
#     4  10  22  43  70  98 134 180 221 276 337 389
#     4  11  25  42  70 101 133 181 225 267 344 397
#     4  12  24  45  66 102 136 175 225 277 331 400
#     4  10  23  41  72  96 136 176 224 275 333 398
#
# _framework density 24.891480999999999
#
# number of rings (size 3 to 8) (size 9 to 14) (size 15 to 20)
#    0.000    1.143    4.286    0.857    4.000    2.857 
#    0.000    0.714    0.000    0.000    0.000    0.000 
#    0.000    0.000    0.000    0.000    0.000    0.000 
#
# Total GULP energy -78332.715195 kJ/mol
# GULP energy per Si atom -5595.193943 kJ/mol
# Density = 2.483483 g / cm^3
# Si number density = 24.891481 Si / 1000 Ang^3
#
#
#
# Elastic Constant Matrix: (Units=GPa)
#
#
# Indices 1 2 3 4 5 6 
#
# 1 104.8265 38.7011 31.6401 -1.9267 14.9060 7.5117
# 2 38.7011 75.3975 41.4417 -10.8841 5.4003 -2.2627
# 3 31.6401 41.4417 106.3309 16.0511 -4.6637 6.0303
# 4 -1.9267 -10.8841 16.0511 35.8168 -1.3680 6.0175
# 5 14.9060 5.4003 -4.6637 -1.3680 54.4282 -0.5178
# 6 7.5117 -2.2627 6.0303 6.0175 -0.5178 34.5971
#
#
#
# Elastic Compliance Matrix: (Units=1/GPa)
#
#
# Indices 1 2 3 4 5 6 
#
# 1 0.012704 -0.005465 -0.001641 0.000126 -0.003102 -0.002898
# 2 -0.005465 0.022570 -0.008885 0.010090 -0.001227 0.002438
# 3 -0.001641 -0.008885 0.014913 -0.009181 0.002367 -0.001192
# 4 0.000126 0.010090 -0.009181 0.035742 -0.000962 -0.003998
# 5 -0.003102 -0.001227 0.002367 -0.000962 0.019529 0.000640
# 6 -0.002898 0.002438 -0.001192 -0.003998 0.000640 0.030606
#
#
# Mechanical properties :
#
#
# Convention : Reuss Voigt Hill
#
# Bulk Modulus (GPa) = 54.93447 56.68007 55.80727
# Shear Modulus (GPa) = 28.71679 36.61989 32.66834
#
# Velocity S-wave (km/s) = 3.40027 3.83976 3.62668
# Velocity P-wave (km/s) = 6.12644 6.51756 6.32503
#
# Compressibility (1/GPa) = 0.01820351
#
# Stress axis : x y z
#
# Youngs Moduli (GPa) = 78.71736 44.30694 67.05500
#
# Poissons Ratio (x) = 0.24216 0.11002
# Poissons Ratio (y) = 0.43023 0.59581
# Poissons Ratio (z) = 0.12916 0.39368
#
# Static dielectric constant tensor:
#      x y z
#    x 1.979720 0.013640 0.048210 
#    y 0.013640 1.997090 0.008030 
#    z 0.048210 0.008030 1.989070 
# 
# From -- ./inp_files/315542.got.cif
#   From: 2010.05.17/outbox.cif.g08.bks.cpg/sg2_158_cif.got.tgz:315542.got - 2010.06.03 11:33:40.
