data_PCOD9032957
_publ_section_title
;
Structure prediction by ZEFSAII (Michael W. Deem and Ramdas Pophale) SiO2 
 PCOD9032957
Probable space group: P -1
;
_chemical_formula_sum "Si O2"
_cell_formula_units_Z 15
_cell_length_a 9.597170
_cell_length_b 14.688269
_cell_length_c 9.041219
_cell_angle_alpha 80.412583
_cell_angle_beta 46.421459
_cell_angle_gamma 110.185923
_cell_volume 696.619887
_symmetry_space_group_name_H-M "P -1"
_symmetry_group_IT_number 2
_symmetry_cell_setting 'triclinic'
loop_
_space_group_symop_operation_xyz
x,y,z
-x,-y,-z
loop_
_atom_site_type_symbol
_atom_site_label
_atom_site_fract_x
_atom_site_fract_y
_atom_site_fract_z
Si Si1 0.322027 0.863211 0.359811
Si Si2 0.937413 0.616443 0.873562
Si Si3 0.133747 0.995998 0.544080
Si Si4 0.500000 0.500000 0.000000
Si Si5 0.788045 0.888052 0.082550
Si Si6 0.071830 0.590532 0.094246
Si Si7 0.365650 0.240426 0.481402
Si Si8 0.029648 0.304511 0.596526
O O1 0.310893 0.968000 0.371661
O O2 0.596966 0.906613 0.161847
O O3 0.143844 0.755389 0.637933
O O4 0.197105 0.802118 0.310288
O O5 0.026097 0.542913 0.767765
O O6 0.668574 0.557323 0.016348
O O7 0.933728 0.598690 0.057404
O O8 0.274936 0.119205 0.497901
O O9 0.000000 0.000000 0.500000
O O10 0.924489 0.890287 0.838232
O O11 0.235140 0.414498 0.309395
O O12 0.645391 0.776587 0.329628
O O13 0.000000 0.000000 0.000000
O O14 0.064041 0.652797 0.224750
O O15 0.355897 0.658826 0.811647
O O16 0.175296 0.262440 0.570975
#
# Coordination Sequence:
#
# PCOD9032957 Si02
#       8
#     2   2   2   1   2   2   2   2
#     4  11  24  45  68 102 135 182 226 278 336 412
#     4  10  23  46  69 101 138 167 232 272 336 412
#     4  11  25  44  70  99 136 182 224 285 337 395
#     4  10  22  44  64 102 134 174 224 276 324 410
#     4  10  25  44  68  97 136 177 231 279 335 400
#     4  11  24  45  70 100 134 185 214 284 340 399
#     4  11  23  46  64 103 138 170 235 278 331 415
#     4  11  25  42  70  98 141 179 226 275 341 400
#
# _framework density 21.532547999999998
#
# number of rings (size 3 to 8) (size 9 to 14) (size 15 to 20)
#    0.000    1.333    4.000    0.000    3.733    7.467 
#    4.800    0.000    0.000    0.000    0.000    0.000 
#    0.000    0.000    0.000    0.000    0.000    0.000 
#
# Total GULP energy -83594.836047 kJ/mol
# GULP energy per Si atom -5572.989070 kJ/mol
# Density = 2.148354 g / cm^3
# Si number density = 21.532548 Si / 1000 Ang^3
#
#
#
# Elastic Constant Matrix: (Units=GPa)
#
#
# Indices 1 2 3 4 5 6 
#
# 1 100.7184 0.7570 25.6409 12.3876 -10.1273 8.9445
# 2 0.7570 59.4302 22.8379 13.3414 10.1237 -5.7561
# 3 25.6409 22.8379 71.0298 14.2145 -2.7279 2.2124
# 4 12.3876 13.3414 14.2145 30.1028 6.3140 1.3281
# 5 -10.1273 10.1237 -2.7279 6.3140 40.4400 -2.9256
# 6 8.9445 -5.7561 2.2124 1.3281 -2.9256 26.5976
#
#
#
# Elastic Compliance Matrix: (Units=1/GPa)
#
#
# Indices 1 2 3 4 5 6 
#
# 1 0.011931 0.001483 -0.003731 -0.004271 0.002825 -0.002857
# 2 0.001483 0.021987 -0.006599 -0.006560 -0.004216 0.004672
# 3 -0.003731 -0.006599 0.018657 -0.004852 0.002648 -0.001192
# 4 -0.004271 -0.006560 -0.004852 0.041628 -0.006425 -0.002365
# 5 0.002825 -0.004216 0.002648 -0.006425 0.027766 0.001292
# 6 -0.002857 0.004672 -0.001192 -0.002365 0.001292 0.039929
#
#
# Mechanical properties :
#
#
# Convention : Reuss Voigt Hill
#
# Bulk Modulus (GPa) = 28.67022 36.62778 32.64900
# Shear Modulus (GPa) = 26.14798 31.55760 28.85279
#
# Velocity S-wave (km/s) = 3.48853 3.83244 3.66452
# Velocity P-wave (km/s) = 5.43785 6.05234 5.75330
#
# Compressibility (1/GPa) = 0.03487940
#
# Stress axis : x y z
#
# Youngs Moduli (GPa) = 83.81839 45.48148 53.59852
#
# Poissons Ratio (x) = -0.06744 0.19999
# Poissons Ratio (y) = -0.12429 0.35371
# Poissons Ratio (z) = 0.31275 0.30014
#
# Static dielectric constant tensor:
#      x y z
#    x 1.785270 -0.006240 0.031690 
#    y -0.006240 1.784550 -0.078900 
#    z 0.031690 -0.078900 1.853090 
# 
# From -- ./inp_files/99330.got.cif
#   From: 2010.05.17/outbox.cif.g08.bks.cpg/sg2_50_cif.got.tgz:99330.got - 2010.06.03 11:33:40.
