data_PCOD9032152
_publ_section_title
;
Structure prediction by ZEFSAII (Michael W. Deem and Ramdas Pophale) SiO2 
 PCOD9032152
Probable space group: P -1
;
_chemical_formula_sum "Si O2"
_cell_formula_units_Z 14
_cell_length_a 7.012425
_cell_length_b 5.100461
_cell_length_c 17.148875
_cell_angle_alpha 95.893060
_cell_angle_beta 95.644788
_cell_angle_gamma 122.809434
_cell_volume 504.014386
_symmetry_space_group_name_H-M "P -1"
_symmetry_group_IT_number 2
_symmetry_cell_setting 'triclinic'
loop_
_space_group_symop_operation_xyz
x,y,z
-x,-y,-z
loop_
_atom_site_type_symbol
_atom_site_label
_atom_site_fract_x
_atom_site_fract_y
_atom_site_fract_z
Si Si1 0.987306 0.835328 0.257040
Si Si2 0.213290 0.980166 0.850212
Si Si3 0.767968 0.981687 0.970956
Si Si4 0.943867 0.331547 0.354818
Si Si5 0.241798 0.047165 0.527790
Si Si6 0.713576 0.417541 0.868471
Si Si7 0.373048 0.316723 0.379180
O O1 0.918903 0.553196 0.303320
O O2 0.879000 0.792526 0.166808
O O3 0.881032 0.023645 0.294030
O O4 0.262398 0.090863 0.292157
O O5 0.950525 0.634301 0.831472
O O6 0.461759 0.119654 0.820417
O O7 0.306711 0.015063 0.943636
O O8 0.648051 0.659479 0.905440
O O9 0.788194 0.263071 0.931615
O O10 0.000000 0.000000 0.000000
O O11 0.204971 0.443607 0.388118
O O12 0.806851 0.235594 0.426832
O O13 0.345356 0.109577 0.447608
O O14 0.385028 0.361477 0.594885
O O15 0.000000 0.000000 0.500000
#
# Coordination Sequence:
#
# PCOD9032152 Si02
#       7
#     2   2   2   2   2   2   2
#     4  10  23  40  60  86 126 160 204 251 313 384
#     4  11  24  44  65  98 131 175 214 264 332 383
#     4  10  22  43  69  99 130 168 220 275 317 378
#     4   9  21  40  56  88 116 160 202 250 307 365
#     4   9  16  38  65  87 117 157 205 258 303 363
#     4  11  25  42  68  97 130 169 221 272 316 382
#     4   8  19  38  58  91 117 156 205 253 309 365
#
# _framework density 27.776983999999999
#
# number of rings (size 3 to 8) (size 9 to 14) (size 15 to 20)
#    0.857    1.429    0.000    2.571    0.000    8.571 
#    5.143    3.571    0.000    0.000    0.000    0.000 
#    0.000    0.000    0.000    0.000    0.000    0.000 
#
# Total GULP energy -77992.384752 kJ/mol
# GULP energy per Si atom -5570.884625 kJ/mol
# Density = 2.771376 g / cm^3
# Si number density = 27.776984 Si / 1000 Ang^3
#
#
#
# Elastic Constant Matrix: (Units=GPa)
#
#
# Indices 1 2 3 4 5 6 
#
# 1 111.6865 69.0988 36.9239 -3.9367 10.2798 28.5094
# 2 69.0988 161.4984 63.0895 -36.1196 30.5076 0.7616
# 3 36.9239 63.0895 111.0588 -21.9176 36.0393 9.1903
# 4 -3.9367 -36.1196 -21.9176 49.0197 -13.7725 19.6129
# 5 10.2798 30.5076 36.0393 -13.7725 37.6221 -0.1539
# 6 28.5094 0.7616 9.1903 19.6129 -0.1539 63.9579
#
#
#
# Elastic Compliance Matrix: (Units=1/GPa)
#
#
# Indices 1 2 3 4 5 6 
#
# 1 0.014648 -0.006243 -0.001859 -0.001278 0.002349 -0.005790
# 2 -0.006243 0.011708 -0.002497 0.005548 -0.003360 0.001293
# 3 -0.001859 -0.002497 0.015390 0.002597 -0.011268 -0.002177
# 4 -0.001278 0.005548 0.002597 0.030491 0.004488 -0.009209
# 5 0.002349 -0.003360 -0.011268 0.004488 0.041097 -0.000665
# 6 -0.005790 0.001293 -0.002177 -0.009209 -0.000665 0.021336
#
#
# Mechanical properties :
#
#
# Convention : Reuss Voigt Hill
#
# Bulk Modulus (GPa) = 48.66895 80.27424 64.47160
# Shear Modulus (GPa) = 30.72815 44.46204 37.59509
#
# Velocity S-wave (km/s) = 3.32963 4.00519 3.68293
# Velocity P-wave (km/s) = 5.68694 7.09584 6.43010
#
# Compressibility (1/GPa) = 0.02054698
#
# Stress axis : x y z
#
# Youngs Moduli (GPa) = 68.27090 85.41003 64.97761
#
# Poissons Ratio (x) = 0.53325 0.12077
# Poissons Ratio (y) = 0.42624 0.16226
# Poissons Ratio (z) = 0.12690 0.21329
#
# Static dielectric constant tensor:
#      x y z
#    x 2.215160 0.019910 -0.070670 
#    y 0.019910 2.351550 0.040400 
#    z -0.070670 0.040400 2.747790 
# 
# From -- ./inp_files/585216.got.cif
#   From: 2010.05.17/outbox.cif.g08.bks.cpg/sg2_293_cif.got.tgz:585216.got - 2010.06.03 11:33:40.
