data_PCOD9032432
_publ_section_title
;
Structure prediction by ZEFSAII (Michael W. Deem and Ramdas Pophale) SiO2 
 PCOD9032432
Probable space group: P -1
;
_chemical_formula_sum "Si O2"
_cell_formula_units_Z 14
_cell_length_a 12.580618
_cell_length_b 7.697348
_cell_length_c 7.186753
_cell_angle_alpha 87.207809
_cell_angle_beta 133.508009
_cell_angle_gamma 93.440686
_cell_volume 503.818610
_symmetry_space_group_name_H-M "P -1"
_symmetry_group_IT_number 2
_symmetry_cell_setting 'triclinic'
loop_
_space_group_symop_operation_xyz
x,y,z
-x,-y,-z
loop_
_atom_site_type_symbol
_atom_site_label
_atom_site_fract_x
_atom_site_fract_y
_atom_site_fract_z
Si Si1 0.111866 0.413728 0.785749
Si Si2 0.093625 0.139624 0.489160
Si Si3 0.812203 0.367281 0.597630
Si Si4 0.391496 0.089375 0.217358
Si Si5 0.207068 0.755749 0.025443
Si Si6 0.309921 0.250477 0.476915
Si Si7 0.454957 0.700034 0.947040
O O1 0.169107 0.262719 0.731649
O O2 0.228476 0.560270 0.986119
O O3 0.000000 0.500000 0.500000
O O4 0.987674 0.353241 0.788573
O O5 0.213594 0.104159 0.480453
O O6 0.965838 0.228672 0.214488
O O7 0.000000 0.000000 0.500000
O O8 0.762535 0.564840 0.570298
O O9 0.718653 0.302115 0.309502
O O10 0.760678 0.255980 0.717855
O O11 0.312827 0.218689 0.262048
O O12 0.472457 0.185108 0.138649
O O13 0.500000 0.000000 0.500000
O O14 0.531202 0.752873 0.231852
O O15 0.283591 0.930530 0.030883
O O16 0.500000 0.500000 0.000000
#
# Coordination Sequence:
#
# PCOD9032432 Si02
#       7
#     2   2   2   2   2   2   2
#     4  10  22  43  71 104 140 191 240 293 375 442
#     4  11  25  45  70 112 148 193 245 307 379 443
#     4  11  22  46  69 106 140 195 249 296 377 439
#     4  12  27  50  72 114 147 196 256 311 380 435
#     4  11  24  44  73 102 148 193 238 320 361 443
#     4  11  26  46  72 109 150 192 253 304 375 451
#     4  10  25  49  75 105 146 197 248 311 373 445
#
# _framework density 27.787776000000001
#
# number of rings (size 3 to 8) (size 9 to 14) (size 15 to 20)
#    0.000    1.143    4.286    1.286    2.000    8.000 
#    5.143    0.000    0.000    0.000    0.000    0.000 
#    0.000    0.000    0.000    0.000    0.000    0.000 
#
# Total GULP energy -78403.952655 kJ/mol
# GULP energy per Si atom -5600.282332 kJ/mol
# Density = 2.772453 g / cm^3
# Si number density = 27.787776 Si / 1000 Ang^3
#
#
#
# Elastic Constant Matrix: (Units=GPa)
#
#
# Indices 1 2 3 4 5 6 
#
# 1 123.3898 55.9822 24.6825 11.1108 -12.1961 18.3246
# 2 55.9822 129.0624 35.7255 20.8312 -0.3820 15.0232
# 3 24.6825 35.7255 128.0020 28.8832 -2.1139 0.0481
# 4 11.1108 20.8312 28.8832 55.2502 0.1831 -4.5323
# 5 -12.1961 -0.3820 -2.1139 0.1831 56.2111 -2.6464
# 6 18.3246 15.0232 0.0481 -4.5323 -2.6464 53.4513
#
#
#
# Elastic Compliance Matrix: (Units=1/GPa)
#
#
# Indices 1 2 3 4 5 6 
#
# 1 0.010728 -0.004072 -0.000803 -0.000411 0.002155 -0.002461
# 2 -0.004072 0.010572 -0.001624 -0.002465 -0.000951 -0.001830
# 3 -0.000803 -0.001624 0.009344 -0.004080 0.000198 0.000387
# 4 -0.000411 -0.002465 -0.004080 0.021462 -0.000205 0.002647
# 5 0.002155 -0.000951 0.000198 -0.000205 0.018279 0.000416
# 6 -0.002461 -0.001830 0.000387 0.002647 0.000416 0.020311
#
#
# Mechanical properties :
#
#
# Convention : Reuss Voigt Hill
#
# Bulk Modulus (GPa) = 56.66915 68.13720 62.40318
# Shear Modulus (GPa) = 45.62997 50.58679 48.10838
#
# Velocity S-wave (km/s) = 4.05666 4.27132 4.16538
# Velocity P-wave (km/s) = 6.50998 6.99281 6.75571
#
# Compressibility (1/GPa) = 0.01764629
#
# Stress axis : x y z
#
# Youngs Moduli (GPa) = 93.21438 94.58840 107.01743
#
# Poissons Ratio (x) = 0.38515 0.08592
# Poissons Ratio (y) = 0.37956 0.17383
# Poissons Ratio (z) = 0.07484 0.15364
#
# Static dielectric constant tensor:
#      x y z
#    x 2.295350 -0.110650 0.073550 
#    y -0.110650 2.302410 -0.121770 
#    z 0.073550 -0.121770 2.185720 
# 
# From -- ./inp_files/244192.got.cif
#   From: 2010.05.17/outbox.cif.g08.bks.cpg/sg2_123_cif.got.tgz:244192.got - 2010.06.03 11:33:40.
