data_PCOD9032003
_publ_section_title
;
Structure prediction by ZEFSAII (Michael W. Deem and Ramdas Pophale) SiO2 
 PCOD9032003
Probable space group: P -1
;
_chemical_formula_sum "Si O2"
_cell_formula_units_Z 15
_cell_length_a 5.309382
_cell_length_b 12.121484
_cell_length_c 12.519385
_cell_angle_alpha 47.677517
_cell_angle_beta 88.606167
_cell_angle_gamma 72.502095
_cell_volume 549.731651
_symmetry_space_group_name_H-M "P -1"
_symmetry_group_IT_number 2
_symmetry_cell_setting 'triclinic'
loop_
_space_group_symop_operation_xyz
x,y,z
-x,-y,-z
loop_
_atom_site_type_symbol
_atom_site_label
_atom_site_fract_x
_atom_site_fract_y
_atom_site_fract_z
Si Si1 0.137945 0.318672 0.577850
Si Si2 0.074893 0.933585 0.337094
Si Si3 0.631595 0.084481 0.859073
Si Si4 0.219665 0.359737 0.947791
Si Si5 0.738458 0.310173 0.862487
Si Si6 0.505738 0.665577 0.629839
Si Si7 0.141076 0.295386 0.230514
Si Si8 0.000000 0.000000 0.500000
O O1 0.371540 0.225610 0.719218
O O2 0.279179 0.309315 0.468998
O O3 0.000000 0.500000 0.500000
O O4 0.954011 0.217174 0.624170
O O5 0.204682 0.000043 0.196144
O O6 0.248925 0.836416 0.506563
O O7 0.841234 0.045019 0.343020
O O8 0.799678 0.168445 0.869584
O O9 0.500000 0.000000 0.000000
O O10 0.539118 0.276828 0.971785
O O11 0.013274 0.327742 0.887018
O O12 0.131707 0.554587 0.826280
O O13 0.153571 0.307315 0.096915
O O14 0.533554 0.487936 0.707005
O O15 0.624095 0.655622 0.752035
O O16 0.150385 0.127760 0.383390
#
# Coordination Sequence:
#
# PCOD9032003 Si02
#       8
#     2   2   2   2   2   2   2   1
#     4  11  23  44  75 105 138 186 252 307 369 448
#     4  11  25  44  68 107 141 192 243 305 381 452
#     4  11  28  46  68 106 151 195 241 315 383 463
#     4  10  25  45  71 106 143 194 258 307 381 451
#     4  11  24  44  75 102 143 197 246 316 376 456
#     4  10  22  43  69 103 139 183 248 311 372 440
#     4  10  23  43  68 104 143 191 246 313 369 456
#     4  12  24  42  72  98 146 188 236 310 370 462
#
# _framework density 27.28604
#
# number of rings (size 3 to 8) (size 9 to 14) (size 15 to 20)
#    0.000    1.333    1.333    2.400    9.333   10.133 
#    0.000    0.000    0.000    0.000    0.000    0.000 
#    0.000    0.000    0.000    0.000    0.000    0.000 
#
# Total GULP energy -83751.071873 kJ/mol
# GULP energy per Si atom -5583.404792 kJ/mol
# Density = 2.722394 g / cm^3
# Si number density = 27.286040 Si / 1000 Ang^3
#
#
#
# Elastic Constant Matrix: (Units=GPa)
#
#
# Indices 1 2 3 4 5 6 
#
# 1 59.0208 27.6182 18.7426 -2.2157 -10.4826 1.2421
# 2 27.6182 148.0741 43.0469 -12.7626 4.7688 15.5571
# 3 18.7426 43.0469 98.7990 6.6695 -19.4320 -3.4654
# 4 -2.2157 -12.7626 6.6695 46.2305 -6.1284 -6.2556
# 5 -10.4826 4.7688 -19.4320 -6.1284 37.5381 3.6680
# 6 1.2421 15.5571 -3.4654 -6.2556 3.6680 55.1275
#
#
#
# Elastic Compliance Matrix: (Units=1/GPa)
#
#
# Indices 1 2 3 4 5 6 
#
# 1 0.019977 -0.003481 -0.001245 0.000933 0.005510 0.000193
# 2 -0.003481 0.009213 -0.004330 0.002187 -0.003803 -0.002293
# 3 -0.001245 -0.004330 0.013786 -0.002144 0.006850 0.001417
# 4 0.000933 0.002187 -0.002144 0.023147 0.002487 0.001688
# 5 0.005510 -0.003803 0.006850 0.002487 0.032663 -0.000511
# 6 0.000193 -0.002293 0.001417 0.001688 -0.000511 0.019097
#
#
# Mechanical properties :
#
#
# Convention : Reuss Voigt Hill
#
# Bulk Modulus (GPa) = 40.21989 53.85660 47.03825
# Shear Modulus (GPa) = 34.65371 42.21163 38.43267
#
# Velocity S-wave (km/s) = 3.56759 3.93747 3.75708
# Velocity P-wave (km/s) = 5.63404 6.36020 6.00810
#
# Compressibility (1/GPa) = 0.02486332
#
# Stress axis : x y z
#
# Youngs Moduli (GPa) = 50.05690 108.53911 72.53680
#
# Poissons Ratio (x) = 0.37787 0.09034
# Poissons Ratio (y) = 0.17427 0.31407
# Poissons Ratio (z) = 0.06234 0.46995
#
# Static dielectric constant tensor:
#      x y z
#    x 2.020340 0.303840 0.062050 
#    y 0.303840 1.913510 -0.048700 
#    z 0.062050 -0.048700 2.174710 
# 
# From -- ./inp_files/363680.got.cif
#   From: 2010.05.17/outbox.cif.g08.bks.cpg/sg2_182_cif.got.tgz:363680.got - 2010.06.03 11:33:40.
