data_PCOD9032381
_publ_section_title
;
Structure prediction by ZEFSAII (Michael W. Deem and Ramdas Pophale) SiO2 
 PCOD9032381
Probable space group: P -1
;
_chemical_formula_sum "Si O2"
_cell_formula_units_Z 13
_cell_length_a 5.023665
_cell_length_b 9.550868
_cell_length_c 9.913497
_cell_angle_alpha 83.961009
_cell_angle_beta 90.956860
_cell_angle_gamma 105.690595
_cell_volume 455.352929
_symmetry_space_group_name_H-M "P -1"
_symmetry_group_IT_number 2
_symmetry_cell_setting 'triclinic'
loop_
_space_group_symop_operation_xyz
x,y,z
-x,-y,-z
loop_
_atom_site_type_symbol
_atom_site_label
_atom_site_fract_x
_atom_site_fract_y
_atom_site_fract_z
Si Si1 0.000000 0.000000 0.000000
Si Si2 0.173269 0.242931 0.498004
Si Si3 0.380243 0.871555 0.640785
Si Si4 0.196331 0.499054 0.286783
Si Si5 0.127889 0.919838 0.245050
Si Si6 0.639353 0.383558 0.153357
Si Si7 0.578580 0.240084 0.896609
O O1 0.291472 0.130385 0.943088
O O2 0.793952 0.140070 0.895689
O O3 0.448016 0.205992 0.451958
O O4 0.176754 0.408590 0.436327
O O5 0.914523 0.137398 0.424193
O O6 0.084593 0.194548 0.654025
O O7 0.591627 0.020603 0.675141
O O8 0.338502 0.771232 0.780133
O O9 0.361676 0.410755 0.205563
O O10 0.368163 0.667773 0.252876
O O11 0.898303 0.491347 0.220790
O O12 0.036615 0.049604 0.160350
O O13 0.650298 0.366902 0.996039
#
# Coordination Sequence:
#
# PCOD9032381 Si02
#       7
#     1   2   2   2   2   2   2
#     4  12  30  44  66 102 148 184 224 278 364 414
#     4  10  24  45  73 102 133 182 235 286 339 401
#     4  10  22  43  71 100 138 179 234 284 334 405
#     4  10  24  45  73 102 133 182 235 286 339 401
#     4  12  27  43  68 101 143 183 226 283 349 414
#     4  10  22  43  71 100 138 179 234 284 334 405
#     4  12  27  43  68 101 143 183 226 283 349 414
#
# _framework density 28.549282999999999
#
# number of rings (size 3 to 8) (size 9 to 14) (size 15 to 20)
#    0.000    1.231    1.538    2.308    8.615    0.615 
#    0.000    0.769    0.000    0.000    0.000    0.000 
#    0.000    0.000    0.000    0.000    0.000    0.000 
#
# Total GULP energy -72627.203341 kJ/mol
# GULP energy per Si atom -5586.707949 kJ/mol
# Density = 2.848430 g / cm^3
# Si number density = 28.549283 Si / 1000 Ang^3
#
#
#
# Elastic Constant Matrix: (Units=GPa)
#
#
# Indices 1 2 3 4 5 6 
#
# 1 119.4198 32.6078 18.9929 1.7270 -12.0225 7.4554
# 2 32.6078 115.6210 50.3601 -29.1293 -2.9740 19.3300
# 3 18.9929 50.3601 206.9071 -57.9836 -14.2515 11.7172
# 4 1.7270 -29.1293 -57.9836 57.5900 4.8002 -12.7816
# 5 -12.0225 -2.9740 -14.2515 4.8002 35.0340 8.9917
# 6 7.4554 19.3300 11.7172 -12.7816 8.9917 53.3887
#
#
#
# Elastic Compliance Matrix: (Units=1/GPa)
#
#
# Indices 1 2 3 4 5 6 
#
# 1 0.009784 -0.002879 -0.000739 -0.003135 0.003633 -0.001524
# 2 -0.002879 0.011434 -0.001266 0.004103 -0.000479 -0.002397
# 3 -0.000739 -0.001266 0.007117 0.006480 0.001573 0.000286
# 4 -0.003135 0.004103 0.006480 0.027325 -0.003011 0.004579
# 5 0.003633 -0.000479 0.001573 -0.003011 0.032569 -0.006885
# 6 -0.001524 -0.002397 0.000286 0.004579 -0.006885 0.022004
#
#
# Mechanical properties :
#
#
# Convention : Reuss Voigt Hill
#
# Bulk Modulus (GPa) = 53.86052 71.76325 62.81189
# Shear Modulus (GPa) = 39.62235 51.86835 45.74535
#
# Velocity S-wave (km/s) = 3.72944 4.26702 4.00725
# Velocity P-wave (km/s) = 6.11978 7.03333 6.59240
#
# Compressibility (1/GPa) = 0.01856647
#
# Stress axis : x y z
#
# Youngs Moduli (GPa) = 102.21077 87.45479 140.50387
#
# Poissons Ratio (x) = 0.25176 0.10389
# Poissons Ratio (y) = 0.29424 0.17792
# Poissons Ratio (z) = 0.07558 0.11074
#
# Static dielectric constant tensor:
#      x y z
#    x 0.832420 0.462430 -1.008180 
#    y 0.462430 2.054280 0.423980 
#    z -1.008180 0.423980 1.398950 
# 
# From -- ./inp_files/365649.got.cif
#   From: 2010.05.17/outbox.cif.g08.bks.cpg/sg2_183_cif.got.tgz:365649.got - 2010.06.03 11:33:40.
