data_PCOD9032457
_publ_section_title
;
Structure prediction by ZEFSAII (Michael W. Deem and Ramdas Pophale) SiO2 
 PCOD9032457
Probable space group: P -1
;
_chemical_formula_sum "Si O2"
_cell_formula_units_Z 14
_cell_length_a 9.017579
_cell_length_b 15.427179
_cell_length_c 7.959103
_cell_angle_alpha 148.578049
_cell_angle_beta 93.870577
_cell_angle_gamma 83.255795
_cell_volume 572.103464
_symmetry_space_group_name_H-M "P -1"
_symmetry_group_IT_number 2
_symmetry_cell_setting 'triclinic'
loop_
_space_group_symop_operation_xyz
x,y,z
-x,-y,-z
loop_
_atom_site_type_symbol
_atom_site_label
_atom_site_fract_x
_atom_site_fract_y
_atom_site_fract_z
Si Si1 0.004885 0.301339 0.117853
Si Si2 0.409261 0.021283 0.268738
Si Si3 0.577586 0.321523 0.764494
Si Si4 0.069873 0.670595 0.230560
Si Si5 0.405949 0.464251 0.276308
Si Si6 0.702782 0.844790 0.158522
Si Si7 0.192955 0.790810 0.753250
O O1 0.871154 0.243077 0.124297
O O2 0.000000 0.500000 0.500000
O O3 0.992368 0.286274 0.888867
O O4 0.142312 0.154120 0.925069
O O5 0.484900 0.175740 0.449030
O O6 0.326377 0.066692 0.517147
O O7 0.557006 0.896616 0.121164
O O8 0.285178 0.948988 0.026790
O O9 0.752969 0.326295 0.786440
O O10 0.500000 0.500000 0.000000
O O11 0.521341 0.330262 0.966350
O O12 0.066182 0.782146 0.586163
O O13 0.000000 0.500000 0.000000
O O14 0.500000 0.500000 0.500000
O O15 0.324091 0.634019 0.473470
O O16 0.277481 0.353792 0.132691
#
# Coordination Sequence:
#
# PCOD9032457 Si02
#       7
#     2   2   2   2   2   2   2
#     4  12  25  44  77 108 150 206 247 296 378 449
#     4  10  25  45  74 110 148 191 254 315 373 431
#     4  11  25  46  74 103 144 199 247 313 371 440
#     4  12  26  46  71 109 151 189 255 307 364 457
#     4  11  19  37  71 103 136 189 250 298 357 431
#     4  10  22  43  71 107 149 193 249 304 362 450
#     4  12  24  46  73 112 150 193 249 314 365 442
#
# _framework density 24.4711
#
# number of rings (size 3 to 8) (size 9 to 14) (size 15 to 20)
#    0.000    0.857    5.714    0.857    6.000    1.143 
#    0.000    0.714    0.000    0.000    0.000    0.000 
#    0.000    0.000    0.000    0.000    0.000    0.000 
#
# Total GULP energy -77965.138379 kJ/mol
# GULP energy per Si atom -5568.938456 kJ/mol
# Density = 2.441540 g / cm^3
# Si number density = 24.471100 Si / 1000 Ang^3
#
#
#
# Elastic Constant Matrix: (Units=GPa)
#
#
# Indices 1 2 3 4 5 6 
#
# 1 118.9723 30.0955 55.4219 8.7222 4.2223 4.5500
# 2 30.0955 76.7041 37.1608 -7.6507 23.0379 1.7816
# 3 55.4219 37.1608 106.9133 0.6597 35.5957 -3.7720
# 4 8.7222 -7.6507 0.6597 43.5793 3.5380 11.4908
# 5 4.2223 23.0379 35.5957 3.5380 60.4441 -3.9595
# 6 4.5500 1.7816 -3.7720 11.4908 -3.9595 42.2564
#
#
#
# Elastic Compliance Matrix: (Units=1/GPa)
#
#
# Indices 1 2 3 4 5 6 
#
# 1 0.012530 -0.003264 -0.006883 -0.003210 0.004576 -0.000524
# 2 -0.003264 0.017855 -0.002851 0.004924 -0.005350 -0.002496
# 3 -0.006883 -0.002851 0.016694 0.000944 -0.008232 0.001324
# 4 -0.003210 0.004924 0.000944 0.026750 -0.004262 -0.007451
# 5 0.004576 -0.005350 -0.008232 -0.004262 0.023516 0.002360
# 6 -0.000524 -0.002496 0.001324 -0.007451 0.002360 0.026192
#
#
# Mechanical properties :
#
#
# Convention : Reuss Voigt Hill
#
# Bulk Modulus (GPa) = 47.43222 60.88290 54.15756
# Shear Modulus (GPa) = 31.93616 41.25006 36.59311
#
# Velocity S-wave (km/s) = 3.61648 4.11014 3.87118
# Velocity P-wave (km/s) = 6.07154 6.88896 6.49313
#
# Compressibility (1/GPa) = 0.02108271
#
# Stress axis : x y z
#
# Youngs Moduli (GPa) = 79.80546 56.00659 59.90081
#
# Poissons Ratio (x) = 0.18281 0.41231
# Poissons Ratio (y) = 0.26049 0.17079
# Poissons Ratio (z) = 0.54932 0.15969
#
# Static dielectric constant tensor:
#      x y z
#    x -19.557830 -20.785800 9.656250 
#    y -20.785800 -18.059970 9.238510 
#    z 9.656250 9.238510 -2.181940 
# 
# From -- ./inp_files/219032.got.cif
#   From: 2010.05.17/outbox.cif.g08.bks.cpg/sg2_110_cif.got.tgz:219032.got - 2010.06.03 11:33:40.
