data_PCOD9032570
_publ_section_title
;
Structure prediction by ZEFSAII (Michael W. Deem and Ramdas Pophale) SiO2 
 PCOD9032570
Probable space group: P -1
;
_chemical_formula_sum "Si O2"
_cell_formula_units_Z 16
_cell_length_a 8.887621
_cell_length_b 8.839513
_cell_length_c 23.930464
_cell_angle_alpha 132.452344
_cell_angle_beta 149.478202
_cell_angle_gamma 56.268859
_cell_volume 702.773781
_symmetry_space_group_name_H-M "P -1"
_symmetry_group_IT_number 2
_symmetry_cell_setting 'triclinic'
loop_
_space_group_symop_operation_xyz
x,y,z
-x,-y,-z
loop_
_atom_site_type_symbol
_atom_site_label
_atom_site_fract_x
_atom_site_fract_y
_atom_site_fract_z
Si Si1 0.297648 0.643596 0.768760
Si Si2 0.760280 0.486287 0.624605
Si Si3 0.854911 0.711236 0.026868
Si Si4 0.114894 0.981005 0.468267
Si Si5 0.809032 0.644778 0.799668
Si Si6 0.373824 0.717888 0.263881
Si Si7 0.292192 0.908477 0.735021
Si Si8 0.513227 0.277800 0.974541
O O1 0.398907 0.417197 0.730998
O O2 0.156445 0.739455 0.693114
O O3 0.050584 0.626343 0.732588
O O4 0.614245 0.766417 0.916964
O O5 0.500000 0.500000 0.500000
O O6 0.849077 0.253400 0.594089
O O7 0.681597 0.552153 0.677857
O O8 0.639293 0.708177 0.010697
O O9 0.153316 0.822553 0.176199
O O10 0.000000 0.500000 0.000000
O O11 0.430708 0.111062 0.597858
O O12 0.000000 0.000000 0.500000
O O13 0.892227 0.066849 0.373535
O O14 0.793859 0.455337 0.792635
O O15 0.603896 0.819426 0.797502
O O16 0.136497 0.747531 0.919657
O O17 0.341880 0.115399 0.838355
O O18 0.500000 0.500000 0.000000
#
# Coordination Sequence:
#
# PCOD9032570 Si02
#       8
#     2   2   2   2   2   2   2   2
#     4  10  23  47  68 106 144 193 236 300 360 425
#     4  12  26  45  73 105 147 189 247 304 363 431
#     4  10  22  43  72 103 144 191 235 294 357 429
#     4  12  26  48  73 106 139 196 248 300 368 437
#     4  11  24  46  69 107 146 195 241 301 365 427
#     4  10  23  42  74 102 143 191 243 294 361 428
#     4  11  28  45  75 104 147 192 243 298 364 440
#     4  12  23  45  72 107 146 190 243 299 361 429
#
# _framework density 22.766928
#
# number of rings (size 3 to 8) (size 9 to 14) (size 15 to 20)
#    0.000    1.000    3.750    1.875    1.750    3.000 
#    4.500    0.000    0.000    0.000    0.000    0.000 
#    0.000    0.000    0.000    0.000    0.000    0.000 
#
# Total GULP energy -89389.659782 kJ/mol
# GULP energy per Si atom -5586.853736 kJ/mol
# Density = 2.271511 g / cm^3
# Si number density = 22.766928 Si / 1000 Ang^3
#
#
#
# Elastic Constant Matrix: (Units=GPa)
#
#
# Indices 1 2 3 4 5 6 
#
# 1 109.3116 19.5295 25.6243 -1.1055 -18.9653 -9.3206
# 2 19.5295 70.1919 28.4424 -19.6487 -3.0531 3.4405
# 3 25.6243 28.4424 119.2628 -24.7443 -8.1104 10.1228
# 4 -1.1055 -19.6487 -24.7443 27.2904 8.6764 -14.1887
# 5 -18.9653 -3.0531 -8.1104 8.6764 37.8155 -4.5526
# 6 -9.3206 3.4405 10.1228 -14.1887 -4.5526 22.5726
#
#
#
# Elastic Compliance Matrix: (Units=1/GPa)
#
#
# Indices 1 2 3 4 5 6 
#
# 1 0.011920 -0.003172 -0.002499 -0.003092 0.006608 0.005915
# 2 -0.003172 0.020144 -0.001224 0.017860 -0.003520 0.006685
# 3 -0.002499 -0.001224 0.011090 0.009344 -0.001139 -0.000175
# 4 -0.003092 0.017860 0.009344 0.083476 -0.012223 0.041817
# 5 0.006608 -0.003520 -0.001139 -0.012223 0.032349 0.002617
# 6 0.005915 0.006685 -0.000175 0.041817 0.002617 0.072616
#
#
# Mechanical properties :
#
#
# Convention : Reuss Voigt Hill
#
# Bulk Modulus (GPa) = 34.05496 49.55099 41.80297
# Shear Modulus (GPa) = 19.59457 32.54705 26.07081
#
# Velocity S-wave (km/s) = 2.93688 3.78508 3.38763
# Velocity P-wave (km/s) = 5.14693 6.39641 5.80539
#
# Compressibility (1/GPa) = 0.02936430
#
# Stress axis : x y z
#
# Youngs Moduli (GPa) = 83.89136 49.64303 90.17443
#
# Poissons Ratio (x) = 0.15747 0.22534
# Poissons Ratio (y) = 0.26611 0.11035
# Poissons Ratio (z) = 0.20963 0.06075
#
# Static dielectric constant tensor:
#      x y z
#    x 1.858670 0.014040 0.020360 
#    y 0.014040 1.845990 -0.017020 
#    z 0.020360 -0.017020 1.857020 
# 
# From -- ./inp_files/606843.got.cif
#   From: 2010.05.17/outbox.cif.g08.bks.cpg/sg2_304_cif.got.tgz:606843.got - 2010.06.03 11:33:40.
