data_PCOD9032553
_publ_section_title
;
Structure prediction by ZEFSAII (Michael W. Deem and Ramdas Pophale) SiO2 
 PCOD9032553
Probable space group: P -1
;
_chemical_formula_sum "Si O2"
_cell_formula_units_Z 10
_cell_length_a 11.210978
_cell_length_b 17.530685
_cell_length_c 18.525200
_cell_angle_alpha 161.928819
_cell_angle_beta 152.390811
_cell_angle_gamma 20.672563
_cell_volume 398.521102
_symmetry_space_group_name_H-M "P -1"
_symmetry_group_IT_number 2
_symmetry_cell_setting 'triclinic'
loop_
_space_group_symop_operation_xyz
x,y,z
-x,-y,-z
loop_
_atom_site_type_symbol
_atom_site_label
_atom_site_fract_x
_atom_site_fract_y
_atom_site_fract_z
Si Si1 0.816704 0.211220 0.163779
Si Si2 0.870257 0.101920 0.603084
Si Si3 0.491653 0.001427 0.085025
Si Si4 0.117575 0.675231 0.469491
Si Si5 0.324871 0.873687 0.252959
O O1 0.520052 0.582799 0.317707
O O2 0.135630 0.086946 0.272439
O O3 0.602634 0.165247 0.062495
O O4 0.000000 0.000000 0.000000
O O5 0.000000 0.000000 0.500000
O O6 0.144163 0.120144 0.801986
O O7 0.921661 0.812603 0.413082
O O8 0.172299 0.381995 0.272781
O O9 0.500000 0.000000 0.000000
O O10 0.500000 0.500000 0.500000
O O11 0.969060 0.976310 0.711146
O O12 0.500000 0.000000 0.500000
O O13 0.500000 0.500000 0.000000
#
# Coordination Sequence:
#
# PCOD9032553 Si02
#       5
#     2   2   2   2   2
#     4  12  26  45  71 112 151 190 249 326 383 435
#     4  11  23  42  69 105 144 191 249 315 375 444
#     4  11  23  45  75 106 146 203 253 300 375 471
#     4  10  22  43  72 102 138 192 250 299 361 453
#     4  12  27  49  73 103 150 206 250 302 384 469
#
# _framework density 25.092773999999999
#
# number of rings (size 3 to 8) (size 9 to 14) (size 15 to 20)
#    0.000    0.800    0.000    9.000    0.000    3.200 
#    0.000    6.000    0.000    0.000    0.000    0.000 
#    0.000    0.000    0.000    0.000    0.000    0.000 
#
# Total GULP energy -55763.408229 kJ/mol
# GULP energy per Si atom -5576.340823 kJ/mol
# Density = 2.503566 g / cm^3
# Si number density = 25.092774 Si / 1000 Ang^3
#
#
#
# Elastic Constant Matrix: (Units=GPa)
#
#
# Indices 1 2 3 4 5 6 
#
# 1 98.1820 47.1135 31.9194 -10.4707 -30.3375 1.2436
# 2 47.1135 216.3860 91.0585 11.2460 -14.6253 15.3885
# 3 31.9194 91.0585 116.2547 13.0232 -26.4529 -7.6251
# 4 -10.4707 11.2460 13.0232 73.4533 -0.5271 -5.5388
# 5 -30.3375 -14.6253 -26.4529 -0.5271 68.2564 2.8403
# 6 1.2436 15.3885 -7.6251 -5.5388 2.8403 53.9862
#
#
#
# Elastic Compliance Matrix: (Units=1/GPa)
#
#
# Indices 1 2 3 4 5 6 
#
# 1 0.013461 -0.002314 -0.000986 0.002500 0.005116 0.000197
# 2 -0.002314 0.007755 -0.005905 -0.000706 -0.001537 -0.002983
# 3 -0.000986 -0.005905 0.014779 -0.001571 0.003869 0.003429
# 4 0.002500 -0.000706 -0.001571 0.014464 0.000405 0.001385
# 5 0.005116 -0.001537 0.003869 0.000405 0.018100 -0.000044
# 6 0.000197 -0.002983 0.003429 0.001385 -0.000044 0.019998
#
#
# Mechanical properties :
#
#
# Convention : Reuss Voigt Hill
#
# Bulk Modulus (GPa) = 56.86919 85.66729 71.26824
# Shear Modulus (GPa) = 44.31449 56.52126 50.41787
#
# Velocity S-wave (km/s) = 4.20697 4.75119 4.48734
# Velocity P-wave (km/s) = 6.80521 8.01952 7.43719
#
# Compressibility (1/GPa) = 0.01758422
#
# Stress axis : x y z
#
# Youngs Moduli (GPa) = 74.28820 128.94618 67.66228
#
# Poissons Ratio (x) = 0.29837 0.06675
# Poissons Ratio (y) = 0.17190 0.39956
# Poissons Ratio (z) = 0.07328 0.76146
#
# Static dielectric constant tensor:
#      x y z
#    x 2.192850 -0.214080 0.090690 
#    y -0.214080 2.187630 0.014810 
#    z 0.090690 0.014810 2.090990 
# 
# From -- ./inp_files/570110.got.cif
#   From: 2010.05.17/outbox.cif.g08.bks.cpg/sg2_286_cif.got.tgz:570110.got - 2010.06.03 11:33:40.
