data_PCOD9032012
_publ_section_title
;
Structure prediction by ZEFSAII (Michael W. Deem and Ramdas Pophale) SiO2 
 PCOD9032012
Probable space group: P -1
;
_chemical_formula_sum "Si O2"
_cell_formula_units_Z 16
_cell_length_a 27.762920
_cell_length_b 14.095349
_cell_length_c 19.363057
_cell_angle_alpha 157.800198
_cell_angle_beta 160.907442
_cell_angle_gamma 16.458118
_cell_volume 686.310361
_symmetry_space_group_name_H-M "P -1"
_symmetry_group_IT_number 2
_symmetry_cell_setting 'triclinic'
loop_
_space_group_symop_operation_xyz
x,y,z
-x,-y,-z
loop_
_atom_site_type_symbol
_atom_site_label
_atom_site_fract_x
_atom_site_fract_y
_atom_site_fract_z
Si Si1 0.007554 0.370698 0.345007
Si Si2 0.005358 0.859171 0.049309
Si Si3 0.653334 0.900316 0.582168
Si Si4 0.050575 0.836571 0.682983
Si Si5 0.699895 0.299835 0.183341
Si Si6 0.487004 0.151722 0.870763
Si Si7 0.449076 0.743469 0.453827
Si Si8 0.547532 0.679159 0.738072
O O1 0.951136 0.678078 0.429714
O O2 0.000000 0.500000 0.500000
O O3 0.225984 0.040826 0.386438
O O4 0.915191 0.200827 0.114294
O O5 0.846512 0.825107 0.818807
O O6 0.215405 0.539498 0.085274
O O7 0.058278 0.900400 0.224782
O O8 0.713549 0.572994 0.406647
O O9 0.500000 0.000000 0.500000
O O10 0.554075 0.192719 0.587338
O O11 0.104041 0.953735 0.770387
O O12 0.272199 0.508890 0.795136
O O13 0.500000 0.500000 0.000000
O O14 0.651864 0.177885 0.101213
O O15 0.558689 0.847869 0.710755
O O16 0.457061 0.037073 0.824698
O O17 0.514484 0.386400 0.319925
O O18 0.500000 0.500000 0.500000
#
# Coordination Sequence:
#
# PCOD9032012 Si02
#       8
#     2   2   2   2   2   2   2   2
#     4   8  14  28  49  75 106 133 173 233 272 320
#     4  10  21  32  55  91 114 142 192 238 286 332
#     4  12  22  33  54  88 122 148 186 242 286 331
#     4   9  16  32  55  83 111 140 192 239 272 330
#     4  10  17  32  54  77 109 152 193 226 275 333
#     4   9  16  31  58  79 106 153 189 225 281 338
#     4   9  17  32  52  82 112 145 186 232 288 333
#     4   9  19  36  57  84 114 148 183 238 291 341
#
# _framework density 23.313068000000001
#
# number of rings (size 3 to 8) (size 9 to 14) (size 15 to 20)
#    0.000    2.500    3.750    2.250    0.000    2.000 
#    0.000    1.250    0.000    3.000    0.000    0.000 
#    0.000    0.000    0.000    0.000    0.000    0.000 
#
# Total GULP energy -89127.223282 kJ/mol
# GULP energy per Si atom -5570.451455 kJ/mol
# Density = 2.326001 g / cm^3
# Si number density = 23.313068 Si / 1000 Ang^3
#
#
#
# Elastic Constant Matrix: (Units=GPa)
#
#
# Indices 1 2 3 4 5 6 
#
# 1 113.0569 22.6062 16.1975 5.4871 38.3254 10.3220
# 2 22.6062 68.4564 17.6768 3.3890 13.0098 4.3824
# 3 16.1975 17.6768 106.8784 -3.0989 36.3677 -3.3759
# 4 5.4871 3.3890 -3.0989 13.4241 1.3949 9.7827
# 5 38.3254 13.0098 36.3677 1.3949 39.7431 5.5512
# 6 10.3220 4.3824 -3.3759 9.7827 5.5512 21.9483
#
#
#
# Elastic Compliance Matrix: (Units=1/GPa)
#
#
# Indices 1 2 3 4 5 6 
#
# 1 0.014557 -0.002487 0.003724 -0.002336 -0.016470 -0.000570
# 2 -0.002487 0.016333 -0.002201 -0.002814 -0.000696 -0.001000
# 3 0.003724 -0.002201 0.015353 0.000580 -0.017675 0.005262
# 4 -0.002336 -0.002814 0.000580 0.111777 0.005633 -0.049495
# 5 -0.016470 -0.000696 -0.017675 0.005633 0.058960 -0.012257
# 6 -0.000570 -0.001000 0.005262 -0.049495 -0.012257 0.072000
#
#
# Mechanical properties :
#
#
# Convention : Reuss Voigt Hill
#
# Bulk Modulus (GPa) = 22.56502 44.59473 33.57988
# Shear Modulus (GPa) = 16.35699 30.48384 23.42041
#
# Velocity S-wave (km/s) = 2.65169 3.61998 3.17299
# Velocity P-wave (km/s) = 4.36754 6.05330 5.27816
#
# Compressibility (1/GPa) = 0.04431638
#
# Stress axis : x y z
#
# Youngs Moduli (GPa) = 68.69344 61.22608 65.13194
#
# Poissons Ratio (x) = 0.15224 -0.24252
# Poissons Ratio (y) = 0.17081 0.14333
# Poissons Ratio (z) = -0.25578 0.13474
#
# Static dielectric constant tensor:
#      x y z
#    x 2.075800 -0.019900 -0.002580 
#    y -0.019900 1.990450 -0.004070 
#    z -0.002580 -0.004070 1.896910 
# 
# From -- ./inp_files/602559.got.cif
#   From: 2010.05.17/outbox.cif.g08.bks.cpg/sg2_302_cif.got.tgz:602559.got - 2010.06.03 11:33:40.
