data_PCOD9032960
_publ_section_title
;
Structure prediction by ZEFSAII (Michael W. Deem and Ramdas Pophale) SiO2 
 PCOD9032960
Probable space group: P -1
;
_chemical_formula_sum "Si O2"
_cell_formula_units_Z 9
_cell_length_a 4.890296
_cell_length_b 5.435524
_cell_length_c 13.390450
_cell_angle_alpha 118.324703
_cell_angle_beta 94.840752
_cell_angle_gamma 93.732079
_cell_volume 309.952503
_symmetry_space_group_name_H-M "P -1"
_symmetry_group_IT_number 2
_symmetry_cell_setting 'triclinic'
loop_
_space_group_symop_operation_xyz
x,y,z
-x,-y,-z
loop_
_atom_site_type_symbol
_atom_site_label
_atom_site_fract_x
_atom_site_fract_y
_atom_site_fract_z
Si Si1 0.415527 0.702520 0.317531
Si Si2 0.230263 0.514218 0.562518
Si Si3 0.712096 0.616793 0.113697
Si Si4 0.000000 0.000000 0.500000
Si Si5 0.031348 0.789458 0.804474
O O1 0.531177 0.741928 0.218649
O O2 0.809456 0.294936 0.305742
O O3 0.182727 0.885902 0.380409
O O4 0.271502 0.379032 0.254221
O O5 0.500000 0.500000 0.500000
O O6 0.314577 0.233853 0.589058
O O7 0.064166 0.707635 0.510313
O O8 0.851875 0.369597 0.127170
O O9 0.923971 0.873712 0.125946
O O10 0.500000 0.500000 0.000000
#
# Coordination Sequence:
#
# PCOD9032960 Si02
#       5
#     2   2   2   1   2
#     4  10  24  46  72 109 155 196 253 315 370 467
#     4  10  23  41  69 104 148 198 245 303 380 451
#     4  11  25  49  75 106 149 199 256 320 382 450
#     4  10  22  44  64 108 144 200 248 294 384 448
#     4  10  25  44  72 112 146 194 259 306 389 454
#
# _framework density 29.036701999999998
#
# number of rings (size 3 to 8) (size 9 to 14) (size 15 to 20)
#    0.000    1.778    0.000    1.333    9.333    8.889 
#    8.000    3.333    0.000    0.000    0.000    0.000 
#    0.000    0.667    0.000    0.000    0.000    0.000 
#
# Total GULP energy -50451.400453 kJ/mol
# GULP energy per Si atom -5605.711161 kJ/mol
# Density = 2.897061 g / cm^3
# Si number density = 29.036702 Si / 1000 Ang^3
#
#
#
# Elastic Constant Matrix: (Units=GPa)
#
#
# Indices 1 2 3 4 5 6 
#
# 1 277.8292 81.4070 77.8204 -16.3458 18.5671 -9.0265
# 2 81.4070 297.7468 70.7815 -20.2857 24.5178 22.4325
# 3 77.8204 70.7815 171.5428 -24.9634 28.7530 5.0502
# 4 -16.3458 -20.2857 -24.9634 26.8311 2.8378 12.2768
# 5 18.5671 24.5178 28.7530 2.8378 69.3848 -5.5906
# 6 -9.0265 22.4325 5.0502 12.2768 -5.5906 72.3784
#
#
#
# Elastic Compliance Matrix: (Units=1/GPa)
#
#
# Indices 1 2 3 4 5 6 
#
# 1 0.004344 -0.000855 -0.001606 0.000112 -0.000128 0.000890
# 2 -0.000855 0.004210 -0.000617 0.003141 -0.001293 -0.002001
# 3 -0.001606 -0.000617 0.008608 0.007942 -0.003423 -0.002221
# 4 0.000112 0.003141 0.007942 0.052962 -0.007489 -0.011076
# 5 -0.000128 -0.001293 -0.003423 -0.007489 0.016886 0.003198
# 6 0.000890 -0.002001 -0.002221 -0.011076 0.003198 0.016828
#
#
# Mechanical properties :
#
#
# Convention : Reuss Voigt Hill
#
# Bulk Modulus (GPa) = 90.86185 134.12631 112.49408
# Shear Modulus (GPa) = 43.99034 68.19285 56.09160
#
# Velocity S-wave (km/s) = 3.89651 4.85140 4.39993
# Velocity P-wave (km/s) = 7.18357 8.81327 8.03982
#
# Compressibility (1/GPa) = 0.01100572
#
# Stress axis : x y z
#
# Youngs Moduli (GPa) = 230.21644 237.52576 116.17739
#
# Poissons Ratio (x) = 0.20300 0.18663
# Poissons Ratio (y) = 0.19676 0.07165
# Poissons Ratio (z) = 0.36983 0.14648
#
# Static dielectric constant tensor:
#      x y z
#    x 2.317340 -0.032810 0.087660 
#    y -0.032810 2.439610 -0.006260 
#    z 0.087660 -0.006260 2.112550 
# 
# From -- ./inp_files/477964.got.cif
#   From: 2010.05.17/outbox.cif.g08.bks.cpg/sg2_239_cif.got.tgz:477964.got - 2010.06.03 11:33:40.
