data_PCOD9032105
_publ_section_title
;
Structure prediction by ZEFSAII (Michael W. Deem and Ramdas Pophale) SiO2 
 PCOD9032105
Probable space group: P -1
;
_chemical_formula_sum "Si O2"
_cell_formula_units_Z 16
_cell_length_a 19.399066
_cell_length_b 11.671960
_cell_length_c 5.774433
_cell_angle_alpha 61.352270
_cell_angle_beta 50.731221
_cell_angle_gamma 36.827553
_cell_volume 605.693799
_symmetry_space_group_name_H-M "P -1"
_symmetry_group_IT_number 2
_symmetry_cell_setting 'triclinic'
loop_
_space_group_symop_operation_xyz
x,y,z
-x,-y,-z
loop_
_atom_site_type_symbol
_atom_site_label
_atom_site_fract_x
_atom_site_fract_y
_atom_site_fract_z
Si Si1 0.430700 0.546891 0.353846
Si Si2 0.588984 0.721252 0.181158
Si Si3 0.015482 0.269680 0.709042
Si Si4 0.250805 0.968062 0.214712
Si Si5 0.385207 0.035474 0.603333
Si Si6 0.894143 0.038336 0.843258
Si Si7 0.814109 0.585719 0.124233
Si Si8 0.782542 0.426220 0.720711
O O1 0.500000 0.500000 0.500000
O O2 0.402048 0.423890 0.554649
O O3 0.307692 0.776594 0.392324
O O4 0.500000 0.500000 0.000000
O O5 0.444000 0.930025 0.332778
O O6 0.698234 0.701407 0.070965
O O7 0.642349 0.629537 0.904178
O O8 0.898554 0.362410 0.691448
O O9 0.151295 0.154964 0.406160
O O10 0.955267 0.440667 0.847221
O O11 0.045007 0.099429 0.935065
O O12 0.169093 0.007366 0.130011
O O13 0.366633 0.930605 0.907113
O O14 0.500000 0.000000 0.500000
O O15 0.243827 0.255486 0.712457
O O16 0.789297 0.264151 0.894139
O O17 0.000000 0.000000 0.500000
O O18 0.814640 0.443681 0.383150
#
# Coordination Sequence:
#
# PCOD9032105 Si02
#       8
#     2   2   2   2   2   2   2   2
#     4  12  28  46  71 111 154 192 245 310 378 457
#     4  10  23  41  68  99 138 189 239 297 376 432
#     4  11  23  41  66 106 137 186 232 291 380 442
#     4  12  26  44  71 104 144 187 240 298 375 439
#     4  10  24  48  69  95 137 190 253 309 357 433
#     4  12  23  41  70 106 147 177 223 293 368 456
#     4  10  22  43  69  96 138 184 248 301 358 438
#     4  11  22  39  68 104 140 184 229 297 368 449
#
# _framework density 26.415987999999999
#
# number of rings (size 3 to 8) (size 9 to 14) (size 15 to 20)
#    0.000    1.000    3.750    1.875    7.000    1.000 
#    0.000    8.750    0.000    0.000    0.000    0.000 
#    0.000    0.000    0.000    0.000    0.000    0.000 
#
# Total GULP energy -89554.078199 kJ/mol
# GULP energy per Si atom -5597.129887 kJ/mol
# Density = 2.635586 g / cm^3
# Si number density = 26.415988 Si / 1000 Ang^3
#
#
#
# Elastic Constant Matrix: (Units=GPa)
#
#
# Indices 1 2 3 4 5 6 
#
# 1 77.5040 15.1949 23.1883 2.7858 -3.4850 -15.8970
# 2 15.1949 165.5912 31.4832 51.8503 10.9972 5.7315
# 3 23.1883 31.4832 123.0484 34.2090 -6.2764 -3.6702
# 4 2.7858 51.8503 34.2090 70.0324 2.9577 7.4957
# 5 -3.4850 10.9972 -6.2764 2.9577 32.0354 -5.5909
# 6 -15.8970 5.7315 -3.6702 7.4957 -5.5909 27.9380
#
#
#
# Elastic Compliance Matrix: (Units=1/GPa)
#
#
# Indices 1 2 3 4 5 6 
#
# 1 0.016079 -0.001812 -0.002262 0.000609 0.003578 0.009776
# 2 -0.001812 0.008278 -0.000453 -0.005507 -0.002951 -0.001902
# 3 -0.002262 -0.000453 0.010230 -0.004902 0.002717 0.002009
# 4 0.000609 -0.005507 -0.004902 0.021372 -0.001898 -0.005281
# 5 0.003578 -0.002951 0.002717 -0.001898 0.035165 0.010545
# 6 0.009776 -0.001902 0.002009 -0.005281 0.010545 0.045537
#
#
# Mechanical properties :
#
#
# Convention : Reuss Voigt Hill
#
# Bulk Modulus (GPa) = 39.16429 56.20848 47.68638
# Shear Modulus (GPa) = 32.42012 45.75299 39.08655
#
# Velocity S-wave (km/s) = 3.50707 4.16627 3.85080
# Velocity P-wave (km/s) = 5.59085 6.66844 6.15328
#
# Compressibility (1/GPa) = 0.02553346
#
# Stress axis : x y z
#
# Youngs Moduli (GPa) = 62.19419 120.80931 97.75031
#
# Poissons Ratio (x) = 0.21893 0.22108
# Poissons Ratio (y) = 0.11271 0.04424
# Poissons Ratio (z) = 0.14066 0.05467
#
# Static dielectric constant tensor:
#      x y z
#    x 1.964730 0.401290 -0.013990 
#    y 0.401290 0.820450 0.226020 
#    z -0.013990 0.226020 2.043870 
# 
# From -- ./inp_files/118492.got.cif
#   From: 2010.05.17/outbox.cif.g08.bks.cpg/sg2_60_cif.got.tgz:118492.got - 2010.06.03 11:33:40.
