data_PCOD9032018
_publ_section_title
;
Structure prediction by ZEFSAII (Michael W. Deem and Ramdas Pophale) SiO2 
 PCOD9032018
Probable space group: P -1
;
_chemical_formula_sum "Si O2"
_cell_formula_units_Z 16
_cell_length_a 9.042299
_cell_length_b 22.568071
_cell_length_c 5.599813
_cell_angle_alpha 64.949716
_cell_angle_beta 97.570946
_cell_angle_gamma 54.392868
_cell_volume 722.204073
_symmetry_space_group_name_H-M "P -1"
_symmetry_group_IT_number 2
_symmetry_cell_setting 'triclinic'
loop_
_space_group_symop_operation_xyz
x,y,z
-x,-y,-z
loop_
_atom_site_type_symbol
_atom_site_label
_atom_site_fract_x
_atom_site_fract_y
_atom_site_fract_z
Si Si1 0.166873 0.289184 0.538490
Si Si2 0.678911 0.956632 0.311503
Si Si3 0.227906 0.401399 0.660954
Si Si4 0.289977 0.611569 0.797816
Si Si5 0.660837 0.854161 0.831730
Si Si6 0.570705 0.401648 0.651829
Si Si7 0.036088 0.948335 0.340768
Si Si8 0.478084 0.230476 0.307712
O O1 0.174718 0.354094 0.575508
O O2 0.378816 0.232526 0.523763
O O3 0.930186 0.359029 0.259179
O O4 0.190839 0.210824 0.805762
O O5 0.753126 0.868048 0.612977
O O6 0.873397 0.939292 0.302932
O O7 0.552498 0.041929 0.324074
O O8 0.500000 0.000000 0.000000
O O9 0.376292 0.411709 0.564974
O O10 0.000000 0.500000 0.500000
O O11 0.355548 0.334191 0.032578
O O12 0.289485 0.646054 0.477533
O O13 0.500000 0.500000 0.000000
O O14 0.321916 0.644145 0.988580
O O15 0.594697 0.803052 0.830354
O O16 0.500000 0.500000 0.500000
O O17 0.272247 0.845983 0.541237
O O18 0.000000 0.000000 0.500000
O O19 0.000000 0.000000 0.000000
#
# Coordination Sequence:
#
# PCOD9032018 Si02
#       8
#     2   2   2   2   2   2   2   2
#     4  11  25  44  74 100 147 194 251 308 367 443
#     4  11  23  43  76 107 142 191 243 296 373 446
#     4  11  26  45  73 103 146 198 252 310 371 446
#     4  10  23  42  70  96 137 187 238 300 367 424
#     4  10  22  43  69 105 142 184 244 297 365 441
#     4  10  23  44  68 101 138 184 249 299 370 430
#     4  12  26  48  78 106 153 197 241 309 378 445
#     4  11  26  46  71 107 148 193 254 301 378 448
#
# _framework density 22.154405000000001
#
# number of rings (size 3 to 8) (size 9 to 14) (size 15 to 20)
#    0.000    1.250    1.250    3.750   12.250    1.500 
#    2.250    0.000    0.000    0.000    0.000    0.000 
#    0.000    0.000    0.000    0.000    0.000    0.000 
#
# Total GULP energy -89172.317401 kJ/mol
# GULP energy per Si atom -5573.269838 kJ/mol
# Density = 2.210398 g / cm^3
# Si number density = 22.154405 Si / 1000 Ang^3
#
#
#
# Elastic Constant Matrix: (Units=GPa)
#
#
# Indices 1 2 3 4 5 6 
#
# 1 175.0893 40.6287 52.8538 -8.7413 -1.2356 -25.7924
# 2 40.6287 80.4184 50.8951 2.1812 13.4957 -26.1671
# 3 52.8538 50.8951 97.3419 -3.0734 -10.3264 -15.8816
# 4 -8.7413 2.1812 -3.0734 43.9929 2.1222 -0.5981
# 5 -1.2356 13.4957 -10.3264 2.1222 25.9186 1.4404
# 6 -25.7924 -26.1671 -15.8816 -0.5981 1.4404 34.8431
#
#
#
# Elastic Compliance Matrix: (Units=1/GPa)
#
#
# Indices 1 2 3 4 5 6 
#
# 1 0.007404 -0.000153 -0.003395 0.001355 -0.001247 0.003894
# 2 -0.000153 0.033719 -0.017288 -0.001437 -0.025355 0.018354
# 3 -0.003395 -0.017288 0.022075 0.000777 0.017914 -0.006161
# 4 0.001355 -0.001437 0.000777 0.023175 -0.000814 0.000709
# 5 -0.001247 -0.025355 0.017914 -0.000814 0.059723 -0.014282
# 6 0.003894 0.018354 -0.006161 0.000709 -0.014282 0.043160
#
#
# Mechanical properties :
#
#
# Convention : Reuss Voigt Hill
#
# Bulk Modulus (GPa) = 46.45180 71.28942 58.87061
# Shear Modulus (GPa) = 20.99947 34.84904 27.92426
#
# Velocity S-wave (km/s) = 3.08209 3.97042 3.55412
# Velocity P-wave (km/s) = 5.80332 7.29844 6.59340
#
# Compressibility (1/GPa) = 0.02152769
#
# Stress axis : x y z
#
# Youngs Moduli (GPa) = 135.06382 29.65665 45.30062
#
# Poissons Ratio (x) = 0.00453 0.15377
# Poissons Ratio (y) = 0.02064 0.78315
# Poissons Ratio (z) = 0.45848 0.51270
#
# Static dielectric constant tensor:
#      x y z
#    x 2.196270 0.870900 0.005520 
#    y 0.870900 3.859790 0.211350 
#    z 0.005520 0.211350 1.929000 
# 
# From -- ./inp_files/55363.got.cif
#   From: 2010.05.17/outbox.cif.g08.bks.cpg/sg2_28_cif.got.tgz:55363.got - 2010.06.03 11:33:40.
