data_PCOD9032777
_publ_section_title
;
Structure prediction by ZEFSAII (Michael W. Deem and Ramdas Pophale) SiO2 
 PCOD9032777
Probable space group: P -1
;
_chemical_formula_sum "Si O2"
_cell_formula_units_Z 14
_cell_length_a 12.777816
_cell_length_b 13.809198
_cell_length_c 8.293173
_cell_angle_alpha 78.093705
_cell_angle_beta 76.579840
_cell_angle_gamma 26.894722
_cell_volume 643.870769
_symmetry_space_group_name_H-M "P -1"
_symmetry_group_IT_number 2
_symmetry_cell_setting 'triclinic'
loop_
_space_group_symop_operation_xyz
x,y,z
-x,-y,-z
loop_
_atom_site_type_symbol
_atom_site_label
_atom_site_fract_x
_atom_site_fract_y
_atom_site_fract_z
Si Si1 0.993269 0.597402 0.592799
Si Si2 0.245715 0.320489 0.889570
Si Si3 0.734596 0.178578 0.508444
Si Si4 0.456252 0.496089 0.767736
Si Si5 0.118275 0.796290 0.053104
Si Si6 0.191857 0.071343 0.640871
Si Si7 0.477176 0.091757 0.192238
O O1 0.973096 0.713345 0.457906
O O2 0.751620 0.779887 0.712864
O O3 0.000000 0.500000 0.500000
O O4 0.194973 0.428395 0.713787
O O5 0.340128 0.139373 0.850612
O O6 0.413147 0.210967 0.017847
O O7 0.000000 0.500000 0.000000
O O8 0.576380 0.314833 0.677474
O O9 0.618660 0.350739 0.368324
O O10 0.746131 0.062320 0.464835
O O11 0.000000 0.000000 0.500000
O O12 0.662790 0.364294 0.853907
O O13 0.228437 0.659218 0.899537
O O14 0.939704 0.872159 0.182485
O O15 0.000000 0.000000 0.000000
O O16 0.418765 0.936043 0.683480
#
# Coordination Sequence:
#
# PCOD9032777 Si02
#       7
#     2   2   2   2   2   2   2
#     4  11  23  43  72 101 139 180 234 294 342 421
#     4   9  20  44  69  93 140 175 225 298 345 405
#     4  11  22  45  68 102 141 177 237 298 341 421
#     4  10  22  43  74  91 136 190 218 301 352 397
#     4  11  22  45  68 101 140 180 240 288 343 431
#     4  12  24  41  75 102 144 190 231 288 364 409
#     4  10  22  44  69  99 137 182 232 294 343 420
#
# _framework density 21.743493000000001
#
# number of rings (size 3 to 8) (size 9 to 14) (size 15 to 20)
#    0.000    1.429    4.286    0.429    0.000    1.143 
#    0.000   11.429    0.000    0.000    0.000    0.000 
#    0.000    0.000    0.000    0.000    0.000    0.000 
#
# Total GULP energy -78242.028076 kJ/mol
# GULP energy per Si atom -5588.716291 kJ/mol
# Density = 2.169400 g / cm^3
# Si number density = 21.743493 Si / 1000 Ang^3
#
#
#
# Elastic Constant Matrix: (Units=GPa)
#
#
# Indices 1 2 3 4 5 6 
#
# 1 42.9933 29.1997 17.6244 -5.9204 8.0357 9.7930
# 2 29.1997 132.1056 50.6873 4.1894 6.7372 10.9882
# 3 17.6244 50.6873 110.3232 -5.7179 1.4561 12.5814
# 4 -5.9204 4.1894 -5.7179 71.6409 -2.4305 11.2684
# 5 8.0357 6.7372 1.4561 -2.4305 40.4011 3.5504
# 6 9.7930 10.9882 12.5814 11.2684 3.5504 30.6811
#
#
#
# Elastic Compliance Matrix: (Units=1/GPa)
#
#
# Indices 1 2 3 4 5 6 
#
# 1 0.030729 -0.005575 -0.001141 0.003939 -0.004174 -0.008308
# 2 -0.005575 0.010381 -0.003980 -0.001452 -0.000592 0.000296
# 3 -0.001141 -0.003980 0.011568 0.001670 0.000897 -0.003671
# 4 0.003939 -0.001452 0.001670 0.015683 0.000983 -0.007296
# 5 -0.004174 -0.000592 0.000897 0.000983 0.025899 -0.002181
# 6 -0.008308 0.000296 -0.003671 -0.007296 -0.002181 0.039577
#
#
# Mechanical properties :
#
#
# Convention : Reuss Voigt Hill
#
# Bulk Modulus (GPa) = 31.96337 53.38278 42.67307
# Shear Modulus (GPa) = 30.18277 41.07200 35.62739
#
# Velocity S-wave (km/s) = 3.72980 4.35090 4.05227
# Velocity P-wave (km/s) = 5.76894 7.06009 6.44692
#
# Compressibility (1/GPa) = 0.03128582
#
# Stress axis : x y z
#
# Youngs Moduli (GPa) = 32.54295 96.33248 86.44233
#
# Poissons Ratio (x) = 0.53710 0.09861
# Poissons Ratio (y) = 0.18144 0.34403
# Poissons Ratio (z) = 0.03712 0.38339
#
# Static dielectric constant tensor:
#      x y z
#    x 1.767660 -0.021030 0.008350 
#    y -0.021030 1.788840 0.009330 
#    z 0.008350 0.009330 1.857900 
# 
# From -- ./inp_files/134956.got.cif
#   From: 2010.05.17/outbox.cif.g08.bks.cpg/sg2_68_cif.got.tgz:134956.got - 2010.06.03 11:33:40.
