data_PCOD9032013
_publ_section_title
;
Structure prediction by ZEFSAII (Michael W. Deem and Ramdas Pophale) SiO2 
 PCOD9032013
Probable space group: P -1
;
_chemical_formula_sum "Si O2"
_cell_formula_units_Z 8
_cell_length_a 6.682309
_cell_length_b 11.987192
_cell_length_c 5.144963
_cell_angle_alpha 54.348826
_cell_angle_beta 77.978070
_cell_angle_gamma 63.891149
_cell_volume 300.053945
_symmetry_space_group_name_H-M "P -1"
_symmetry_group_IT_number 2
_symmetry_cell_setting 'triclinic'
loop_
_space_group_symop_operation_xyz
x,y,z
-x,-y,-z
loop_
_atom_site_type_symbol
_atom_site_label
_atom_site_fract_x
_atom_site_fract_y
_atom_site_fract_z
Si Si1 0.845437 0.508858 0.282525
Si Si2 0.342469 0.721045 0.143875
Si Si3 0.003648 0.163202 0.290990
Si Si4 0.256083 0.053431 0.876605
O O1 0.609869 0.653966 0.151692
O O2 0.000000 0.500000 0.500000
O O3 0.751774 0.274226 0.132215
O O4 0.000000 0.500000 0.000000
O O5 0.251861 0.619704 0.479500
O O6 0.243373 0.891053 0.054438
O O7 0.169482 0.146339 0.507970
O O8 0.120447 0.165093 0.986197
O O9 0.000000 0.000000 0.500000
O O10 0.500000 0.000000 0.000000
#
# Coordination Sequence:
#
# PCOD9032013 Si02
#       4
#     2   2   2   2
#     4  11  28  49  76 106 140 201 253 298 361 425
#     4  10  25  50  75 106 154 187 244 312 354 435
#     4  10  22  43  69 104 147 185 229 297 367 430
#     4  11  24  43  73 113 143 189 234 291 380 441
#
# _framework density 26.661871999999999
#
# number of rings (size 3 to 8) (size 9 to 14) (size 15 to 20)
#    0.000    1.500    0.000    3.750    3.500   16.000 
#    0.000    0.000    0.000    0.000    0.000    0.000 
#    0.000    0.000    0.000    0.000    0.000    0.000 
#
# Total GULP energy -44680.265915 kJ/mol
# GULP energy per Si atom -5585.033239 kJ/mol
# Density = 2.660119 g / cm^3
# Si number density = 26.661872 Si / 1000 Ang^3
#
#
#
# Elastic Constant Matrix: (Units=GPa)
#
#
# Indices 1 2 3 4 5 6 
#
# 1 210.0658 63.3050 114.3492 7.5026 42.1151 -19.6012
# 2 63.3050 114.3821 64.6310 -16.7740 -0.8973 -13.2718
# 3 114.3492 64.6310 239.5341 26.6967 48.1994 -2.0874
# 4 7.5026 -16.7740 26.6967 45.7367 11.5638 -3.9063
# 5 42.1151 -0.8973 48.1994 11.5638 71.3704 -14.5872
# 6 -19.6012 -13.2718 -2.0874 -3.9063 -14.5872 68.0249
#
#
#
# Elastic Compliance Matrix: (Units=1/GPa)
#
#
# Indices 1 2 3 4 5 6 
#
# 1 0.007457 -0.002807 -0.002228 -0.000187 -0.002708 0.000941
# 2 -0.002807 0.014014 -0.004024 0.007197 0.004013 0.003075
# 3 -0.002228 -0.004024 0.007548 -0.004819 -0.003507 -0.002224
# 4 -0.000187 0.007197 -0.004819 0.027699 -0.000483 0.002689
# 5 -0.002708 0.004013 -0.003507 -0.000483 0.018908 0.003922
# 6 0.000941 0.003075 -0.002224 0.002689 0.003922 0.016499
#
#
# Mechanical properties :
#
#
# Convention : Reuss Voigt Hill
#
# Bulk Modulus (GPa) = 91.74973 116.50584 104.12779
# Shear Modulus (GPa) = 43.90749 58.47283 51.19016
#
# Velocity S-wave (km/s) = 4.06251 4.68816 4.38651
# Velocity P-wave (km/s) = 7.51614 8.54971 8.04953
#
# Compressibility (1/GPa) = 0.01089921
#
# Stress axis : x y z
#
# Youngs Moduli (GPa) = 134.10532 71.35878 132.49366
#
# Poissons Ratio (x) = 0.20033 0.29524
# Poissons Ratio (y) = 0.37649 0.53312
# Poissons Ratio (z) = 0.29883 0.28713
#
# Static dielectric constant tensor:
#      x y z
#    x 2.215530 0.239680 -0.173380 
#    y 0.239680 1.609220 0.508740 
#    z -0.173380 0.508740 1.882560 
# 
# From -- ./inp_files/2202.got.cif
#   From: 2010.05.17/outbox.cif.g08.bks.cpg/sg2_2_cif.got.tgz:2202.got - 2010.06.03 11:33:40.
