data_PCOD9032875
_publ_section_title
;
Structure prediction by ZEFSAII (Michael W. Deem and Ramdas Pophale) SiO2 
 PCOD9032875
Probable space group: P -1
;
_chemical_formula_sum "Si O2"
_cell_formula_units_Z 15
_cell_length_a 12.567805
_cell_length_b 6.367075
_cell_length_c 24.789426
_cell_angle_alpha 121.366966
_cell_angle_beta 26.318021
_cell_angle_gamma 118.067489
_cell_volume 750.886268
_symmetry_space_group_name_H-M "P -1"
_symmetry_group_IT_number 2
_symmetry_cell_setting 'triclinic'
loop_
_space_group_symop_operation_xyz
x,y,z
-x,-y,-z
loop_
_atom_site_type_symbol
_atom_site_label
_atom_site_fract_x
_atom_site_fract_y
_atom_site_fract_z
Si Si1 0.641369 0.058904 0.537590
Si Si2 0.094855 0.647963 0.630898
Si Si3 0.500000 0.500000 0.500000
Si Si4 0.196550 0.394670 0.974899
Si Si5 0.463369 0.980341 0.842219
Si Si6 0.961191 0.127111 0.590778
Si Si7 0.679761 0.558024 0.199307
Si Si8 0.555088 0.829677 0.901494
O O1 0.716214 0.175680 0.461888
O O2 0.475082 0.247401 0.671250
O O3 0.526924 0.790072 0.546453
O O4 0.886732 0.020086 0.453870
O O5 0.221236 0.553269 0.614656
O O6 0.056226 0.404327 0.580266
O O7 0.834168 0.761015 0.770337
O O8 0.266050 0.354975 0.874990
O O9 0.378833 0.591590 0.945724
O O10 0.228061 0.137310 0.956839
O O11 0.930695 0.505157 0.108349
O O12 0.445792 0.708086 0.788442
O O13 0.509559 0.960070 0.882090
O O14 0.685755 0.120381 0.732491
O O15 0.000000 0.000000 0.500000
O O16 0.500000 0.000000 0.000000
#
# Coordination Sequence:
#
# PCOD9032875 Si02
#       8
#     2   2   1   2   2   2   2   2
#     4  11  23  42  66  96 127 172 209 264 330 375
#     4  11  23  45  63  93 130 163 218 269 316 382
#     4  10  26  44  64  92 130 168 214 270 310 392
#     4  10  22  44  61  98 133 164 215 264 313 391
#     4  11  21  41  64  97 130 168 216 265 316 384
#     4  11  22  36  67  99 130 165 206 264 324 386
#     4  10  23  39  68  94 134 169 205 264 324 381
#     4  11  25  42  67  91 127 174 216 271 318 374
#
# _framework density 19.976396999999999
#
# number of rings (size 3 to 8) (size 9 to 14) (size 15 to 20)
#    0.000    1.333    2.667    2.400    3.733    2.667 
#    2.400    0.000    0.000    0.000    0.000    0.000 
#    0.000    0.000    0.000    0.000    0.000    0.000 
#
# Total GULP energy -83521.805356 kJ/mol
# GULP energy per Si atom -5568.120357 kJ/mol
# Density = 1.993093 g / cm^3
# Si number density = 19.976397 Si / 1000 Ang^3
#
#
#
# Elastic Constant Matrix: (Units=GPa)
#
#
# Indices 1 2 3 4 5 6 
#
# 1 87.4828 34.7992 58.3330 16.8517 -14.8194 14.7046
# 2 34.7992 70.6854 30.1656 21.5160 4.0831 13.8024
# 3 58.3330 30.1656 122.0373 32.5032 -13.6326 9.8449
# 4 16.8517 21.5160 32.5032 28.3788 -2.3467 -7.2936
# 5 -14.8194 4.0831 -13.6326 -2.3467 29.5868 9.0349
# 6 14.7046 13.8024 9.8449 -7.2936 9.0349 28.0958
#
#
#
# Elastic Compliance Matrix: (Units=1/GPa)
#
#
# Indices 1 2 3 4 5 6 
#
# 1 0.022699 -0.005528 -0.005708 -0.004918 0.012962 -0.012609
# 2 -0.005528 0.026958 0.004765 -0.027540 -0.000693 -0.018946
# 3 -0.005708 0.004765 0.018112 -0.024036 0.007284 -0.014282
# 4 -0.004918 -0.027540 -0.024036 0.099509 -0.019098 0.056499
# 5 0.012962 -0.000693 0.007284 -0.019098 0.051552 -0.030532
# 6 -0.012609 -0.018946 -0.014282 0.056499 -0.030532 0.080989
#
#
# Mechanical properties :
#
#
# Convention : Reuss Voigt Hill
#
# Bulk Modulus (GPa) = 18.23964 58.53345 38.38655
# Shear Modulus (GPa) = 15.10405 27.67278 21.38842
#
# Velocity S-wave (km/s) = 2.75270 3.72596 3.27568
# Velocity P-wave (km/s) = 4.38789 6.91920 5.79348
#
# Compressibility (1/GPa) = 0.05482564
#
# Stress axis : x y z
#
# Youngs Moduli (GPa) = 44.05546 37.09496 55.21081
#
# Poissons Ratio (x) = 0.20508 0.31515
# Poissons Ratio (y) = 0.24356 -0.26308
# Poissons Ratio (z) = 0.25148 -0.17676
#
# Static dielectric constant tensor:
#      x y z
#    x 1.746780 -0.025520 -0.021510 
#    y -0.025520 1.749380 -0.017650 
#    z -0.021510 -0.017650 1.647980 
# 
# From -- ./inp_files/64841.got.cif
#   From: 2010.05.17/outbox.cif.g08.bks.cpg/sg2_33_cif.got.tgz:64841.got - 2010.06.03 11:33:40.
