data_PCOD9032839
_publ_section_title
;
Structure prediction by ZEFSAII (Michael W. Deem and Ramdas Pophale) SiO2 
 PCOD9032839
Probable space group: P -1
;
_chemical_formula_sum "Si O2"
_cell_formula_units_Z 10
_cell_length_a 8.404389
_cell_length_b 8.020348
_cell_length_c 10.588000
_cell_angle_alpha 90.955254
_cell_angle_beta 102.494506
_cell_angle_gamma 144.160284
_cell_volume 384.272162
_symmetry_space_group_name_H-M "P -1"
_symmetry_group_IT_number 2
_symmetry_cell_setting 'triclinic'
loop_
_space_group_symop_operation_xyz
x,y,z
-x,-y,-z
loop_
_atom_site_type_symbol
_atom_site_label
_atom_site_fract_x
_atom_site_fract_y
_atom_site_fract_z
Si Si1 0.280225 0.627557 0.017724
Si Si2 0.918877 0.091980 0.098230
Si Si3 0.793446 0.868976 0.345419
Si Si4 0.482251 0.691811 0.800799
Si Si5 0.321094 0.848448 0.595231
O O1 0.630493 0.970160 0.081013
O O2 0.244661 0.519813 0.870626
O O3 0.218373 0.437275 0.112885
O O4 0.000000 0.500000 0.000000
O O5 0.932824 0.002863 0.229321
O O6 0.771381 0.902867 0.938817
O O7 0.596780 0.534113 0.298142
O O8 0.693133 0.972372 0.360402
O O9 0.000000 0.000000 0.500000
O O10 0.477266 0.855936 0.720960
O O11 0.000000 0.500000 0.500000
O O12 0.500000 0.000000 0.500000
#
# Coordination Sequence:
#
# PCOD9032839 Si02
#       5
#     2   2   2   2   2
#     4  10  22  43  77 109 148 190 251 307 370 437
#     4  10  25  45  74 110 146 193 249 306 367 446
#     4  12  26  52  76 114 154 202 247 315 377 449
#     4  10  26  49  77 109 149 194 255 302 375 441
#     4  12  29  51  75 109 153 200 250 311 378 446
#
# _framework density 26.023223999999999
#
# number of rings (size 3 to 8) (size 9 to 14) (size 15 to 20)
#    1.200    0.000    2.000    2.400    5.600    3.200 
#    7.200    0.000    0.000    0.000    0.000    0.000 
#    0.000    0.000    0.000    0.000    0.000    0.000 
#
# Total GULP energy -55825.598960 kJ/mol
# GULP energy per Si atom -5582.559896 kJ/mol
# Density = 2.596399 g / cm^3
# Si number density = 26.023224 Si / 1000 Ang^3
#
#
#
# Elastic Constant Matrix: (Units=GPa)
#
#
# Indices 1 2 3 4 5 6 
#
# 1 147.5405 64.3129 85.4426 8.2550 8.8494 -43.3030
# 2 64.3129 147.1299 61.7001 -10.2584 -19.5873 8.3406
# 3 85.4426 61.7001 212.5873 -4.4332 14.5341 -19.8486
# 4 8.2550 -10.2584 -4.4332 65.5870 -11.7364 -1.6019
# 5 8.8494 -19.5873 14.5341 -11.7364 58.4676 -1.6178
# 6 -43.3030 8.3406 -19.8486 -1.6019 -1.6178 52.5963
#
#
#
# Elastic Compliance Matrix: (Units=1/GPa)
#
#
# Indices 1 2 3 4 5 6 
#
# 1 0.015931 -0.007404 -0.002808 -0.003861 -0.004610 0.012971
# 2 -0.007404 0.012309 -0.001727 0.003640 0.006172 -0.008399
# 3 -0.002808 -0.001727 0.006490 0.000225 -0.001711 0.000365
# 4 -0.003861 0.003640 0.000225 0.017159 0.005109 -0.002992
# 5 -0.004610 0.006172 -0.001711 0.005109 0.021192 -0.004613
# 6 0.012971 -0.008399 0.000365 -0.002992 -0.004613 0.030929
#
#
# Mechanical properties :
#
#
# Convention : Reuss Voigt Hill
#
# Bulk Modulus (GPa) = 92.15808 103.35209 97.75508
# Shear Modulus (GPa) = 38.02114 55.05033 46.53574
#
# Velocity S-wave (km/s) = 3.82651 4.60437 4.23334
# Velocity P-wave (km/s) = 7.41711 8.25037 7.84481
#
# Compressibility (1/GPa) = 0.01085092
#
# Stress axis : x y z
#
# Youngs Moduli (GPa) = 62.76920 81.24133 154.09281
#
# Poissons Ratio (x) = 0.60155 0.43274
# Poissons Ratio (y) = 0.46477 0.26608
# Poissons Ratio (z) = 0.17628 0.14028
#
# Static dielectric constant tensor:
#      x y z
#    x 2.452890 0.004630 0.029270 
#    y 0.004630 2.025870 0.037800 
#    z 0.029270 0.037800 2.031600 
# 
# From -- ./inp_files/147431.got.cif
#   From: 2010.05.17/outbox.cif.g08.bks.cpg/sg2_74_cif.got.tgz:147431.got - 2010.06.03 11:33:40.
