data_PCOD9032676
_publ_section_title
;
Structure prediction by ZEFSAII (Michael W. Deem and Ramdas Pophale) SiO2 
 PCOD9032676
Probable space group: P -1
;
_chemical_formula_sum "Si O2"
_cell_formula_units_Z 14
_cell_length_a 7.973666
_cell_length_b 13.907471
_cell_length_c 9.938727
_cell_angle_alpha 58.334095
_cell_angle_beta 116.758371
_cell_angle_gamma 142.182069
_cell_volume 573.839974
_symmetry_space_group_name_H-M "P -1"
_symmetry_group_IT_number 2
_symmetry_cell_setting 'triclinic'
loop_
_space_group_symop_operation_xyz
x,y,z
-x,-y,-z
loop_
_atom_site_type_symbol
_atom_site_label
_atom_site_fract_x
_atom_site_fract_y
_atom_site_fract_z
Si Si1 0.920432 0.907600 0.357169
Si Si2 0.075419 0.407388 0.140775
Si Si3 0.646561 0.241942 0.648353
Si Si4 0.775265 0.735823 0.896103
Si Si5 0.666401 0.067349 0.372741
Si Si6 0.225008 0.541214 0.690596
Si Si7 0.308001 0.346171 0.761097
O O1 0.615698 0.802765 0.369863
O O2 0.883713 0.801866 0.302288
O O3 0.102597 0.928057 0.522276
O O4 0.059106 0.081833 0.224397
O O5 0.119884 0.328148 0.101443
O O6 0.371391 0.541453 0.221157
O O7 0.828698 0.250643 0.257479
O O8 0.000000 0.500000 0.000000
O O9 0.731628 0.323459 0.470878
O O10 0.910282 0.381506 0.732632
O O11 0.538693 0.067158 0.718703
O O12 0.459808 0.622179 0.824017
O O13 0.779388 0.721011 0.067998
O O14 0.500000 0.000000 0.500000
O O15 0.278854 0.467662 0.652068
#
# Coordination Sequence:
#
# PCOD9032676 Si02
#       7
#     2   2   2   2   2   2   2
#     4  12  24  45  73 107 145 184 249 293 363 421
#     4  11  26  47  75 108 144 193 243 296 368 430
#     4  11  23  43  74 105 136 186 239 307 358 425
#     4  11  23  48  75  98 151 194 235 298 362 432
#     4  12  26  44  75 108 148 188 239 307 360 426
#     4  10  22  43  73 102 139 185 242 293 367 427
#     4  11  26  43  69 106 146 195 237 295 358 433
#
# _framework density 24.397044000000001
#
# number of rings (size 3 to 8) (size 9 to 14) (size 15 to 20)
#    0.000    0.857    2.857    5.143    2.000    8.000 
#    2.571    1.429    0.000    0.000    0.000    0.000 
#    0.000    0.000    0.000    0.000    0.000    0.000 
#
# Total GULP energy -78455.809378 kJ/mol
# GULP energy per Si atom -5603.986384 kJ/mol
# Density = 2.434152 g / cm^3
# Si number density = 24.397044 Si / 1000 Ang^3
#
#
#
# Elastic Constant Matrix: (Units=GPa)
#
#
# Indices 1 2 3 4 5 6 
#
# 1 83.8011 44.2460 11.6232 1.5392 9.3973 20.8756
# 2 44.2460 159.9267 53.6063 -19.7281 0.3246 8.4057
# 3 11.6232 53.6063 81.0156 -23.2882 0.0615 2.3615
# 4 1.5392 -19.7281 -23.2882 54.7388 -6.0484 -0.8749
# 5 9.3973 0.3246 0.0615 -6.0484 43.0864 2.3456
# 6 20.8756 8.4057 2.3615 -0.8749 2.3456 52.6166
#
#
#
# Elastic Compliance Matrix: (Units=1/GPa)
#
#
# Indices 1 2 3 4 5 6 
#
# 1 0.016128 -0.004510 0.000114 -0.002510 -0.003533 -0.005567
# 2 -0.004510 0.009380 -0.005160 0.001441 0.001095 0.000498
# 3 0.000114 -0.005160 0.017350 0.005605 0.000773 0.000059
# 4 -0.002510 0.001441 0.005605 0.021644 0.003528 0.000717
# 5 -0.003533 0.001095 0.000773 0.003528 0.024457 0.000160
# 6 -0.005567 0.000498 0.000059 0.000717 0.000160 0.021137
#
#
# Mechanical properties :
#
#
# Convention : Reuss Voigt Hill
#
# Bulk Modulus (GPa) = 42.11497 60.41047 51.26272
# Shear Modulus (GPa) = 36.46342 44.43956 40.45149
#
# Velocity S-wave (km/s) = 3.87018 4.27255 4.07633
# Velocity P-wave (km/s) = 6.10499 7.01104 6.57364
#
# Compressibility (1/GPa) = 0.02374452
#
# Stress axis : x y z
#
# Youngs Moduli (GPa) = 62.00559 106.61315 57.63557
#
# Poissons Ratio (x) = 0.48081 -0.00656
# Poissons Ratio (y) = 0.27964 0.29743
# Poissons Ratio (z) = -0.00706 0.55018
#
# Static dielectric constant tensor:
#      x y z
#    x 1.994740 -0.000680 -0.036200 
#    y -0.000680 1.927580 -0.002330 
#    z -0.036200 -0.002330 1.919100 
# 
# From -- ./inp_files/397223.got.cif
#   From: 2010.05.17/outbox.cif.g08.bks.cpg/sg2_199_cif.got.tgz:397223.got - 2010.06.03 11:33:40.
