data_PCOD9032955
_publ_section_title
;
Structure prediction by ZEFSAII (Michael W. Deem and Ramdas Pophale) SiO2 
 PCOD9032955
Probable space group: P -1
;
_chemical_formula_sum "Si O2"
_cell_formula_units_Z 16
_cell_length_a 24.799843
_cell_length_b 5.606508
_cell_length_c 6.401094
_cell_angle_alpha 107.579073
_cell_angle_beta 48.889791
_cell_angle_gamma 100.512317
_cell_volume 639.099261
_symmetry_space_group_name_H-M "P -1"
_symmetry_group_IT_number 2
_symmetry_cell_setting 'triclinic'
loop_
_space_group_symop_operation_xyz
x,y,z
-x,-y,-z
loop_
_atom_site_type_symbol
_atom_site_label
_atom_site_fract_x
_atom_site_fract_y
_atom_site_fract_z
Si Si1 0.448184 0.530210 0.833038
Si Si2 0.058905 0.455228 0.659800
Si Si3 0.091120 0.892693 0.379521
Si Si4 0.177276 0.636350 0.715542
Si Si5 0.562764 0.226954 0.696172
Si Si6 0.765934 0.115731 0.737184
Si Si7 0.292787 0.465306 0.687237
Si Si8 0.654124 0.813053 0.168725
O O1 0.500000 0.500000 0.500000
O O2 0.486640 0.334078 0.840451
O O3 0.372790 0.447043 0.918690
O O4 0.442649 0.786413 0.042812
O O5 0.054186 0.669673 0.548092
O O6 0.132311 0.501347 0.613897
O O7 0.054152 0.167857 0.515688
O O8 0.000000 0.500000 0.000000
O O9 0.158423 0.959749 0.373377
O O10 0.123479 0.774096 0.052622
O O11 0.223116 0.830874 0.518152
O O12 0.233588 0.468285 0.658789
O O13 0.630475 0.415664 0.538183
O O14 0.585822 0.988718 0.440423
O O15 0.742766 0.357728 0.997161
O O16 0.704867 0.927082 0.900111
O O17 0.308086 0.213578 0.710215
#
# Coordination Sequence:
#
# PCOD9032955 Si02
#       8
#     2   2   2   2   2   2   2   2
#     4  11  23  44  65  88 133 171 221 283 342 409
#     4  11  25  47  73 106 146 191 240 289 345 417
#     4  10  24  45  71 107 144 182 243 288 346 424
#     4  10  24  46  70 101 144 185 221 295 353 406
#     4  10  24  44  60  96 125 168 227 271 339 415
#     4   9  23  43  65 100 135 176 229 276 348 412
#     4  10  22  44  64 102 131 169 229 279 339 423
#     4  11  23  44  70  94 132 175 220 285 343 413
#
# _framework density 25.035236999999999
#
# number of rings (size 3 to 8) (size 9 to 14) (size 15 to 20)
#    0.000    1.750    1.250    0.750    7.000    3.500 
#   18.000    0.000    0.000    0.000    0.000    0.000 
#    0.000    0.000    0.000    0.000    0.000    0.000 
#
# Total GULP energy -89470.994167 kJ/mol
# GULP energy per Si atom -5591.937135 kJ/mol
# Density = 2.497826 g / cm^3
# Si number density = 25.035237 Si / 1000 Ang^3
#
#
#
# Elastic Constant Matrix: (Units=GPa)
#
#
# Indices 1 2 3 4 5 6 
#
# 1 99.2991 31.4031 3.6857 -8.5013 12.6302 1.6561
# 2 31.4031 110.0186 60.5773 -3.9692 8.9735 0.2107
# 3 3.6857 60.5773 150.4380 -18.4352 15.8748 3.8522
# 4 -8.5013 -3.9692 -18.4352 43.3715 -1.5782 0.3049
# 5 12.6302 8.9735 15.8748 -1.5782 39.7615 3.8145
# 6 1.6561 0.2107 3.8522 0.3049 3.8145 32.4127
#
#
#
# Elastic Compliance Matrix: (Units=1/GPa)
#
#
# Indices 1 2 3 4 5 6 
#
# 1 0.012019 -0.004210 0.002125 0.002747 -0.003564 -0.000446
# 2 -0.004210 0.013228 -0.005525 -0.001954 0.000408 0.000756
# 3 0.002125 -0.005525 0.009642 0.003905 -0.003036 -0.000898
# 4 0.002747 -0.001954 0.003905 0.025047 -0.000928 -0.000718
# 5 -0.003564 0.000408 -0.003036 -0.000928 0.027625 -0.002702
# 6 -0.000446 0.000756 -0.000898 -0.000718 -0.002702 0.031301
#
#
# Mechanical properties :
#
#
# Convention : Reuss Voigt Hill
#
# Bulk Modulus (GPa) = 50.84231 61.23200 56.03716
# Shear Modulus (GPa) = 35.55180 40.71509 38.13344
#
# Velocity S-wave (km/s) = 3.77247 4.03713 3.90704
# Velocity P-wave (km/s) = 6.27119 6.80020 6.54104
#
# Compressibility (1/GPa) = 0.01966866
#
# Stress axis : x y z
#
# Youngs Moduli (GPa) = 83.20086 75.59647 103.71269
#
# Poissons Ratio (x) = 0.31826 -0.22039
# Poissons Ratio (y) = 0.35028 0.57304
# Poissons Ratio (z) = -0.17680 0.41769
#
# Static dielectric constant tensor:
#      x y z
#    x 1.932350 -0.041470 -0.010100 
#    y -0.041470 2.022130 -0.020340 
#    z -0.010100 -0.020340 1.941190 
# 
# From -- ./inp_files/114553.got.cif
#   From: 2010.05.17/outbox.cif.g08.bks.cpg/sg2_58_cif.got.tgz:114553.got - 2010.06.03 11:33:40.
