data_PCOD9032348
_publ_section_title
;
Structure prediction by ZEFSAII (Michael W. Deem and Ramdas Pophale) SiO2 
 PCOD9032348
Probable space group: P -1
;
_chemical_formula_sum "Si O2"
_cell_formula_units_Z 15
_cell_length_a 7.700671
_cell_length_b 13.069096
_cell_length_c 8.098522
_cell_angle_alpha 63.578332
_cell_angle_beta 116.488052
_cell_angle_gamma 92.360309
_cell_volume 640.585017
_symmetry_space_group_name_H-M "P -1"
_symmetry_group_IT_number 2
_symmetry_cell_setting 'triclinic'
loop_
_space_group_symop_operation_xyz
x,y,z
-x,-y,-z
loop_
_atom_site_type_symbol
_atom_site_label
_atom_site_fract_x
_atom_site_fract_y
_atom_site_fract_z
Si Si1 0.689044 0.466980 0.482170
Si Si2 0.202731 0.954791 0.210556
Si Si3 0.630497 0.248580 0.416926
Si Si4 0.000000 0.000000 0.500000
Si Si5 0.061392 0.597025 0.073712
Si Si6 0.539313 0.337872 0.952626
Si Si7 0.629542 0.096311 0.016851
Si Si8 0.765937 0.835924 0.715679
O O1 0.500000 0.500000 0.500000
O O2 0.688253 0.340803 0.498981
O O3 0.880180 0.459487 0.682261
O O4 0.642172 0.561563 0.249376
O O5 0.198156 0.869615 0.428033
O O6 0.282645 0.065455 0.232497
O O7 0.312144 0.878099 0.164034
O O8 0.000000 0.000000 0.000000
O O9 0.435253 0.197318 0.409119
O O10 0.580722 0.316390 0.177309
O O11 0.818027 0.050911 0.247161
O O12 0.120287 0.101924 0.415606
O O13 0.260276 0.631965 0.060055
O O14 0.000000 0.500000 0.000000
O O15 0.900302 0.716253 0.923133
O O16 0.511077 0.215145 0.956878
O O17 0.500000 0.000000 0.000000
#
# Coordination Sequence:
#
# PCOD9032348 Si02
#       8
#     2   2   2   1   2   2   2   2
#     4  10  22  43  70  98 136 181 233 286 351 419
#     4  12  23  41  65  96 140 178 230 288 349 415
#     4  12  25  43  70 102 138 187 230 296 357 423
#     4  12  24  42  68 100 138 180 240 290 344 428
#     4  11  24  45  73 100 137 187 234 292 354 418
#     4  11  23  46  68 103 139 182 240 289 352 427
#     4  12  25  44  69 102 141 189 233 290 361 422
#     4  12  24  44  67 102 139 183 238 288 357 423
#
# _framework density 23.416097000000001
#
# number of rings (size 3 to 8) (size 9 to 14) (size 15 to 20)
#    0.000    0.533    2.667    7.200    0.000    1.067 
#    0.000    4.000    0.000    0.000    0.000    0.000 
#    0.000    0.000    0.000    0.000    0.000    0.000 
#
# Total GULP energy -83685.428428 kJ/mol
# GULP energy per Si atom -5579.028562 kJ/mol
# Density = 2.336280 g / cm^3
# Si number density = 23.416097 Si / 1000 Ang^3
#
#
#
# Elastic Constant Matrix: (Units=GPa)
#
#
# Indices 1 2 3 4 5 6 
#
# 1 26.0196 3.3374 22.5384 -0.9784 8.9446 13.3984
# 2 3.3374 176.7602 65.8806 2.3661 19.4057 -2.2149
# 3 22.5384 65.8806 221.1077 -3.8683 30.2610 -0.2160
# 4 -0.9784 2.3661 -3.8683 46.8126 -2.9034 5.4266
# 5 8.9446 19.4057 30.2610 -2.9034 34.5111 -0.1045
# 6 13.3984 -2.2149 -0.2160 5.4266 -0.1045 34.1129
#
#
#
# Elastic Compliance Matrix: (Units=1/GPa)
#
#
# Indices 1 2 3 4 5 6 
#
# 1 0.058593 0.001653 -0.004837 0.002728 -0.011716 -0.023407
# 2 0.001653 0.006584 -0.001782 -0.000591 -0.002618 -0.000147
# 3 -0.004837 -0.001782 0.005954 0.000089 -0.002952 0.001798
# 4 0.002728 -0.000591 0.000089 0.022077 0.001390 -0.004617
# 5 -0.011716 -0.002618 -0.002952 0.001390 0.036203 0.004303
# 6 -0.023407 -0.000147 0.001798 -0.004617 0.004303 0.039257
#
#
# Mechanical properties :
#
#
# Convention : Reuss Voigt Hill
#
# Bulk Modulus (GPa) = 16.34024 67.48891 41.91457
# Shear Modulus (GPa) = 25.12541 45.22940 35.17740
#
# Velocity S-wave (km/s) = 3.27922 4.39971 3.88012
# Velocity P-wave (km/s) = 4.61855 7.39555 6.16543
#
# Compressibility (1/GPa) = 0.06119863
#
# Stress axis : x y z
#
# Youngs Moduli (GPa) = 17.06678 151.88411 167.95017
#
# Poissons Ratio (x) = -0.25104 0.81235
# Poissons Ratio (y) = -0.02821 0.29936
# Poissons Ratio (z) = 0.08255 0.27072
#
# Static dielectric constant tensor:
#      x y z
#    x 1.868310 0.067730 0.004850 
#    y 0.067730 1.620580 -0.081170 
#    z 0.004850 -0.081170 1.975510 
# 
# From -- ./inp_files/184536.got.cif
#   From: 2010.05.17/outbox.cif.g08.bks.cpg/sg2_93_cif.got.tgz:184536.got - 2010.06.03 11:33:40.
