data_PCOD9032828
_publ_section_title
;
Structure prediction by ZEFSAII (Michael W. Deem and Ramdas Pophale) SiO2 
 PCOD9032828
Probable space group: P -1
;
_chemical_formula_sum "Si O2"
_cell_formula_units_Z 11
_cell_length_a 9.080200
_cell_length_b 12.288728
_cell_length_c 7.828479
_cell_angle_alpha 144.447499
_cell_angle_beta 97.899323
_cell_angle_gamma 98.913215
_cell_volume 445.879528
_symmetry_space_group_name_H-M "P -1"
_symmetry_group_IT_number 2
_symmetry_cell_setting 'triclinic'
loop_
_space_group_symop_operation_xyz
x,y,z
-x,-y,-z
loop_
_atom_site_type_symbol
_atom_site_label
_atom_site_fract_x
_atom_site_fract_y
_atom_site_fract_z
Si Si1 0.152652 0.233518 0.291043
Si Si2 0.778101 0.355744 0.302419
Si Si3 0.307706 0.365560 0.847847
Si Si4 0.307833 0.944280 0.412040
Si Si5 0.500000 0.500000 0.500000
Si Si6 0.168907 0.646725 0.317343
O O1 0.203670 0.326512 0.609061
O O2 0.224936 0.780367 0.034805
O O3 0.103951 0.393602 0.386069
O O4 0.000000 0.000000 0.000000
O O5 0.668670 0.709789 0.702349
O O6 0.820078 0.286358 0.400849
O O7 0.595515 0.356327 0.285897
O O8 0.278286 0.145855 0.639959
O O9 0.500000 0.500000 0.000000
O O10 0.250015 0.843508 0.457655
O O11 0.500000 0.000000 0.500000
O O12 0.266987 0.505148 0.151163
O O13 0.000000 0.500000 0.000000
#
# Coordination Sequence:
#
# PCOD9032828 Si02
#       6
#     2   2   2   2   1   2
#     4  10  22  43  76 112 149 209 259 329 402 460
#     4  10  24  49  74 110 156 205 264 323 395 478
#     4  12  25  52  75 108 163 205 260 333 392 477
#     4  12  27  47  78 112 150 207 256 324 400 462
#     4   8  20  42  78 108 154 202 262 320 400 464
#     4  12  28  50  73 116 155 198 266 323 388 481
#
# _framework density 24.670342999999999
#
# number of rings (size 3 to 8) (size 9 to 14) (size 15 to 20)
#    1.091    0.000    3.636    1.091    5.091    3.636 
#    6.545    0.000    0.000    0.000    0.000    0.000 
#    0.000    0.000    0.000    0.000    0.000    0.000 
#
# Total GULP energy -61265.640492 kJ/mol
# GULP energy per Si atom -5569.603681 kJ/mol
# Density = 2.461419 g / cm^3
# Si number density = 24.670343 Si / 1000 Ang^3
#
#
#
# Elastic Constant Matrix: (Units=GPa)
#
#
# Indices 1 2 3 4 5 6 
#
# 1 92.9617 36.2693 20.5499 16.9273 -14.3347 14.1072
# 2 36.2693 219.3890 62.6701 10.9833 -11.5989 14.5932
# 3 20.5499 62.6701 115.3729 -4.1793 5.3161 10.3705
# 4 16.9273 10.9833 -4.1793 51.1312 2.3823 1.7249
# 5 -14.3347 -11.5989 5.3161 2.3823 42.9676 10.5111
# 6 14.1072 14.5932 10.3705 1.7249 10.5111 47.1484
#
#
#
# Elastic Compliance Matrix: (Units=1/GPa)
#
#
# Indices 1 2 3 4 5 6 
#
# 1 0.014076 -0.000860 -0.002075 -0.004772 0.006130 -0.004681
# 2 -0.000860 0.005825 -0.003035 -0.001266 0.002046 -0.001288
# 3 -0.002075 -0.003035 0.010932 0.002378 -0.002928 -0.000279
# 4 -0.004772 -0.001266 0.002378 0.021734 -0.003761 0.001340
# 5 0.006130 0.002046 -0.002928 -0.003761 0.028403 -0.008018
# 6 -0.004681 -0.001288 -0.000279 0.001340 -0.008018 0.024809
#
#
# Mechanical properties :
#
#
# Convention : Reuss Voigt Hill
#
# Bulk Modulus (GPa) = 52.92990 74.07801 63.50396
# Shear Modulus (GPa) = 40.31777 48.79839 44.55808
#
# Velocity S-wave (km/s) = 4.04698 4.45232 4.25448
# Velocity P-wave (km/s) = 6.58323 7.51819 7.06619
#
# Compressibility (1/GPa) = 0.01889291
#
# Stress axis : x y z
#
# Youngs Moduli (GPa) = 71.04323 171.68814 91.47620
#
# Poissons Ratio (x) = 0.14765 0.18978
# Poissons Ratio (y) = 0.06110 0.27764
# Poissons Ratio (z) = 0.14739 0.52109
#
# Static dielectric constant tensor:
#      x y z
#    x 2.035570 -0.041300 0.159820 
#    y -0.041300 1.982720 -0.024060 
#    z 0.159820 -0.024060 1.883110 
# 
# From -- ./inp_files/194723.got.cif
#   From: 2010.05.17/outbox.cif.g08.bks.cpg/sg2_98_cif.got.tgz:194723.got - 2010.06.03 11:33:40.
