data_PCOD9032448
_publ_section_title
;
Structure prediction by ZEFSAII (Michael W. Deem and Ramdas Pophale) SiO2 
 PCOD9032448
Probable space group: P -1
;
_chemical_formula_sum "Si O2"
_cell_formula_units_Z 16
_cell_length_a 5.243981
_cell_length_b 11.931701
_cell_length_c 24.060520
_cell_angle_alpha 147.871220
_cell_angle_beta 69.422009
_cell_angle_gamma 119.208178
_cell_volume 692.624547
_symmetry_space_group_name_H-M "P -1"
_symmetry_group_IT_number 2
_symmetry_cell_setting 'triclinic'
loop_
_space_group_symop_operation_xyz
x,y,z
-x,-y,-z
loop_
_atom_site_type_symbol
_atom_site_label
_atom_site_fract_x
_atom_site_fract_y
_atom_site_fract_z
Si Si1 0.630563 0.069839 0.458165
Si Si2 0.804181 0.749794 0.927770
Si Si3 0.486710 0.292094 0.373143
Si Si4 0.804700 0.588823 0.160334
Si Si5 0.849421 0.985591 0.248438
Si Si6 0.758748 0.666221 0.427036
Si Si7 0.185030 0.339378 0.980602
Si Si8 0.085561 0.678235 0.291761
O O1 0.522882 0.263590 0.524460
O O2 0.980155 0.169359 0.483614
O O3 0.500000 0.000000 0.500000
O O4 0.421438 0.847618 0.347843
O O5 0.459730 0.635530 0.891270
O O6 0.800241 0.731592 0.986903
O O7 0.931248 0.577302 0.817815
O O8 0.000000 0.000000 0.000000
O O9 0.500000 0.500000 0.500000
O O10 0.657868 0.417182 0.356733
O O11 0.641870 0.126841 0.315049
O O12 0.149866 0.145119 0.321970
O O13 0.711841 0.758495 0.201069
O O14 0.993386 0.494850 0.065894
O O15 0.977767 0.716869 0.255450
O O16 0.924248 0.885757 0.143526
O O17 0.892762 0.695973 0.366868
O O18 0.500000 0.500000 0.000000
#
# Coordination Sequence:
#
# PCOD9032448 Si02
#       8
#     2   2   2   2   2   2   2   2
#     4  10  22  43  71 106 136 191 243 302 363 455
#     4  11  27  43  71 109 154 190 244 324 379 457
#     4  12  30  50  71 112 148 199 253 317 376 449
#     4  11  26  45  77 111 150 191 258 319 373 464
#     4  12  27  48  81 103 148 205 247 310 380 452
#     4  11  25  46  72 104 151 188 249 313 376 450
#     4  11  24  49  75 113 146 197 264 309 382 464
#     4  10  25  42  71 107 140 196 242 302 389 449
#
# _framework density 23.100539000000001
#
# number of rings (size 3 to 8) (size 9 to 14) (size 15 to 20)
#    0.000    1.000    1.250    3.750   12.250    3.000 
#    0.000    0.000    0.000    0.000    0.000    0.000 
#    0.000    0.000    0.000    0.000    0.000    0.000 
#
# Total GULP energy -89503.810135 kJ/mol
# GULP energy per Si atom -5593.988133 kJ/mol
# Density = 2.304796 g / cm^3
# Si number density = 23.100539 Si / 1000 Ang^3
#
#
#
# Elastic Constant Matrix: (Units=GPa)
#
#
# Indices 1 2 3 4 5 6 
#
# 1 135.0573 32.0115 65.2734 4.2989 -3.1478 -18.7201
# 2 32.0115 101.5610 48.7801 7.8599 -7.3446 -3.1471
# 3 65.2734 48.7801 171.7825 -14.7863 3.1071 -11.1065
# 4 4.2989 7.8599 -14.7863 42.5951 -5.4727 2.6399
# 5 -3.1478 -7.3446 3.1071 -5.4727 48.2798 3.0095
# 6 -18.7201 -3.1471 -11.1065 2.6399 3.0095 30.0648
#
#
#
# Elastic Compliance Matrix: (Units=1/GPa)
#
#
# Indices 1 2 3 4 5 6 
#
# 1 0.010100 -0.001231 -0.003354 -0.002259 0.000113 0.005108
# 2 -0.001231 0.012163 -0.003316 -0.003017 0.001680 -0.000622
# 3 -0.003354 -0.003316 0.008402 0.003729 -0.000868 0.000428
# 4 -0.002259 -0.003017 0.003729 0.026026 0.002282 -0.002858
# 5 0.000113 0.001680 -0.000868 0.002282 0.021441 -0.002421
# 6 0.005108 -0.000622 0.000428 -0.002858 -0.002421 0.037028
#
#
# Mechanical properties :
#
#
# Convention : Reuss Voigt Hill
#
# Bulk Modulus (GPa) = 67.28969 77.83677 72.56323
# Shear Modulus (GPa) = 36.78716 41.67699 39.23207
#
# Velocity S-wave (km/s) = 3.99492 4.25214 4.12554
# Velocity P-wave (km/s) = 7.10433 7.60760 7.36027
#
# Compressibility (1/GPa) = 0.01486112
#
# Stress axis : x y z
#
# Youngs Moduli (GPa) = 99.01308 82.21727 119.02065
#
# Poissons Ratio (x) = 0.10122 0.39923
# Poissons Ratio (y) = 0.12189 0.39471
# Poissons Ratio (z) = 0.33212 0.27266
#
# Static dielectric constant tensor:
#      x y z
#    x 1.915880 -0.007780 -0.009450 
#    y -0.007780 1.855730 -0.020810 
#    z -0.009450 -0.020810 1.931390 
# 
# From -- ./inp_files/604482.got.cif
#   From: 2010.05.17/outbox.cif.g08.bks.cpg/sg2_303_cif.got.tgz:604482.got - 2010.06.03 11:33:40.
