data_PCOD9032256
_publ_section_title
;
Structure prediction by ZEFSAII (Michael W. Deem and Ramdas Pophale) SiO2 
 PCOD9032256
Probable space group: P -1
;
_chemical_formula_sum "Si O2"
_cell_formula_units_Z 10
_cell_length_a 9.073707
_cell_length_b 4.779054
_cell_length_c 12.626950
_cell_angle_alpha 52.494223
_cell_angle_beta 116.466242
_cell_angle_gamma 107.143854
_cell_volume 388.633634
_symmetry_space_group_name_H-M "P -1"
_symmetry_group_IT_number 2
_symmetry_cell_setting 'triclinic'
loop_
_space_group_symop_operation_xyz
x,y,z
-x,-y,-z
loop_
_atom_site_type_symbol
_atom_site_label
_atom_site_fract_x
_atom_site_fract_y
_atom_site_fract_z
Si Si1 0.669708 0.873051 0.782557
Si Si2 0.511816 0.503060 0.374801
Si Si3 0.847202 0.538535 0.365036
Si Si4 0.013533 0.639226 0.188036
Si Si5 0.834405 0.212989 0.077417
O O1 0.615047 0.743920 0.677225
O O2 0.529356 0.084780 0.749861
O O3 0.818664 0.170814 0.763871
O O4 0.711947 0.511160 0.939001
O O5 0.500000 0.500000 0.500000
O O6 0.686408 0.395438 0.407207
O O7 0.928139 0.414918 0.308398
O O8 0.000000 0.500000 0.500000
O O9 0.789849 0.923946 0.218685
O O10 0.000653 0.399093 0.136664
O O11 0.885385 0.956074 0.058476
#
# Coordination Sequence:
#
# PCOD9032256 Si02
#       5
#     2   2   2   2   2
#     4  12  24  46  73 103 142 174 233 287 342 411
#     4  12  28  46  69 101 141 185 226 288 351 399
#     4  10  26  46  71  98 141 183 235 277 343 413
#     4  10  22  43  70 105 136 179 231 274 342 411
#     4  10  23  42  76 103 135 182 232 278 344 403
#
# _framework density 25.731176999999999
#
# number of rings (size 3 to 8) (size 9 to 14) (size 15 to 20)
#    1.200    0.000    0.000    5.400    2.800    2.400 
#    0.000    0.000    0.000    0.000    0.000    0.000 
#    0.000    0.000    0.000    0.000    0.000    0.000 
#
# Total GULP energy -55758.254827 kJ/mol
# GULP energy per Si atom -5575.825483 kJ/mol
# Density = 2.567261 g / cm^3
# Si number density = 25.731177 Si / 1000 Ang^3
#
#
#
# Elastic Constant Matrix: (Units=GPa)
#
#
# Indices 1 2 3 4 5 6 
#
# 1 107.5481 30.7384 56.5277 9.0134 2.2074 -4.2780
# 2 30.7384 107.3880 51.9144 34.7885 -9.0433 -18.3345
# 3 56.5277 51.9144 129.4465 15.0764 -4.2679 12.4157
# 4 9.0134 34.7885 15.0764 57.1023 -6.3752 -2.1635
# 5 2.2074 -9.0433 -4.2679 -6.3752 36.3528 -1.1577
# 6 -4.2780 -18.3345 12.4157 -2.1635 -1.1577 34.1805
#
#
#
# Elastic Compliance Matrix: (Units=1/GPa)
#
#
# Indices 1 2 3 4 5 6 
#
# 1 0.012578 -0.000249 -0.005731 -0.000352 -0.001450 0.003451
# 2 -0.000249 0.017580 -0.007020 -0.008100 0.002510 0.011521
# 3 -0.005731 -0.007020 0.013812 0.001193 0.000132 -0.009420
# 4 -0.000352 -0.008100 0.001193 0.022279 0.001947 -0.003346
# 5 -0.001450 0.002510 0.000132 0.001947 0.028648 0.002211
# 6 0.003451 0.011521 -0.009420 -0.003346 0.002211 0.039153
#
#
# Mechanical properties :
#
#
# Convention : Reuss Voigt Hill
#
# Bulk Modulus (GPa) = 55.64858 69.19374 62.42116
# Shear Modulus (GPa) = 30.11330 39.20725 34.66027
#
# Velocity S-wave (km/s) = 3.42468 3.90773 3.67415
# Velocity P-wave (km/s) = 6.10834 6.87821 6.50468
#
# Compressibility (1/GPa) = 0.01796991
#
# Stress axis : x y z
#
# Youngs Moduli (GPa) = 79.50479 56.88374 72.39964
#
# Poissons Ratio (x) = 0.01416 0.41490
# Poissons Ratio (y) = 0.01978 0.50828
# Poissons Ratio (z) = 0.45561 0.39935
#
# Static dielectric constant tensor:
#      x y z
#    x 2.089930 0.047160 -0.024450 
#    y 0.047160 2.017390 -0.083850 
#    z -0.024450 -0.083850 2.142430 
# 
# From -- ./inp_files/50838.got.cif
#   From: 2010.05.17/outbox.cif.g08.bks.cpg/sg2_26_cif.got.tgz:50838.got - 2010.06.03 11:33:40.
