data_PCOD9032979
_publ_section_title
;
Structure prediction by ZEFSAII (Michael W. Deem and Ramdas Pophale) SiO2 
 PCOD9032979
Probable space group: P -1
;
_chemical_formula_sum "Si O2"
_cell_formula_units_Z 15
_cell_length_a 28.818680
_cell_length_b 15.823862
_cell_length_c 9.217016
_cell_angle_alpha 138.933720
_cell_angle_beta 31.621045
_cell_angle_gamma 162.685549
_cell_volume 607.174118
_symmetry_space_group_name_H-M "P -1"
_symmetry_group_IT_number 2
_symmetry_cell_setting 'triclinic'
loop_
_space_group_symop_operation_xyz
x,y,z
-x,-y,-z
loop_
_atom_site_type_symbol
_atom_site_label
_atom_site_fract_x
_atom_site_fract_y
_atom_site_fract_z
Si Si1 0.292655 0.502630 0.128487
Si Si2 0.666669 0.877450 0.797970
Si Si3 0.753679 0.711781 0.299778
Si Si4 0.834663 0.798741 0.526421
Si Si5 0.620011 0.102149 0.674532
Si Si6 0.500000 0.500000 0.000000
Si Si7 0.008036 0.528929 0.689723
Si Si8 0.324473 0.690722 0.661570
O O1 0.265571 0.620278 0.340249
O O2 0.492043 0.731152 0.992208
O O3 0.347412 0.516858 0.841915
O O4 0.076691 0.147917 0.297912
O O5 0.706592 0.797504 0.500857
O O6 0.608294 0.764997 0.970959
O O7 0.879285 0.235688 0.704841
O O8 0.702864 0.643200 0.520262
O O9 0.000000 0.000000 0.000000
O O10 0.715634 0.757429 0.868191
O O11 0.780904 0.586906 0.451811
O O12 0.774185 0.197155 0.449709
O O13 0.445969 0.830072 0.670170
O O14 0.500000 0.000000 0.000000
O O15 0.000000 0.500000 0.500000
O O16 0.873180 0.476018 0.013715
O O17 0.500000 0.000000 0.500000
#
# Coordination Sequence:
#
# PCOD9032979 Si02
#       8
#     2   2   2   2   2   1   2   2
#     4  11  22  40  68 101 131 177 231 291 345 412
#     4  11  22  41  64 100 135 179 233 285 350 421
#     4   9  19  35  61  93 129 164 215 287 334 396
#     4  10  23  42  67  95 140 173 228 284 347 416
#     4  12  24  47  74 105 143 191 241 294 363 427
#     4  10  22  44  64  92 132 186 220 282 350 414
#     4  12  25  44  75 103 144 194 240 294 361 434
#     4  12  27  48  70 106 148 188 237 301 358 437
#
# _framework density 24.704609999999999
#
# number of rings (size 3 to 8) (size 9 to 14) (size 15 to 20)
#    0.000    1.067    2.667    4.400    3.733    1.067 
#    9.600    0.000    0.000    0.000    0.000    0.000 
#    0.000    0.000    0.000    0.000    0.000    0.000 
#
# Total GULP energy -83638.250231 kJ/mol
# GULP energy per Si atom -5575.883349 kJ/mol
# Density = 2.464838 g / cm^3
# Si number density = 24.704610 Si / 1000 Ang^3
#
#
#
# Elastic Constant Matrix: (Units=GPa)
#
#
# Indices 1 2 3 4 5 6 
#
# 1 137.4474 35.0826 38.3745 -6.3857 -24.7721 13.8467
# 2 35.0826 88.9793 17.2271 -6.6893 -3.9748 -3.1904
# 3 38.3745 17.2271 97.5899 -6.9840 -38.4622 5.7894
# 4 -6.3857 -6.6893 -6.9840 41.4974 -3.4272 5.1977
# 5 -24.7721 -3.9748 -38.4622 -3.4272 56.2033 -4.1802
# 6 13.8467 -3.1904 5.7894 5.1977 -4.1802 46.5133
#
#
#
# Elastic Compliance Matrix: (Units=1/GPa)
#
#
# Indices 1 2 3 4 5 6 
#
# 1 0.009406 -0.003239 -0.001907 0.001146 0.002481 -0.002690
# 2 -0.003239 0.012900 -0.001600 0.000968 -0.001416 0.001813
# 3 -0.001907 -0.001600 0.015354 0.002945 0.009665 -0.000913
# 4 0.001146 0.000968 0.002945 0.025645 0.003918 -0.003155
# 5 0.002481 -0.001416 0.009665 0.003918 0.025626 -0.000174
# 6 -0.002690 0.001813 -0.000913 -0.003155 -0.000174 0.022875
#
#
# Mechanical properties :
#
#
# Convention : Reuss Voigt Hill
#
# Bulk Modulus (GPa) = 41.37908 56.15390 48.76649
# Shear Modulus (GPa) = 37.49430 44.39830 40.94630
#
# Velocity S-wave (km/s) = 3.90000 4.24390 4.07558
# Velocity P-wave (km/s) = 6.08818 6.84059 6.47532
#
# Compressibility (1/GPa) = 0.02416680
#
# Stress axis : x y z
#
# Youngs Moduli (GPa) = 106.31298 77.52040 65.13164
#
# Poissons Ratio (x) = 0.25107 0.12424
# Poissons Ratio (y) = 0.34433 0.10422
# Poissons Ratio (z) = 0.20279 0.12404
#
# Static dielectric constant tensor:
#      x y z
#    x 2.022880 -0.005750 0.109650 
#    y -0.005750 2.112010 -0.208070 
#    z 0.109650 -0.208070 1.656190 
# 
# From -- ./inp_files/357421.got.cif
#   From: 2010.05.17/outbox.cif.g08.bks.cpg/sg2_179_cif.got.tgz:357421.got - 2010.06.03 11:33:40.
