data_PCOD9032165
_publ_section_title
;
Structure prediction by ZEFSAII (Michael W. Deem and Ramdas Pophale) SiO2 
 PCOD9032165
Probable space group: P -1
;
_chemical_formula_sum "Si O2"
_cell_formula_units_Z 15
_cell_length_a 13.378240
_cell_length_b 8.536545
_cell_length_c 11.787134
_cell_angle_alpha 34.158388
_cell_angle_beta 96.714996
_cell_angle_gamma 108.405088
_cell_volume 690.349657
_symmetry_space_group_name_H-M "P -1"
_symmetry_group_IT_number 2
_symmetry_cell_setting 'triclinic'
loop_
_space_group_symop_operation_xyz
x,y,z
-x,-y,-z
loop_
_atom_site_type_symbol
_atom_site_label
_atom_site_fract_x
_atom_site_fract_y
_atom_site_fract_z
Si Si1 0.500000 0.000000 0.500000
Si Si2 0.831988 0.710773 0.102465
Si Si3 0.897013 0.805343 0.526456
Si Si4 0.966698 0.782776 0.300634
Si Si5 0.284538 0.939162 0.635649
Si Si6 0.612058 0.950051 0.181197
Si Si7 0.602246 0.273706 0.579743
Si Si8 0.261092 0.811338 0.159533
O O1 0.593917 0.927289 0.481788
O O2 0.584883 0.113645 0.552266
O O3 0.876687 0.688481 0.246270
O O4 0.777997 0.390026 0.228168
O O5 0.746970 0.870524 0.008569
O O6 0.930657 0.938194 0.903868
O O7 0.928655 0.879989 0.354514
O O8 0.854928 0.439600 0.747468
O O9 0.791121 0.873751 0.503558
O O10 0.000000 0.000000 0.500000
O O11 0.000000 0.500000 0.500000
O O12 0.301385 0.917133 0.785640
O O13 0.600984 0.605685 0.367182
O O14 0.497678 0.927274 0.230898
O O15 0.652330 0.137822 0.959898
O O16 0.706926 0.301936 0.651143
#
# Coordination Sequence:
#
# PCOD9032165 Si02
#       8
#     1   2   2   2   2   2   2   2
#     4  10  24  44  76  98 142 184 234 290 352 424
#     4  11  26  42  73  99 138 189 237 288 355 420
#     4  12  27  43  71 105 143 188 236 290 353 417
#     4  11  24  48  69  99 142 190 237 293 351 417
#     4  11  24  46  68 105 139 186 233 295 348 420
#     4  10  22  43  69  99 137 182 236 288 355 419
#     4  10  22  45  69 100 138 184 229 298 355 413
#     4  12  24  43  69 104 136 188 231 293 357 419
#
# _framework density 21.728119
#
# number of rings (size 3 to 8) (size 9 to 14) (size 15 to 20)
#    0.000    1.067    2.667    2.800    5.600    1.600 
#    2.400    3.333    0.000    0.000    0.000    0.000 
#    0.000    0.000    0.000    0.000    0.000    0.000 
#
# Total GULP energy -83642.323193 kJ/mol
# GULP energy per Si atom -5576.154880 kJ/mol
# Density = 2.167866 g / cm^3
# Si number density = 21.728119 Si / 1000 Ang^3
#
#
#
# Elastic Constant Matrix: (Units=GPa)
#
#
# Indices 1 2 3 4 5 6 
#
# 1 74.7486 22.9521 13.4033 10.9861 -3.8895 -7.5331
# 2 22.9521 159.2030 38.5404 16.5996 -10.1709 5.2015
# 3 13.4033 38.5404 63.6530 11.5001 -11.4305 -4.3965
# 4 10.9861 16.5996 11.5001 31.4204 -6.5210 0.2227
# 5 -3.8895 -10.1709 -11.4305 -6.5210 34.2211 4.3074
# 6 -7.5331 5.2015 -4.3965 0.2227 4.3074 41.9421
#
#
#
# Elastic Compliance Matrix: (Units=1/GPa)
#
#
# Indices 1 2 3 4 5 6 
#
# 1 0.014942 -0.001516 -0.001370 -0.004009 -0.000324 0.002783
# 2 -0.001516 0.007779 -0.004042 -0.001957 0.000633 -0.001715
# 3 -0.001370 -0.004042 0.020056 -0.003833 0.004369 0.001929
# 4 -0.004009 -0.001957 -0.003833 0.036687 0.004872 -0.001574
# 5 -0.000324 0.000633 0.004369 0.004872 0.032139 -0.003005
# 6 0.002783 -0.001715 0.001929 -0.001574 -0.003005 0.025074
#
#
# Mechanical properties :
#
#
# Convention : Reuss Voigt Hill
#
# Bulk Modulus (GPa) = 34.57704 49.71068 42.14386
# Shear Modulus (GPa) = 31.21603 36.36397 33.79000
#
# Velocity S-wave (km/s) = 3.79445 4.09539 3.94779
# Velocity P-wave (km/s) = 5.92834 6.72987 6.34178
#
# Compressibility (1/GPa) = 0.02892092
#
# Stress axis : x y z
#
# Youngs Moduli (GPa) = 66.92456 128.55376 49.85951
#
# Poissons Ratio (x) = 0.19491 0.06831
# Poissons Ratio (y) = 0.10147 0.20153
# Poissons Ratio (z) = 0.09169 0.51962
#
# Static dielectric constant tensor:
#      x y z
#    x 1.851620 0.009150 -0.028860 
#    y 0.009150 1.755640 0.005220 
#    z -0.028860 0.005220 1.756530 
# 
# From -- ./inp_files/89107.got.cif
#   From: 2010.05.17/outbox.cif.g08.bks.cpg/sg2_45_cif.got.tgz:89107.got - 2010.06.03 11:33:40.
