data_PCOD9032129
_publ_section_title
;
Structure prediction by ZEFSAII (Michael W. Deem and Ramdas Pophale) SiO2 
 PCOD9032129
Probable space group: P -1
;
_chemical_formula_sum "Si O2"
_cell_formula_units_Z 14
_cell_length_a 11.126031
_cell_length_b 7.892487
_cell_length_c 17.912265
_cell_angle_alpha 126.919769
_cell_angle_beta 147.458181
_cell_angle_gamma 41.424226
_cell_volume 557.615402
_symmetry_space_group_name_H-M "P -1"
_symmetry_group_IT_number 2
_symmetry_cell_setting 'triclinic'
loop_
_space_group_symop_operation_xyz
x,y,z
-x,-y,-z
loop_
_atom_site_type_symbol
_atom_site_label
_atom_site_fract_x
_atom_site_fract_y
_atom_site_fract_z
Si Si1 0.893263 0.375805 0.065842
Si Si2 0.568109 0.161463 0.467838
Si Si3 0.885092 0.121596 0.848615
Si Si4 0.172767 0.120842 0.606390
Si Si5 0.048123 0.209990 0.722115
Si Si6 0.650843 0.143327 0.101568
Si Si7 0.696478 0.662207 0.473737
O O1 0.980675 0.566214 0.182882
O O2 0.921093 0.291057 0.972013
O O3 0.565750 0.563554 0.955342
O O4 0.041363 0.128680 0.131335
O O5 0.751711 0.268212 0.581932
O O6 0.332522 0.331984 0.449265
O O7 0.568559 0.066943 0.358792
O O8 0.716826 0.893882 0.521421
O O9 0.583164 0.270657 0.693655
O O10 0.110631 0.011281 0.873523
O O11 0.212582 0.186397 0.727747
O O12 0.966494 0.386924 0.526918
O O13 0.000000 0.000000 0.500000
O O14 0.210627 0.918057 0.761841
O O15 0.500000 0.000000 0.000000
#
# Coordination Sequence:
#
# PCOD9032129 Si02
#       7
#     2   2   2   2   2   2   2
#     4  10  25  45  70  97 132 177 228 277 335 389
#     4  10  23  45  67 101 134 176 224 268 343 395
#     4  11  24  46  68 101 132 176 228 276 335 399
#     4  10  24  43  65 101 133 178 220 268 338 402
#     4  10  22  43  69  98 135 172 224 274 327 402
#     4  10  22  45  66  95 131 180 218 276 328 391
#     4  11  24  43  71  99 135 178 218 282 332 397
#
# _framework density 25.106911
#
# number of rings (size 3 to 8) (size 9 to 14) (size 15 to 20)
#    0.000    1.714    1.429    0.857    8.000    4.571 
#   12.857    0.000    0.000    0.000    0.000    0.000 
#    0.000    0.000    0.000    0.000    0.000    0.000 
#
# Total GULP energy -78155.669316 kJ/mol
# GULP energy per Si atom -5582.547808 kJ/mol
# Density = 2.504977 g / cm^3
# Si number density = 25.106911 Si / 1000 Ang^3
#
#
#
# Elastic Constant Matrix: (Units=GPa)
#
#
# Indices 1 2 3 4 5 6 
#
# 1 132.2357 20.1322 39.9904 8.7257 -23.2146 -15.7990
# 2 20.1322 79.8906 38.0629 6.7609 -11.3164 -8.5528
# 3 39.9904 38.0629 77.4200 0.4786 -10.7334 -14.6571
# 4 8.7257 6.7609 0.4786 43.2675 -1.4497 0.3454
# 5 -23.2146 -11.3164 -10.7334 -1.4497 31.3501 9.1240
# 6 -15.7990 -8.5528 -14.6571 0.3454 9.1240 47.2026
#
#
#
# Elastic Compliance Matrix: (Units=1/GPa)
#
#
# Indices 1 2 3 4 5 6 
#
# 1 0.010095 0.000720 -0.004567 -0.001912 0.005797 0.000985
# 2 0.000720 0.016985 -0.008176 -0.002585 0.003723 0.000079
# 3 -0.004567 -0.008176 0.019837 0.001940 -0.000385 0.003210
# 4 -0.001912 -0.002585 0.001940 0.023871 -0.000405 -0.000602
# 5 0.005797 0.003723 -0.000385 -0.000405 0.038841 -0.005010
# 6 0.000985 0.000079 0.003210 -0.000602 -0.005010 0.023499
#
#
# Mechanical properties :
#
#
# Convention : Reuss Voigt Hill
#
# Bulk Modulus (GPa) = 43.71882 53.99082 48.85482
# Shear Modulus (GPa) = 30.34026 37.12144 33.73085
#
# Velocity S-wave (km/s) = 3.48004 3.84934 3.66934
# Velocity P-wave (km/s) = 5.79641 6.42710 6.11989
#
# Compressibility (1/GPa) = 0.02287344
#
# Stress axis : x y z
#
# Youngs Moduli (GPa) = 99.05792 58.87434 50.41055
#
# Poissons Ratio (x) = -0.04239 0.23020
# Poissons Ratio (y) = -0.07133 0.41213
# Poissons Ratio (z) = 0.45236 0.48133
#
# Static dielectric constant tensor:
#      x y z
#    x 1.985430 -0.050820 -0.095830 
#    y -0.050820 2.125020 -0.142890 
#    z -0.095830 -0.142890 2.352750 
# 
# From -- ./inp_files/566975.got.cif
#   From: 2010.05.17/outbox.cif.g08.bks.cpg/sg2_284_cif.got.tgz:566975.got - 2010.06.03 11:33:40.
