data_PCOD9032583
_publ_section_title
;
Structure prediction by ZEFSAII (Michael W. Deem and Ramdas Pophale) SiO2 
 PCOD9032583
Probable space group: P -1
;
_chemical_formula_sum "Si O2"
_cell_formula_units_Z 16
_cell_length_a 8.834429
_cell_length_b 9.062624
_cell_length_c 14.446224
_cell_angle_alpha 41.642546
_cell_angle_beta 72.928004
_cell_angle_gamma 69.497094
_cell_volume 718.919755
_symmetry_space_group_name_H-M "P -1"
_symmetry_group_IT_number 2
_symmetry_cell_setting 'triclinic'
loop_
_space_group_symop_operation_xyz
x,y,z
-x,-y,-z
loop_
_atom_site_type_symbol
_atom_site_label
_atom_site_fract_x
_atom_site_fract_y
_atom_site_fract_z
Si Si1 0.649934 0.459245 0.706604
Si Si2 0.669042 0.023707 0.005337
Si Si3 0.160600 0.812477 0.546477
Si Si4 0.289018 0.444709 0.826315
Si Si5 0.654375 0.803440 0.707708
Si Si6 0.169397 0.458993 0.542855
Si Si7 0.173543 0.503884 0.012070
Si Si8 0.689407 0.066130 0.193449
O O1 0.461056 0.453344 0.746822
O O2 0.675212 0.660954 0.675316
O O3 0.705406 0.481679 0.582566
O O4 0.735254 0.219320 0.849315
O O5 0.776286 0.771766 0.096664
O O6 0.633978 0.083385 0.089281
O O7 0.500000 0.000000 0.000000
O O8 0.182713 0.679197 0.701874
O O9 0.156672 0.624884 0.555775
O O10 0.296299 0.955714 0.430401
O O11 0.000000 0.000000 0.500000
O O12 0.299236 0.420973 0.945128
O O13 0.468104 0.849658 0.753535
O O14 0.767955 0.652847 0.835905
O O15 0.227921 0.193976 0.680251
O O16 0.000000 0.500000 0.500000
O O17 0.188853 0.762382 0.903015
O O18 0.000000 0.500000 0.000000
#
# Coordination Sequence:
#
# PCOD9032583 Si02
#       8
#     2   2   2   2   2   2   2   2
#     4  11  24  45  73 106 141 188 237 299 361 427
#     4  10  22  43  72 105 142 178 239 303 353 417
#     4  12  28  47  69 102 147 189 241 301 367 435
#     4  11  24  45  72 103 141 187 243 295 360 429
#     4  12  25  44  76 108 144 191 247 296 357 436
#     4  12  30  47  70 103 149 194 241 300 370 434
#     4  12  27  45  73 111 152 194 237 301 370 432
#     4  12  25  49  76 106 146 195 249 299 358 443
#
# _framework density 22.255611999999999
#
# number of rings (size 3 to 8) (size 9 to 14) (size 15 to 20)
#    0.000    0.500    3.750    4.125   10.500    2.000 
#    0.000    1.250    0.000    0.000    0.000    0.000 
#    0.000    0.000    0.000    0.000    0.000    0.000 
#
# Total GULP energy -89502.518323 kJ/mol
# GULP energy per Si atom -5593.907395 kJ/mol
# Density = 2.220496 g / cm^3
# Si number density = 22.255612 Si / 1000 Ang^3
#
#
#
# Elastic Constant Matrix: (Units=GPa)
#
#
# Indices 1 2 3 4 5 6 
#
# 1 75.0550 16.7242 17.4377 -19.6785 1.8873 4.1745
# 2 16.7242 98.0263 36.4976 -9.1753 0.3566 13.9327
# 3 17.4377 36.4976 111.2530 -27.0114 11.2444 1.3231
# 4 -19.6785 -9.1753 -27.0114 49.0020 2.0989 2.4557
# 5 1.8873 0.3566 11.2444 2.0989 31.8158 -7.7390
# 6 4.1745 13.9327 1.3231 2.4557 -7.7390 32.6067
#
#
#
# Elastic Compliance Matrix: (Units=1/GPa)
#
#
# Indices 1 2 3 4 5 6 
#
# 1 0.015474 -0.001693 -0.000225 0.005952 -0.001724 -0.002106
# 2 -0.001693 0.012621 -0.003882 -0.000213 0.000136 -0.004971
# 3 -0.000225 -0.003882 0.012288 0.006182 -0.004795 -0.000415
# 4 0.005952 -0.000213 0.006182 0.026603 -0.005309 -0.004185
# 5 -0.001724 0.000136 -0.004795 -0.005309 0.035829 0.009261
# 6 -0.002106 -0.004971 -0.000415 -0.004185 0.009261 0.035592
#
#
# Mechanical properties :
#
#
# Convention : Reuss Voigt Hill
#
# Bulk Modulus (GPa) = 34.74278 47.29479 41.01879
# Shear Modulus (GPa) = 31.32780 36.92989 34.12885
#
# Velocity S-wave (km/s) = 3.75592 4.07793 3.92023
# Velocity P-wave (km/s) = 5.86975 6.59315 6.24193
#
# Compressibility (1/GPa) = 0.02878296
#
# Stress axis : x y z
#
# Youngs Moduli (GPa) = 64.62294 79.23008 81.38188
#
# Poissons Ratio (x) = 0.13417 0.01834
# Poissons Ratio (y) = 0.10943 0.31589
# Poissons Ratio (z) = 0.01457 0.30753
#
# Static dielectric constant tensor:
#      x y z
#    x 1.863770 -0.035670 0.000090 
#    y -0.035670 1.897390 -0.051200 
#    z 0.000090 -0.051200 1.814120 
# 
# From -- ./inp_files/403198.got.cif
#   From: 2010.05.17/outbox.cif.g08.bks.cpg/sg2_202_cif.got.tgz:403198.got - 2010.06.03 11:33:40.
