data_PCOD9032015
_publ_section_title
;
Structure prediction by ZEFSAII (Michael W. Deem and Ramdas Pophale) SiO2 
 PCOD9032015
Probable space group: P -1
;
_chemical_formula_sum "Si O2"
_cell_formula_units_Z 13
_cell_length_a 11.463988
_cell_length_b 5.011157
_cell_length_c 20.773287
_cell_angle_alpha 65.319543
_cell_angle_beta 29.384437
_cell_angle_gamma 79.615657
_cell_volume 484.861573
_symmetry_space_group_name_H-M "P -1"
_symmetry_group_IT_number 2
_symmetry_cell_setting 'triclinic'
loop_
_space_group_symop_operation_xyz
x,y,z
-x,-y,-z
loop_
_atom_site_type_symbol
_atom_site_label
_atom_site_fract_x
_atom_site_fract_y
_atom_site_fract_z
Si Si1 0.972555 0.039960 0.368694
Si Si2 0.854907 0.474362 0.158871
Si Si3 0.752173 0.457717 0.358068
Si Si4 0.367567 0.138290 0.847310
Si Si5 0.189433 0.128196 0.062951
Si Si6 0.863596 0.338107 0.514989
Si Si7 0.500000 0.500000 0.000000
O O1 0.786398 0.167911 0.406429
O O2 0.959866 0.140503 0.439244
O O3 0.262986 0.240309 0.183689
O O4 0.880246 0.661499 0.438860
O O5 0.739286 0.419767 0.291277
O O6 0.670087 0.546121 0.190940
O O7 0.968827 0.206204 0.123596
O O8 0.111883 0.808214 0.999353
O O9 0.500000 0.500000 0.500000
O O10 0.030280 0.769478 0.202320
O O11 0.578184 0.115204 0.700434
O O12 0.411240 0.166858 0.900154
O O13 0.317896 0.359660 0.036574
O O14 0.000000 0.500000 0.500000
#
# Coordination Sequence:
#
# PCOD9032015 Si02
#       7
#     2   2   2   2   2   2   1
#     4  12  28  47  74 110 146 204 246 318 380 451
#     4  10  22  43  69 105 137 195 250 306 384 435
#     4  11  25  45  71 110 151 192 254 313 389 452
#     4  10  24  43  71 102 146 190 252 312 371 457
#     4  11  24  43  73 105 143 204 244 312 378 443
#     4  12  28  47  73 108 148 197 254 309 389 448
#     4  12  26  48  74 104 156 190 262 298 378 460
#
# _framework density 26.811772000000001
#
# number of rings (size 3 to 8) (size 9 to 14) (size 15 to 20)
#    0.000    0.923    1.538    3.692    6.462    3.077 
#    0.000    0.000    0.000    0.000    0.000    0.000 
#    0.000    0.000    0.000    0.000    0.000    0.000 
#
# Total GULP energy -72652.789610 kJ/mol
# GULP energy per Si atom -5588.676124 kJ/mol
# Density = 2.675075 g / cm^3
# Si number density = 26.811772 Si / 1000 Ang^3
#
#
#
# Elastic Constant Matrix: (Units=GPa)
#
#
# Indices 1 2 3 4 5 6 
#
# 1 87.2204 11.1245 32.3108 1.5238 18.3356 2.0299
# 2 11.1245 99.4172 20.9761 -2.5250 6.2594 0.1208
# 3 32.3108 20.9761 155.5431 22.4576 21.6404 27.6280
# 4 1.5238 -2.5250 22.4576 41.1446 20.1286 11.3274
# 5 18.3356 6.2594 21.6404 20.1286 41.9001 2.2133
# 6 2.0299 0.1208 27.6280 11.3274 2.2133 36.5588
#
#
#
# Elastic Compliance Matrix: (Units=1/GPa)
#
#
# Indices 1 2 3 4 5 6 
#
# 1 0.013761 -0.000498 -0.002502 0.003958 -0.006573 0.000300
# 2 -0.000498 0.010589 -0.001505 0.002138 -0.001643 0.000567
# 3 -0.002502 -0.001505 0.008736 -0.002358 -0.001762 -0.005620
# 4 0.003958 0.002138 -0.002358 0.036824 -0.018061 -0.008761
# 5 -0.006573 -0.001643 -0.001762 -0.018061 0.036305 0.005100
# 6 0.000300 0.000567 -0.005620 -0.008761 0.005100 0.033988
#
#
# Mechanical properties :
#
#
# Convention : Reuss Voigt Hill
#
# Bulk Modulus (GPa) = 41.53533 52.33373 46.93453
# Shear Modulus (GPa) = 31.79887 42.43864 37.11876
#
# Velocity S-wave (km/s) = 3.44758 3.98280 3.72482
# Velocity P-wave (km/s) = 5.60114 6.38056 6.00352
#
# Compressibility (1/GPa) = 0.02407589
#
# Stress axis : x y z
#
# Youngs Moduli (GPa) = 72.66863 94.43728 114.47169
#
# Poissons Ratio (x) = 0.04703 0.28637
# Poissons Ratio (y) = 0.03619 0.17232
# Poissons Ratio (z) = 0.18179 0.14216
#
# Static dielectric constant tensor:
#      x y z
#    x 2.121780 -0.053290 -0.052300 
#    y -0.053290 2.145050 0.035070 
#    z -0.052300 0.035070 2.084890 
# 
# From -- ./inp_files/24216.got.cif
#   From: 2010.05.17/outbox.cif.g08.bks.cpg/sg2_13_cif.got.tgz:24216.got - 2010.06.03 11:33:40.
