data_PCOD9032421
_publ_section_title
;
Structure prediction by ZEFSAII (Michael W. Deem and Ramdas Pophale) SiO2 
 PCOD9032421
Probable space group: P -1
;
_chemical_formula_sum "Si O2"
_cell_formula_units_Z 14
_cell_length_a 7.632269
_cell_length_b 9.519377
_cell_length_c 17.474722
_cell_angle_alpha 54.066686
_cell_angle_beta 118.517445
_cell_angle_gamma 75.568241
_cell_volume 603.450148
_symmetry_space_group_name_H-M "P -1"
_symmetry_group_IT_number 2
_symmetry_cell_setting 'triclinic'
loop_
_space_group_symop_operation_xyz
x,y,z
-x,-y,-z
loop_
_atom_site_type_symbol
_atom_site_label
_atom_site_fract_x
_atom_site_fract_y
_atom_site_fract_z
Si Si1 0.344335 0.484061 0.406976
Si Si2 0.339653 0.541933 0.742545
Si Si3 0.527744 0.754143 0.786371
Si Si4 0.967426 0.293151 0.116752
Si Si5 0.758145 0.974322 0.580527
Si Si6 0.053565 0.358585 0.481270
Si Si7 0.067295 0.974521 0.930640
O O1 0.500000 0.500000 0.500000
O O2 0.218826 0.387586 0.449711
O O3 0.586100 0.264284 0.465865
O O4 0.086620 0.757880 0.223072
O O5 0.482562 0.638784 0.749024
O O6 0.010276 0.786642 0.629732
O O7 0.264651 0.496240 0.663361
O O8 0.572270 0.267909 0.922779
O O9 0.805188 0.694167 0.842903
O O10 0.250885 0.061457 0.635544
O O11 0.634387 0.580965 0.939549
O O12 0.047132 0.165781 0.256074
O O13 0.036702 0.117636 0.116723
O O14 0.500000 0.000000 0.500000
O O15 0.000000 0.500000 0.500000
O O16 0.000000 0.000000 0.000000
#
# Coordination Sequence:
#
# PCOD9032421 Si02
#       7
#     2   2   2   2   2   2   2
#     4  12  26  49  76 107 150 199 243 305 379 436
#     4  11  27  46  72 109 144 198 258 295 375 440
#     4  10  22  43  71 103 138 187 247 295 360 441
#     4  10  22  45  73 102 142 192 248 297 376 430
#     4  12  24  47  73 105 152 190 251 310 362 447
#     4  12  27  45  69 108 151 190 246 308 373 438
#     4  11  27  48  77 112 152 195 250 312 373 442
#
# _framework density 23.199926999999999
#
# number of rings (size 3 to 8) (size 9 to 14) (size 15 to 20)
#    0.000    0.857    4.286    0.429    6.000    9.714 
#    0.000    0.000    0.000    0.000    0.000    0.000 
#    0.000    0.000    0.000    0.000    0.000    0.000 
#
# Total GULP energy -78240.880677 kJ/mol
# GULP energy per Si atom -5588.634334 kJ/mol
# Density = 2.314712 g / cm^3
# Si number density = 23.199927 Si / 1000 Ang^3
#
#
#
# Elastic Constant Matrix: (Units=GPa)
#
#
# Indices 1 2 3 4 5 6 
#
# 1 37.2942 16.4900 23.0262 5.2505 5.2545 10.7833
# 2 16.4900 152.2244 81.9358 18.5476 -5.3414 17.5678
# 3 23.0262 81.9358 201.5697 -13.6397 -8.0763 13.4505
# 4 5.2505 18.5476 -13.6397 59.4933 7.7612 4.1714
# 5 5.2545 -5.3414 -8.0763 7.7612 34.8162 5.6293
# 6 10.7833 17.5678 13.4505 4.1714 5.6293 33.9776
#
#
#
# Elastic Compliance Matrix: (Units=1/GPa)
#
#
# Indices 1 2 3 4 5 6 
#
# 1 0.032196 -0.000761 -0.003173 -0.002279 -0.003970 -0.007631
# 2 -0.000761 0.009582 -0.003779 -0.003839 0.002063 -0.003087
# 3 -0.003173 -0.003779 0.007126 0.002995 0.000946 -0.000385
# 4 -0.002279 -0.003839 0.002995 0.019410 -0.003841 -0.000224
# 5 -0.003970 0.002063 0.000946 -0.003841 0.031511 -0.004931
# 6 -0.007631 -0.003087 -0.000385 -0.000224 -0.004931 0.034446
#
#
# Mechanical properties :
#
#
# Convention : Reuss Voigt Hill
#
# Bulk Modulus (GPa) = 29.87010 70.44359 50.15684
# Shear Modulus (GPa) = 31.08363 43.63318 37.35841
#
# Velocity S-wave (km/s) = 3.66432 4.34146 4.01718
# Velocity P-wave (km/s) = 5.55032 7.45390 6.57140
#
# Compressibility (1/GPa) = 0.03347830
#
# Stress axis : x y z
#
# Youngs Moduli (GPa) = 31.06012 104.35735 140.33095
#
# Poissons Ratio (x) = 0.07942 0.44521
# Poissons Ratio (y) = 0.02364 0.53036
# Poissons Ratio (z) = 0.09854 0.39440
#
# Static dielectric constant tensor:
#      x y z
#    x 1.978200 -0.049290 -0.062080 
#    y -0.049290 1.870440 0.013270 
#    z -0.062080 0.013270 1.954870 
# 
# From -- ./inp_files/557032.got.cif
#   From: 2010.05.17/outbox.cif.g08.bks.cpg/sg2_279_cif.got.tgz:557032.got - 2010.06.03 11:33:40.
