data_PCOD9032756
_publ_section_title
;
Structure prediction by ZEFSAII (Michael W. Deem and Ramdas Pophale) SiO2 
 PCOD9032756
Probable space group: P -1
;
_chemical_formula_sum "Si O2"
_cell_formula_units_Z 14
_cell_length_a 18.487528
_cell_length_b 9.042313
_cell_length_c 6.060485
_cell_angle_alpha 127.504360
_cell_angle_beta 52.061561
_cell_angle_gamma 120.189048
_cell_volume 620.352416
_symmetry_space_group_name_H-M "P -1"
_symmetry_group_IT_number 2
_symmetry_cell_setting 'triclinic'
loop_
_space_group_symop_operation_xyz
x,y,z
-x,-y,-z
loop_
_atom_site_type_symbol
_atom_site_label
_atom_site_fract_x
_atom_site_fract_y
_atom_site_fract_z
Si Si1 0.173535 0.821770 0.245708
Si Si2 0.458398 0.787953 0.303587
Si Si3 0.666468 0.033799 0.583832
Si Si4 0.016818 0.097838 0.304415
Si Si5 0.291506 0.532197 0.611821
Si Si6 0.778001 0.828461 0.864912
Si Si7 0.575214 0.656970 0.627637
O O1 0.061723 0.773205 0.437838
O O2 0.239336 0.869697 0.378926
O O3 0.195148 0.019263 0.246753
O O4 0.212458 0.651640 0.905807
O O5 0.389055 0.678173 0.515886
O O6 0.500000 0.000000 0.500000
O O7 0.388457 0.809549 0.254147
O O8 0.536515 0.681649 0.968781
O O9 0.594699 0.873461 0.704043
O O10 0.701121 0.915999 0.215911
O O11 0.128037 0.174181 0.175580
O O12 0.000000 0.000000 0.500000
O O13 0.000000 0.000000 0.000000
O O14 0.261342 0.381984 0.338535
O O15 0.324109 0.403937 0.625191
O O16 0.500000 0.500000 0.500000
#
# Coordination Sequence:
#
# PCOD9032756 Si02
#       7
#     2   2   2   2   2   2   2
#     4  11  23  44  68 100 138 176 231 279 356 421
#     4  12  24  42  64  93 136 179 230 282 349 411
#     4  12  22  42  70  91 134 179 230 284 344 419
#     4  10  22  43  74 105 143 188 229 289 363 432
#     4  12  24  42  68  99 136 179 232 290 346 416
#     4  11  23  44  68 100 140 175 230 289 351 419
#     4  12  24  40  60  97 132 173 234 288 340 410
#
# _framework density 22.567815
#
# number of rings (size 3 to 8) (size 9 to 14) (size 15 to 20)
#    0.000    0.571    4.286    5.143    0.000    0.571 
#    0.000    0.000    0.000    5.143    0.000    0.000 
#    0.000    0.000    0.000    0.000    0.000    0.000 
#
# Total GULP energy -78122.803613 kJ/mol
# GULP energy per Si atom -5580.200258 kJ/mol
# Density = 2.251645 g / cm^3
# Si number density = 22.567815 Si / 1000 Ang^3
#
#
#
# Elastic Constant Matrix: (Units=GPa)
#
#
# Indices 1 2 3 4 5 6 
#
# 1 149.2615 0.4069 31.3907 15.9789 -8.0099 1.4183
# 2 0.4069 33.6794 5.9015 8.7944 -1.8816 -8.5464
# 3 31.3907 5.9015 118.9775 17.8652 -15.6119 12.0468
# 4 15.9789 8.7944 17.8652 32.0184 3.0065 2.3267
# 5 -8.0099 -1.8816 -15.6119 3.0065 49.4052 4.3289
# 6 1.4183 -8.5464 12.0468 2.3267 4.3289 26.7319
#
#
#
# Elastic Compliance Matrix: (Units=1/GPa)
#
#
# Indices 1 2 3 4 5 6 
#
# 1 0.007410 0.001317 -0.001477 -0.003383 0.000917 0.000839
# 2 0.001317 0.036113 -0.001815 -0.010565 0.000508 0.013131
# 3 -0.001477 -0.001815 0.010644 -0.004662 0.003822 -0.005512
# 4 -0.003383 -0.010565 -0.004662 0.039118 -0.004473 -0.003778
# 5 0.000917 0.000508 0.003822 -0.004473 0.022312 -0.004832
# 6 0.000839 0.013131 -0.005512 -0.003778 -0.004832 0.045157
#
#
# Mechanical properties :
#
#
# Convention : Reuss Voigt Hill
#
# Bulk Modulus (GPa) = 19.91372 41.92405 30.91889
# Shear Modulus (GPa) = 27.55659 39.24571 33.40115
#
# Velocity S-wave (km/s) = 3.49815 4.17467 3.85130
# Velocity P-wave (km/s) = 5.01590 6.46950 5.78851
#
# Compressibility (1/GPa) = 0.05021662
#
# Stress axis : x y z
#
# Youngs Moduli (GPa) = 134.95154 27.69064 93.94751
#
# Poissons Ratio (x) = -0.03646 0.13877
# Poissons Ratio (y) = -0.17771 0.17054
# Poissons Ratio (z) = 0.19934 0.05026
#
# Static dielectric constant tensor:
#      x y z
#    x 1.873030 -0.072800 0.035620 
#    y -0.072800 1.930020 -0.092160 
#    z 0.035620 -0.092160 1.871010 
# 
# From -- ./inp_files/38296.got.cif
#   From: 2010.05.17/outbox.cif.g08.bks.cpg/sg2_20_cif.got.tgz:38296.got - 2010.06.03 11:33:40.
