data_PCOD9032791
_publ_section_title
;
Structure prediction by ZEFSAII (Michael W. Deem and Ramdas Pophale) SiO2 
 PCOD9032791
Probable space group: P -1
;
_chemical_formula_sum "Si O2"
_cell_formula_units_Z 16
_cell_length_a 8.636621
_cell_length_b 11.283895
_cell_length_c 11.929232
_cell_angle_alpha 51.029486
_cell_angle_beta 89.088818
_cell_angle_gamma 118.716025
_cell_volume 701.155078
_symmetry_space_group_name_H-M "P -1"
_symmetry_group_IT_number 2
_symmetry_cell_setting 'triclinic'
loop_
_space_group_symop_operation_xyz
x,y,z
-x,-y,-z
loop_
_atom_site_type_symbol
_atom_site_label
_atom_site_fract_x
_atom_site_fract_y
_atom_site_fract_z
Si Si1 0.645841 0.286060 0.737123
Si Si2 0.774330 0.553086 0.761359
Si Si3 0.782792 0.056076 0.955651
Si Si4 0.243067 0.666768 0.913615
Si Si5 0.562918 0.878932 0.394674
Si Si6 0.983222 0.089221 0.336108
Si Si7 0.103289 0.163125 0.047376
Si Si8 0.562623 0.404505 0.239476
O O1 0.759157 0.499848 0.663513
O O2 0.772452 0.213399 0.804707
O O3 0.576949 0.250371 0.630798
O O4 0.438116 0.136240 0.895907
O O5 0.985247 0.729077 0.710164
O O6 0.633899 0.611311 0.754991
O O7 0.712699 0.364021 0.942954
O O8 0.884147 0.997960 0.906095
O O9 0.904011 0.123801 0.030577
O O10 0.354381 0.614099 0.864806
O O11 0.356199 0.897142 0.751860
O O12 0.000000 0.500000 0.000000
O O13 0.457153 0.751333 0.584154
O O14 0.773668 0.923190 0.378473
O O15 0.124457 0.171047 0.176647
O O16 0.000000 0.000000 0.500000
O O17 0.272996 0.368891 0.863744
#
# Coordination Sequence:
#
# PCOD9032791 Si02
#       8
#     2   2   2   2   2   2   2   2
#     4  11  24  44  70 106 140 188 237 297 356 425
#     4  12  25  43  74 105 140 188 242 290 359 424
#     4  10  22  43  75 101 142 185 247 288 359 425
#     4  12  25  45  75 104 139 186 238 302 358 421
#     4  12  26  47  70 107 148 190 234 303 357 423
#     4  12  25  46  74 107 145 187 238 299 359 423
#     4  11  23  45  73 107 139 192 237 297 355 435
#     4  12  26  44  71 108 144 183 245 293 357 425
#
# _framework density 22.819486999999999
#
# number of rings (size 3 to 8) (size 9 to 14) (size 15 to 20)
#    0.000    0.500    6.250    2.250    1.750    0.500 
#    6.750    0.625    0.000    0.000    0.000    0.000 
#    0.000    0.000    0.000    0.000    0.000    0.000 
#
# Total GULP energy -89233.349459 kJ/mol
# GULP energy per Si atom -5577.084341 kJ/mol
# Density = 2.276755 g / cm^3
# Si number density = 22.819487 Si / 1000 Ang^3
#
#
#
# Elastic Constant Matrix: (Units=GPa)
#
#
# Indices 1 2 3 4 5 6 
#
# 1 81.9850 34.4605 23.1190 5.7973 20.8158 5.1027
# 2 34.4605 119.9600 29.8972 15.2303 10.1603 15.4054
# 3 23.1190 29.8972 111.0268 3.1270 26.3556 7.8085
# 4 5.7973 15.2303 3.1270 29.4192 7.7901 9.3981
# 5 20.8158 10.1603 26.3556 7.7901 31.5249 1.7070
# 6 5.1027 15.4054 7.8085 9.3981 1.7070 30.1911
#
#
#
# Elastic Compliance Matrix: (Units=1/GPa)
#
#
# Indices 1 2 3 4 5 6 
#
# 1 0.016293 -0.003974 0.000023 0.001682 -0.009874 -0.000697
# 2 -0.003974 0.010778 -0.002275 -0.004170 0.002249 -0.003068
# 3 0.000023 -0.002275 0.012084 0.003336 -0.010077 -0.002437
# 4 0.001682 -0.004170 0.003336 0.042434 -0.012417 -0.011526
# 5 -0.009874 0.002249 -0.010077 -0.012417 0.048780 0.004235
# 6 -0.000697 -0.003068 -0.002437 -0.011526 0.004235 0.038785
#
#
# Mechanical properties :
#
#
# Convention : Reuss Voigt Hill
#
# Bulk Modulus (GPa) = 37.44964 54.21391 45.83178
# Shear Modulus (GPa) = 26.24581 33.26003 29.75292
#
# Velocity S-wave (km/s) = 3.39506 3.82190 3.61479
# Velocity P-wave (km/s) = 5.64052 6.57915 6.12783
#
# Compressibility (1/GPa) = 0.02670253
#
# Stress axis : x y z
#
# Youngs Moduli (GPa) = 61.37737 92.78413 82.75217
#
# Poissons Ratio (x) = 0.36870 -0.00191
# Poissons Ratio (y) = 0.24390 0.18830
# Poissons Ratio (z) = -0.00142 0.21112
#
# Static dielectric constant tensor:
#      x y z
#    x 1.965450 0.046490 -0.013550 
#    y 0.046490 1.920900 -0.054120 
#    z -0.013550 -0.054120 1.934340 
# 
# From -- ./inp_files/392110.got.cif
#   From: 2010.05.17/outbox.cif.g08.bks.cpg/sg2_197_cif.got.tgz:392110.got - 2010.06.03 11:33:40.
