data_PCOD9032868
_publ_section_title
;
Structure prediction by ZEFSAII (Michael W. Deem and Ramdas Pophale) SiO2 
 PCOD9032868
Probable space group: P -1
;
_chemical_formula_sum "Si O2"
_cell_formula_units_Z 12
_cell_length_a 9.520703
_cell_length_b 9.667477
_cell_length_c 10.946899
_cell_angle_alpha 74.586797
_cell_angle_beta 110.663897
_cell_angle_gamma 49.659349
_cell_volume 518.060586
_symmetry_space_group_name_H-M "P -1"
_symmetry_group_IT_number 2
_symmetry_cell_setting 'triclinic'
loop_
_space_group_symop_operation_xyz
x,y,z
-x,-y,-z
loop_
_atom_site_type_symbol
_atom_site_label
_atom_site_fract_x
_atom_site_fract_y
_atom_site_fract_z
Si Si1 0.106613 0.339771 0.191637
Si Si2 0.051642 0.700796 0.476651
Si Si3 0.295803 0.564984 0.995429
Si Si4 0.552897 0.383920 0.350536
Si Si5 0.120775 0.877601 0.266606
Si Si6 0.324014 0.229693 0.536697
O O1 0.198663 0.356203 0.334487
O O2 0.368626 0.045151 0.308214
O O3 0.000000 0.500000 0.000000
O O4 0.861578 0.429645 0.129178
O O5 0.819331 0.801196 0.448786
O O6 0.227633 0.673872 0.614570
O O7 0.977655 0.858770 0.299805
O O8 0.244034 0.424837 0.551251
O O9 0.442218 0.387229 0.201088
O O10 0.500000 0.500000 0.000000
O O11 0.077295 0.850344 0.907671
O O12 0.320482 0.653074 0.283975
O O13 0.704277 0.189749 0.553947
#
# Coordination Sequence:
#
# PCOD9032868 Si02
#       6
#     2   2   2   2   2   2
#     4  11  27  40  62  88 128 169 194 239 314 364
#     4   9  19  41  68  88 114 163 203 258 299 340
#     4  12  25  39  62  94 126 156 202 253 301 363
#     4   9  20  38  64  90 119 148 206 253 302 346
#     4   9  21  38  63  93 115 157 201 254 307 337
#     4  10  22  44  61  86 128 158 207 245 295 374
#
# _framework density 23.163315000000001
#
# number of rings (size 3 to 8) (size 9 to 14) (size 15 to 20)
#    1.000    1.000    0.000    2.500    4.667    2.000 
#    0.000    1.667    0.000    0.000    0.000    0.000 
#    0.000    0.000    0.000    0.000    0.000    0.000 
#
# Total GULP energy -67016.073509 kJ/mol
# GULP energy per Si atom -5584.672792 kJ/mol
# Density = 2.311059 g / cm^3
# Si number density = 23.163315 Si / 1000 Ang^3
#
#
#
# Elastic Constant Matrix: (Units=GPa)
#
#
# Indices 1 2 3 4 5 6 
#
# 1 89.4578 -2.4673 31.0251 0.8407 8.8385 -14.6020
# 2 -2.4673 34.8689 24.9911 -4.6575 11.4286 0.6874
# 3 31.0251 24.9911 128.2531 19.1523 7.9134 4.0319
# 4 0.8407 -4.6575 19.1523 23.3438 0.5703 -4.3682
# 5 8.8385 11.4286 7.9134 0.5703 37.0082 -1.9769
# 6 -14.6020 0.6874 4.0319 -4.3682 -1.9769 26.9329
#
#
#
# Elastic Compliance Matrix: (Units=1/GPa)
#
#
# Indices 1 2 3 4 5 6 
#
# 1 0.015876 0.008502 -0.006869 0.008839 -0.004523 0.010520
# 2 0.008502 0.046342 -0.013825 0.022125 -0.013293 0.008109
# 3 -0.006869 -0.013825 0.014645 -0.016083 0.002600 -0.007981
# 4 0.008839 0.022125 -0.016083 0.063354 -0.005599 0.016500
# 5 -0.004523 -0.013293 0.002600 -0.005599 0.031679 -0.001085
# 6 0.010520 0.008109 -0.007981 0.016500 -0.001085 0.046417
#
#
# Mechanical properties :
#
#
# Convention : Reuss Voigt Hill
#
# Bulk Modulus (GPa) = 19.05552 39.96416 29.50984
# Shear Modulus (GPa) = 19.21676 30.72571 24.97124
#
# Velocity S-wave (km/s) = 2.88344 3.64604 3.28693
# Velocity P-wave (km/s) = 4.39660 5.91739 5.21275
#
# Compressibility (1/GPa) = 0.05247822
#
# Stress axis : x y z
#
# Youngs Moduli (GPa) = 62.98754 21.57890 68.28293
#
# Poissons Ratio (x) = -0.18346 0.46903
# Poissons Ratio (y) = -0.53552 0.94404
# Poissons Ratio (z) = 0.43265 0.29834
#
# Static dielectric constant tensor:
#      x y z
#    x 1.943870 -0.024800 0.002230 
#    y -0.024800 1.820040 0.013880 
#    z 0.002230 0.013880 1.828890 
# 
# From -- ./inp_files/333930.got.cif
#   From: 2010.05.17/outbox.cif.g08.bks.cpg/sg2_167_cif.got.tgz:333930.got - 2010.06.03 11:33:40.
