data_PCOD9032930
_publ_section_title
;
Structure prediction by ZEFSAII (Michael W. Deem and Ramdas Pophale) SiO2 
 PCOD9032930
Probable space group: P -1
;
_chemical_formula_sum "Si O2"
_cell_formula_units_Z 16
_cell_length_a 17.027497
_cell_length_b 6.839527
_cell_length_c 21.612967
_cell_angle_alpha 105.414180
_cell_angle_beta 159.527975
_cell_angle_gamma 63.628322
_cell_volume 692.010365
_symmetry_space_group_name_H-M "P -1"
_symmetry_group_IT_number 2
_symmetry_cell_setting 'triclinic'
loop_
_space_group_symop_operation_xyz
x,y,z
-x,-y,-z
loop_
_atom_site_type_symbol
_atom_site_label
_atom_site_fract_x
_atom_site_fract_y
_atom_site_fract_z
Si Si1 0.346788 0.118527 0.100705
Si Si2 0.593983 0.110027 0.410577
Si Si3 0.946088 0.298999 0.667711
Si Si4 0.002568 0.326099 0.578656
Si Si5 0.456170 0.172816 0.539501
Si Si6 0.731706 0.391062 0.716880
Si Si7 0.484587 0.223381 0.088442
Si Si8 0.619519 0.580236 0.198874
O O1 0.530786 0.059870 0.291947
O O2 0.403549 0.264206 0.104668
O O3 0.436321 0.862629 0.111856
O O4 0.031314 0.268904 0.900447
O O5 0.861258 0.116385 0.607575
O O6 0.355920 0.386486 0.282252
O O7 0.590286 0.936271 0.443542
O O8 0.800870 0.537156 0.625562
O O9 0.839689 0.402451 0.528791
O O10 0.266973 0.180962 0.894911
O O11 0.191366 0.427396 0.716507
O O12 0.817345 0.417988 0.388869
O O13 0.210696 0.027772 0.710483
O O14 0.712053 0.192823 0.724421
O O15 0.500000 0.000000 0.500000
O O16 0.500000 0.500000 0.500000
O O17 0.463475 0.453140 0.060760
#
# Coordination Sequence:
#
# PCOD9032930 Si02
#       8
#     2   2   2   2   2   2   2   2
#     4  11  24  41  65  96 128 170 216 261 321 384
#     4  11  24  42  64  93 130 172 215 265 315 382
#     4  11  25  41  66  96 130 169 216 263 322 383
#     4  10  22  44  63  94 130 168 213 263 324 381
#     4  11  24  39  66  92 128 171 207 262 323 373
#     4  11  23  42  64  93 131 167 214 264 320 381
#     4  11  24  39  67  95 128 171 211 268 320 381
#     4  10  23  41  67  95 130 165 214 265 319 385
#
# _framework density 23.121041000000002
#
# number of rings (size 3 to 8) (size 9 to 14) (size 15 to 20)
#    0.000    1.250    1.250    4.125    1.750    6.000 
#    0.000    0.000    0.000    0.000    0.000    0.000 
#    0.000    0.000    0.000    0.000    0.000    0.000 
#
# Total GULP energy -89491.090530 kJ/mol
# GULP energy per Si atom -5593.193158 kJ/mol
# Density = 2.306842 g / cm^3
# Si number density = 23.121041 Si / 1000 Ang^3
#
#
#
# Elastic Constant Matrix: (Units=GPa)
#
#
# Indices 1 2 3 4 5 6 
#
# 1 101.4568 29.6719 -0.8745 14.8318 -0.1507 24.0272
# 2 29.6719 114.5457 17.6659 18.6139 10.7859 31.3349
# 3 -0.8745 17.6659 46.4450 17.7309 8.3025 -6.0488
# 4 14.8318 18.6139 17.7309 17.8764 -0.8237 12.6747
# 5 -0.1507 10.7859 8.3025 -0.8237 41.2219 -0.2065
# 6 24.0272 31.3349 -6.0488 12.6747 -0.2065 38.7071
#
#
#
# Elastic Compliance Matrix: (Units=1/GPa)
#
#
# Indices 1 2 3 4 5 6 
#
# 1 0.012765 -0.001613 0.006956 -0.015553 -0.001245 -0.000445
# 2 -0.001613 0.013240 -0.007778 0.003827 -0.001888 -0.012195
# 3 0.006956 -0.007778 0.073812 -0.105604 -0.014676 0.048015
# 4 -0.015553 0.003827 -0.105604 0.231414 0.024407 -0.085593
# 5 -0.001245 -0.001888 -0.014676 0.024407 0.028153 -0.007834
# 6 -0.000445 -0.012195 0.048015 -0.085593 -0.007834 0.071473
#
#
# Mechanical properties :
#
#
# Convention : Reuss Voigt Hill
#
# Bulk Modulus (GPa) = 10.53214 39.48603 25.00908
# Shear Modulus (GPa) = 10.69803 33.96003 22.32903
#
# Velocity S-wave (km/s) = 2.15337 3.83664 3.11102
# Velocity P-wave (km/s) = 3.27838 6.06147 4.87285
#
# Compressibility (1/GPa) = 0.09494750
#
# Stress axis : x y z
#
# Youngs Moduli (GPa) = 78.33731 75.53097 13.54786
#
# Poissons Ratio (x) = 0.12185 -0.09424
# Poissons Ratio (y) = 0.12638 0.10537
# Poissons Ratio (z) = -0.54493 0.58747
#
# Static dielectric constant tensor:
#      x y z
#    x 1.891550 0.001810 -0.013760 
#    y 0.001810 1.891320 0.008500 
#    z -0.013760 0.008500 1.899820 
# 
# From -- ./inp_files/402833.got.cif
#   From: 2010.05.17/outbox.cif.g08.bks.cpg/sg2_202_cif.got.tgz:402833.got - 2010.06.03 11:33:40.
