data_PCOD9032479
_publ_section_title
;
Structure prediction by ZEFSAII (Michael W. Deem and Ramdas Pophale) SiO2 
 PCOD9032479
Probable space group: P -1
;
_chemical_formula_sum "Si O2"
_cell_formula_units_Z 14
_cell_length_a 8.923019
_cell_length_b 9.313147
_cell_length_c 20.777348
_cell_angle_alpha 54.727618
_cell_angle_beta 31.419170
_cell_angle_gamma 51.707960
_cell_volume 701.428253
_symmetry_space_group_name_H-M "P -1"
_symmetry_group_IT_number 2
_symmetry_cell_setting 'triclinic'
loop_
_space_group_symop_operation_xyz
x,y,z
-x,-y,-z
loop_
_atom_site_type_symbol
_atom_site_label
_atom_site_fract_x
_atom_site_fract_y
_atom_site_fract_z
Si Si1 0.706900 0.460547 0.591246
Si Si2 0.726755 0.060752 0.036208
Si Si3 0.980941 0.766395 0.230380
Si Si4 0.727437 0.187783 0.535417
Si Si5 0.740666 0.150588 0.759944
Si Si6 0.720198 0.587066 0.857612
Si Si7 0.177506 0.763058 0.659930
O O1 0.731169 0.341273 0.547757
O O2 0.638095 0.325991 0.705263
O O3 0.489145 0.665736 0.604855
O O4 0.000000 0.500000 0.500000
O O5 0.485049 0.207045 0.132137
O O6 0.551063 0.923375 0.109301
O O7 0.859102 0.142876 0.905921
O O8 0.000000 0.000000 0.000000
O O9 0.617173 0.828194 0.337921
O O10 0.110883 0.804353 0.240982
O O11 0.119360 0.548454 0.222030
O O12 0.784754 0.253061 0.426394
O O13 0.000000 0.000000 0.500000
O O14 0.005399 0.975481 0.680967
O O15 0.983827 0.630552 0.790217
O O16 0.500000 0.500000 0.000000
#
# Coordination Sequence:
#
# PCOD9032479 Si02
#       7
#     2   2   2   2   2   2   2
#     4  12  26  42  65  98 133 173 225 272 327 391
#     4  10  22  43  71  95 129 173 224 271 332 394
#     4  11  23  43  68  96 136 174 219 275 330 392
#     4  12  25  43  68  97 133 179 224 268 331 398
#     4  11  25  44  66 100 137 171 220 275 334 392
#     4   9  21  40  68  91 124 169 220 265 330 383
#     4  11  24  44  66  93 138 176 217 273 330 394
#
# _framework density 19.959277
#
# number of rings (size 3 to 8) (size 9 to 14) (size 15 to 20)
#    0.000    1.143    2.857    2.571    8.000    1.143 
#    2.571    0.714    0.000    0.000    0.000    0.000 
#    0.000    0.000    0.000    0.000    0.000    0.000 
#
# Total GULP energy -77986.500953 kJ/mol
# GULP energy per Si atom -5570.464354 kJ/mol
# Density = 1.991385 g / cm^3
# Si number density = 19.959277 Si / 1000 Ang^3
#
#
#
# Elastic Constant Matrix: (Units=GPa)
#
#
# Indices 1 2 3 4 5 6 
#
# 1 133.3285 40.1724 35.4639 10.0360 -9.7706 -9.8682
# 2 40.1724 56.7555 31.4643 2.3238 -2.2410 -2.6090
# 3 35.4639 31.4643 89.3385 -2.0455 -11.4167 -6.7778
# 4 10.0360 2.3238 -2.0455 30.5017 -4.7365 -2.8842
# 5 -9.7706 -2.2410 -11.4167 -4.7365 41.6298 2.1588
# 6 -9.8682 -2.6090 -6.7778 -2.8842 2.1588 33.0697
#
#
#
# Elastic Compliance Matrix: (Units=1/GPa)
#
#
# Indices 1 2 3 4 5 6 
#
# 1 0.010196 -0.006042 -0.001681 -0.002639 0.001208 0.001913
# 2 -0.006042 0.025685 -0.007010 -0.000858 -0.001995 -0.001158
# 3 -0.001681 -0.007010 0.015004 0.002839 0.003560 0.002036
# 4 -0.002639 -0.000858 0.002839 0.034757 0.003938 0.002501
# 5 0.001208 -0.001995 0.003560 0.003938 0.025642 -0.000398
# 6 0.001913 -0.001158 0.002036 0.002501 -0.000398 0.031380
#
#
# Mechanical properties :
#
#
# Convention : Reuss Voigt Hill
#
# Bulk Modulus (GPa) = 46.68510 54.84707 50.76609
# Shear Modulus (GPa) = 27.89079 32.52839 30.20959
#
# Velocity S-wave (km/s) = 3.74222 4.04138 3.89467
# Velocity P-wave (km/s) = 6.48947 7.02255 6.76126
#
# Compressibility (1/GPa) = 0.02142011
#
# Stress axis : x y z
#
# Youngs Moduli (GPa) = 98.07375 38.93260 66.64898
#
# Poissons Ratio (x) = 0.23522 0.11202
# Poissons Ratio (y) = 0.59254 0.46723
# Poissons Ratio (z) = 0.16484 0.27293
#
# Static dielectric constant tensor:
#      x y z
#    x 1.856040 -0.181830 -0.148110 
#    y -0.181830 1.806630 0.091130 
#    z -0.148110 0.091130 1.875620 
# 
# From -- ./inp_files/177265.got.cif
#   From: 2010.05.17/outbox.cif.g08.bks.cpg/sg2_89_cif.got.tgz:177265.got - 2010.06.03 11:33:40.
