data_PCOD9032400
_publ_section_title
;
Structure prediction by ZEFSAII (Michael W. Deem and Ramdas Pophale) SiO2 
 PCOD9032400
Probable space group: P -1
;
_chemical_formula_sum "Si O2"
_cell_formula_units_Z 12
_cell_length_a 14.341486
_cell_length_b 7.088825
_cell_length_c 6.912861
_cell_angle_alpha 61.768234
_cell_angle_beta 129.712928
_cell_angle_gamma 120.544121
_cell_volume 453.788092
_symmetry_space_group_name_H-M "P -1"
_symmetry_group_IT_number 2
_symmetry_cell_setting 'triclinic'
loop_
_space_group_symop_operation_xyz
x,y,z
-x,-y,-z
loop_
_atom_site_type_symbol
_atom_site_label
_atom_site_fract_x
_atom_site_fract_y
_atom_site_fract_z
Si Si1 0.070242 0.821604 0.620163
Si Si2 0.233690 0.881400 0.132489
Si Si3 0.499862 0.251548 0.907562
Si Si4 0.274419 0.352829 0.063840
Si Si5 0.001451 0.691650 0.161771
Si Si6 0.670188 0.482575 0.354985
O O1 0.068010 0.796194 0.399212
O O2 0.210740 0.886402 0.871006
O O3 0.003113 0.567162 0.726421
O O4 0.000000 0.000000 0.500000
O O5 0.277093 0.677067 0.366579
O O6 0.308778 0.121220 0.205827
O O7 0.089691 0.832478 0.045413
O O8 0.547844 0.317581 0.160084
O O9 0.607970 0.430688 0.837523
O O10 0.373721 0.327891 0.684075
O O11 0.500000 0.000000 0.000000
O O12 0.145378 0.317035 0.027171
O O13 0.245193 0.406150 0.773888
#
# Coordination Sequence:
#
# PCOD9032400 Si02
#       6
#     2   2   2   2   2   2
#     4  11  24  42  68  96 149 198 227 283 346 411
#     4  12  24  44  74 106 148 192 227 290 362 417
#     4   9  21  48  72  97 140 181 236 309 352 404
#     4  10  22  43  71 101 142 186 231 296 347 418
#     4  11  24  46  64 110 149 180 243 278 337 454
#     4   9  22  45  69 102 140 177 242 296 347 420
#
# _framework density 26.444061999999999
#
# number of rings (size 3 to 8) (size 9 to 14) (size 15 to 20)
#    1.000    0.667    1.667    3.000    0.000    2.000 
#    3.000    0.833    0.000    0.000    0.000    0.000 
#    0.000    0.000    0.000    0.000    0.000    0.000 
#
# Total GULP energy -67180.781718 kJ/mol
# GULP energy per Si atom -5598.398476 kJ/mol
# Density = 2.638387 g / cm^3
# Si number density = 26.444062 Si / 1000 Ang^3
#
#
#
# Elastic Constant Matrix: (Units=GPa)
#
#
# Indices 1 2 3 4 5 6 
#
# 1 91.2102 55.2453 18.9582 -17.8116 13.4591 8.6687
# 2 55.2453 150.5877 41.1479 -44.6450 14.3330 -31.0727
# 3 18.9582 41.1479 121.4312 -34.4982 19.6090 -13.5423
# 4 -17.8116 -44.6450 -34.4982 39.9644 -15.1441 7.3881
# 5 13.4591 14.3330 19.6090 -15.1441 38.6280 -3.3459
# 6 8.6687 -31.0727 -13.5423 7.3881 -3.3459 50.4633
#
#
#
# Elastic Compliance Matrix: (Units=1/GPa)
#
#
# Indices 1 2 3 4 5 6 
#
# 1 0.016782 -0.007751 -0.000763 -0.001907 -0.004012 -0.007847
# 2 -0.007751 0.014708 0.000373 0.012734 0.002809 0.008810
# 3 -0.000763 0.000373 0.011228 0.008640 -0.002014 0.001975
# 4 -0.001907 0.012734 0.008640 0.049383 0.011261 0.004004
# 5 -0.004012 0.002809 -0.002014 0.011261 0.031883 0.002344
# 6 -0.007847 0.008810 0.001975 0.004004 0.002344 0.026688
#
#
# Mechanical properties :
#
#
# Convention : Reuss Voigt Hill
#
# Bulk Modulus (GPa) = 37.82735 65.99244 51.90990
# Shear Modulus (GPa) = 28.44654 42.33633 35.39144
#
# Velocity S-wave (km/s) = 3.28338 4.00556 3.66232
# Velocity P-wave (km/s) = 5.35816 6.81193 6.12830
#
# Compressibility (1/GPa) = 0.02643590
#
# Stress axis : x y z
#
# Youngs Moduli (GPa) = 59.58612 67.98932 89.06224
#
# Poissons Ratio (x) = 0.52701 0.06793
# Poissons Ratio (y) = 0.46187 -0.03319
# Poissons Ratio (z) = 0.04545 -0.02533
#
# Static dielectric constant tensor:
#      x y z
#    x 2.116260 -0.001230 0.010970 
#    y -0.001230 2.089410 0.063220 
#    z 0.010970 0.063220 2.067210 
# 
# From -- ./inp_files/326967.got.cif
#   From: 2010.05.17/outbox.cif.g08.bks.cpg/sg2_164_cif.got.tgz:326967.got - 2010.06.03 11:33:40.
