data_PCOD9032724
_publ_section_title
;
Structure prediction by ZEFSAII (Michael W. Deem and Ramdas Pophale) SiO2 
 PCOD9032724
Probable space group: P -1
;
_chemical_formula_sum "Si O2"
_cell_formula_units_Z 12
_cell_length_a 14.291626
_cell_length_b 8.704109
_cell_length_c 5.368704
_cell_angle_alpha 75.529258
_cell_angle_beta 59.252096
_cell_angle_gamma 89.472366
_cell_volume 550.085445
_symmetry_space_group_name_H-M "P -1"
_symmetry_group_IT_number 2
_symmetry_cell_setting 'triclinic'
loop_
_space_group_symop_operation_xyz
x,y,z
-x,-y,-z
loop_
_atom_site_type_symbol
_atom_site_label
_atom_site_fract_x
_atom_site_fract_y
_atom_site_fract_z
Si Si1 0.986639 0.098386 0.725045
Si Si2 0.188047 0.377441 0.287471
Si Si3 0.355263 0.132416 0.222392
Si Si4 0.766651 0.155163 0.194572
Si Si5 0.866658 0.453396 0.211961
Si Si6 0.573359 0.116883 0.164704
O O1 0.078263 0.251226 0.530239
O O2 0.865688 0.145484 0.876732
O O3 0.000000 0.000000 0.500000
O O4 0.000000 0.000000 0.000000
O O5 0.289537 0.276255 0.187088
O O6 0.183637 0.492512 0.484826
O O7 0.176740 0.458975 0.004254
O O8 0.480679 0.195131 0.111414
O O9 0.282787 0.022131 0.570749
O O10 0.369754 0.000409 0.045039
O O11 0.821826 0.267675 0.293771
O O12 0.665996 0.219184 0.163118
O O13 0.000000 0.500000 0.000000
O O14 0.500000 0.000000 0.500000
#
# Coordination Sequence:
#
# PCOD9032724 Si02
#       6
#     2   2   2   2   2   2
#     4  12  24  38  67 103 131 170 230 283 323 388
#     4  12  26  44  68 100 140 176 227 276 332 398
#     4  10  22  43  73  98 129 173 233 286 332 395
#     4  11  24  41  68  95 136 181 226 270 343 402
#     4  12  28  45  63  98 146 187 215 269 342 407
#     4   9  21  41  71  99 129 168 229 286 344 386
#
# _framework density 21.814792000000001
#
# number of rings (size 3 to 8) (size 9 to 14) (size 15 to 20)
#    0.000    1.000    3.333    2.500    7.000    0.000 
#    0.000    1.667    0.000    0.000    0.000    0.000 
#    0.000    0.000    0.000    0.000    0.000    0.000 
#
# Total GULP energy -67095.487282 kJ/mol
# GULP energy per Si atom -5591.290607 kJ/mol
# Density = 2.176514 g / cm^3
# Si number density = 21.814792 Si / 1000 Ang^3
#
#
#
# Elastic Constant Matrix: (Units=GPa)
#
#
# Indices 1 2 3 4 5 6 
#
# 1 165.6634 58.7932 26.4299 10.9637 1.6866 -11.8236
# 2 58.7932 85.3333 23.5231 20.4197 3.3948 -6.3461
# 3 26.4299 23.5231 76.5986 14.5456 18.2345 -9.3001
# 4 10.9637 20.4197 14.5456 37.0130 -6.5940 1.2737
# 5 1.6866 3.3948 18.2345 -6.5940 36.0775 0.1892
# 6 -11.8236 -6.3461 -9.3001 1.2737 0.1892 45.6915
#
#
#
# Elastic Compliance Matrix: (Units=1/GPa)
#
#
# Indices 1 2 3 4 5 6 
#
# 1 0.008218 -0.005543 -0.001562 0.001413 0.001180 0.000995
# 2 -0.005543 0.018054 -0.001424 -0.008190 -0.002223 0.001021
# 3 -0.001562 -0.001424 0.018505 -0.008037 -0.010633 0.003433
# 4 0.001413 -0.008190 -0.008037 0.036434 0.011444 -0.003471
# 5 0.001180 -0.002223 -0.010633 0.011444 0.035352 -0.002633
# 6 0.000995 0.001021 0.003433 -0.003471 -0.002633 0.023091
#
#
# Mechanical properties :
#
#
# Convention : Reuss Voigt Hill
#
# Bulk Modulus (GPa) = 36.07372 60.56530 48.31951
# Shear Modulus (GPa) = 30.12930 38.34635 34.23783
#
# Velocity S-wave (km/s) = 3.72040 4.19718 3.96596
# Velocity P-wave (km/s) = 5.91840 7.16325 6.57037
#
# Compressibility (1/GPa) = 0.02772101
#
# Stress axis : x y z
#
# Youngs Moduli (GPa) = 121.68345 55.38874 54.03857
#
# Poissons Ratio (x) = 0.30700 0.08441
# Poissons Ratio (y) = 0.67446 0.07693
# Poissons Ratio (z) = 0.19007 0.07885
#
# Static dielectric constant tensor:
#      x y z
#    x 1.882500 0.025900 0.106730 
#    y 0.025900 1.837850 0.040610 
#    z 0.106730 0.040610 1.917300 
# 
# From -- ./inp_files/86972.got.cif
#   From: 2010.05.17/outbox.cif.g08.bks.cpg/sg2_44_cif.got.tgz:86972.got - 2010.06.03 11:33:40.
