data_PCOD9032175
_publ_section_title
;
Structure prediction by ZEFSAII (Michael W. Deem and Ramdas Pophale) SiO2 
 PCOD9032175
Probable space group: P -1
;
_chemical_formula_sum "Si O2"
_cell_formula_units_Z 16
_cell_length_a 8.045507
_cell_length_b 19.209454
_cell_length_c 5.360375
_cell_angle_alpha 82.006318
_cell_angle_beta 85.380751
_cell_angle_gamma 54.055060
_cell_volume 664.176134
_symmetry_space_group_name_H-M "P -1"
_symmetry_group_IT_number 2
_symmetry_cell_setting 'triclinic'
loop_
_space_group_symop_operation_xyz
x,y,z
-x,-y,-z
loop_
_atom_site_type_symbol
_atom_site_label
_atom_site_fract_x
_atom_site_fract_y
_atom_site_fract_z
Si Si1 0.189666 0.264230 0.932994
Si Si2 0.431234 0.168623 0.452839
Si Si3 0.762742 0.348130 0.129254
Si Si4 0.900126 0.952667 0.943764
Si Si5 0.103104 0.445627 0.761833
Si Si6 0.792774 0.191749 0.353160
Si Si7 0.239725 0.066812 0.531861
Si Si8 0.599679 0.516043 0.255902
O O1 0.318284 0.204185 0.714820
O O2 0.121974 0.358586 0.818185
O O3 0.315390 0.230145 0.193964
O O4 0.974543 0.278381 0.002579
O O5 0.639425 0.164947 0.447822
O O6 0.393728 0.093506 0.445541
O O7 0.695226 0.293184 0.300102
O O8 0.792648 0.415019 0.237324
O O9 0.576751 0.422369 0.950372
O O10 0.749190 0.965199 0.174192
O O11 0.098678 0.856734 0.897331
O O12 0.777753 0.982080 0.679444
O O13 0.000000 0.000000 0.000000
O O14 0.323986 0.425746 0.724718
O O15 0.000000 0.500000 0.500000
O O16 0.000000 0.500000 0.000000
O O17 0.997066 0.150624 0.518150
O O18 0.500000 0.500000 0.500000
#
# Coordination Sequence:
#
# PCOD9032175 Si02
#       8
#     2   2   2   2   2   2   2   2
#     4  12  25  42  66  89 135 171 226 286 339 396
#     4  12  25  43  66 102 130 178 222 276 331 394
#     4  11  23  45  61  95 125 179 219 288 337 396
#     4  10  22  45  75 104 141 179 213 269 331 395
#     4  12  25  43  61  88 122 173 223 282 349 400
#     4  10  25  40  72  96 136 173 231 268 333 398
#     4  10  22  43  69  99 140 175 214 272 324 397
#     4  11  26  39  65  87 130 170 231 279 346 397
#
# _framework density 24.089993
#
# number of rings (size 3 to 8) (size 9 to 14) (size 15 to 20)
#    0.750    0.250    2.500    4.125    7.000    1.000 
#    0.000    1.250    0.000    0.000    0.000    0.000 
#    0.000    0.000    0.000    0.000    0.000    0.000 
#
# Total GULP energy -89202.342570 kJ/mol
# GULP energy per Si atom -5575.146411 kJ/mol
# Density = 2.403516 g / cm^3
# Si number density = 24.089993 Si / 1000 Ang^3
#
#
#
# Elastic Constant Matrix: (Units=GPa)
#
#
# Indices 1 2 3 4 5 6 
#
# 1 121.4180 22.3987 23.1219 -1.3532 -24.3753 15.6744
# 2 22.3987 52.3732 7.8570 -6.6367 -17.8213 21.6312
# 3 23.1219 7.8570 107.4777 6.9614 -13.9792 -2.5826
# 4 -1.3532 -6.6367 6.9614 37.9835 -0.8977 -10.6991
# 5 -24.3753 -17.8213 -13.9792 -0.8977 46.4304 -10.0305
# 6 15.6744 21.6312 -2.5826 -10.6991 -10.0305 37.6750
#
#
#
# Elastic Compliance Matrix: (Units=1/GPa)
#
#
# Indices 1 2 3 4 5 6 
#
# 1 0.009875 -0.001894 -0.001571 -0.000248 0.003489 -0.002270
# 2 -0.001894 0.027940 -0.001195 0.001478 0.006553 -0.013171
# 3 -0.001571 -0.001195 0.010167 -0.001451 0.002229 0.002218
# 4 -0.000248 0.001478 -0.001451 0.029165 0.002303 0.008051
# 5 0.003489 0.006553 0.002229 0.002303 0.027213 0.002838
# 6 -0.002270 -0.013171 0.002218 0.008051 0.002838 0.038244
#
#
# Mechanical properties :
#
#
# Convention : Reuss Voigt Hill
#
# Bulk Modulus (GPa) = 25.86481 43.11377 34.48929
# Shear Modulus (GPa) = 30.33770 39.61054 34.97412
#
# Velocity S-wave (km/s) = 3.55258 4.05936 3.81440
# Velocity P-wave (km/s) = 5.25241 6.31720 5.80925
#
# Compressibility (1/GPa) = 0.03866256
#
# Stress axis : x y z
#
# Youngs Moduli (GPa) = 101.26233 35.79042 98.36074
#
# Poissons Ratio (x) = 0.06780 0.15449
# Poissons Ratio (y) = 0.19183 0.11753
# Poissons Ratio (z) = 0.15905 0.04277
#
# Static dielectric constant tensor:
#      x y z
#    x 1.845280 -0.008560 -0.181090 
#    y -0.008560 2.093080 -0.025390 
#    z -0.181090 -0.025390 1.826580 
# 
# From -- ./inp_files/44125.got.cif
#   From: 2010.05.17/outbox.cif.g08.bks.cpg/sg2_23_cif.got.tgz:44125.got - 2010.06.03 11:33:40.
