data_PCOD9032306
_publ_section_title
;
Structure prediction by ZEFSAII (Michael W. Deem and Ramdas Pophale) SiO2 
 PCOD9032306
Probable space group: P -1
;
_chemical_formula_sum "Si O2"
_cell_formula_units_Z 14
_cell_length_a 10.278081
_cell_length_b 8.836029
_cell_length_c 11.601355
_cell_angle_alpha 124.200978
_cell_angle_beta 81.749277
_cell_angle_gamma 130.876671
_cell_volume 615.027804
_symmetry_space_group_name_H-M "P -1"
_symmetry_group_IT_number 2
_symmetry_cell_setting 'triclinic'
loop_
_space_group_symop_operation_xyz
x,y,z
-x,-y,-z
loop_
_atom_site_type_symbol
_atom_site_label
_atom_site_fract_x
_atom_site_fract_y
_atom_site_fract_z
Si Si1 0.074651 0.451821 0.072173
Si Si2 0.586729 0.435815 0.880904
Si Si3 0.953866 0.522625 0.326081
Si Si4 0.054011 0.309775 0.377458
Si Si5 0.461809 0.832931 0.820653
Si Si6 0.414566 0.921694 0.606080
Si Si7 0.223849 0.145349 0.159827
O O1 0.263305 0.535895 0.056636
O O2 0.094459 0.606166 0.244381
O O3 0.000000 0.500000 0.000000
O O4 0.919586 0.148521 0.988905
O O5 0.707927 0.649381 0.858372
O O6 0.429351 0.153068 0.728228
O O7 0.500000 0.500000 0.000000
O O8 0.019344 0.732415 0.502114
O O9 0.760397 0.403356 0.249535
O O10 0.927462 0.300683 0.300838
O O11 0.238042 0.616744 0.485076
O O12 0.113922 0.166359 0.273311
O O13 0.494336 0.928468 0.723777
O O14 0.593074 0.784752 0.795221
O O15 0.500000 0.000000 0.000000
O O16 0.500000 0.000000 0.500000
#
# Coordination Sequence:
#
# PCOD9032306 Si02
#       7
#     2   2   2   2   2   2   2
#     4  12  26  45  68 101 139 187 231 288 352 418
#     4  12  27  42  70 106 140 183 238 295 344 420
#     4  10  22  43  70  95 138 183 230 272 362 414
#     4  10  23  42  71 100 131 191 225 286 347 423
#     4  11  23  40  72 101 139 187 231 290 352 418
#     4  11  22  45  67  99 144 183 232 283 357 419
#     4  12  24  44  70 106 140 176 242 290 347 418
#
# _framework density 22.763200000000001
#
# number of rings (size 3 to 8) (size 9 to 14) (size 15 to 20)
#    0.000    0.857    4.286    2.143    4.000    3.429 
#    0.000    0.714    0.000    0.000    0.000    0.000 
#    0.000    0.000    0.000    0.000    0.000    0.000 
#
# Total GULP energy -78097.079403 kJ/mol
# GULP energy per Si atom -5578.362814 kJ/mol
# Density = 2.271139 g / cm^3
# Si number density = 22.763200 Si / 1000 Ang^3
#
#
#
# Elastic Constant Matrix: (Units=GPa)
#
#
# Indices 1 2 3 4 5 6 
#
# 1 157.3927 -3.0052 48.9182 -12.8918 -16.4437 8.4528
# 2 -3.0052 57.7599 27.3879 5.5545 5.1549 -5.0989
# 3 48.9182 27.3879 146.9338 -26.5662 -28.0721 0.9899
# 4 -12.8918 5.5545 -26.5662 48.6395 11.1198 3.3165
# 5 -16.4437 5.1549 -28.0721 11.1198 51.0532 -2.0905
# 6 8.4528 -5.0989 0.9899 3.3165 -2.0905 22.0031
#
#
#
# Elastic Compliance Matrix: (Units=1/GPa)
#
#
# Indices 1 2 3 4 5 6 
#
# 1 0.007382 0.001218 -0.002445 0.000488 0.000703 -0.002450
# 2 0.001218 0.021532 -0.006079 -0.004932 -0.003838 0.005174
# 3 -0.002445 -0.006079 0.010494 0.004835 0.004492 -0.001243
# 4 0.000488 -0.004932 0.004835 0.024797 -0.002312 -0.005505
# 5 0.000703 -0.003838 0.004492 -0.002312 0.023224 0.001193
# 6 -0.002450 0.005174 -0.001243 -0.005505 0.001193 0.048588
#
#
# Mechanical properties :
#
#
# Convention : Reuss Voigt Hill
#
# Bulk Modulus (GPa) = 40.33090 56.52090 48.42590
# Shear Modulus (GPa) = 31.46727 43.59152 37.52940
#
# Velocity S-wave (km/s) = 3.72206 4.38082 4.06481
# Velocity P-wave (km/s) = 6.01895 7.10441 6.58408
#
# Compressibility (1/GPa) = 0.02479489
#
# Stress axis : x y z
#
# Youngs Moduli (GPa) = 135.46638 46.44177 95.29363
#
# Poissons Ratio (x) = -0.05655 0.23303
# Poissons Ratio (y) = -0.16494 0.57927
# Poissons Ratio (z) = 0.33127 0.28231
#
# Static dielectric constant tensor:
#      x y z
#    x 0.263000 -1.247630 -0.038760 
#    y -1.247630 0.874640 -0.076440 
#    z -0.038760 -0.076440 1.869010 
# 
# From -- ./inp_files/382911.got.cif
#   From: 2010.05.17/outbox.cif.g08.bks.cpg/sg2_192_cif.got.tgz:382911.got - 2010.06.03 11:33:40.
