data_PCOD9032331
_publ_section_title
;
Structure prediction by ZEFSAII (Michael W. Deem and Ramdas Pophale) SiO2 
 PCOD9032331
Probable space group: P -1
;
_chemical_formula_sum "Si O2"
_cell_formula_units_Z 14
_cell_length_a 14.640941
_cell_length_b 4.890960
_cell_length_c 20.441108
_cell_angle_alpha 83.037220
_cell_angle_beta 27.607288
_cell_angle_gamma 98.079884
_cell_volume 567.097161
_symmetry_space_group_name_H-M "P -1"
_symmetry_group_IT_number 2
_symmetry_cell_setting 'triclinic'
loop_
_space_group_symop_operation_xyz
x,y,z
-x,-y,-z
loop_
_atom_site_type_symbol
_atom_site_label
_atom_site_fract_x
_atom_site_fract_y
_atom_site_fract_z
Si Si1 0.417179 0.518213 0.833509
Si Si2 0.377379 0.140379 0.140517
Si Si3 0.793348 0.832544 0.886511
Si Si4 0.745715 0.299724 0.250872
Si Si5 0.794356 0.524162 0.663189
Si Si6 0.795911 0.090275 0.084975
Si Si7 0.686586 0.821591 0.415011
O O1 0.680854 0.624016 0.674835
O O2 0.363618 0.798306 0.852881
O O3 0.308497 0.287092 0.847134
O O4 0.287414 0.267364 0.983705
O O5 0.286612 0.038571 0.127375
O O6 0.218115 0.255234 0.276405
O O7 0.357105 0.840488 0.200485
O O8 0.644736 0.451100 0.966318
O O9 0.070184 0.095077 0.711639
O O10 0.800533 0.168519 0.155568
O O11 0.480433 0.200649 0.420399
O O12 0.759604 0.125003 0.311915
O O13 0.947693 0.679319 0.115014
O O14 0.000000 0.500000 0.500000
O O15 0.500000 0.500000 0.500000
#
# Coordination Sequence:
#
# PCOD9032331 Si02
#       7
#     2   2   2   2   2   2   2
#     4  11  23  40  69  95 127 180 218 273 343 397
#     4  10  24  44  70 103 128 182 224 280 337 404
#     4  10  22  43  70  97 137 175 232 279 337 409
#     4  10  25  40  64  97 133 177 228 280 331 402
#     4  11  24  43  67  99 140 167 227 282 344 405
#     4  11  24  43  68  95 131 177 230 272 333 411
#     4  11  23  44  66 100 140 180 224 285 344 394
#
# _framework density 24.687128000000001
#
# number of rings (size 3 to 8) (size 9 to 14) (size 15 to 20)
#    0.000    1.429    1.429    3.000    2.000    9.714 
#    7.714    0.000    0.000    0.000    0.000    0.000 
#    0.000    0.000    0.000    0.000    0.000    0.000 
#
# Total GULP energy -78090.451259 kJ/mol
# GULP energy per Si atom -5577.889376 kJ/mol
# Density = 2.463094 g / cm^3
# Si number density = 24.687128 Si / 1000 Ang^3
#
#
#
# Elastic Constant Matrix: (Units=GPa)
#
#
# Indices 1 2 3 4 5 6 
#
# 1 108.7376 31.1688 37.2012 -2.9041 -18.1179 -9.1396
# 2 31.1688 96.3547 23.3704 9.8580 -2.1506 -3.6288
# 3 37.2012 23.3704 110.2067 9.1085 -9.8286 1.4806
# 4 -2.9041 9.8580 9.1085 31.8304 -5.3904 -1.7374
# 5 -18.1179 -2.1506 -9.8286 -5.3904 41.0756 0.4932
# 6 -9.1396 -3.6288 1.4806 -1.7374 0.4932 44.1174
#
#
#
# Elastic Compliance Matrix: (Units=1/GPa)
#
#
# Indices 1 2 3 4 5 6 
#
# 1 0.012519 -0.003438 -0.003427 0.004179 0.005040 0.002534
# 2 -0.003438 0.012171 -0.001244 -0.004005 -0.001705 0.000192
# 3 -0.003427 -0.001244 0.010815 -0.002986 0.000635 -0.001300
# 4 0.004179 -0.004005 -0.002986 0.034927 0.005479 0.001951
# 5 0.005040 -0.001705 0.000635 0.005479 0.027341 0.000793
# 6 0.002534 0.000192 -0.001300 0.001951 0.000793 0.023319
#
#
# Mechanical properties :
#
#
# Convention : Reuss Voigt Hill
#
# Bulk Modulus (GPa) = 51.84719 55.41998 53.63359
# Shear Modulus (GPa) = 34.78539 38.30859 36.54699
#
# Velocity S-wave (km/s) = 3.75780 3.94352 3.85178
# Velocity P-wave (km/s) = 6.31470 6.57516 6.44625
#
# Compressibility (1/GPa) = 0.01928745
#
# Stress axis : x y z
#
# Youngs Moduli (GPa) = 79.88099 82.16145 92.46210
#
# Poissons Ratio (x) = 0.28248 0.31684
# Poissons Ratio (y) = 0.27464 0.11503
# Poissons Ratio (z) = 0.27373 0.10221
#
# Static dielectric constant tensor:
#      x y z
#    x 2.012780 0.045880 -0.050460 
#    y 0.045880 2.005260 0.069280 
#    z -0.050460 0.069280 2.055200 
# 
# From -- ./inp_files/583564.got.cif
#   From: 2010.05.17/outbox.cif.g08.bks.cpg/sg2_292_cif.got.tgz:583564.got - 2010.06.03 11:33:40.
