data_PCOD9032505
_publ_section_title
;
Structure prediction by ZEFSAII (Michael W. Deem and Ramdas Pophale) SiO2 
 PCOD9032505
Probable space group: P -1
;
_chemical_formula_sum "Si O2"
_cell_formula_units_Z 14
_cell_length_a 14.382912
_cell_length_b 7.578743
_cell_length_c 11.390159
_cell_angle_alpha 125.248231
_cell_angle_beta 142.998531
_cell_angle_gamma 60.059344
_cell_volume 608.382369
_symmetry_space_group_name_H-M "P -1"
_symmetry_group_IT_number 2
_symmetry_cell_setting 'triclinic'
loop_
_space_group_symop_operation_xyz
x,y,z
-x,-y,-z
loop_
_atom_site_type_symbol
_atom_site_label
_atom_site_fract_x
_atom_site_fract_y
_atom_site_fract_z
Si Si1 0.681619 0.033711 0.192205
Si Si2 0.859486 0.065367 0.623683
Si Si3 0.451166 0.023465 0.596314
Si Si4 0.883968 0.662095 0.117242
Si Si5 0.673658 0.539054 0.390066
Si Si6 0.648305 0.626321 0.673789
Si Si7 0.003137 0.636365 0.674934
O O1 0.765024 0.991562 0.386260
O O2 0.678662 0.290723 0.263650
O O3 0.784894 0.873062 0.150597
O O4 0.500000 0.000000 0.000000
O O5 0.954163 0.260896 0.741541
O O6 0.715855 0.071879 0.576164
O O7 0.999230 0.891664 0.740459
O O8 0.449338 0.279594 0.719413
O O9 0.500000 0.000000 0.500000
O O10 0.587506 0.874147 0.735690
O O11 0.896478 0.486724 0.168932
O O12 0.790812 0.568662 0.879908
O O13 0.672228 0.573792 0.541550
O O14 0.832349 0.624643 0.545668
O O15 0.500000 0.500000 0.500000
O O16 0.000000 0.500000 0.500000
#
# Coordination Sequence:
#
# PCOD9032505 Si02
#       7
#     2   2   2   2   2   2   2
#     4  12  23  42  71 103 137 187 236 291 360 417
#     4  11  22  43  71  99 145 181 235 301 347 425
#     4   9  21  44  69  99 141 186 231 289 356 422
#     4  12  25  44  75 106 140 188 244 292 360 429
#     4  10  22  43  71  97 143 183 231 293 351 429
#     4  11  24  47  71 101 144 188 236 296 358 429
#     4  11  22  43  69 103 145 183 233 297 359 416
#
# _framework density 23.011842999999999
#
# number of rings (size 3 to 8) (size 9 to 14) (size 15 to 20)
#    0.000    1.143    2.857    3.857    0.000    0.571 
#   10.286    7.143    0.000    0.000    0.000    0.000 
#    0.000    0.000    0.000    0.000    0.000    0.000 
#
# Total GULP energy -78043.680168 kJ/mol
# GULP energy per Si atom -5574.548583 kJ/mol
# Density = 2.295947 g / cm^3
# Si number density = 23.011843 Si / 1000 Ang^3
#
#
#
# Elastic Constant Matrix: (Units=GPa)
#
#
# Indices 1 2 3 4 5 6 
#
# 1 138.9355 -7.0328 25.2268 -5.2013 7.8528 -0.4375
# 2 -7.0328 126.5640 7.1440 -25.4598 -1.5544 0.1172
# 3 25.2268 7.1440 93.8554 -14.8095 -1.5671 15.6509
# 4 -5.2013 -25.4598 -14.8095 27.1103 3.8635 -1.6993
# 5 7.8528 -1.5544 -1.5671 3.8635 20.0616 -7.9997
# 6 -0.4375 0.1172 15.6509 -1.6993 -7.9997 36.7428
#
#
#
# Elastic Compliance Matrix: (Units=1/GPa)
#
#
# Indices 1 2 3 4 5 6 
#
# 1 0.007862 0.000853 -0.002013 0.001709 -0.003382 0.000291
# 2 0.000853 0.009908 0.000592 0.009997 -0.001500 -0.000138
# 3 -0.002013 0.000592 0.013225 0.007295 -0.001818 -0.005718
# 4 0.001709 0.009997 0.007295 0.051898 -0.010519 -0.003009
# 5 -0.003382 -0.001500 -0.001818 -0.010519 0.058081 0.012898
# 6 0.000291 -0.000138 -0.005718 -0.003009 0.012898 0.032325
#
#
# Mechanical properties :
#
#
# Convention : Reuss Voigt Hill
#
# Bulk Modulus (GPa) = 33.49255 45.55897 39.52576
# Shear Modulus (GPa) = 27.11668 39.05074 33.08371
#
# Velocity S-wave (km/s) = 3.43648 4.12392 3.79579
# Velocity P-wave (km/s) = 5.50744 6.52048 6.03525
#
# Compressibility (1/GPa) = 0.02985739
#
# Stress axis : x y z
#
# Youngs Moduli (GPa) = 127.18764 100.93097 75.61477
#
# Poissons Ratio (x) = -0.08606 0.15225
# Poissons Ratio (y) = -0.10844 -0.04477
# Poissons Ratio (z) = 0.25609 -0.05975
#
# Static dielectric constant tensor:
#      x y z
#    x 1.845300 0.053990 -0.014650 
#    y 0.053990 2.189200 -0.063410 
#    z -0.014650 -0.063410 1.809750 
# 
# From -- ./inp_files/446375.got.cif
#   From: 2010.05.17/outbox.cif.g08.bks.cpg/sg2_224_cif.got.tgz:446375.got - 2010.06.03 11:33:40.
