data_PCOD9032112
_publ_section_title
;
Structure prediction by ZEFSAII (Michael W. Deem and Ramdas Pophale) SiO2 
 PCOD9032112
Probable space group: P -1
;
_chemical_formula_sum "Si O2"
_cell_formula_units_Z 14
_cell_length_a 6.305086
_cell_length_b 13.950684
_cell_length_c 13.905716
_cell_angle_alpha 29.970703
_cell_angle_beta 73.600830
_cell_angle_gamma 84.928944
_cell_volume 554.172163
_symmetry_space_group_name_H-M "P -1"
_symmetry_group_IT_number 2
_symmetry_cell_setting 'triclinic'
loop_
_space_group_symop_operation_xyz
x,y,z
-x,-y,-z
loop_
_atom_site_type_symbol
_atom_site_label
_atom_site_fract_x
_atom_site_fract_y
_atom_site_fract_z
Si Si1 0.773855 0.527676 0.206772
Si Si2 0.540753 0.081691 0.650792
Si Si3 0.918902 0.127687 0.022992
Si Si4 0.784456 0.763984 0.819921
Si Si5 0.395729 0.576122 0.355186
Si Si6 0.701003 0.914126 0.512426
Si Si7 0.936962 0.222227 0.720922
O O1 0.739945 0.299439 0.443674
O O2 0.579435 0.597704 0.228171
O O3 0.750842 0.568997 0.060839
O O4 0.017430 0.684617 0.076290
O O5 0.374783 0.135526 0.543989
O O6 0.355948 0.995139 0.834115
O O7 0.642129 0.906561 0.756871
O O8 0.004126 0.200294 0.842637
O O9 0.055091 0.972257 0.168478
O O10 0.720681 0.742605 0.733452
O O11 0.054557 0.904572 0.670055
O O12 0.500000 0.500000 0.500000
O O13 0.313362 0.753604 0.255726
O O14 0.147671 0.416821 0.490071
O O15 0.500000 0.000000 0.500000
#
# Coordination Sequence:
#
# PCOD9032112 Si02
#       7
#     2   2   2   2   2   2   2
#     4  12  24  40  67  99 127 172 220 261 329 384
#     4  11  23  43  65  97 136 165 216 270 316 389
#     4  11  22  43  63  95 130 175 222 269 324 378
#     4  10  22  43  69  97 130 171 209 264 328 382
#     4  11  22  41  61  94 126 171 226 265 320 391
#     4   9  20  44  71  94 132 167 209 265 319 394
#     4  10  23  41  64  85 133 177 214 276 323 367
#
# _framework density 25.262906999999998
#
# number of rings (size 3 to 8) (size 9 to 14) (size 15 to 20)
#    0.000    1.429    4.286    0.857    0.000    2.286 
#    5.143    6.429    0.000    0.000    0.000    0.000 
#    0.000    0.000    0.000    0.000    0.000    0.000 
#
# Total GULP energy -78284.422245 kJ/mol
# GULP energy per Si atom -5591.744446 kJ/mol
# Density = 2.520541 g / cm^3
# Si number density = 25.262907 Si / 1000 Ang^3
#
#
#
# Elastic Constant Matrix: (Units=GPa)
#
#
# Indices 1 2 3 4 5 6 
#
# 1 58.3401 0.3638 4.8472 5.0054 0.5904 -4.7770
# 2 0.3638 26.4904 0.0936 5.0566 -6.9501 4.0973
# 3 4.8472 0.0936 95.2694 7.0284 -14.6046 2.0840
# 4 5.0054 5.0566 7.0284 45.3210 -4.4167 -0.9335
# 5 0.5904 -6.9501 -14.6046 -4.4167 23.7666 0.5581
# 6 -4.7770 4.0973 2.0840 -0.9335 0.5581 46.2440
#
#
#
# Elastic Compliance Matrix: (Units=1/GPa)
#
#
# Indices 1 2 3 4 5 6 
#
# 1 0.017561 -0.000614 -0.001052 -0.001829 -0.001647 0.001899
# 2 -0.000614 0.042634 0.002411 -0.003848 0.013347 -0.004188
# 3 -0.001052 0.002411 0.011858 -0.001251 0.007809 -0.000976
# 4 -0.001829 -0.003848 -0.001251 0.023141 0.002437 0.000646
# 5 -0.001647 0.013347 0.007809 0.002437 0.051325 -0.002275
# 6 0.001899 -0.004188 -0.000976 0.000646 -0.002275 0.022276
#
#
# Mechanical properties :
#
#
# Convention : Reuss Voigt Hill
#
# Bulk Modulus (GPa) = 13.59742 21.18990 17.39366
# Shear Modulus (GPa) = 26.06620 34.71934 30.39277
#
# Velocity S-wave (km/s) = 3.21564 3.71121 3.47228
# Velocity P-wave (km/s) = 4.37964 5.17398 4.79329
#
# Compressibility (1/GPa) = 0.07354336
#
# Stress axis : x y z
#
# Youngs Moduli (GPa) = 56.94377 23.45563 84.32848
#
# Poissons Ratio (x) = 0.01440 0.08871
# Poissons Ratio (y) = 0.03497 -0.20332
# Poissons Ratio (z) = 0.05990 -0.05655
#
# Static dielectric constant tensor:
#      x y z
#    x 2.001910 0.041780 0.035140 
#    y 0.041780 2.013450 -0.021660 
#    z 0.035140 -0.021660 2.051350 
# 
# From -- ./inp_files/107624.got.cif
#   From: 2010.05.17/outbox.cif.g08.bks.cpg/sg2_54_cif.got.tgz:107624.got - 2010.06.03 11:33:40.
