data_PCOD9032038
_publ_section_title
;
Structure prediction by ZEFSAII (Michael W. Deem and Ramdas Pophale) SiO2 
 PCOD9032038
Probable space group: P -1
;
_chemical_formula_sum "Si O2"
_cell_formula_units_Z 12
_cell_length_a 15.243692
_cell_length_b 8.477180
_cell_length_c 17.404625
_cell_angle_alpha 43.730044
_cell_angle_beta 162.753572
_cell_angle_gamma 136.517458
_cell_volume 453.987391
_symmetry_space_group_name_H-M "P -1"
_symmetry_group_IT_number 2
_symmetry_cell_setting 'triclinic'
loop_
_space_group_symop_operation_xyz
x,y,z
-x,-y,-z
loop_
_atom_site_type_symbol
_atom_site_label
_atom_site_fract_x
_atom_site_fract_y
_atom_site_fract_z
Si Si1 0.382965 0.468367 0.750167
Si Si2 0.270856 0.853250 0.057204
Si Si3 0.890375 0.251680 0.194774
Si Si4 0.301554 0.012755 0.198041
Si Si5 0.249517 0.775509 0.746218
Si Si6 0.511328 0.427625 0.446226
O O1 0.499200 0.736571 0.736268
O O2 0.033708 0.378559 0.477030
O O3 0.572759 0.340332 0.893815
O O4 0.513012 0.385793 0.968266
O O5 0.286341 0.578952 0.167596
O O6 0.199990 0.920062 0.060237
O O7 0.584148 0.019688 0.239814
O O8 0.074684 0.884151 0.806676
O O9 0.849640 0.134733 0.284880
O O10 0.162512 0.463944 0.352474
O O11 0.502168 0.844889 0.466470
O O12 0.000000 0.000000 0.000000
O O13 0.500000 0.500000 0.500000
#
# Coordination Sequence:
#
# PCOD9032038 Si02
#       6
#     2   2   2   2   2   2
#     4  10  24  46  75 109 149 198 235 308 375 437
#     4  11  25  43  76 108 144 193 248 310 367 438
#     4  10  22  43  69 112 141 191 241 306 367 432
#     4  11  23  50  72 107 149 199 246 306 366 447
#     4  10  24  46  76 110 152 185 253 300 379 436
#     4  10  23  43  68 107 143 197 245 302 357 439
#
# _framework density 26.432455000000001
#
# number of rings (size 3 to 8) (size 9 to 14) (size 15 to 20)
#    1.000    0.667    1.667    1.500    2.333    5.333 
#   12.000    2.500    0.000    0.000    0.000    0.000 
#    0.000    0.000    0.000    0.000    0.000    0.000 
#
# Total GULP energy -67111.750319 kJ/mol
# GULP energy per Si atom -5592.645860 kJ/mol
# Density = 2.637229 g / cm^3
# Si number density = 26.432455 Si / 1000 Ang^3
#
#
#
# Elastic Constant Matrix: (Units=GPa)
#
#
# Indices 1 2 3 4 5 6 
#
# 1 183.0488 40.1760 54.8245 -13.4249 -8.9158 4.3028
# 2 40.1760 176.5879 83.2385 -8.6721 -9.4454 31.6953
# 3 54.8245 83.2385 137.4509 21.0312 -16.2795 17.0513
# 4 -13.4249 -8.6721 21.0312 31.8882 5.5839 -7.5854
# 5 -8.9158 -9.4454 -16.2795 5.5839 42.3457 3.8403
# 6 4.3028 31.6953 17.0513 -7.5854 3.8403 36.3898
#
#
#
# Elastic Compliance Matrix: (Units=1/GPa)
#
#
# Indices 1 2 3 4 5 6 
#
# 1 0.007160 0.000357 -0.004634 0.007030 -0.001359 0.002623
# 2 0.000357 0.009648 -0.006537 0.006266 -0.000749 -0.003997
# 3 -0.004634 -0.006537 0.017524 -0.018111 0.007282 -0.006514
# 4 0.007030 0.006266 -0.018111 0.053652 -0.012493 0.014700
# 5 -0.001359 -0.000749 0.007282 -0.012493 0.028352 -0.008195
# 6 0.002623 -0.003997 -0.006514 0.014700 -0.008195 0.037633
#
#
# Mechanical properties :
#
#
# Convention : Reuss Voigt Hill
#
# Bulk Modulus (GPa) = 78.71131 94.84062 86.77596
# Shear Modulus (GPa) = 27.80370 43.38131 35.59250
#
# Velocity S-wave (km/s) = 3.24678 4.05558 3.67351
# Velocity P-wave (km/s) = 6.62559 7.60846 7.13397
#
# Compressibility (1/GPa) = 0.01270465
#
# Stress axis : x y z
#
# Youngs Moduli (GPa) = 139.65754 103.64871 57.06441
#
# Poissons Ratio (x) = -0.03703 0.26446
# Poissons Ratio (y) = -0.04989 0.37302
# Poissons Ratio (z) = 0.64722 0.67753
#
# Static dielectric constant tensor:
#      x y z
#    x 2.059140 -0.038260 -0.002010 
#    y -0.038260 2.068810 -0.045370 
#    z -0.002010 -0.045370 2.166930 
# 
# From -- ./inp_files/58910.got.cif
#   From: 2010.05.17/outbox.cif.g08.bks.cpg/sg2_30_cif.got.tgz:58910.got - 2010.06.03 11:33:40.
