data_PCOD9032039
_publ_section_title
;
Structure prediction by ZEFSAII (Michael W. Deem and Ramdas Pophale) SiO2 
 PCOD9032039
Probable space group: P -1
;
_chemical_formula_sum "Si O2"
_cell_formula_units_Z 16
_cell_length_a 14.468814
_cell_length_b 14.176776
_cell_length_c 9.166788
_cell_angle_alpha 128.497239
_cell_angle_beta 148.938409
_cell_angle_gamma 48.927355
_cell_volume 722.724026
_symmetry_space_group_name_H-M "P -1"
_symmetry_group_IT_number 2
_symmetry_cell_setting 'triclinic'
loop_
_space_group_symop_operation_xyz
x,y,z
-x,-y,-z
loop_
_atom_site_type_symbol
_atom_site_label
_atom_site_fract_x
_atom_site_fract_y
_atom_site_fract_z
Si Si1 0.311906 0.287320 0.417248
Si Si2 0.677490 0.721712 0.914577
Si Si3 0.079244 0.158307 0.184114
Si Si4 0.723935 0.202713 0.579224
Si Si5 0.849096 0.185565 0.402518
Si Si6 0.207219 0.080400 0.596410
Si Si7 0.065947 0.556341 0.290525
Si Si8 0.642740 0.086052 0.787108
O O1 0.273736 0.257910 0.168839
O O2 0.200758 0.229244 0.326840
O O3 0.223193 0.438045 0.458279
O O4 0.531021 0.213731 0.672833
O O5 0.479623 0.694964 0.611453
O O6 0.647041 0.850078 0.086193
O O7 0.856423 0.621069 0.134690
O O8 0.109106 0.154321 0.391737
O O9 0.162757 0.010542 0.103688
O O10 0.867533 0.223582 0.910885
O O11 0.822690 0.184861 0.538307
O O12 0.704811 0.065719 0.461948
O O13 0.847019 0.328950 0.501404
O O14 0.051727 0.102066 0.534700
O O15 0.696610 0.134316 0.061802
O O16 0.000000 0.500000 0.000000
O O17 0.500000 0.000000 0.500000
#
# Coordination Sequence:
#
# PCOD9032039 Si02
#       8
#     2   2   2   2   2   2   2   2
#     4  10  22  43  69  84 126 175 211 259 325 363
#     4  10  23  38  64  94 123 165 220 258 309 388
#     4  11  23  40  63  97 132 164 206 265 323 385
#     4  12  23  37  64  94 132 166 205 261 332 375
#     4  11  24  40  65  94 131 169 215 260 314 382
#     4  11  23  38  61  95 134 164 211 258 321 389
#     4   9  20  45  66  88 121 171 223 264 305 375
#     4  10  23  37  65  96 132 160 215 254 324 381
#
# _framework density 22.138463000000002
#
# number of rings (size 3 to 8) (size 9 to 14) (size 15 to 20)
#    0.000    1.500    1.250    4.125    8.750    0.500 
#    0.000    8.125    0.000    0.000    0.000    0.000 
#    0.000    0.000    0.000    0.000    0.000    0.000 
#
# Total GULP energy -89250.018500 kJ/mol
# GULP energy per Si atom -5578.126156 kJ/mol
# Density = 2.208808 g / cm^3
# Si number density = 22.138463 Si / 1000 Ang^3
#
#
#
# Elastic Constant Matrix: (Units=GPa)
#
#
# Indices 1 2 3 4 5 6 
#
# 1 75.8146 5.2628 19.1727 -11.6254 1.0385 0.5261
# 2 5.2628 105.1637 6.5350 -11.6005 12.2807 6.4616
# 3 19.1727 6.5350 99.3292 -11.1490 2.4882 4.2424
# 4 -11.6254 -11.6005 -11.1490 31.5798 0.2434 -4.2768
# 5 1.0385 12.2807 2.4882 0.2434 24.9817 -5.0349
# 6 0.5261 6.4616 4.2424 -4.2768 -5.0349 13.8026
#
#
#
# Elastic Compliance Matrix: (Units=1/GPa)
#
#
# Indices 1 2 3 4 5 6 
#
# 1 0.014498 -0.000170 -0.002335 0.004680 0.000010 0.001698
# 2 -0.000170 0.011073 0.000120 0.003190 -0.006833 -0.006718
# 3 -0.002335 0.000120 0.010985 0.002650 -0.001717 -0.003149
# 4 0.004680 0.003190 0.002650 0.036672 -0.000642 0.008642
# 5 0.000010 -0.006833 -0.001717 -0.000642 0.047790 0.020960
# 6 0.001698 -0.006718 -0.003149 0.008642 0.020960 0.086822
#
#
# Mechanical properties :
#
#
# Convention : Reuss Voigt Hill
#
# Bulk Modulus (GPa) = 31.45834 38.02762 34.74298
# Shear Modulus (GPa) = 22.40118 30.69528 26.54823
#
# Velocity S-wave (km/s) = 3.18444 3.72763 3.46669
# Velocity P-wave (km/s) = 5.26892 5.97841 5.63484
#
# Compressibility (1/GPa) = 0.03178807
#
# Stress axis : x y z
#
# Youngs Moduli (GPa) = 68.97478 90.31249 91.03173
#
# Poissons Ratio (x) = 0.01532 0.21253
# Poissons Ratio (y) = 0.01170 -0.01097
# Poissons Ratio (z) = 0.16104 -0.01088
#
# Static dielectric constant tensor:
#      x y z
#    x 1.848200 -0.026330 0.036150 
#    y -0.026330 1.860790 -0.018170 
#    z 0.036150 -0.018170 1.839170 
# 
# From -- ./inp_files/185764.got.cif
#   From: 2010.05.17/outbox.cif.g08.bks.cpg/sg2_93_cif.got.tgz:185764.got - 2010.06.03 11:33:40.
