data_PCOD9032332
_publ_section_title
;
Structure prediction by ZEFSAII (Michael W. Deem and Ramdas Pophale) SiO2 
 PCOD9032332
Probable space group: P -1
;
_chemical_formula_sum "Si O2"
_cell_formula_units_Z 14
_cell_length_a 19.060122
_cell_length_b 25.547999
_cell_length_c 6.909250
_cell_angle_alpha 59.016734
_cell_angle_beta 132.484376
_cell_angle_gamma 161.524610
_cell_volume 662.649837
_symmetry_space_group_name_H-M "P -1"
_symmetry_group_IT_number 2
_symmetry_cell_setting 'triclinic'
loop_
_space_group_symop_operation_xyz
x,y,z
-x,-y,-z
loop_
_atom_site_type_symbol
_atom_site_label
_atom_site_fract_x
_atom_site_fract_y
_atom_site_fract_z
Si Si1 0.988238 0.428008 0.844724
Si Si2 0.004082 0.988104 0.804648
Si Si3 0.029148 0.341511 0.797042
Si Si4 0.833594 0.094650 0.073200
Si Si5 0.458687 0.761595 0.827703
Si Si6 0.270936 0.255503 0.563842
Si Si7 0.660910 0.158198 0.089172
O O1 0.808788 0.379797 0.543287
O O2 0.940533 0.344274 0.761856
O O3 0.332249 0.657627 0.992792
O O4 0.860523 0.321902 0.005174
O O5 0.022052 0.062892 0.581749
O O6 0.328817 0.155776 0.042068
O O7 0.763371 0.794164 0.623879
O O8 0.000000 0.000000 0.000000
O O9 0.893472 0.275595 0.462291
O O10 0.392225 0.550885 0.095139
O O11 0.877857 0.187970 0.888302
O O12 0.154023 0.253321 0.382627
O O13 0.647628 0.937575 0.883638
O O14 0.618563 0.973151 0.090254
O O15 0.500000 0.000000 0.000000
#
# Coordination Sequence:
#
# PCOD9032332 Si02
#       7
#     2   2   2   2   2   2   2
#     4  11  23  42  68 100 135 170 233 279 337 402
#     4  10  22  43  70  97 138 175 221 278 341 406
#     4  12  23  47  68  97 142 177 222 288 335 401
#     4  11  23  44  70  96 138 180 223 279 339 399
#     4  10  22  44  67 100 135 174 222 287 337 395
#     4  10  24  44  66 102 133 180 222 276 344 395
#     4  12  25  42  71 101 134 185 228 275 341 403
#
# _framework density 21.127298
#
# number of rings (size 3 to 8) (size 9 to 14) (size 15 to 20)
#    0.000    1.143    4.286    1.714    2.000    1.714 
#    0.000    0.714    0.000    0.000    0.000    0.000 
#    0.000    0.000    0.000    0.000    0.000    0.000 
#
# Total GULP energy -78116.303212 kJ/mol
# GULP energy per Si atom -5579.735944 kJ/mol
# Density = 2.107921 g / cm^3
# Si number density = 21.127298 Si / 1000 Ang^3
#
#
#
# Elastic Constant Matrix: (Units=GPa)
#
#
# Indices 1 2 3 4 5 6 
#
# 1 87.3662 29.0845 52.1827 6.8207 8.6810 9.9719
# 2 29.0845 119.4992 45.3780 -6.9203 0.2132 7.5006
# 3 52.1827 45.3780 114.5122 3.3862 2.3869 21.1129
# 4 6.8207 -6.9203 3.3862 33.7705 -1.4117 7.4693
# 5 8.6810 0.2132 2.3869 -1.4117 37.0306 -2.6775
# 6 9.9719 7.5006 21.1129 7.4693 -2.6775 36.3413
#
#
#
# Elastic Compliance Matrix: (Units=1/GPa)
#
#
# Indices 1 2 3 4 5 6 
#
# 1 0.016637 -0.001662 -0.006773 -0.003194 -0.003568 0.000107
# 2 -0.001662 0.010222 -0.003345 0.002848 0.000637 -0.000249
# 3 -0.006773 -0.003345 0.014189 0.000552 0.000295 -0.005786
# 4 -0.003194 0.002848 0.000552 0.032297 0.001454 -0.006563
# 5 -0.003568 0.000637 0.000295 0.001454 0.028051 0.002444
# 6 0.000107 -0.000249 -0.005786 -0.006563 0.002444 0.032429
#
#
# Mechanical properties :
#
#
# Convention : Reuss Voigt Hill
#
# Bulk Modulus (GPa) = 57.18567 63.85199 60.51883
# Shear Modulus (GPa) = 30.63417 34.41063 32.52240
#
# Velocity S-wave (km/s) = 3.81199 4.04013 3.92772
# Velocity P-wave (km/s) = 6.81916 7.21468 7.01971
#
# Compressibility (1/GPa) = 0.01748690
#
# Stress axis : x y z
#
# Youngs Moduli (GPa) = 60.10720 97.82403 70.47639
#
# Poissons Ratio (x) = 0.16262 0.47737
# Poissons Ratio (y) = 0.09992 0.23574
# Poissons Ratio (z) = 0.40713 0.32721
#
# Static dielectric constant tensor:
#      x y z
#    x 1.771380 0.005220 0.026930 
#    y 0.005220 1.800130 0.033920 
#    z 0.026930 0.033920 1.839040 
# 
# From -- ./inp_files/78103.got.cif
#   From: 2010.05.17/outbox.cif.g08.bks.cpg/sg2_40_cif.got.tgz:78103.got - 2010.06.03 11:33:40.
