data_PCOD9032826
_publ_section_title
;
Structure prediction by ZEFSAII (Michael W. Deem and Ramdas Pophale) SiO2 
 PCOD9032826
Probable space group: P -1
;
_chemical_formula_sum "Si O2"
_cell_formula_units_Z 10
_cell_length_a 7.451906
_cell_length_b 5.660510
_cell_length_c 13.612762
_cell_angle_alpha 113.332244
_cell_angle_beta 56.455896
_cell_angle_gamma 82.165788
_cell_volume 389.255640
_symmetry_space_group_name_H-M "P -1"
_symmetry_group_IT_number 2
_symmetry_cell_setting 'triclinic'
loop_
_space_group_symop_operation_xyz
x,y,z
-x,-y,-z
loop_
_atom_site_type_symbol
_atom_site_label
_atom_site_fract_x
_atom_site_fract_y
_atom_site_fract_z
Si Si1 0.897413 0.679648 0.459806
Si Si2 0.238394 0.946799 0.858375
Si Si3 0.535510 0.172843 0.923759
Si Si4 0.894293 0.164271 0.322664
Si Si5 0.351840 0.713566 0.370141
O O1 0.841229 0.493781 0.367475
O O2 0.000000 0.500000 0.500000
O O3 0.132373 0.719118 0.370489
O O4 0.661232 0.979264 0.601801
O O5 0.169844 0.984980 0.770957
O O6 0.431724 0.605454 0.757618
O O7 0.348741 0.149967 0.899620
O O8 0.000000 0.000000 0.000000
O O9 0.500000 0.500000 0.000000
O O10 0.816232 0.991849 0.778284
O O11 0.500000 0.000000 0.000000
O O12 0.738790 0.216036 0.477037
#
# Coordination Sequence:
#
# PCOD9032826 Si02
#       5
#     2   2   2   2   2
#     4   9  20  41  74 108 148 199 255 319 389 463
#     4  12  26  49  77 117 160 207 266 328 405 479
#     4  12  29  53  80 111 164 217 268 329 404 482
#     4  11  24  46  75 113 158 200 268 328 393 470
#     4  10  22  43  76 111 155 203 264 321 400 470
#
# _framework density 25.690055999999998
#
# number of rings (size 3 to 8) (size 9 to 14) (size 15 to 20)
#    0.000    1.200    4.000    0.600    2.800    3.200 
#    3.600    0.000    0.000    0.000    0.000    0.000 
#    0.000    0.000    0.000    0.000    0.000    0.000 
#
# Total GULP energy -55908.553204 kJ/mol
# GULP energy per Si atom -5590.855320 kJ/mol
# Density = 2.563158 g / cm^3
# Si number density = 25.690056 Si / 1000 Ang^3
#
#
#
# Elastic Constant Matrix: (Units=GPa)
#
#
# Indices 1 2 3 4 5 6 
#
# 1 170.8825 36.7258 66.9084 -0.9677 18.8332 42.9222
# 2 36.7258 122.3166 72.6866 19.7079 6.2005 15.7816
# 3 66.9084 72.6866 168.5971 6.6204 -12.1498 12.2559
# 4 -0.9677 19.7079 6.6204 51.1736 -5.0143 8.5195
# 5 18.8332 6.2005 -12.1498 -5.0143 61.2437 11.7666
# 6 42.9222 15.7816 12.2559 8.5195 11.7666 29.3220
#
#
#
# Elastic Compliance Matrix: (Units=1/GPa)
#
#
# Indices 1 2 3 4 5 6 
#
# 1 0.011274 0.000388 -0.003694 0.003053 -0.000980 -0.015662
# 2 0.000388 0.012269 -0.005228 -0.003741 -0.002119 -0.003049
# 3 -0.003694 -0.005228 0.009649 0.000532 0.003086 0.002794
# 4 0.003053 -0.003741 0.000532 0.023114 0.003514 -0.010804
# 5 -0.000980 -0.002119 0.003086 0.003514 0.019171 -0.007429
# 6 -0.015662 -0.003049 0.002794 -0.010804 -0.007429 0.063624
#
#
# Mechanical properties :
#
#
# Convention : Reuss Voigt Hill
#
# Bulk Modulus (GPa) = 62.00943 90.49308 76.25126
# Shear Modulus (GPa) = 30.95137 47.37955 39.16546
#
# Velocity S-wave (km/s) = 3.47479 4.29916 3.90877
# Velocity P-wave (km/s) = 6.34735 7.74242 7.07933
#
# Compressibility (1/GPa) = 0.01612658
#
# Stress axis : x y z
#
# Youngs Moduli (GPa) = 88.69986 81.50474 103.63413
#
# Poissons Ratio (x) = -0.03165 0.38277
# Poissons Ratio (y) = -0.03445 0.54178
# Poissons Ratio (z) = 0.32761 0.42609
#
# Static dielectric constant tensor:
#      x y z
#    x 2.042680 0.046570 0.020770 
#    y 0.046570 2.383890 -0.059620 
#    z 0.020770 -0.059620 2.044840 
# 
# From -- ./inp_files/486696.got.cif
#   From: 2010.05.17/outbox.cif.g08.bks.cpg/sg2_244_cif.got.tgz:486696.got - 2010.06.03 11:33:40.
