data_PCOD9032167
_publ_section_title
;
Structure prediction by ZEFSAII (Michael W. Deem and Ramdas Pophale) SiO2 
 PCOD9032167
Probable space group: P -1
;
_chemical_formula_sum "Si O2"
_cell_formula_units_Z 16
_cell_length_a 10.948371
_cell_length_b 32.317456
_cell_length_c 9.346636
_cell_angle_alpha 153.108564
_cell_angle_beta 42.423812
_cell_angle_gamma 152.068936
_cell_volume 681.010452
_symmetry_space_group_name_H-M "P -1"
_symmetry_group_IT_number 2
_symmetry_cell_setting 'triclinic'
loop_
_space_group_symop_operation_xyz
x,y,z
-x,-y,-z
loop_
_atom_site_type_symbol
_atom_site_label
_atom_site_fract_x
_atom_site_fract_y
_atom_site_fract_z
Si Si1 0.355075 0.182051 0.628643
Si Si2 0.483319 0.254433 0.038087
Si Si3 0.971975 0.649271 0.216905
Si Si4 0.118042 0.998177 0.751820
Si Si5 0.950305 0.225884 0.925218
Si Si6 0.270697 0.851377 0.802469
Si Si7 0.536752 0.434312 0.148388
Si Si8 0.864486 0.543515 0.692105
O O1 0.560838 0.177900 0.409188
O O2 0.111070 0.088086 0.439339
O O3 0.276839 0.162032 0.800888
O O4 0.530700 0.337998 0.938496
O O5 0.588882 0.397525 0.416269
O O6 0.747345 0.296952 0.890765
O O7 0.358345 0.152080 0.962641
O O8 0.789474 0.531463 0.127198
O O9 0.055758 0.768804 0.604263
O O10 0.830499 0.596131 0.022035
O O11 0.180799 0.913247 0.462168
O O12 0.000000 0.000000 0.000000
O O13 0.867083 0.184210 0.035223
O O14 0.271503 0.335752 0.976871
O O15 0.936324 0.323931 0.175367
O O16 0.500000 0.000000 0.000000
O O17 0.500000 0.500000 0.500000
O O18 0.000000 0.500000 0.500000
#
# Coordination Sequence:
#
# PCOD9032167 Si02
#       8
#     2   2   2   2   2   2   2   2
#     4  10  24  41  72  97 137 181 229 281 346 405
#     4  10  22  43  69  99 138 182 230 279 345 413
#     4  10  23  41  68  98 142 172 230 280 345 397
#     4  11  26  47  69 100 141 183 231 285 347 414
#     4  11  24  44  69 101 140 181 232 282 349 418
#     4  11  24  44  72 104 136 183 239 280 339 419
#     4  11  22  41  67 104 134 176 229 285 345 409
#     4  10  24  43  69 103 138 179 228 289 343 405
#
# _framework density 23.494499999999999
#
# number of rings (size 3 to 8) (size 9 to 14) (size 15 to 20)
#    0.000    1.500    1.250    2.625    7.000    4.500 
#    4.500    3.750    0.000    0.000    0.000    0.000 
#    0.000    0.000    0.000    0.000    0.000    0.000 
#
# Total GULP energy -89235.768644 kJ/mol
# GULP energy per Si atom -5577.235540 kJ/mol
# Density = 2.344103 g / cm^3
# Si number density = 23.494500 Si / 1000 Ang^3
#
#
#
# Elastic Constant Matrix: (Units=GPa)
#
#
# Indices 1 2 3 4 5 6 
#
# 1 59.0889 26.4840 33.7820 -4.6968 14.8655 -6.0208
# 2 26.4840 182.3989 75.1631 17.9645 -6.6416 -32.0477
# 3 33.7820 75.1631 141.1207 2.1772 5.1989 -23.7804
# 4 -4.6968 17.9645 2.1772 34.6527 2.7225 -2.3454
# 5 14.8655 -6.6416 5.1989 2.7225 20.8261 -2.8338
# 6 -6.0208 -32.0477 -23.7804 -2.3454 -2.8338 34.1465
#
#
#
# Elastic Compliance Matrix: (Units=1/GPa)
#
#
# Indices 1 2 3 4 5 6 
#
# 1 0.026630 -0.004304 -0.003993 0.007501 -0.020819 -0.003338
# 2 -0.004304 0.009312 -0.003121 -0.005458 0.008369 0.006127
# 3 -0.003993 -0.003121 0.010306 0.000696 -0.000324 0.003565
# 4 0.007501 -0.005458 0.000696 0.033461 -0.011916 -0.002005
# 5 -0.020819 0.008369 -0.000324 -0.011916 0.068383 0.008814
# 6 -0.003338 0.006127 0.003565 -0.002005 0.008814 0.037524
#
#
# Mechanical properties :
#
#
# Convention : Reuss Voigt Hill
#
# Bulk Modulus (GPa) = 42.71550 72.60742 57.66146
# Shear Modulus (GPa) = 23.12055 34.40370 28.76212
#
# Velocity S-wave (km/s) = 3.14041 3.83081 3.50266
# Velocity P-wave (km/s) = 5.60090 7.10900 6.39953
#
# Compressibility (1/GPa) = 0.02341071
#
# Stress axis : x y z
#
# Youngs Moduli (GPa) = 37.55213 107.38323 97.02692
#
# Poissons Ratio (x) = 0.46221 0.38747
# Poissons Ratio (y) = 0.16164 0.30284
# Poissons Ratio (z) = 0.14996 0.33516
#
# Static dielectric constant tensor:
#      x y z
#    x 2.029710 -0.033550 -0.002450 
#    y -0.033550 2.285380 0.096480 
#    z -0.002450 0.096480 2.003060 
# 
# From -- ./inp_files/286110.got.cif
#   From: 2010.05.17/outbox.cif.g08.bks.cpg/sg2_144_cif.got.tgz:286110.got - 2010.06.03 11:33:40.
