data_PCOD9032173
_publ_section_title
;
Structure prediction by ZEFSAII (Michael W. Deem and Ramdas Pophale) SiO2 
 PCOD9032173
Probable space group: P -1
;
_chemical_formula_sum "Si O2"
_cell_formula_units_Z 16
_cell_length_a 17.692654
_cell_length_b 30.220785
_cell_length_c 24.688728
_cell_angle_alpha 10.093341
_cell_angle_beta 17.909813
_cell_angle_gamma 16.973566
_cell_volume 662.591577
_symmetry_space_group_name_H-M "P -1"
_symmetry_group_IT_number 2
_symmetry_cell_setting 'triclinic'
loop_
_space_group_symop_operation_xyz
x,y,z
-x,-y,-z
loop_
_atom_site_type_symbol
_atom_site_label
_atom_site_fract_x
_atom_site_fract_y
_atom_site_fract_z
Si Si1 0.643366 0.573080 0.763148
Si Si2 0.546815 0.570526 0.101896
Si Si3 0.217632 0.362994 0.650012
Si Si4 0.313920 0.127241 0.261304
Si Si5 0.654267 0.328138 0.711126
Si Si6 0.999691 0.895136 0.687260
Si Si7 0.519144 0.155454 0.854964
Si Si8 0.258520 0.929761 0.774375
O O1 0.465735 0.847466 0.525568
O O2 0.922446 0.568944 0.597942
O O3 0.500000 0.500000 0.000000
O O4 0.728481 0.335145 0.947903
O O5 0.385933 0.390107 0.451375
O O6 0.758105 0.391454 0.130622
O O7 0.343026 0.833229 0.894637
O O8 0.696557 0.652591 0.950776
O O9 0.336518 0.478100 0.479211
O O10 0.240532 0.058744 0.016898
O O11 0.050612 0.100614 0.448105
O O12 0.484953 0.162959 0.050537
O O13 0.507570 0.540676 0.507875
O O14 0.961847 0.147906 0.707718
O O15 0.000000 0.000000 0.500000
O O16 0.737352 0.840816 0.942668
O O17 0.500000 0.000000 0.000000
O O18 0.500000 0.000000 0.500000
#
# Coordination Sequence:
#
# PCOD9032173 Si02
#       8
#     2   2   2   2   2   2   2   2
#     4  12  26  42  71 104 141 189 236 303 364 424
#     4  11  23  45  72 104 141 185 236 299 354 425
#     4  10  22  43  69  99 139 185 238 290 363 422
#     4  11  26  46  73 109 139 188 238 295 368 420
#     4  10  23  43  69 102 141 184 240 294 355 429
#     4  12  25  46  76 105 148 188 244 293 353 433
#     4  10  23  45  72  99 146 194 231 301 352 421
#     4  12  24  41  67 100 145 183 239 298 357 428
#
# _framework density 24.147604999999999
#
# number of rings (size 3 to 8) (size 9 to 14) (size 15 to 20)
#    0.000    1.000    2.500    3.750    5.250    3.500 
#    0.000    2.500    0.000    0.000    0.000    0.000 
#    0.000    0.000    0.000    0.000    0.000    0.000 
#
# Total GULP energy -89523.949827 kJ/mol
# GULP energy per Si atom -5595.246864 kJ/mol
# Density = 2.409264 g / cm^3
# Si number density = 24.147605 Si / 1000 Ang^3
#
#
#
# Elastic Constant Matrix: (Units=GPa)
#
#
# Indices 1 2 3 4 5 6 
#
# 1 100.4402 -1.6384 30.3127 -5.8591 8.7579 -4.8546
# 2 -1.6384 67.1522 8.1012 -9.7243 15.0530 7.9882
# 3 30.3127 8.1012 99.7155 -7.1136 28.7324 0.8502
# 4 -5.8591 -9.7243 -7.1136 37.0744 -3.2161 7.0820
# 5 8.7579 15.0530 28.7324 -3.2161 45.2227 -5.2881
# 6 -4.8546 7.9882 0.8502 7.0820 -5.2881 32.2483
#
#
#
# Elastic Compliance Matrix: (Units=1/GPa)
#
#
# Indices 1 2 3 4 5 6 
#
# 1 0.011110 0.000661 -0.003371 0.001020 0.000003 0.001374
# 2 0.000661 0.018015 0.000826 0.005674 -0.007039 -0.006785
# 3 -0.003371 0.000826 0.013598 0.002118 -0.008453 -0.002922
# 4 0.001020 0.005674 0.002118 0.030430 -0.002245 -0.008359
# 5 0.000003 -0.007039 -0.008453 -0.002245 0.030539 0.007468
# 6 0.001374 -0.006785 -0.002922 -0.008359 0.007468 0.036034
#
#
# Mechanical properties :
#
#
# Convention : Reuss Voigt Hill
#
# Bulk Modulus (GPa) = 25.67011 37.87320 31.77166
# Shear Modulus (GPa) = 31.95337 38.27792 35.11564
#
# Velocity S-wave (km/s) = 3.64160 3.98573 3.81755
# Velocity P-wave (km/s) = 5.32309 6.07450 5.71116
#
# Compressibility (1/GPa) = 0.03895581
#
# Stress axis : x y z
#
# Youngs Moduli (GPa) = 90.00947 55.51029 73.54183
#
# Poissons Ratio (x) = -0.03671 0.24790
# Poissons Ratio (y) = -0.05952 -0.06077
# Poissons Ratio (z) = 0.30342 -0.04587
#
# Static dielectric constant tensor:
#      x y z
#    x 1.991930 -0.056540 -0.077060 
#    y -0.056540 1.933480 -0.018520 
#    z -0.077060 -0.018520 2.085970 
# 
# From -- ./inp_files/613343.got.cif
#   From: 2010.05.17/outbox.cif.g08.bks.cpg/sg2_307_cif.got.tgz:613343.got - 2010.06.03 11:33:40.
