data_PCOD9032842
_publ_section_title
;
Structure prediction by ZEFSAII (Michael W. Deem and Ramdas Pophale) SiO2 
 PCOD9032842
Probable space group: P -1
;
_chemical_formula_sum "Si O2"
_cell_formula_units_Z 16
_cell_length_a 9.238417
_cell_length_b 11.013593
_cell_length_c 9.113665
_cell_angle_alpha 117.618945
_cell_angle_beta 130.121208
_cell_angle_gamma 76.704562
_cell_volume 625.044522
_symmetry_space_group_name_H-M "P -1"
_symmetry_group_IT_number 2
_symmetry_cell_setting 'triclinic'
loop_
_space_group_symop_operation_xyz
x,y,z
-x,-y,-z
loop_
_atom_site_type_symbol
_atom_site_label
_atom_site_fract_x
_atom_site_fract_y
_atom_site_fract_z
Si Si1 0.022430 0.016661 0.350047
Si Si2 0.660585 0.126650 0.681052
Si Si3 0.552568 0.211370 0.272032
Si Si4 0.777140 0.629602 0.928358
Si Si5 0.467917 0.393189 0.700895
Si Si6 0.646494 0.071807 0.968208
Si Si7 0.178059 0.315055 0.692154
Si Si8 0.848501 0.473144 0.616292
O O1 0.118707 0.174299 0.487204
O O2 0.823502 0.013220 0.132860
O O3 0.155865 0.911469 0.307286
O O4 0.000000 0.000000 0.500000
O O5 0.558081 0.256230 0.633529
O O6 0.500000 0.000000 0.500000
O O7 0.708398 0.138917 0.892274
O O8 0.359024 0.280453 0.201702
O O9 0.576163 0.181414 0.096649
O O10 0.724400 0.326144 0.487202
O O11 0.518579 0.056605 0.227554
O O12 0.636253 0.510669 0.846545
O O13 0.898600 0.558797 0.846156
O O14 0.851677 0.711241 0.167224
O O15 0.386231 0.364714 0.794776
O O16 0.289070 0.440592 0.520492
O O17 0.036037 0.431075 0.637740
#
# Coordination Sequence:
#
# PCOD9032842 Si02
#       8
#     2   2   2   2   2   2   2   2
#     4  12  28  47  74 105 149 187 236 301 355 428
#     4  12  28  46  74 105 145 187 242 294 360 426
#     4  10  22  43  78 103 140 185 241 283 367 415
#     4  11  25  43  71 105 138 190 238 289 349 422
#     4  11  25  48  70 102 142 190 232 292 354 423
#     4  11  25  46  74 107 145 189 235 298 357 427
#     4  12  24  47  69 107 143 182 238 292 358 412
#     4  11  25  45  76 102 144 185 237 297 345 426
#
# _framework density 25.598174
#
# number of rings (size 3 to 8) (size 9 to 14) (size 15 to 20)
#    0.000    0.750    2.500    4.500    8.750    1.000 
#    4.500    0.000    0.000    0.000    0.000    0.000 
#    0.000    0.000    0.000    0.000    0.000    0.000 
#
# Total GULP energy -89624.260276 kJ/mol
# GULP energy per Si atom -5601.516267 kJ/mol
# Density = 2.553991 g / cm^3
# Si number density = 25.598174 Si / 1000 Ang^3
#
#
#
# Elastic Constant Matrix: (Units=GPa)
#
#
# Indices 1 2 3 4 5 6 
#
# 1 137.9531 54.0976 19.0528 -0.1238 -32.4374 -22.6741
# 2 54.0976 95.5743 21.0356 -2.9439 -8.7810 -26.6228
# 3 19.0528 21.0356 65.3040 -2.5291 -12.3400 -7.1074
# 4 -0.1238 -2.9439 -2.5291 51.9901 -3.1750 -3.3404
# 5 -32.4374 -8.7810 -12.3400 -3.1750 41.0228 -2.1630
# 6 -22.6741 -26.6228 -7.1074 -3.3404 -2.1630 50.3255
#
#
#
# Elastic Compliance Matrix: (Units=1/GPa)
#
#
# Indices 1 2 3 4 5 6 
#
# 1 0.011660 -0.005007 0.000141 0.000457 0.008385 0.003016
# 2 -0.005007 0.015424 -0.003105 0.000988 -0.001226 0.005478
# 3 0.000141 -0.003105 0.017345 0.001035 0.004805 0.001146
# 4 0.000457 0.000988 0.001035 0.019643 0.002525 0.002287
# 5 0.008385 -0.001226 0.004805 0.002525 0.032669 0.005380
# 6 0.003016 0.005478 0.001146 0.002287 0.005380 0.024672
#
#
# Mechanical properties :
#
#
# Convention : Reuss Voigt Hill
#
# Bulk Modulus (GPa) = 35.10191 54.13370 44.61780
# Shear Modulus (GPa) = 34.04828 42.31069 38.17948
#
# Velocity S-wave (km/s) = 3.65102 4.06997 3.86617
# Velocity P-wave (km/s) = 5.61388 6.57873 6.11536
#
# Compressibility (1/GPa) = 0.02848847
#
# Stress axis : x y z
#
# Youngs Moduli (GPa) = 85.76044 64.83364 57.65440
#
# Poissons Ratio (x) = 0.32460 -0.00814
# Poissons Ratio (y) = 0.42937 0.17901
# Poissons Ratio (z) = -0.01210 0.20130
#
# Static dielectric constant tensor:
#      x y z
#    x 1.942330 0.001020 -0.028450 
#    y 0.001020 2.033870 -0.031770 
#    z -0.028450 -0.031770 2.101500 
# 
# From -- ./inp_files/190414.got.cif
#   From: 2010.05.17/outbox.cif.g08.bks.cpg/sg2_96_cif.got.tgz:190414.got - 2010.06.03 11:33:40.
