data_PCOD9032727
_publ_section_title
;
Structure prediction by ZEFSAII (Michael W. Deem and Ramdas Pophale) SiO2 
 PCOD9032727
Probable space group: P -1
;
_chemical_formula_sum "Si O2"
_cell_formula_units_Z 16
_cell_length_a 8.987622
_cell_length_b 9.169637
_cell_length_c 15.192078
_cell_angle_alpha 144.838487
_cell_angle_beta 94.988989
_cell_angle_gamma 99.334752
_cell_volume 656.217209
_symmetry_space_group_name_H-M "P -1"
_symmetry_group_IT_number 2
_symmetry_cell_setting 'triclinic'
loop_
_space_group_symop_operation_xyz
x,y,z
-x,-y,-z
loop_
_atom_site_type_symbol
_atom_site_label
_atom_site_fract_x
_atom_site_fract_y
_atom_site_fract_z
Si Si1 0.530434 0.093271 0.820873
Si Si2 0.113572 0.732516 0.493456
Si Si3 0.090133 0.692513 0.016921
Si Si4 0.516780 0.569882 0.175412
Si Si5 0.840912 0.614606 0.294497
Si Si6 0.574698 0.286492 0.591503
Si Si7 0.667868 0.505098 0.407992
Si Si8 0.009649 0.163375 0.298492
O O1 0.719114 0.150825 0.872600
O O2 0.513156 0.217421 0.786925
O O3 0.422233 0.775922 0.681646
O O4 0.492258 0.292506 0.985867
O O5 0.266952 0.705078 0.444166
O O6 0.011182 0.417664 0.367624
O O7 0.000352 0.797009 0.449582
O O8 0.130308 0.913030 0.671664
O O9 0.010092 0.914051 0.117458
O O10 0.091310 0.529198 0.847267
O O11 0.000000 0.500000 0.000000
O O12 0.707442 0.702128 0.282409
O O13 0.401299 0.504172 0.222416
O O14 0.724725 0.439214 0.282749
O O15 0.451405 0.343700 0.547717
O O16 0.500000 0.000000 0.500000
O O17 0.822067 0.712015 0.573920
#
# Coordination Sequence:
#
# PCOD9032727 Si02
#       8
#     2   2   2   2   2   2   2   2
#     4  10  22  43  73  99 132 178 229 279 341 395
#     4  10  23  44  67  97 136 177 225 277 335 406
#     4  11  25  41  67 101 140 177 221 277 340 407
#     4   9  22  43  65 101 130 172 230 275 340 396
#     4   9  22  46  65  99 131 178 219 277 343 390
#     4  11  25  39  67 103 135 179 224 278 336 404
#     4  10  23  45  75  96 136 177 228 286 328 408
#     4  10  24  45  68 102 131 180 227 275 342 396
#
# _framework density 24.382169999999999
#
# number of rings (size 3 to 8) (size 9 to 14) (size 15 to 20)
#    0.000    2.000    0.000    0.750    5.250   10.000 
#   15.750    4.375    0.000    0.000    0.000    0.000 
#    0.000    0.000    0.000    0.000    0.000    0.000 
#
# Total GULP energy -89515.680464 kJ/mol
# GULP energy per Si atom -5594.730029 kJ/mol
# Density = 2.432668 g / cm^3
# Si number density = 24.382170 Si / 1000 Ang^3
#
#
#
# Elastic Constant Matrix: (Units=GPa)
#
#
# Indices 1 2 3 4 5 6 
#
# 1 111.1333 43.1900 8.9713 -13.9606 -25.9776 2.6103
# 2 43.1900 111.9266 6.9459 -10.9139 -16.5234 -7.8364
# 3 8.9713 6.9459 46.7767 -17.9525 -25.6778 9.3433
# 4 -13.9606 -10.9139 -17.9525 36.6529 1.8795 -10.3081
# 5 -25.9776 -16.5234 -25.6778 1.8795 51.2408 -6.2006
# 6 2.6103 -7.8364 9.3433 -10.3081 -6.2006 60.5827
#
#
#
# Elastic Compliance Matrix: (Units=1/GPa)
#
#
# Indices 1 2 3 4 5 6 
#
# 1 0.012296 -0.003458 0.003959 0.005242 0.006912 0.000012
# 2 -0.003458 0.011014 0.001124 0.002993 0.002514 0.002167
# 3 0.003959 0.001124 0.040297 0.020308 0.021751 -0.000559
# 4 0.005242 0.002993 0.020308 0.040950 0.012941 0.005322
# 5 0.006912 0.002514 0.021751 0.012941 0.034547 0.002411
# 6 0.000012 0.002167 -0.000559 0.005322 0.002411 0.018024
#
#
# Mechanical properties :
#
#
# Convention : Reuss Voigt Hill
#
# Bulk Modulus (GPa) = 14.95757 43.11679 29.03718
# Shear Modulus (GPa) = 28.38221 43.74390 36.06305
#
# Velocity S-wave (km/s) = 3.41553 4.24027 3.85005
# Velocity P-wave (km/s) = 4.65858 6.45719 5.63017
#
# Compressibility (1/GPa) = 0.06685578
#
# Stress axis : x y z
#
# Youngs Moduli (GPa) = 81.32427 90.79454 24.81552
#
# Poissons Ratio (x) = 0.31400 -0.09824
# Poissons Ratio (y) = 0.28125 -0.02789
# Poissons Ratio (z) = -0.32194 -0.10203
#
# Static dielectric constant tensor:
#      x y z
#    x 1.957360 0.028420 0.000410 
#    y 0.028420 1.940130 0.006120 
#    z 0.000410 0.006120 1.993380 
# 
# From -- ./inp_files/495856.got.cif
#   From: 2010.05.17/outbox.cif.g08.bks.cpg/sg2_248_cif.got.tgz:495856.got - 2010.06.03 11:33:40.
