data_PCOD9032911
_publ_section_title
;
Structure prediction by ZEFSAII (Michael W. Deem and Ramdas Pophale) SiO2 
 PCOD9032911
Probable space group: P -1
;
_chemical_formula_sum "Si O2"
_cell_formula_units_Z 15
_cell_length_a 9.789112
_cell_length_b 13.220039
_cell_length_c 13.757546
_cell_angle_alpha 116.378293
_cell_angle_beta 39.533379
_cell_angle_gamma 86.043846
_cell_volume 702.582086
_symmetry_space_group_name_H-M "P -1"
_symmetry_group_IT_number 2
_symmetry_cell_setting 'triclinic'
loop_
_space_group_symop_operation_xyz
x,y,z
-x,-y,-z
loop_
_atom_site_type_symbol
_atom_site_label
_atom_site_fract_x
_atom_site_fract_y
_atom_site_fract_z
Si Si1 0.057936 0.412429 0.831747
Si Si2 0.334126 0.798206 0.038104
Si Si3 0.500000 0.000000 0.000000
Si Si4 0.403654 0.442186 0.387045
Si Si5 0.308389 0.720472 0.634441
Si Si6 0.627587 0.950845 0.126041
Si Si7 0.741329 0.903182 0.413461
Si Si8 0.239901 0.364251 0.091574
O O1 0.413266 0.303759 0.558413
O O2 0.037049 0.287974 0.805794
O O3 0.827395 0.543514 0.930653
O O4 0.000000 0.500000 0.000000
O O5 0.962682 0.927838 0.303789
O O6 0.444400 0.882947 0.991471
O O7 0.456908 0.669481 0.830913
O O8 0.479128 0.708014 0.024172
O O9 0.442528 0.034907 0.164255
O O10 0.336289 0.602471 0.495133
O O11 0.619056 0.343647 0.321832
O O12 0.074967 0.508769 0.618743
O O13 0.951913 0.893794 0.905559
O O14 0.436085 0.050574 0.368898
O O15 0.723216 0.782802 0.014868
O O16 0.500000 0.000000 0.500000
#
# Coordination Sequence:
#
# PCOD9032911 Si02
#       8
#     2   2   1   2   2   2   2   2
#     4  11  23  41  64  99 134 173 227 272 340 399
#     4  11  23  43  65  98 135 177 221 277 337 394
#     4  10  26  40  66  92 132 184 222 268 326 408
#     4   9  17  36  66  95 125 159 222 276 328 383
#     4   9  19  36  65  94 124 175 213 278 325 388
#     4  10  22  44  62  97 133 173 229 266 334 398
#     4  12  27  42  67  99 137 178 218 283 341 399
#     4   9  21  40  65  93 126 172 221 278 326 393
#
# _framework density 21.349817999999999
#
# number of rings (size 3 to 8) (size 9 to 14) (size 15 to 20)
#    0.000    1.867    0.000    3.600    5.600    3.200 
#    2.400    0.000    0.000    0.000    0.000    0.000 
#    0.000    0.000    0.000    0.000    0.000    0.000 
#
# Total GULP energy -83511.638555 kJ/mol
# GULP energy per Si atom -5567.442570 kJ/mol
# Density = 2.130122 g / cm^3
# Si number density = 21.349818 Si / 1000 Ang^3
#
#
#
# Elastic Constant Matrix: (Units=GPa)
#
#
# Indices 1 2 3 4 5 6 
#
# 1 141.6177 41.4450 54.5684 -5.8788 14.1076 -13.6545
# 2 41.4450 91.5895 16.8191 1.7347 15.2176 -9.9705
# 3 54.5684 16.8191 80.8978 -3.9293 21.3051 1.6201
# 4 -5.8788 1.7347 -3.9293 9.2109 -1.7548 2.0957
# 5 14.1076 15.2176 21.3051 -1.7548 32.0729 -0.7858
# 6 -13.6545 -9.9705 1.6201 2.0957 -0.7858 31.3694
#
#
#
# Elastic Compliance Matrix: (Units=1/GPa)
#
#
# Indices 1 2 3 4 5 6 
#
# 1 0.011306 -0.003777 -0.007220 0.004342 0.001947 0.003853
# 2 -0.003777 0.013885 0.000797 -0.006464 -0.005736 0.003016
# 3 -0.007220 0.000797 0.020048 0.002793 -0.010474 -0.004374
# 4 0.004342 -0.006464 0.002793 0.116603 0.005486 -0.007961
# 5 0.001947 -0.005736 -0.010474 0.005486 0.040307 0.000208
# 6 0.003853 0.003016 -0.004374 -0.007961 0.000208 0.035277
#
#
# Mechanical properties :
#
#
# Convention : Reuss Voigt Hill
#
# Bulk Modulus (GPa) = 40.25999 59.97445 50.11722
# Shear Modulus (GPa) = 18.78955 27.94880 23.36917
#
# Velocity S-wave (km/s) = 2.96983 3.62206 3.31204
# Velocity P-wave (km/s) = 5.53698 6.75609 6.17668
#
# Compressibility (1/GPa) = 0.02483855
#
# Stress axis : x y z
#
# Youngs Moduli (GPa) = 88.44506 72.02174 49.88132
#
# Poissons Ratio (x) = 0.27200 0.36016
# Poissons Ratio (y) = 0.33402 -0.03975
# Poissons Ratio (z) = 0.63861 -0.05740
#
# Static dielectric constant tensor:
#      x y z
#    x 1.777280 0.016950 -0.038770 
#    y 0.016950 1.745930 0.020770 
#    z -0.038770 0.020770 1.787600 
# 
# From -- ./inp_files/505467.got.cif
#   From: 2010.05.17/outbox.cif.g08.bks.cpg/sg2_253_cif.got.tgz:505467.got - 2010.06.03 11:33:40.
