data_PCOD9032966
_publ_section_title
;
Structure prediction by ZEFSAII (Michael W. Deem and Ramdas Pophale) SiO2 
 PCOD9032966
Probable space group: P -1
;
_chemical_formula_sum "Si O2"
_cell_formula_units_Z 16
_cell_length_a 15.107976
_cell_length_b 18.925044
_cell_length_c 8.301455
_cell_angle_alpha 43.649927
_cell_angle_beta 33.310019
_cell_angle_gamma 39.009760
_cell_volume 801.357329
_symmetry_space_group_name_H-M "P -1"
_symmetry_group_IT_number 2
_symmetry_cell_setting 'triclinic'
loop_
_space_group_symop_operation_xyz
x,y,z
-x,-y,-z
loop_
_atom_site_type_symbol
_atom_site_label
_atom_site_fract_x
_atom_site_fract_y
_atom_site_fract_z
Si Si1 0.266702 0.215336 0.198876
Si Si2 0.861736 0.812733 0.879662
Si Si3 0.969597 0.030118 0.683913
Si Si4 0.518639 0.971411 0.329279
Si Si5 0.916941 0.365583 0.917524
Si Si6 0.919765 0.205451 0.904743
Si Si7 0.273909 0.368865 0.214971
Si Si8 0.642079 0.191342 0.106775
O O1 0.223991 0.237744 0.038498
O O2 0.291329 0.309536 0.112302
O O3 0.096101 0.205847 0.555173
O O4 0.438634 0.091453 0.160926
O O5 0.913002 0.903518 0.564459
O O6 0.721402 0.885956 0.110929
O O7 0.032278 0.711638 0.872266
O O8 0.022315 0.917374 0.896003
O O9 0.765021 0.120976 0.885197
O O10 0.000000 0.000000 0.500000
O O11 0.406598 0.901110 0.578722
O O12 0.500000 0.000000 0.500000
O O13 0.856291 0.302979 0.977274
O O14 0.777958 0.497524 0.938221
O O15 0.105727 0.362308 0.573390
O O16 0.765222 0.225507 0.977184
O O17 0.457035 0.294786 0.156713
#
# Coordination Sequence:
#
# PCOD9032966 Si02
#       8
#     2   2   2   2   2   2   2   2
#     4  11  22  39  63  93 128 165 199 255 312 371
#     4  12  23  39  63  96 125 162 205 259 306 372
#     4  12  23  38  64  95 131 163 195 251 327 376
#     4  12  21  39  64  94 128 160 205 256 307 375
#     4  10  22  44  64  89 120 167 216 255 304 362
#     4  11  22  40  64  90 130 165 197 253 320 372
#     4  10  23  42  67  86 120 171 215 252 303 366
#     4  12  22  40  65  94 125 163 206 251 315 374
#
# _framework density 19.966124000000001
#
# number of rings (size 3 to 8) (size 9 to 14) (size 15 to 20)
#    0.000    0.750    6.250    3.000    0.000    1.000 
#    0.000    0.625    0.000    0.000    0.000    0.000 
#    0.000    0.000    0.000    0.000    0.000    0.000 
#
# Total GULP energy -89454.317739 kJ/mol
# GULP energy per Si atom -5590.894859 kJ/mol
# Density = 1.992068 g / cm^3
# Si number density = 19.966124 Si / 1000 Ang^3
#
#
#
# Elastic Constant Matrix: (Units=GPa)
#
#
# Indices 1 2 3 4 5 6 
#
# 1 134.3340 72.6378 3.5178 -2.1801 2.0411 4.0811
# 2 72.6378 170.4730 24.6472 -2.9614 -1.1025 1.9158
# 3 3.5178 24.6472 38.0170 -0.2475 -2.7817 -1.1319
# 4 -2.1801 -2.9614 -0.2475 20.3987 3.3223 -10.1101
# 5 2.0411 -1.1025 -2.7817 3.3223 27.3451 4.0495
# 6 4.0811 1.9158 -1.1319 -10.1101 4.0495 14.0840
#
#
#
# Elastic Compliance Matrix: (Units=1/GPa)
#
#
# Indices 1 2 3 4 5 6 
#
# 1 0.009881 -0.004469 0.001882 -0.000841 -0.000233 -0.002641
# 2 -0.004469 0.008518 -0.005092 0.000872 0.000001 0.000353
# 3 0.001882 -0.005092 0.029669 0.000602 0.002256 0.002315
# 4 -0.000841 0.000872 0.000602 0.085923 -0.020304 0.067691
# 5 -0.000233 0.000001 0.002256 -0.020304 0.043247 -0.026761
# 6 -0.002641 0.000353 0.002315 0.067691 -0.026761 0.128192
#
#
# Mechanical properties :
#
#
# Convention : Reuss Voigt Hill
#
# Bulk Modulus (GPa) = 30.57226 60.49218 45.53222
# Shear Modulus (GPa) = 15.07421 28.50030 21.78725
#
# Velocity S-wave (km/s) = 2.75069 3.78224 3.30693
# Velocity P-wave (km/s) = 5.04318 7.03114 6.11844
#
# Compressibility (1/GPa) = 0.03270939
#
# Stress axis : x y z
#
# Youngs Moduli (GPa) = 101.19969 117.40269 33.70474
#
# Poissons Ratio (x) = 0.52467 -0.06343
# Poissons Ratio (y) = 0.45226 0.17164
# Poissons Ratio (z) = -0.19044 0.59787
#
# Static dielectric constant tensor:
#      x y z
#    x 1.713780 0.020550 -0.012200 
#    y 0.020550 1.673250 -0.002310 
#    z -0.012200 -0.002310 1.748700 
# 
# From -- ./inp_files/316962.got.cif
#   From: 2010.05.17/outbox.cif.g08.bks.cpg/sg2_159_cif.got.tgz:316962.got - 2010.06.03 11:33:40.
