data_PCOD9032605
_publ_section_title
;
Structure prediction by ZEFSAII (Michael W. Deem and Ramdas Pophale) SiO2 
 PCOD9032605
Probable space group: P -1
;
_chemical_formula_sum "Si O2"
_cell_formula_units_Z 14
_cell_length_a 19.795302
_cell_length_b 8.095233
_cell_length_c 9.331253
_cell_angle_alpha 51.102605
_cell_angle_beta 54.973803
_cell_angle_gamma 32.221564
_cell_volume 617.211395
_symmetry_space_group_name_H-M "P -1"
_symmetry_group_IT_number 2
_symmetry_cell_setting 'triclinic'
loop_
_space_group_symop_operation_xyz
x,y,z
-x,-y,-z
loop_
_atom_site_type_symbol
_atom_site_label
_atom_site_fract_x
_atom_site_fract_y
_atom_site_fract_z
Si Si1 0.959798 0.358983 0.208560
Si Si2 0.443448 0.287150 0.305670
Si Si3 0.131040 0.335700 0.376710
Si Si4 0.881081 0.369607 0.003527
Si Si5 0.604470 0.414849 0.514060
Si Si6 0.826083 0.399881 0.596674
Si Si7 0.589193 0.867442 0.101845
O O1 0.894811 0.348581 0.167442
O O2 0.860227 0.519380 0.373965
O O3 0.080557 0.985066 0.317319
O O4 0.000000 0.500000 0.000000
O O5 0.424747 0.514795 0.318364
O O6 0.312159 0.432697 0.338238
O O7 0.500000 0.000000 0.500000
O O8 0.527396 0.158392 0.130466
O O9 0.152400 0.522026 0.322952
O O10 0.000000 0.500000 0.500000
O O11 0.254872 0.957542 0.466069
O O12 0.106935 0.419605 0.192882
O O13 0.734220 0.610050 0.015680
O O14 0.000000 0.000000 0.000000
O O15 0.500000 0.500000 0.500000
O O16 0.600899 0.646285 0.314547
O O17 0.500000 0.000000 0.000000
#
# Coordination Sequence:
#
# PCOD9032605 Si02
#       7
#     2   2   2   2   2   2   2
#     4  11  25  42  69 105 139 186 241 289 354 427
#     4  10  22  43  72  93 137 190 234 284 365 423
#     4  12  25  43  70 102 139 184 238 291 361 425
#     4  12  24  44  68 100 138 179 230 291 353 419
#     4  11  24  43  70 100 133 185 242 285 349 438
#     4  11  24  45  70  99 147 187 232 301 359 420
#     4  11  24  45  70 100 141 186 229 294 361 421
#
# _framework density 22.682668
#
# number of rings (size 3 to 8) (size 9 to 14) (size 15 to 20)
#    0.000    0.857    1.429    6.857    6.000    0.000 
#    0.000    2.857    0.000    0.000    0.000    0.000 
#    0.000    0.000    0.000    0.000    0.000    0.000 
#
# Total GULP energy -78070.917636 kJ/mol
# GULP energy per Si atom -5576.494117 kJ/mol
# Density = 2.263104 g / cm^3
# Si number density = 22.682668 Si / 1000 Ang^3
#
#
#
# Elastic Constant Matrix: (Units=GPa)
#
#
# Indices 1 2 3 4 5 6 
#
# 1 106.2100 60.5097 25.1404 23.5276 15.3779 -14.9337
# 2 60.5097 146.7352 42.7651 14.4076 10.0205 -24.4905
# 3 25.1404 42.7651 134.1531 17.9535 8.3626 -2.4263
# 4 23.5276 14.4076 17.9535 44.1602 4.3509 4.9126
# 5 15.3779 10.0205 8.3626 4.3509 36.7304 -1.3181
# 6 -14.9337 -24.4905 -2.4263 4.9126 -1.3181 43.6254
#
#
#
# Elastic Compliance Matrix: (Units=1/GPa)
#
#
# Indices 1 2 3 4 5 6 
#
# 1 0.014345 -0.004525 -0.000139 -0.006049 -0.003918 0.002925
# 2 -0.004525 0.010046 -0.002220 -0.000395 -0.000150 0.004007
# 3 -0.000139 -0.002220 0.008579 -0.002527 -0.001010 -0.000562
# 4 -0.006049 -0.000395 -0.002527 0.027668 -0.000261 -0.005557
# 5 -0.003918 -0.000150 -0.001010 -0.000261 0.029147 -0.000572
# 6 0.002925 0.004007 -0.000562 -0.005557 -0.000572 0.026750
#
#
# Mechanical properties :
#
#
# Convention : Reuss Voigt Hill
#
# Bulk Modulus (GPa) = 52.07842 71.54763 61.81303
# Shear Modulus (GPa) = 36.57553 42.14873 39.36213
#
# Velocity S-wave (km/s) = 4.01994 4.31535 4.17026
# Velocity P-wave (km/s) = 6.67502 7.51272 7.10623
#
# Compressibility (1/GPa) = 0.01920181
#
# Stress axis : x y z
#
# Youngs Moduli (GPa) = 69.71123 99.54410 116.56582
#
# Poissons Ratio (x) = 0.45046 0.01620
# Poissons Ratio (y) = 0.31546 0.25873
# Poissons Ratio (z) = 0.00969 0.22095
#
# Static dielectric constant tensor:
#      x y z
#    x 1.910200 0.080290 -0.042500 
#    y 0.080290 1.942910 0.004280 
#    z -0.042500 0.004280 1.869400 
# 
# From -- ./inp_files/343299.got.cif
#   From: 2010.05.17/outbox.cif.g08.bks.cpg/sg2_172_cif.got.tgz:343299.got - 2010.06.03 11:33:40.
