data_PCOD9032698
_publ_section_title
;
Structure prediction by ZEFSAII (Michael W. Deem and Ramdas Pophale) SiO2 
 PCOD9032698
Probable space group: P -1
;
_chemical_formula_sum "Si O2"
_cell_formula_units_Z 10
_cell_length_a 12.232760
_cell_length_b 9.214287
_cell_length_c 7.270923
_cell_angle_alpha 53.659495
_cell_angle_beta 90.020355
_cell_angle_gamma 131.541632
_cell_volume 374.972943
_symmetry_space_group_name_H-M "P -1"
_symmetry_group_IT_number 2
_symmetry_cell_setting 'triclinic'
loop_
_space_group_symop_operation_xyz
x,y,z
-x,-y,-z
loop_
_atom_site_type_symbol
_atom_site_label
_atom_site_fract_x
_atom_site_fract_y
_atom_site_fract_z
Si Si1 0.283782 0.147527 0.212013
Si Si2 0.920431 0.775058 0.862951
Si Si3 0.304723 0.764514 0.438750
Si Si4 0.275703 0.157508 0.772690
Si Si5 0.747992 0.283431 0.954577
O O1 0.164367 0.157900 0.271952
O O2 0.264278 0.905803 0.424272
O O3 0.500000 0.500000 0.000000
O O4 0.239445 0.099877 0.030939
O O5 0.897051 0.587887 0.852310
O O6 0.785702 0.513423 0.226437
O O7 0.128563 0.084275 0.722026
O O8 0.227438 0.652002 0.313045
O O9 0.534588 0.055407 0.191128
O O10 0.500000 0.500000 0.500000
O O11 0.238862 0.911409 0.874506
#
# Coordination Sequence:
#
# PCOD9032698 Si02
#       5
#     2   2   2   2   2
#     4  11  24  44  71 108 141 182 236 291 361 426
#     4  12  24  47  76 103 142 195 234 292 360 417
#     4  10  23  44  74 107 144 183 235 293 358 429
#     4  11  26  46  69 103 147 188 239 299 351 416
#     4  10  22  43  73 107 142 184 238 291 355 429
#
# _framework density 26.668592
#
# number of rings (size 3 to 8) (size 9 to 14) (size 15 to 20)
#    0.000    1.200    2.000    3.000    2.800    3.200 
#    3.600    5.000    0.000    0.000    0.000    0.000 
#    0.000    0.000    0.000    0.000    0.000    0.000 
#
# Total GULP energy -56103.821321 kJ/mol
# GULP energy per Si atom -5610.382132 kJ/mol
# Density = 2.660789 g / cm^3
# Si number density = 26.668592 Si / 1000 Ang^3
#
#
#
# Elastic Constant Matrix: (Units=GPa)
#
#
# Indices 1 2 3 4 5 6 
#
# 1 156.3722 40.2344 28.9660 -32.1631 10.0224 -6.2587
# 2 40.2344 152.6175 32.8820 -18.6019 -7.5139 1.6771
# 3 28.9660 32.8820 132.8835 -15.4676 13.3433 7.7060
# 4 -32.1631 -18.6019 -15.4676 42.8444 5.9620 0.3559
# 5 10.0224 -7.5139 13.3433 5.9620 31.7369 -15.6172
# 6 -6.2587 1.6771 7.7060 0.3559 -15.6172 60.4358
#
#
#
# Elastic Compliance Matrix: (Units=1/GPa)
#
#
# Indices 1 2 3 4 5 6 
#
# 1 0.008364 -0.001603 -0.000302 0.006045 -0.004101 -0.000146
# 2 -0.001603 0.007633 -0.001781 0.001016 0.003201 0.000671
# 3 -0.000302 -0.001781 0.009180 0.003192 -0.006143 -0.002759
# 4 0.006045 0.001016 0.003192 0.030898 -0.010094 -0.002599
# 5 -0.004101 0.003201 -0.006143 -0.010094 0.043769 0.011639
# 6 -0.000146 0.000671 -0.002759 -0.002599 0.011639 0.019888
#
#
# Mechanical properties :
#
#
# Convention : Reuss Voigt Hill
#
# Bulk Modulus (GPa) = 56.16966 71.78200 63.97583
# Shear Modulus (GPa) = 37.58252 49.65614 43.61933
#
# Velocity S-wave (km/s) = 3.75806 4.31974 4.04865
# Velocity P-wave (km/s) = 6.31969 7.20104 6.77471
#
# Compressibility (1/GPa) = 0.01780320
#
# Stress axis : x y z
#
# Youngs Moduli (GPa) = 119.55966 131.01156 108.92734
#
# Poissons Ratio (x) = 0.21005 0.03295
# Poissons Ratio (y) = 0.19169 0.19404
# Poissons Ratio (z) = 0.03616 0.23338
#
# Static dielectric constant tensor:
#      x y z
#    x 2.180700 -0.058840 -0.100570 
#    y -0.058840 2.003010 0.058930 
#    z -0.100570 0.058930 2.100270 
# 
# From -- ./inp_files/147711.got.cif
#   From: 2010.05.17/outbox.cif.g08.bks.cpg/sg2_74_cif.got.tgz:147711.got - 2010.06.03 11:33:40.
