data_PCOD9032413
_publ_section_title
;
Structure prediction by ZEFSAII (Michael W. Deem and Ramdas Pophale) SiO2 
 PCOD9032413
Probable space group: P -1
;
_chemical_formula_sum "Si O2"
_cell_formula_units_Z 15
_cell_length_a 14.712220
_cell_length_b 14.397351
_cell_length_c 8.807128
_cell_angle_alpha 79.437338
_cell_angle_beta 111.333799
_cell_angle_gamma 37.793397
_cell_volume 602.159156
_symmetry_space_group_name_H-M "P -1"
_symmetry_group_IT_number 2
_symmetry_cell_setting 'triclinic'
loop_
_space_group_symop_operation_xyz
x,y,z
-x,-y,-z
loop_
_atom_site_type_symbol
_atom_site_label
_atom_site_fract_x
_atom_site_fract_y
_atom_site_fract_z
Si Si1 0.415915 0.210603 0.710972
Si Si2 0.850718 0.669459 0.134013
Si Si3 0.629393 0.521702 0.786250
Si Si4 0.500000 0.500000 0.000000
Si Si5 0.566702 0.119270 0.265849
Si Si6 0.710808 0.892968 0.701509
Si Si7 0.402487 0.788691 0.015854
Si Si8 0.146542 0.967907 0.116781
O O1 0.542026 0.113997 0.648362
O O2 0.367855 0.350378 0.728909
O O3 0.657505 0.926104 0.011793
O O4 0.140668 0.398825 0.473233
O O5 0.658154 0.753259 0.967528
O O6 0.922401 0.650886 0.017066
O O7 0.589493 0.658499 0.800289
O O8 0.553909 0.511041 0.869396
O O9 0.937741 0.224746 0.003277
O O10 0.200033 0.956353 0.983408
O O11 0.493314 0.606792 0.058731
O O12 0.771877 0.883702 0.580696
O O13 0.713832 0.043148 0.243594
O O14 0.500000 0.000000 0.500000
O O15 0.421038 0.703900 0.462576
O O16 0.000000 0.000000 0.000000
#
# Coordination Sequence:
#
# PCOD9032413 Si02
#       8
#     2   2   2   1   2   2   2   2
#     4  10  22  43  71 102 143 196 244 289 359 445
#     4   9  22  43  72 102 146 193 244 290 356 434
#     4  11  26  49  79 107 146 192 244 303 370 441
#     4  10  24  52  74 114 142 184 244 320 366 428
#     4  10  22  46  70 114 150 193 242 310 357 428
#     4   8  18  40  66  98 139 190 237 289 348 422
#     4  11  25  45  77 108 151 191 250 303 373 435
#     4  12  26  51  78 104 144 200 244 301 376 446
#
# _framework density 24.910357999999999
#
# number of rings (size 3 to 8) (size 9 to 14) (size 15 to 20)
#    0.800    1.067    1.333    1.200    0.000    6.933 
#    2.400    4.000    0.000    0.000    0.000    0.000 
#    0.000    0.000    0.000    0.000    0.000    0.000 
#
# Total GULP energy -83612.573578 kJ/mol
# GULP energy per Si atom -5574.171572 kJ/mol
# Density = 2.485366 g / cm^3
# Si number density = 24.910358 Si / 1000 Ang^3
#
#
#
# Elastic Constant Matrix: (Units=GPa)
#
#
# Indices 1 2 3 4 5 6 
#
# 1 125.6766 47.5222 44.6320 20.5289 -31.5058 12.0153
# 2 47.5222 123.0557 44.5660 25.5293 -7.9804 19.8478
# 3 44.6320 44.5660 66.6337 8.4128 -19.2608 -27.6497
# 4 20.5289 25.5293 8.4128 39.2432 -18.4421 0.4717
# 5 -31.5058 -7.9804 -19.2608 -18.4421 48.1026 20.4669
# 6 12.0153 19.8478 -27.6497 0.4717 20.4669 56.7303
#
#
#
# Elastic Compliance Matrix: (Units=1/GPa)
#
#
# Indices 1 2 3 4 5 6 
#
# 1 0.018634 0.004289 -0.019524 -0.002233 0.012523 -0.019462
# 2 0.004289 0.019704 -0.022371 -0.009188 0.001801 -0.019279
# 3 -0.019524 -0.022371 0.057368 0.007786 -0.008863 0.043055
# 4 -0.002233 -0.009188 0.007786 0.037234 0.013412 0.002334
# 5 0.012523 0.001801 -0.008863 0.013412 0.040361 -0.022275
# 6 -0.019462 -0.019279 0.043055 0.002334 -0.022275 0.057496
#
#
# Mechanical properties :
#
#
# Convention : Reuss Voigt Hill
#
# Bulk Modulus (GPa) = 48.79266 65.42293 57.10779
# Shear Modulus (GPa) = 15.98265 40.72493 28.35379
#
# Velocity S-wave (km/s) = 2.53574 4.04773 3.37743
# Velocity P-wave (km/s) = 5.31066 6.94016 6.17936
#
# Compressibility (1/GPa) = 0.02049489
#
# Stress axis : x y z
#
# Youngs Moduli (GPa) = 53.66667 50.75016 17.43131
#
# Poissons Ratio (x) = -0.21769 0.34033
# Poissons Ratio (y) = -0.23020 0.38996
# Poissons Ratio (z) = 1.04779 1.13533
#
# Static dielectric constant tensor:
#      x y z
#    x 1.983430 -0.015930 -0.043150 
#    y -0.015930 1.978430 0.045630 
#    z -0.043150 0.045630 1.983720 
# 
# From -- ./inp_files/309601.got.cif
#   From: 2010.05.17/outbox.cif.g08.bks.cpg/sg2_155_cif.got.tgz:309601.got - 2010.06.03 11:33:40.
