data_PCOD9032434
_publ_section_title
;
Structure prediction by ZEFSAII (Michael W. Deem and Ramdas Pophale) SiO2 
 PCOD9032434
Probable space group: P -1
;
_chemical_formula_sum "Si O2"
_cell_formula_units_Z 14
_cell_length_a 17.285595
_cell_length_b 10.631815
_cell_length_c 9.390799
_cell_angle_alpha 140.797676
_cell_angle_beta 39.488799
_cell_angle_gamma 152.522374
_cell_volume 481.848155
_symmetry_space_group_name_H-M "P -1"
_symmetry_group_IT_number 2
_symmetry_cell_setting 'triclinic'
loop_
_space_group_symop_operation_xyz
x,y,z
-x,-y,-z
loop_
_atom_site_type_symbol
_atom_site_label
_atom_site_fract_x
_atom_site_fract_y
_atom_site_fract_z
Si Si1 0.139667 0.959717 0.708681
Si Si2 0.679534 0.715951 0.519870
Si Si3 0.637596 0.535810 0.941610
Si Si4 0.132197 0.716023 0.878476
Si Si5 0.819139 0.781549 0.649790
Si Si6 0.838710 0.418029 0.810017
Si Si7 0.616378 0.048569 0.053233
O O1 0.207403 0.821240 0.437465
O O2 0.941400 0.706266 0.824236
O O3 0.165240 0.120905 0.670520
O O4 0.271615 0.201006 0.850086
O O5 0.500000 0.500000 0.500000
O O6 0.684306 0.591143 0.544378
O O7 0.701991 0.955918 0.774182
O O8 0.766237 0.587122 0.687587
O O9 0.500000 0.500000 0.000000
O O10 0.562415 0.270872 0.919289
O O11 0.174856 0.997460 0.086737
O O12 0.302420 0.809954 0.783187
O O13 0.000000 0.500000 0.000000
O O14 0.015043 0.554126 0.764753
O O15 0.000000 0.000000 0.500000
O O16 0.684400 0.276868 0.027106
#
# Coordination Sequence:
#
# PCOD9032434 Si02
#       7
#     2   2   2   2   2   2   2
#     4  10  18  28  51  83 112 141 193 248 290 332
#     4  10  17  32  54  83 115 146 194 247 287 340
#     4  12  18  33  56  85 113 153 203 243 287 356
#     4   9  16  32  55  81 112 154 196 240 284 355
#     4  11  23  36  55  90 127 154 189 251 312 352
#     4   9  17  28  46  80 114 142 186 250 292 330
#     4   9  17  27  52  82 108 139 197 248 280 326
#
# _framework density 29.054797000000001
#
# number of rings (size 3 to 8) (size 9 to 14) (size 15 to 20)
#    0.000    2.000    5.714    0.857    0.000    0.000 
#    0.000    0.714    0.000    3.429    0.000   26.000 
#    0.000    0.000    0.000    0.000    0.000    0.000 
#
# Total GULP energy -78062.437504 kJ/mol
# GULP energy per Si atom -5575.888393 kJ/mol
# Density = 2.898867 g / cm^3
# Si number density = 29.054797 Si / 1000 Ang^3
#
#
#
# Elastic Constant Matrix: (Units=GPa)
#
#
# Indices 1 2 3 4 5 6 
#
# 1 111.1771 41.1213 61.0285 1.1821 32.2929 -12.8230
# 2 41.1213 216.8578 74.7205 -23.2855 34.1942 -2.9414
# 3 61.0285 74.7205 171.8932 -11.1690 52.9254 -7.9168
# 4 1.1821 -23.2855 -11.1690 80.4692 -14.8205 23.4081
# 5 32.2929 34.1942 52.9254 -14.8205 65.4935 -0.1642
# 6 -12.8230 -2.9414 -7.9168 23.4081 -0.1642 48.2088
#
#
#
# Elastic Compliance Matrix: (Units=1/GPa)
#
#
# Indices 1 2 3 4 5 6 
#
# 1 0.012589 -0.001045 -0.002754 -0.002840 -0.004068 0.004198
# 2 -0.001045 0.005704 -0.001868 0.001591 -0.000596 -0.001011
# 3 -0.002754 -0.001868 0.009225 -0.000431 -0.005217 0.000860
# 4 -0.002840 0.001591 -0.000431 0.016207 0.004563 -0.008583
# 5 -0.004068 -0.000596 -0.005217 0.004563 0.022824 -0.004113
# 6 0.004198 -0.001011 0.000860 -0.008583 -0.004113 0.026092
#
#
# Mechanical properties :
#
#
# Convention : Reuss Voigt Hill
#
# Bulk Modulus (GPa) = 61.78839 94.85208 78.32024
# Shear Modulus (GPa) = 45.71614 60.37149 53.04382
#
# Velocity S-wave (km/s) = 3.97097 4.56329 4.27739
# Velocity P-wave (km/s) = 6.50670 7.77699 7.17003
#
# Compressibility (1/GPa) = 0.01618427
#
# Stress axis : x y z
#
# Youngs Moduli (GPa) = 79.43548 175.30688 108.39598
#
# Poissons Ratio (x) = 0.18315 0.29851
# Poissons Ratio (y) = 0.08299 0.20254
# Poissons Ratio (z) = 0.21876 0.32756
#
# Static dielectric constant tensor:
#      x y z
#    x 2.630340 0.041850 0.002340 
#    y 0.041850 2.573270 -0.116580 
#    z 0.002340 -0.116580 2.141810 
# 
# From -- ./inp_files/354414.got.cif
#   From: 2010.05.17/outbox.cif.g08.bks.cpg/sg2_178_cif.got.tgz:354414.got - 2010.06.03 11:33:40.
