data_PCOD9032498
_publ_section_title
;
Structure prediction by ZEFSAII (Michael W. Deem and Ramdas Pophale) SiO2 
 PCOD9032498
Probable space group: P -1
;
_chemical_formula_sum "Si O2"
_cell_formula_units_Z 16
_cell_length_a 17.995285
_cell_length_b 20.475864
_cell_length_c 5.301997
_cell_angle_alpha 85.263058
_cell_angle_beta 99.963355
_cell_angle_gamma 159.611738
_cell_volume 652.051919
_symmetry_space_group_name_H-M "P -1"
_symmetry_group_IT_number 2
_symmetry_cell_setting 'triclinic'
loop_
_space_group_symop_operation_xyz
x,y,z
-x,-y,-z
loop_
_atom_site_type_symbol
_atom_site_label
_atom_site_fract_x
_atom_site_fract_y
_atom_site_fract_z
Si Si1 0.221533 0.143103 0.176184
Si Si2 0.817108 0.704251 0.516822
Si Si3 0.012250 0.748013 0.313758
Si Si4 0.805304 0.009771 0.023649
Si Si5 0.876894 0.501511 0.499817
Si Si6 0.516876 0.851243 0.256057
Si Si7 0.408560 0.353781 0.735767
Si Si8 0.801331 0.321966 0.131108
O O1 0.289798 0.223631 0.465178
O O2 0.392339 0.301663 0.001754
O O3 0.213114 0.057482 0.188732
O O4 0.000000 0.000000 0.000000
O O5 0.652333 0.565052 0.702540
O O6 0.716688 0.679231 0.294591
O O7 0.854996 0.668142 0.403990
O O8 0.055246 0.914757 0.707972
O O9 0.913638 0.595556 0.325554
O O10 0.259353 0.953867 0.516439
O O11 0.051476 0.811003 0.042397
O O12 0.586215 0.860233 0.064594
O O13 0.679232 0.343431 0.637872
O O14 0.812157 0.385326 0.335013
O O15 0.117214 0.680225 0.708010
O O16 0.421333 0.842128 0.096581
O O17 0.000000 0.500000 0.000000
#
# Coordination Sequence:
#
# PCOD9032498 Si02
#       8
#     2   2   2   2   2   2   2   2
#     4  12  25  43  71  98 135 185 240 289 362 416
#     4  10  25  43  64  95 136 171 237 288 352 418
#     4  11  25  42  65  99 139 177 226 290 348 421
#     4  11  25  42  65  95 141 176 231 293 345 425
#     4  10  22  43  71  97 135 179 223 280 347 419
#     4  10  23  43  65  99 136 179 225 287 344 419
#     4  11  26  44  70  98 130 190 235 299 356 422
#     4   9  20  42  70  99 132 174 228 277 336 425
#
# _framework density 24.537925000000001
#
# number of rings (size 3 to 8) (size 9 to 14) (size 15 to 20)
#    0.000    1.500    1.250    1.875    7.000    6.500 
#    0.000    8.750    0.000    0.000    0.000    0.000 
#    0.000    0.000    0.000    0.000    0.000    0.000 
#
# Total GULP energy -89554.869292 kJ/mol
# GULP energy per Si atom -5597.179331 kJ/mol
# Density = 2.448208 g / cm^3
# Si number density = 24.537925 Si / 1000 Ang^3
#
#
#
# Elastic Constant Matrix: (Units=GPa)
#
#
# Indices 1 2 3 4 5 6 
#
# 1 81.9542 44.5454 22.9187 -25.5948 -1.6115 18.4697
# 2 44.5454 87.9797 38.9098 -11.0989 10.7622 14.4204
# 3 22.9187 38.9098 84.3147 -14.9238 7.6889 7.5771
# 4 -25.5948 -11.0989 -14.9238 52.1500 2.6330 11.0451
# 5 -1.6115 10.7622 7.6889 2.6330 38.1042 -3.2372
# 6 18.4697 14.4204 7.5771 11.0451 -3.2372 45.1090
#
#
#
# Elastic Compliance Matrix: (Units=1/GPa)
#
#
# Indices 1 2 3 4 5 6 
#
# 1 0.022445 -0.009002 0.000663 0.011106 0.001825 -0.009012
# 2 -0.009002 0.019240 -0.006168 -0.001567 -0.004579 -0.001373
# 3 0.000663 -0.006168 0.015581 0.003992 -0.001822 -0.002025
# 4 0.011106 -0.001567 0.003992 0.028077 -0.002836 -0.011795
# 5 0.001825 -0.004579 -0.001822 -0.002836 0.028497 0.003762
# 6 -0.009012 -0.001373 -0.002025 -0.011795 0.003762 0.029796
#
#
# Mechanical properties :
#
#
# Convention : Reuss Voigt Hill
#
# Bulk Modulus (GPa) = 35.39758 51.88850 43.64304
# Shear Modulus (GPa) = 27.46211 36.93095 32.19653
#
# Velocity S-wave (km/s) = 3.34903 3.88371 3.62624
# Velocity P-wave (km/s) = 5.42325 6.42675 5.94621
#
# Compressibility (1/GPa) = 0.02825052
#
# Stress axis : x y z
#
# Youngs Moduli (GPa) = 44.55289 51.97558 64.17884
#
# Poissons Ratio (x) = 0.46791 -0.04253
# Poissons Ratio (y) = 0.40109 0.39586
# Poissons Ratio (z) = -0.02952 0.32059
#
# Static dielectric constant tensor:
#      x y z
#    x 1.953420 -0.002480 -0.004300 
#    y -0.002480 1.977750 0.030140 
#    z -0.004300 0.030140 2.034010 
# 
# From -- ./inp_files/51702.got.cif
#   From: 2010.05.17/outbox.cif.g08.bks.cpg/sg2_26_cif.got.tgz:51702.got - 2010.06.03 11:33:40.
