data_PCOD9032116
_publ_section_title
;
Structure prediction by ZEFSAII (Michael W. Deem and Ramdas Pophale) SiO2 
 PCOD9032116
Probable space group: P -1
;
_chemical_formula_sum "Si O2"
_cell_formula_units_Z 15
_cell_length_a 8.446603
_cell_length_b 9.168340
_cell_length_c 13.481482
_cell_angle_alpha 137.114032
_cell_angle_beta 66.388358
_cell_angle_gamma 92.221999
_cell_volume 594.233923
_symmetry_space_group_name_H-M "P -1"
_symmetry_group_IT_number 2
_symmetry_cell_setting 'triclinic'
loop_
_space_group_symop_operation_xyz
x,y,z
-x,-y,-z
loop_
_atom_site_type_symbol
_atom_site_label
_atom_site_fract_x
_atom_site_fract_y
_atom_site_fract_z
Si Si1 0.950135 0.215457 0.047625
Si Si2 0.169191 0.248503 0.847145
Si Si3 0.499199 0.808558 0.114068
Si Si4 0.313837 0.690835 0.272124
Si Si5 0.306705 0.319668 0.347241
Si Si6 0.540001 0.596247 0.357717
Si Si7 0.500000 0.000000 0.500000
Si Si8 0.035911 0.524254 0.337004
O O1 0.727817 0.374545 0.172092
O O2 0.021747 0.388869 0.175137
O O3 0.061426 0.117069 0.868809
O O4 0.000000 0.000000 0.000000
O O5 0.326226 0.261365 0.888859
O O6 0.275023 0.147958 0.670055
O O7 0.000000 0.500000 0.000000
O O8 0.325507 0.809447 0.225634
O O9 0.450788 0.052050 0.192978
O O10 0.563565 0.587813 0.914090
O O11 0.437459 0.744668 0.354688
O O12 0.115554 0.715183 0.378084
O O13 0.409592 0.498335 0.400528
O O14 0.191780 0.354528 0.290703
O O15 0.155643 0.390425 0.509362
O O16 0.554389 0.827767 0.509541
#
# Coordination Sequence:
#
# PCOD9032116 Si02
#       8
#     2   2   2   2   2   2   1   2
#     4  12  26  43  69 106 145 189 241 296 365 428
#     4  12  25  48  70 108 144 188 240 295 362 434
#     4  11  22  42  73  99 132 187 238 297 352 429
#     4  10  22  43  69  97 134 182 242 287 355 423
#     4  10  25  45  69 101 143 187 243 293 364 421
#     4  11  25  45  70 102 141 194 235 297 364 425
#     4  12  26  46  74 104 150 190 236 304 358 432
#     4  10  24  45  64 102 144 183 240 302 346 440
#
# _framework density 25.242584999999998
#
# number of rings (size 3 to 8) (size 9 to 14) (size 15 to 20)
#    0.000    1.067    4.000    0.800    5.600    2.133 
#    0.000    2.667    0.000    0.000    0.000    0.000 
#    0.000    0.000    0.000    0.000    0.000    0.000 
#
# Total GULP energy -83795.321315 kJ/mol
# GULP energy per Si atom -5586.354754 kJ/mol
# Density = 2.518513 g / cm^3
# Si number density = 25.242585 Si / 1000 Ang^3
#
#
#
# Elastic Constant Matrix: (Units=GPa)
#
#
# Indices 1 2 3 4 5 6 
#
# 1 88.7180 34.8353 42.9522 -1.7445 -11.0217 4.0328
# 2 34.8353 174.0509 66.3197 8.4501 -28.5254 36.2346
# 3 42.9522 66.3197 147.7097 -4.8917 -19.5470 15.2323
# 4 -1.7445 8.4501 -4.8917 60.9045 7.5257 -14.2300
# 5 -11.0217 -28.5254 -19.5470 7.5257 34.5603 -13.2073
# 6 4.0328 36.2346 15.2323 -14.2300 -13.2073 47.7854
#
#
#
# Elastic Compliance Matrix: (Units=1/GPa)
#
#
# Indices 1 2 3 4 5 6 
#
# 1 0.013583 -0.001617 -0.003152 0.000548 0.001758 0.001734
# 2 -0.001617 0.009093 -0.002590 -0.003375 0.004035 -0.005823
# 3 -0.003152 -0.002590 0.009115 0.000788 0.001870 0.000076
# 4 0.000548 -0.003375 0.000788 0.019036 -0.003667 0.006917
# 5 0.001758 0.004035 0.001870 -0.003667 0.036685 0.005244
# 6 0.001734 -0.005823 0.000076 0.006917 0.005244 0.028681
#
#
# Mechanical properties :
#
#
# Convention : Reuss Voigt Hill
#
# Bulk Modulus (GPa) = 58.56911 77.63257 68.10084
# Shear Modulus (GPa) = 36.60264 46.40814 41.50539
#
# Velocity S-wave (km/s) = 3.81206 4.29241 4.05935
# Velocity P-wave (km/s) = 6.52906 7.44229 7.00058
#
# Compressibility (1/GPa) = 0.01707385
#
# Stress axis : x y z
#
# Youngs Moduli (GPa) = 73.62243 109.97080 109.70803
#
# Poissons Ratio (x) = 0.17783 0.34577
# Poissons Ratio (y) = 0.11905 0.28414
# Poissons Ratio (z) = 0.23204 0.28482
#
# Static dielectric constant tensor:
#      x y z
#    x 2.111970 0.038640 0.021810 
#    y 0.038640 2.084660 -0.050240 
#    z 0.021810 -0.050240 2.053930 
# 
# From -- ./inp_files/493790.got.cif
#   From: 2010.05.17/outbox.cif.g08.bks.cpg/sg2_247_cif.got.tgz:493790.got - 2010.06.03 11:33:40.
