data_PCOD9032656
_publ_section_title
;
Structure prediction by ZEFSAII (Michael W. Deem and Ramdas Pophale) SiO2 
 PCOD9032656
Probable space group: P -1
;
_chemical_formula_sum "Si O2"
_cell_formula_units_Z 16
_cell_length_a 22.019909
_cell_length_b 9.882957
_cell_length_c 18.828546
_cell_angle_alpha 141.877125
_cell_angle_beta 161.933047
_cell_angle_gamma 37.189806
_cell_volume 758.655043
_symmetry_space_group_name_H-M "P -1"
_symmetry_group_IT_number 2
_symmetry_cell_setting 'triclinic'
loop_
_space_group_symop_operation_xyz
x,y,z
-x,-y,-z
loop_
_atom_site_type_symbol
_atom_site_label
_atom_site_fract_x
_atom_site_fract_y
_atom_site_fract_z
Si Si1 0.400639 0.484838 0.306282
Si Si2 0.020617 0.578465 0.136582
Si Si3 0.003604 0.431000 0.392642
Si Si4 0.596703 0.810448 0.586399
Si Si5 0.447698 0.262627 0.833851
Si Si6 0.452451 0.902819 0.801362
Si Si7 0.803183 0.034415 0.032472
Si Si8 0.161044 0.100263 0.678093
O O1 0.500000 0.500000 0.500000
O O2 0.419561 0.709071 0.379373
O O3 0.527123 0.275145 0.313383
O O4 0.175889 0.456957 0.055637
O O5 0.222939 0.413423 0.326129
O O6 0.000000 0.500000 0.000000
O O7 0.986019 0.848571 0.197000
O O8 0.232424 0.304329 0.573674
O O9 0.000000 0.500000 0.500000
O O10 0.938412 0.660507 0.370621
O O11 0.869967 0.250336 0.166186
O O12 0.500000 0.000000 0.500000
O O13 0.703128 0.923764 0.812627
O O14 0.630944 0.108249 0.930509
O O15 0.423960 0.147163 0.834302
O O16 0.500000 0.500000 0.000000
O O17 0.279057 0.925671 0.677043
O O18 0.666094 0.855070 0.059494
O O19 0.000000 0.000000 0.500000
#
# Coordination Sequence:
#
# PCOD9032656 Si02
#       8
#     2   2   2   2   2   2   2   2
#     4  12  23  46  75 105 137 188 243 289 356 425
#     4  10  22  43  73 100 134 181 238 285 348 428
#     4  12  25  42  70 103 138 180 238 288 345 423
#     4  11  27  46  69 104 142 181 234 297 358 422
#     4  12  22  42  70 103 136 180 234 287 344 415
#     4  11  25  42  73 100 141 184 235 292 347 429
#     4  11  24  43  69 101 142 182 232 290 350 418
#     4  11  26  48  66 103 145 189 232 289 363 416
#
# _framework density 21.089953000000001
#
# number of rings (size 3 to 8) (size 9 to 14) (size 15 to 20)
#    0.000    0.750    6.250    0.750    3.500    4.500 
#    2.250    0.000    0.000    0.000    0.000    0.000 
#    0.000    0.000    0.000    0.000    0.000    0.000 
#
# Total GULP energy -89435.632941 kJ/mol
# GULP energy per Si atom -5589.727059 kJ/mol
# Density = 2.104195 g / cm^3
# Si number density = 21.089953 Si / 1000 Ang^3
#
#
#
# Elastic Constant Matrix: (Units=GPa)
#
#
# Indices 1 2 3 4 5 6 
#
# 1 122.7247 69.2795 46.6556 -0.4663 22.2625 5.7981
# 2 69.2795 141.4098 38.8635 -12.1546 6.9795 28.8047
# 3 46.6556 38.8635 64.8863 -3.1957 18.0964 9.8362
# 4 -0.4663 -12.1546 -3.1957 51.3631 4.2528 2.3096
# 5 22.2625 6.9795 18.0964 4.2528 45.6488 4.5444
# 6 5.7981 28.8047 9.8362 2.3096 4.5444 53.2401
#
#
#
# Elastic Compliance Matrix: (Units=1/GPa)
#
#
# Indices 1 2 3 4 5 6 
#
# 1 0.014429 -0.005921 -0.006325 -0.001492 -0.003803 0.003190
# 2 -0.005921 0.011945 -0.002576 0.002669 0.002397 -0.005662
# 3 -0.006325 -0.002576 0.023451 0.001351 -0.005763 -0.001817
# 4 -0.001492 0.002669 0.001351 0.020430 -0.001895 -0.002255
# 5 -0.003803 0.002397 -0.005763 -0.001895 0.026051 -0.001960
# 6 0.003190 -0.005662 -0.001817 -0.002255 -0.001960 0.022100
#
#
# Mechanical properties :
#
#
# Convention : Reuss Voigt Hill
#
# Bulk Modulus (GPa) = 49.55000 70.95756 60.25378
# Shear Modulus (GPa) = 32.30484 41.66521 36.98503
#
# Velocity S-wave (km/s) = 3.91802 4.44959 4.19224
# Velocity P-wave (km/s) = 6.63426 7.75350 7.21561
#
# Compressibility (1/GPa) = 0.02018163
#
# Stress axis : x y z
#
# Youngs Moduli (GPa) = 69.30601 83.71845 42.64120
#
# Poissons Ratio (x) = 0.49570 0.26970
# Poissons Ratio (y) = 0.41036 0.10983
# Poissons Ratio (z) = 0.43836 0.21564
#
# Static dielectric constant tensor:
#      x y z
#    x 1.750250 -0.022070 0.003540 
#    y -0.022070 1.850850 -0.006490 
#    z 0.003540 -0.006490 1.817690 
# 
# From -- ./inp_files/400013.got.cif
#   From: 2010.05.17/outbox.cif.g08.bks.cpg/sg2_201_cif.got.tgz:400013.got - 2010.06.03 11:33:40.
