data_PCOD9032316
_publ_section_title
;
Structure prediction by ZEFSAII (Michael W. Deem and Ramdas Pophale) SiO2 
 PCOD9032316
Probable space group: P -1
;
_chemical_formula_sum "Si O2"
_cell_formula_units_Z 16
_cell_length_a 9.601031
_cell_length_b 12.306832
_cell_length_c 17.310058
_cell_angle_alpha 146.387252
_cell_angle_beta 122.856172
_cell_angle_gamma 42.912457
_cell_volume 758.495942
_symmetry_space_group_name_H-M "P -1"
_symmetry_group_IT_number 2
_symmetry_cell_setting 'triclinic'
loop_
_space_group_symop_operation_xyz
x,y,z
-x,-y,-z
loop_
_atom_site_type_symbol
_atom_site_label
_atom_site_fract_x
_atom_site_fract_y
_atom_site_fract_z
Si Si1 0.549942 0.303349 0.960691
Si Si2 0.406919 0.869270 0.854973
Si Si3 0.238536 0.318507 0.976414
Si Si4 0.071339 0.420048 0.588534
Si Si5 0.686570 0.837504 0.644820
Si Si6 0.818351 0.211981 0.127034
Si Si7 0.782551 0.375613 0.706916
Si Si8 0.224257 0.078637 0.583508
O O1 0.699800 0.037832 0.809408
O O2 0.500000 0.500000 0.000000
O O3 0.358047 0.308863 0.932626
O O4 0.633003 0.343743 0.087083
O O5 0.252258 0.873721 0.872391
O O6 0.596543 0.591126 0.723917
O O7 0.500000 0.000000 0.000000
O O8 0.296984 0.053981 0.859599
O O9 0.270961 0.457939 0.135705
O O10 0.000000 0.500000 0.000000
O O11 0.187070 0.247969 0.447631
O O12 0.134287 0.603955 0.721652
O O13 0.160401 0.255066 0.594599
O O14 0.822484 0.595987 0.598720
O O15 0.446400 0.965780 0.624349
O O16 0.000000 0.000000 0.000000
O O17 0.019258 0.245450 0.674753
O O18 0.761141 0.158437 0.579398
#
# Coordination Sequence:
#
# PCOD9032316 Si02
#       8
#     2   2   2   2   2   2   2   2
#     4  12  26  42  68 104 139 177 236 288 347 420
#     4  10  22  43  70  96 138 181 231 284 348 423
#     4  11  25  42  69 103 142 177 227 298 349 409
#     4  11  26  43  72  98 144 184 232 295 356 413
#     4  11  25  44  65 103 138 179 235 288 351 418
#     4  12  24  43  72 102 134 186 234 289 356 416
#     4  10  23  44  69  99 130 188 241 272 359 423
#     4  11  24  45  71  94 143 189 231 291 349 426
#
# _framework density 21.094377999999999
#
# number of rings (size 3 to 8) (size 9 to 14) (size 15 to 20)
#    0.000    1.000    3.750    2.625    8.750    0.000 
#    4.500    1.250    0.000    0.000    0.000    0.000 
#    0.000    0.000    0.000    0.000    0.000    0.000 
#
# Total GULP energy -89211.234892 kJ/mol
# GULP energy per Si atom -5575.702181 kJ/mol
# Density = 2.104637 g / cm^3
# Si number density = 21.094378 Si / 1000 Ang^3
#
#
#
# Elastic Constant Matrix: (Units=GPa)
#
#
# Indices 1 2 3 4 5 6 
#
# 1 118.0916 80.8100 42.2981 21.5057 3.7222 13.7802
# 2 80.8100 153.1696 26.4768 26.1824 13.6991 -9.9316
# 3 42.2981 26.4768 100.9471 16.2371 -9.1179 7.7824
# 4 21.5057 26.1824 16.2371 42.4023 -0.3353 1.0889
# 5 3.7222 13.6991 -9.1179 -0.3353 26.5578 9.3367
# 6 13.7802 -9.9316 7.7824 1.0889 9.3367 31.7259
#
#
#
# Elastic Compliance Matrix: (Units=1/GPa)
#
#
# Indices 1 2 3 4 5 6 
#
# 1 0.017793 -0.009834 -0.003267 -0.001360 0.005511 -0.011581
# 2 -0.009834 0.014283 -0.000906 -0.003883 -0.010650 0.012232
# 3 -0.003267 -0.000906 0.012822 -0.002541 0.006660 -0.003883
# 4 -0.001360 -0.003883 -0.002541 0.027704 0.002237 -0.001611
# 5 0.005511 -0.010650 0.006660 0.002237 0.052763 -0.022966
# 6 -0.011581 0.012232 -0.003883 -0.001611 -0.022966 0.048146
#
#
# Mechanical properties :
#
#
# Convention : Reuss Voigt Hill
#
# Bulk Modulus (GPa) = 59.22481 74.59755 66.91118
# Shear Modulus (GPa) = 24.13687 34.97873 29.55780
#
# Velocity S-wave (km/s) = 3.38632 4.07652 3.74734
# Velocity P-wave (km/s) = 6.58989 7.58932 7.10720
#
# Compressibility (1/GPa) = 0.01688482
#
# Stress axis : x y z
#
# Youngs Moduli (GPa) = 56.20290 70.01394 77.98893
#
# Poissons Ratio (x) = 0.68850 0.25477
# Poissons Ratio (y) = 0.55269 0.07066
# Poissons Ratio (z) = 0.18360 0.06343
#
# Static dielectric constant tensor:
#      x y z
#    x 1.789060 -0.129080 0.023690 
#    y -0.129080 2.069400 -0.067900 
#    z 0.023690 -0.067900 1.734830 
# 
# From -- ./inp_files/560174.got.cif
#   From: 2010.05.17/outbox.cif.g08.bks.cpg/sg2_281_cif.got.tgz:560174.got - 2010.06.03 11:33:40.
