data_PCOD9032889
_publ_section_title
;
Structure prediction by ZEFSAII (Michael W. Deem and Ramdas Pophale) SiO2 
 PCOD9032889
Probable space group: P -1
;
_chemical_formula_sum "Si O2"
_cell_formula_units_Z 16
_cell_length_a 5.915699
_cell_length_b 11.792301
_cell_length_c 18.383306
_cell_angle_alpha 44.914739
_cell_angle_beta 136.997236
_cell_angle_gamma 122.780427
_cell_volume 616.811875
_symmetry_space_group_name_H-M "P -1"
_symmetry_group_IT_number 2
_symmetry_cell_setting 'triclinic'
loop_
_space_group_symop_operation_xyz
x,y,z
-x,-y,-z
loop_
_atom_site_type_symbol
_atom_site_label
_atom_site_fract_x
_atom_site_fract_y
_atom_site_fract_z
Si Si1 0.080533 0.151783 0.628107
Si Si2 0.674614 0.193593 0.167363
Si Si3 0.023642 0.843567 0.026209
Si Si4 0.261319 0.626383 0.466711
Si Si5 0.741819 0.339676 0.957556
Si Si6 0.271744 0.913304 0.551224
Si Si7 0.735870 0.371237 0.703785
Si Si8 0.527431 0.642810 0.828831
O O1 0.420305 0.240763 0.693794
O O2 0.797169 0.198026 0.596342
O O3 0.961450 0.211590 0.494821
O O4 0.133920 0.966755 0.710825
O O5 0.693823 0.255518 0.062069
O O6 0.740100 0.327939 0.183490
O O7 0.288291 0.137820 0.108414
O O8 0.015731 0.695260 0.148780
O O9 0.307340 0.787858 0.061936
O O10 0.000000 0.000000 0.000000
O O11 0.603569 0.548113 0.604199
O O12 0.184776 0.630724 0.361677
O O13 0.000000 0.500000 0.500000
O O14 0.135287 0.390511 0.031867
O O15 0.530100 0.498268 0.836752
O O16 0.505911 0.808193 0.704108
O O17 0.500000 0.000000 0.500000
O O18 0.000000 0.000000 0.500000
#
# Coordination Sequence:
#
# PCOD9032889 Si02
#       8
#     2   2   2   2   2   2   2   2
#     4  11  23  39  68  93 132 179 220 281 354 406
#     4  11  22  41  67  97 129 173 225 280 343 410
#     4  11  24  40  63  98 131 170 224 275 341 412
#     4   9  22  41  64  90 124 178 220 274 342 410
#     4  10  24  43  69  94 133 180 219 289 347 413
#     4  12  27  46  71 107 139 182 237 293 348 419
#     4  10  22  44  62  91 138 169 225 280 338 420
#     4  10  23  46  66  97 134 175 233 282 350 410
#
# _framework density 25.939838000000002
#
# number of rings (size 3 to 8) (size 9 to 14) (size 15 to 20)
#    0.000    1.500    2.500    1.125    5.250    2.500 
#    4.500    0.000    0.000    0.000    0.000    0.000 
#    0.000    0.000    0.000    0.000    0.000    0.000 
#
# Total GULP energy -89210.622381 kJ/mol
# GULP energy per Si atom -5575.663899 kJ/mol
# Density = 2.588080 g / cm^3
# Si number density = 25.939838 Si / 1000 Ang^3
#
#
#
# Elastic Constant Matrix: (Units=GPa)
#
#
# Indices 1 2 3 4 5 6 
#
# 1 127.0063 60.1408 62.9052 -39.4798 -6.4303 -50.2376
# 2 60.1408 102.6502 32.7398 -20.2947 22.0968 -51.2833
# 3 62.9052 32.7398 157.2192 -20.9457 1.4366 -21.5434
# 4 -39.4798 -20.2947 -20.9457 45.1675 -7.0924 16.6646
# 5 -6.4303 22.0968 1.4366 -7.0924 42.0846 -4.8883
# 6 -50.2376 -51.2833 -21.5434 16.6646 -4.8883 59.7811
#
#
#
# Elastic Compliance Matrix: (Units=1/GPa)
#
#
# Indices 1 2 3 4 5 6 
#
# 1 0.019851 -0.006434 -0.004187 0.011299 0.009302 0.007264
# 2 -0.006434 0.022302 -0.000480 -0.002555 -0.011560 0.013319
# 3 -0.004187 -0.000480 0.008004 0.000139 -0.000771 -0.001147
# 4 0.011299 -0.002555 0.000139 0.032648 0.008442 -0.001057
# 5 0.009302 -0.011560 -0.000771 0.008442 0.032460 -0.002076
# 6 0.007264 0.013319 -0.001147 -0.001057 -0.002076 0.033969
#
#
# Mechanical properties :
#
#
# Convention : Reuss Voigt Hill
#
# Bulk Modulus (GPa) = 35.77142 77.60526 56.68834
# Shear Modulus (GPa) = 27.66198 44.81262 36.23730
#
# Velocity S-wave (km/s) = 3.26910 4.16090 3.74167
# Velocity P-wave (km/s) = 5.29806 7.28467 6.36930
#
# Compressibility (1/GPa) = 0.02795527
#
# Stress axis : x y z
#
# Youngs Moduli (GPa) = 50.37596 44.83988 124.93797
#
# Poissons Ratio (x) = 0.28850 0.52311
# Poissons Ratio (y) = 0.32412 0.05991
# Poissons Ratio (z) = 0.21092 0.02150
#
# Static dielectric constant tensor:
#      x y z
#    x 2.181770 0.004640 0.095870 
#    y 0.004640 2.154920 -0.001760 
#    z 0.095870 -0.001760 2.021540 
# 
# From -- ./inp_files/81714.got.cif
#   From: 2010.05.17/outbox.cif.g08.bks.cpg/sg2_41_cif.got.tgz:81714.got - 2010.06.03 11:33:40.
