data_PCOD9032920
_publ_section_title
;
Structure prediction by ZEFSAII (Michael W. Deem and Ramdas Pophale) SiO2 
 PCOD9032920
Probable space group: P -1
;
_chemical_formula_sum "Si O2"
_cell_formula_units_Z 16
_cell_length_a 6.654291
_cell_length_b 26.053381
_cell_length_c 11.768457
_cell_angle_alpha 150.005760
_cell_angle_beta 126.837843
_cell_angle_gamma 48.895975
_cell_volume 766.082525
_symmetry_space_group_name_H-M "P -1"
_symmetry_group_IT_number 2
_symmetry_cell_setting 'triclinic'
loop_
_space_group_symop_operation_xyz
x,y,z
-x,-y,-z
loop_
_atom_site_type_symbol
_atom_site_label
_atom_site_fract_x
_atom_site_fract_y
_atom_site_fract_z
Si Si1 0.186316 0.571209 0.374396
Si Si2 0.027402 0.079587 0.258571
Si Si3 0.940512 0.743439 0.825816
Si Si4 0.402150 0.708594 0.545802
Si Si5 0.403207 0.405329 0.835350
Si Si6 0.562146 0.102260 0.570326
Si Si7 0.041640 0.013722 0.715021
Si Si8 0.449916 0.661148 0.984805
O O1 0.084010 0.660760 0.612301
O O2 0.352714 0.613923 0.420997
O O3 0.916475 0.562522 0.212031
O O4 0.372661 0.447664 0.231269
O O5 0.320174 0.068012 0.378572
O O6 0.881654 0.196855 0.378704
O O7 0.892758 0.050883 0.269527
O O8 0.000000 0.000000 0.000000
O O9 0.646245 0.739221 0.739612
O O10 0.916076 0.869118 0.037130
O O11 0.142604 0.699074 0.914009
O O12 0.488443 0.684200 0.397518
O O13 0.513701 0.367276 0.924290
O O14 0.500000 0.500000 0.000000
O O15 0.733580 0.045566 0.629896
O O16 0.465483 0.232984 0.805116
O O17 0.778279 0.064441 0.469830
#
# Coordination Sequence:
#
# PCOD9032920 Si02
#       8
#     2   2   2   2   2   2   2   2
#     4  11  23  42  63  91 130 162 207 255 307 371
#     4  12  24  38  65  95 123 164 206 255 316 366
#     4  10  24  43  62  91 125 167 209 253 312 365
#     4  11  24  41  62  91 127 164 208 254 307 372
#     4  11  23  40  62  91 122 163 203 255 305 361
#     4  10  23  41  65  92 122 164 208 254 312 365
#     4  10  22  44  63  89 127 160 208 262 303 369
#     4  11  22  42  65  91 127 164 206 258 307 371
#
# _framework density 20.885477000000002
#
# number of rings (size 3 to 8) (size 9 to 14) (size 15 to 20)
#    0.000    1.250    1.250    4.125    1.750    4.500 
#    2.250    3.750    0.000    0.000    0.000    0.000 
#    0.000    0.000    0.000    0.000    0.000    0.000 
#
# Total GULP energy -89338.153216 kJ/mol
# GULP energy per Si atom -5583.634576 kJ/mol
# Density = 2.083794 g / cm^3
# Si number density = 20.885477 Si / 1000 Ang^3
#
#
#
# Elastic Constant Matrix: (Units=GPa)
#
#
# Indices 1 2 3 4 5 6 
#
# 1 42.7055 7.0439 8.4819 -10.4435 19.2042 -7.3817
# 2 7.0439 77.2582 24.8906 -4.8906 15.2227 1.3761
# 3 8.4819 24.8906 86.1182 -4.1436 14.0320 -10.7856
# 4 -10.4435 -4.8906 -4.1436 44.8544 -11.5910 -2.4834
# 5 19.2042 15.2227 14.0320 -11.5910 33.1417 -7.2844
# 6 -7.3817 1.3761 -10.7856 -2.4834 -7.2844 22.6638
#
#
#
# Elastic Compliance Matrix: (Units=1/GPa)
#
#
# Indices 1 2 3 4 5 6 
#
# 1 0.032703 0.000333 0.000305 0.003697 -0.016658 0.005827
# 2 0.000333 0.015662 -0.004090 -0.000691 -0.007022 -0.005122
# 3 0.000305 -0.004090 0.014004 0.000576 -0.002658 0.006221
# 4 0.003697 -0.000691 0.000576 0.025715 0.008477 0.007062
# 5 -0.016658 -0.007022 -0.002658 0.008477 0.049464 0.010563
# 6 0.005827 -0.005122 0.006221 0.007062 0.010563 0.053462
#
#
# Mechanical properties :
#
#
# Convention : Reuss Voigt Hill
#
# Bulk Modulus (GPa) = 18.02966 31.87942 24.95454
# Shear Modulus (GPa) = 23.10510 31.17633 27.14072
#
# Velocity S-wave (km/s) = 3.32968 3.86778 3.60877
# Velocity P-wave (km/s) = 4.84084 5.93661 5.41650
#
# Compressibility (1/GPa) = 0.05546417
#
# Stress axis : x y z
#
# Youngs Moduli (GPa) = 30.57818 63.84810 71.40783
#
# Poissons Ratio (x) = -0.02124 -0.02177
# Poissons Ratio (y) = -0.01017 0.29206
# Poissons Ratio (z) = -0.00932 0.26114
#
# Static dielectric constant tensor:
#      x y z
#    x 1.712200 -0.070650 -0.031550 
#    y -0.070650 1.663410 0.007040 
#    z -0.031550 0.007040 1.810210 
# 
# From -- ./inp_files/90387.got.cif
#   From: 2010.05.17/outbox.cif.g08.bks.cpg/sg2_46_cif.got.tgz:90387.got - 2010.06.03 11:33:40.
