data_PCOD9032499
_publ_section_title
;
Structure prediction by ZEFSAII (Michael W. Deem and Ramdas Pophale) SiO2 
 PCOD9032499
Probable space group: P -1
;
_chemical_formula_sum "Si O2"
_cell_formula_units_Z 14
_cell_length_a 9.821400
_cell_length_b 9.379196
_cell_length_c 18.381199
_cell_angle_alpha 148.584491
_cell_angle_beta 49.293037
_cell_angle_gamma 129.339504
_cell_volume 656.102439
_symmetry_space_group_name_H-M "P -1"
_symmetry_group_IT_number 2
_symmetry_cell_setting 'triclinic'
loop_
_space_group_symop_operation_xyz
x,y,z
-x,-y,-z
loop_
_atom_site_type_symbol
_atom_site_label
_atom_site_fract_x
_atom_site_fract_y
_atom_site_fract_z
Si Si1 0.693644 0.036755 0.856058
Si Si2 0.605154 0.264198 0.833313
Si Si3 0.787669 0.771137 0.389555
Si Si4 0.053399 0.622090 0.345219
Si Si5 0.606577 0.460140 0.189250
Si Si6 0.560012 0.991513 0.358749
Si Si7 0.020480 0.755814 0.659148
O O1 0.667702 0.109967 0.813492
O O2 0.537793 0.772023 0.818577
O O3 0.671422 0.297780 0.027817
O O4 0.887689 0.957188 0.769043
O O5 0.781457 0.367709 0.765347
O O6 0.465908 0.068312 0.743436
O O7 0.500000 0.500000 0.000000
O O8 0.773353 0.601159 0.245390
O O9 0.871019 0.619713 0.360333
O O10 0.901540 0.089367 0.497464
O O11 0.578305 0.807072 0.487096
O O12 0.035087 0.367131 0.295218
O O13 0.510387 0.703099 0.295942
O O14 0.767962 0.106235 0.354576
O O15 0.000000 0.500000 0.500000
#
# Coordination Sequence:
#
# PCOD9032499 Si02
#       7
#     2   2   2   2   2   2   2
#     4  11  26  43  70  99 137 180 227 278 342 402
#     4  11  24  47  70  98 139 181 226 277 340 405
#     4  10  22  43  71  97 135 180 225 281 338 393
#     4  10  25  44  70 100 138 178 228 280 341 400
#     4  11  23  44  69  98 133 182 229 279 337 400
#     4  11  24  42  72  99 136 177 232 276 341 404
#     4  12  27  44  69 106 138 175 228 283 340 404
#
# _framework density 21.338131000000001
#
# number of rings (size 3 to 8) (size 9 to 14) (size 15 to 20)
#    0.000    1.143    1.429    3.857   12.000    2.286 
#    0.000    1.429    0.000    0.000    0.000    0.000 
#    0.000    0.000    0.000    0.000    0.000    0.000 
#
# Total GULP energy -78327.958266 kJ/mol
# GULP energy per Si atom -5594.854162 kJ/mol
# Density = 2.128956 g / cm^3
# Si number density = 21.338131 Si / 1000 Ang^3
#
#
#
# Elastic Constant Matrix: (Units=GPa)
#
#
# Indices 1 2 3 4 5 6 
#
# 1 178.5506 55.5170 46.5432 5.7982 -4.2347 -22.6920
# 2 55.5170 105.9211 28.2792 -2.6772 -2.7622 -19.0070
# 3 46.5432 28.2792 84.4883 -7.4599 7.1255 -4.7575
# 4 5.7982 -2.6772 -7.4599 14.4455 -2.0607 -0.7017
# 5 -4.2347 -2.7622 7.1255 -2.0607 44.8877 -3.9754
# 6 -22.6920 -19.0070 -4.7575 -0.7017 -3.9754 32.8777
#
#
#
# Elastic Compliance Matrix: (Units=1/GPa)
#
#
# Indices 1 2 3 4 5 6 
#
# 1 0.008122 -0.002667 -0.003973 -0.005450 0.001295 0.003529
# 2 -0.002667 0.012511 -0.002310 0.002664 0.001476 0.005293
# 3 -0.003973 -0.002310 0.015698 0.008782 -0.002779 -0.001955
# 4 -0.005450 0.002664 0.008782 0.076752 0.001860 0.000912
# 5 0.001295 0.001476 -0.002779 0.001860 0.023390 0.004213
# 6 0.003529 0.005293 -0.001955 0.000912 0.004213 0.036158
#
#
# Mechanical properties :
#
#
# Convention : Reuss Voigt Hill
#
# Bulk Modulus (GPa) = 54.25675 69.95987 62.10831
# Shear Modulus (GPa) = 25.42286 34.35022 29.88654
#
# Velocity S-wave (km/s) = 3.45545 4.01659 3.74654
# Velocity P-wave (km/s) = 6.43448 7.37348 6.91992
#
# Compressibility (1/GPa) = 0.01843088
#
# Stress axis : x y z
#
# Youngs Moduli (GPa) = 123.12566 79.92911 63.70438
#
# Poissons Ratio (x) = 0.21315 0.25311
# Poissons Ratio (y) = 0.32835 0.14714
# Poissons Ratio (z) = 0.48921 0.18461
#
# Static dielectric constant tensor:
#      x y z
#    x 1.771160 0.011250 0.027090 
#    y 0.011250 1.792960 -0.000350 
#    z 0.027090 -0.000350 1.797950 
# 
# From -- ./inp_files/217823.got.cif
#   From: 2010.05.17/outbox.cif.g08.bks.cpg/sg2_109_cif.got.tgz:217823.got - 2010.06.03 11:33:40.
