data_PCOD9032569
_publ_section_title
;
Structure prediction by ZEFSAII (Michael W. Deem and Ramdas Pophale) SiO2 
 PCOD9032569
Probable space group: P -1
;
_chemical_formula_sum "Si O2"
_cell_formula_units_Z 14
_cell_length_a 5.591565
_cell_length_b 17.099673
_cell_length_c 22.477829
_cell_angle_alpha 158.630503
_cell_angle_beta 56.454169
_cell_angle_gamma 113.497314
_cell_volume 603.284869
_symmetry_space_group_name_H-M "P -1"
_symmetry_group_IT_number 2
_symmetry_cell_setting 'triclinic'
loop_
_space_group_symop_operation_xyz
x,y,z
-x,-y,-z
loop_
_atom_site_type_symbol
_atom_site_label
_atom_site_fract_x
_atom_site_fract_y
_atom_site_fract_z
Si Si1 0.639173 0.018887 0.265808
Si Si2 0.671714 0.671962 0.584669
Si Si3 0.761284 0.393180 0.099380
Si Si4 0.309737 0.672047 0.075939
Si Si5 0.637880 0.466054 0.639164
Si Si6 0.934180 0.250878 0.714919
Si Si7 0.352742 0.873006 0.885107
O O1 0.456358 0.863947 0.204009
O O2 0.468376 0.165822 0.336932
O O3 0.661671 0.204036 0.440985
O O4 0.972475 0.831975 0.069056
O O5 0.500000 0.500000 0.500000
O O6 0.586817 0.825709 0.763994
O O7 0.032839 0.535247 0.427127
O O8 0.455306 0.454071 0.224045
O O9 0.864038 0.613434 0.244267
O O10 0.758823 0.327197 0.983873
O O11 0.037926 0.735834 0.207419
O O12 0.575982 0.419123 0.871716
O O13 0.390275 0.636785 0.747921
O O14 0.000000 0.000000 0.500000
O O15 0.500000 0.000000 0.000000
O O16 0.000000 0.000000 0.000000
#
# Coordination Sequence:
#
# PCOD9032569 Si02
#       7
#     2   2   2   2   2   2   2
#     4  11  25  45  71 100 146 186 248 297 375 436
#     4  12  26  49  71 103 144 196 253 313 374 450
#     4  11  25  44  70 109 144 186 240 300 367 443
#     4  10  23  43  70 104 143 184 238 295 360 442
#     4  12  27  44  72 102 145 191 246 309 379 442
#     4  10  22  43  72 103 144 187 232 290 363 444
#     4  12  28  47  75 106 146 196 258 318 384 452
#
# _framework density 23.206282999999999
#
# number of rings (size 3 to 8) (size 9 to 14) (size 15 to 20)
#    0.000    0.857    1.429    4.286    6.000    5.143 
#    0.000    0.000    0.000    0.000    0.000    0.000 
#    0.000    0.000    0.000    0.000    0.000    0.000 
#
# Total GULP energy -78342.850394 kJ/mol
# GULP energy per Si atom -5595.917885 kJ/mol
# Density = 2.315346 g / cm^3
# Si number density = 23.206283 Si / 1000 Ang^3
#
#
#
# Elastic Constant Matrix: (Units=GPa)
#
#
# Indices 1 2 3 4 5 6 
#
# 1 92.0958 31.5999 52.2425 -6.4922 -7.1848 -0.7610
# 2 31.5999 92.7593 66.9738 -18.5666 -15.0582 0.2886
# 3 52.2425 66.9738 137.1185 4.0841 -0.9551 6.0520
# 4 -6.4922 -18.5666 4.0841 56.6736 1.7742 7.4176
# 5 -7.1848 -15.0582 -0.9551 1.7742 32.6301 3.2052
# 6 -0.7610 0.2886 6.0520 7.4176 3.2052 39.6622
#
#
#
# Elastic Compliance Matrix: (Units=1/GPa)
#
#
# Indices 1 2 3 4 5 6 
#
# 1 0.014354 -0.000122 -0.005469 0.001840 0.002791 0.000541
# 2 -0.000122 0.021476 -0.010574 0.007588 0.009232 -0.000710
# 3 -0.005469 -0.010574 0.014690 -0.004861 -0.005298 -0.000932
# 4 0.001840 0.007588 -0.004861 0.021051 0.002959 -0.003454
# 5 0.002791 0.009232 -0.005298 0.002959 0.035463 -0.002624
# 6 0.000541 -0.000710 -0.000932 -0.003454 -0.002624 0.026229
#
#
# Mechanical properties :
#
#
# Convention : Reuss Voigt Hill
#
# Bulk Modulus (GPa) = 54.96864 69.28955 62.12909
# Shear Modulus (GPa) = 29.12798 37.20367 33.16583
#
# Velocity S-wave (km/s) = 3.54669 4.00831 3.78454
# Velocity P-wave (km/s) = 6.36478 7.16554 6.77700
#
# Compressibility (1/GPa) = 0.01819219
#
# Stress axis : x y z
#
# Youngs Moduli (GPa) = 69.66589 46.56361 68.07234
#
# Poissons Ratio (x) = 0.00566 0.37228
# Poissons Ratio (y) = 0.00847 0.71978
# Poissons Ratio (z) = 0.38099 0.49235
#
# Static dielectric constant tensor:
#      x y z
#    x 1.927230 -0.009810 0.054890 
#    y -0.009810 1.897130 -0.002390 
#    z 0.054890 -0.002390 1.926750 
# 
# From -- ./inp_files/604989.got.cif
#   From: 2010.05.17/outbox.cif.g08.bks.cpg/sg2_303_cif.got.tgz:604989.got - 2010.06.03 11:33:40.
