data_PCOD9032855
_publ_section_title
;
Structure prediction by ZEFSAII (Michael W. Deem and Ramdas Pophale) SiO2 
 PCOD9032855
Probable space group: P -1
;
_chemical_formula_sum "Si O2"
_cell_formula_units_Z 13
_cell_length_a 11.193866
_cell_length_b 11.354129
_cell_length_c 12.487904
_cell_angle_alpha 23.946195
_cell_angle_beta 50.453984
_cell_angle_gamma 51.663220
_cell_volume 492.999442
_symmetry_space_group_name_H-M "P -1"
_symmetry_group_IT_number 2
_symmetry_cell_setting 'triclinic'
loop_
_space_group_symop_operation_xyz
x,y,z
-x,-y,-z
loop_
_atom_site_type_symbol
_atom_site_label
_atom_site_fract_x
_atom_site_fract_y
_atom_site_fract_z
Si Si1 0.603766 0.342859 0.815144
Si Si2 0.398061 0.232660 0.786683
Si Si3 0.000000 0.000000 0.000000
Si Si4 0.237532 0.498215 0.843637
Si Si5 0.128315 0.163175 0.381401
Si Si6 0.391385 0.293845 0.289187
Si Si7 0.081792 0.649381 0.468640
O O1 0.729574 0.382389 0.618607
O O2 0.421985 0.464873 0.803028
O O3 0.669180 0.521002 0.726688
O O4 0.616324 0.990294 0.118798
O O5 0.500000 0.500000 0.500000
O O6 0.500000 0.000000 0.000000
O O7 0.028771 0.327802 0.755380
O O8 0.979561 0.142126 0.769244
O O9 0.246851 0.334728 0.860012
O O10 0.175092 0.834536 0.589782
O O11 0.143583 0.364444 0.102761
O O12 0.259303 0.230674 0.336029
O O13 0.977395 0.208607 0.503861
O O14 0.500000 0.000000 0.500000
O O15 0.500000 0.500000 0.000000
#
# Coordination Sequence:
#
# PCOD9032855 Si02
#       7
#     2   2   1   2   2   2   2
#     4  11  24  44  69 100 126 178 230 271 322 403
#     4  10  23  42  69  96 130 173 226 282 328 383
#     4  10  22  44  58  92 132 186 210 260 324 398
#     4  11  23  43  67  93 136 169 223 274 333 384
#     4  12  23  43  62 100 135 176 205 277 344 390
#     4  12  23  37  62  95 129 162 213 268 320 394
#     4  11  25  41  68  91 138 175 227 261 333 401
#
# _framework density 26.369198000000001
#
# number of rings (size 3 to 8) (size 9 to 14) (size 15 to 20)
#    0.000    0.923    3.077    4.615    0.000    7.385 
#    0.000    1.538    0.000    0.000    0.000    0.000 
#    0.000    0.000    0.000    0.000    0.000    0.000 
#
# Total GULP energy -72638.309409 kJ/mol
# GULP energy per Si atom -5587.562262 kJ/mol
# Density = 2.630918 g / cm^3
# Si number density = 26.369198 Si / 1000 Ang^3
#
#
#
# Elastic Constant Matrix: (Units=GPa)
#
#
# Indices 1 2 3 4 5 6 
#
# 1 105.6872 48.8322 35.9457 1.8868 0.0603 8.0920
# 2 48.8322 194.5969 62.6660 -5.0604 -10.8613 7.8211
# 3 35.9457 62.6660 230.1727 -23.1568 2.1566 1.0618
# 4 1.8868 -5.0604 -23.1568 54.5619 4.7275 -14.4805
# 5 0.0603 -10.8613 2.1566 4.7275 36.0873 5.1549
# 6 8.0920 7.8211 1.0618 -14.4805 5.1549 49.4865
#
#
#
# Elastic Compliance Matrix: (Units=1/GPa)
#
#
# Indices 1 2 3 4 5 6 
#
# 1 0.011156 -0.002374 -0.001248 -0.001619 -0.000178 -0.001877
# 2 -0.002374 0.006336 -0.001406 -0.000358 0.002173 -0.000914
# 3 -0.001248 -0.001406 0.005183 0.002534 -0.001232 0.001185
# 4 -0.001619 -0.000358 0.002534 0.021646 -0.004096 0.007027
# 5 -0.000178 0.002173 -0.001232 -0.004096 0.029628 -0.004573
# 6 -0.001877 -0.000914 0.001185 0.007027 -0.004573 0.023166
#
#
# Mechanical properties :
#
#
# Convention : Reuss Voigt Hill
#
# Bulk Modulus (GPa) = 79.25256 91.70496 85.47876
# Shear Modulus (GPa) = 44.89137 53.56133 49.22635
#
# Velocity S-wave (km/s) = 4.13051 4.51178 4.32535
# Velocity P-wave (km/s) = 7.27107 7.87365 7.57835
#
# Compressibility (1/GPa) = 0.01261789
#
# Stress axis : x y z
#
# Youngs Moduli (GPa) = 89.63666 157.82338 192.92181
#
# Poissons Ratio (x) = 0.37469 0.24084
# Poissons Ratio (y) = 0.21281 0.27134
# Poissons Ratio (z) = 0.11190 0.22197
#
# Static dielectric constant tensor:
#      x y z
#    x 2.158680 0.046210 0.003200 
#    y 0.046210 2.091580 -0.007060 
#    z 0.003200 -0.007060 2.082800 
# 
# From -- ./inp_files/424750.got.cif
#   From: 2010.05.17/outbox.cif.g08.bks.cpg/sg2_213_cif.got.tgz:424750.got - 2010.06.03 11:33:40.
