data_PCOD9032014
_publ_section_title
;
Structure prediction by ZEFSAII (Michael W. Deem and Ramdas Pophale) SiO2 
 PCOD9032014
Probable space group: P -1
;
_chemical_formula_sum "Si O2"
_cell_formula_units_Z 16
_cell_length_a 10.692152
_cell_length_b 15.799857
_cell_length_c 10.211595
_cell_angle_alpha 35.159765
_cell_angle_beta 120.963374
_cell_angle_gamma 99.521741
_cell_volume 729.263035
_symmetry_space_group_name_H-M "P -1"
_symmetry_group_IT_number 2
_symmetry_cell_setting 'triclinic'
loop_
_space_group_symop_operation_xyz
x,y,z
-x,-y,-z
loop_
_atom_site_type_symbol
_atom_site_label
_atom_site_fract_x
_atom_site_fract_y
_atom_site_fract_z
Si Si1 0.486910 0.257580 0.325949
Si Si2 0.985319 0.137839 0.713698
Si Si3 0.862197 0.500388 0.825656
Si Si4 0.667630 0.905164 0.959667
Si Si5 0.676762 0.827081 0.453135
Si Si6 0.003432 0.866356 0.569739
Si Si7 0.150351 0.473187 0.517807
Si Si8 0.325557 0.580945 0.661285
O O1 0.322783 0.266476 0.291281
O O2 0.570413 0.322074 0.398934
O O3 0.619175 0.054868 0.635861
O O4 0.442980 0.386511 0.020755
O O5 0.969484 0.092876 0.614452
O O6 0.823336 0.318876 0.438068
O O7 0.157973 0.139844 0.819506
O O8 0.000000 0.000000 0.000000
O O9 0.703088 0.689417 0.530880
O O10 0.905818 0.485386 0.715177
O O11 0.000000 0.500000 0.000000
O O12 0.855780 0.332537 0.071901
O O13 0.508717 0.003316 0.848060
O O14 0.703872 0.727930 0.145082
O O15 0.824406 0.870487 0.473654
O O16 0.000000 0.000000 0.500000
O O17 0.231357 0.581684 0.478131
O O18 0.000000 0.500000 0.500000
#
# Coordination Sequence:
#
# PCOD9032014 Si02
#       8
#     2   2   2   2   2   2   2   2
#     4   9  22  44  69  96 137 193 225 284 351 425
#     4  12  23  43  72  97 138 182 230 284 351 420
#     4  10  23  45  69  97 140 193 224 277 364 424
#     4  10  22  43  69 105 131 190 226 292 351 408
#     4   9  21  46  70  91 138 185 234 265 353 427
#     4  11  26  42  70 105 137 179 234 291 352 417
#     4  12  26  38  70 109 143 174 241 300 340 413
#     4  11  23  43  67 103 143 184 237 281 357 412
#
# _framework density 21.939958000000001
#
# number of rings (size 3 to 8) (size 9 to 14) (size 15 to 20)
#    0.750    0.750    2.500    2.250    5.250    2.500 
#    6.750    0.625    0.000    0.000    0.000    0.000 
#    0.000    0.000    0.000    0.000    0.000    0.000 
#
# Total GULP energy -89292.845903 kJ/mol
# GULP energy per Si atom -5580.802869 kJ/mol
# Density = 2.189002 g / cm^3
# Si number density = 21.939958 Si / 1000 Ang^3
#
#
#
# Elastic Constant Matrix: (Units=GPa)
#
#
# Indices 1 2 3 4 5 6 
#
# 1 80.8966 38.2913 24.0732 0.1363 4.4296 -7.3686
# 2 38.2913 150.6360 36.6822 -4.0578 -2.0433 -4.5692
# 3 24.0732 36.6822 94.7888 -12.2182 -4.6179 -6.3014
# 4 0.1363 -4.0578 -12.2182 33.4679 -5.8523 0.7935
# 5 4.4296 -2.0433 -4.6179 -5.8523 36.2892 -4.4226
# 6 -7.3686 -4.5692 -6.3014 0.7935 -4.4226 30.3304
#
#
#
# Elastic Compliance Matrix: (Units=1/GPa)
#
#
# Indices 1 2 3 4 5 6 
#
# 1 0.015035 -0.003152 -0.002814 -0.001946 -0.002405 0.002293
# 2 -0.003152 0.007999 -0.002227 0.000274 0.000603 0.000057
# 3 -0.002814 -0.002227 0.013041 0.004966 0.002920 0.001986
# 4 -0.001946 0.000274 0.004966 0.032812 0.006256 0.000654
# 5 -0.002405 0.000603 0.002920 0.006256 0.029788 0.004293
# 6 0.002293 0.000057 0.001986 0.000654 0.004293 0.034558
#
#
# Mechanical properties :
#
#
# Convention : Reuss Voigt Hill
#
# Bulk Modulus (GPa) = 50.78933 58.26831 54.52882
# Shear Modulus (GPa) = 32.01439 35.16916 33.59177
#
# Velocity S-wave (km/s) = 3.82407 4.00806 3.91714
# Velocity P-wave (km/s) = 6.53433 6.93074 6.73545
#
# Compressibility (1/GPa) = 0.01968918
#
# Stress axis : x y z
#
# Youngs Moduli (GPa) = 66.51289 125.01152 76.68409
#
# Poissons Ratio (x) = 0.39403 0.21579
# Poissons Ratio (y) = 0.20965 0.17075
# Poissons Ratio (z) = 0.18717 0.27835
#
# Static dielectric constant tensor:
#      x y z
#    x 1.826920 -0.007540 -0.000160 
#    y -0.007540 1.789800 0.003000 
#    z -0.000160 0.003000 1.909340 
# 
# From -- ./inp_files/271587.got.cif
#   From: 2010.05.17/outbox.cif.g08.bks.cpg/sg2_136_cif.got.tgz:271587.got - 2010.06.03 11:33:40.
