data_PCOD9032686
_publ_section_title
;
Structure prediction by ZEFSAII (Michael W. Deem and Ramdas Pophale) SiO2 
 PCOD9032686
Probable space group: P -1
;
_chemical_formula_sum "Si O2"
_cell_formula_units_Z 13
_cell_length_a 6.633899
_cell_length_b 9.011313
_cell_length_c 15.930848
_cell_angle_alpha 145.178175
_cell_angle_beta 93.719825
_cell_angle_gamma 79.029802
_cell_volume 526.743414
_symmetry_space_group_name_H-M "P -1"
_symmetry_group_IT_number 2
_symmetry_cell_setting 'triclinic'
loop_
_space_group_symop_operation_xyz
x,y,z
-x,-y,-z
loop_
_atom_site_type_symbol
_atom_site_label
_atom_site_fract_x
_atom_site_fract_y
_atom_site_fract_z
Si Si1 0.000000 0.500000 0.500000
Si Si2 0.170573 0.918280 0.063823
Si Si3 0.387935 0.364242 0.749845
Si Si4 0.654005 0.656513 0.796811
Si Si5 0.494885 0.812200 0.159062
Si Si6 0.934817 0.762785 0.440521
Si Si7 0.740284 0.164934 0.243114
O O1 0.069227 0.271643 0.475420
O O2 0.818892 0.354099 0.397894
O O3 0.283134 0.959538 0.174359
O O4 0.297146 0.052191 0.062056
O O5 0.211026 0.607273 0.898450
O O6 0.932910 0.062987 0.137738
O O7 0.576720 0.502525 0.798748
O O8 0.473502 0.149809 0.724322
O O9 0.279619 0.262259 0.621039
O O10 0.872957 0.486627 0.691414
O O11 0.468870 0.681061 0.736676
O O12 0.680077 0.908391 0.163359
O O13 0.500000 0.500000 0.000000
O O14 0.000000 0.000000 0.500000
#
# Coordination Sequence:
#
# PCOD9032686 Si02
#       7
#     1   2   2   2   2   2   2
#     4  12  24  50  70  98 146 188 246 284 358 424
#     4  10  22  43  73 104 139 186 233 289 366 424
#     4  11  23  43  67 107 144 178 234 298 355 427
#     4  11  23  45  68 103 138 180 237 293 359 426
#     4   9  22  40  66 104 140 183 232 289 361 421
#     4  12  28  48  70 106 141 194 241 296 360 425
#     4  11  23  45  70 102 141 191 237 294 355 434
#
# _framework density 24.679946999999999
#
# number of rings (size 3 to 8) (size 9 to 14) (size 15 to 20)
#    0.000    1.231    3.077    1.385    0.000   12.308 
#    2.769    0.000    0.000    0.000    0.000    0.000 
#    0.000    0.000    0.000    0.000    0.000    0.000 
#
# Total GULP energy -72410.440185 kJ/mol
# GULP energy per Si atom -5570.033860 kJ/mol
# Density = 2.462377 g / cm^3
# Si number density = 24.679947 Si / 1000 Ang^3
#
#
#
# Elastic Constant Matrix: (Units=GPa)
#
#
# Indices 1 2 3 4 5 6 
#
# 1 122.0282 66.5349 31.6518 -2.8386 26.4970 -6.5305
# 2 66.5349 167.3992 33.3780 -11.7218 37.8732 7.6585
# 3 31.6518 33.3780 49.0962 -7.3632 34.8944 -2.7071
# 4 -2.8386 -11.7218 -7.3632 44.0835 -1.4150 25.8282
# 5 26.4970 37.8732 34.8944 -1.4150 48.3257 0.6729
# 6 -6.5305 7.6585 -2.7071 25.8282 0.6729 56.9375
#
#
#
# Elastic Compliance Matrix: (Units=1/GPa)
#
#
# Indices 1 2 3 4 5 6 
#
# 1 0.011815 -0.004067 -0.005554 -0.002976 0.000591 0.002981
# 2 -0.004067 0.009088 0.000462 0.004101 -0.005058 -0.003468
# 3 -0.005554 0.000462 0.046400 0.007408 -0.030583 -0.001492
# 4 -0.002976 0.004101 0.007408 0.033933 -0.005717 -0.015866
# 5 0.000591 -0.005058 -0.030583 -0.005717 0.046229 0.001341
# 6 0.002981 -0.003468 -0.001492 -0.015866 0.001341 0.025482
#
#
# Mechanical properties :
#
#
# Convention : Reuss Voigt Hill
#
# Bulk Modulus (GPa) = 20.41451 66.85034 43.63243
# Shear Modulus (GPa) = 24.08561 43.66660 33.87610
#
# Velocity S-wave (km/s) = 3.12736 4.21089 3.70890
# Velocity P-wave (km/s) = 4.61846 7.12656 6.00491
#
# Compressibility (1/GPa) = 0.04898476
#
# Stress axis : x y z
#
# Youngs Moduli (GPa) = 84.63865 110.03247 21.55191
#
# Poissons Ratio (x) = 0.44751 0.11970
# Poissons Ratio (y) = 0.34423 -0.00996
# Poissons Ratio (z) = 0.47007 -0.05083
#
# Static dielectric constant tensor:
#      x y z
#    x 1.909860 0.006180 -0.044510 
#    y 0.006180 2.070300 0.009450 
#    z -0.044510 0.009450 2.036560 
# 
# From -- ./inp_files/23471.got.cif
#   From: 2010.05.17/outbox.cif.g08.bks.cpg/sg2_12_cif.got.tgz:23471.got - 2010.06.03 11:33:40.
