data_PCOD9032681
_publ_section_title
;
Structure prediction by ZEFSAII (Michael W. Deem and Ramdas Pophale) SiO2 
 PCOD9032681
Probable space group: P -1
;
_chemical_formula_sum "Si O2"
_cell_formula_units_Z 14
_cell_length_a 11.216900
_cell_length_b 15.189226
_cell_length_c 8.268904
_cell_angle_alpha 131.295681
_cell_angle_beta 122.324668
_cell_angle_gamma 29.995904
_cell_volume 526.617712
_symmetry_space_group_name_H-M "P -1"
_symmetry_group_IT_number 2
_symmetry_cell_setting 'triclinic'
loop_
_space_group_symop_operation_xyz
x,y,z
-x,-y,-z
loop_
_atom_site_type_symbol
_atom_site_label
_atom_site_fract_x
_atom_site_fract_y
_atom_site_fract_z
Si Si1 0.424352 0.784935 0.077832
Si Si2 0.754946 0.480225 0.687189
Si Si3 0.743006 0.885595 0.102368
Si Si4 0.739100 0.899620 0.488516
Si Si5 0.366587 0.550822 0.769224
Si Si6 0.894791 0.191348 0.712511
Si Si7 0.881145 0.488463 0.274215
O O1 0.225056 0.012942 0.261798
O O2 0.625462 0.677919 0.231514
O O3 0.581697 0.685642 0.905941
O O4 0.328294 0.716202 0.926236
O O5 0.620571 0.512319 0.478720
O O6 0.828441 0.330118 0.690513
O O7 0.016411 0.340340 0.637248
O O8 0.877750 0.906375 0.149121
O O9 0.693610 0.955659 0.335189
O O10 0.935303 0.657562 0.916756
O O11 0.500000 0.000000 0.000000
O O12 0.500000 0.000000 0.500000
O O13 0.634924 0.352253 0.797620
O O14 0.179725 0.591279 0.770831
O O15 0.000000 0.000000 0.500000
O O16 0.000000 0.500000 0.500000
#
# Coordination Sequence:
#
# PCOD9032681 Si02
#       7
#     2   2   2   2   2   2   2
#     4  11  23  48  74  98 145 189 240 301 357 431
#     4  10  24  48  71 107 145 187 242 299 360 432
#     4  11  25  46  63 102 145 177 244 295 349 429
#     4  11  26  45  70 104 146 186 238 299 368 428
#     4  11  25  46  75 107 144 192 246 293 370 429
#     4  10  22  43  73 103 140 186 240 297 353 421
#     4  12  26  42  72 106 140 193 239 295 360 434
#
# _framework density 26.584751000000001
#
# number of rings (size 3 to 8) (size 9 to 14) (size 15 to 20)
#    0.000    1.143    4.286    3.000   10.000    2.286 
#    2.571    0.000    0.000    0.000    0.000    0.000 
#    0.000    0.000    0.000    0.000    0.000    0.000 
#
# Total GULP energy -78213.740581 kJ/mol
# GULP energy per Si atom -5586.695756 kJ/mol
# Density = 2.652424 g / cm^3
# Si number density = 26.584751 Si / 1000 Ang^3
#
#
#
# Elastic Constant Matrix: (Units=GPa)
#
#
# Indices 1 2 3 4 5 6 
#
# 1 118.3133 44.7245 71.8345 11.1050 -5.5036 -47.4128
# 2 44.7245 86.6498 44.9311 1.0415 8.1390 -29.8860
# 3 71.8345 44.9311 223.7819 18.0866 3.9810 -22.8259
# 4 11.1050 1.0415 18.0866 57.2162 -11.8318 7.7157
# 5 -5.5036 8.1390 3.9810 -11.8318 59.5165 -4.9655
# 6 -47.4128 -29.8860 -22.8259 7.7157 -4.9655 44.6232
#
#
#
# Elastic Compliance Matrix: (Units=1/GPa)
#
#
# Indices 1 2 3 4 5 6 
#
# 1 0.019372 -0.001954 -0.003629 -0.004462 0.002959 0.018519
# 2 -0.001954 0.016373 -0.001754 -0.000806 -0.001801 0.007931
# 3 -0.003629 -0.001754 0.005888 -0.001042 -0.000858 -0.001934
# 4 -0.004462 -0.000806 -0.001042 0.020545 0.003099 -0.009022
# 5 0.002959 -0.001801 -0.000858 0.003099 0.018245 0.002994
# 6 0.018519 0.007931 -0.001934 -0.009022 0.002994 0.048302
#
#
# Mechanical properties :
#
#
# Convention : Reuss Voigt Hill
#
# Bulk Modulus (GPa) = 37.09389 83.52503 60.30946
# Shear Modulus (GPa) = 32.81146 50.08816 41.44981
#
# Velocity S-wave (km/s) = 3.51696 4.34532 3.95290
# Velocity P-wave (km/s) = 5.52045 7.52744 6.60067
#
# Compressibility (1/GPa) = 0.02695862
#
# Stress axis : x y z
#
# Youngs Moduli (GPa) = 51.62105 61.07517 169.83969
#
# Poissons Ratio (x) = 0.11935 0.61637
# Poissons Ratio (y) = 0.10088 0.29789
# Poissons Ratio (z) = 0.18734 0.10712
#
# Static dielectric constant tensor:
#      x y z
#    x 2.245590 0.000550 -0.133230 
#    y 0.000550 2.166970 0.015360 
#    z -0.133230 0.015360 2.321310 
# 
# From -- ./inp_files/280159.got.cif
#   From: 2010.05.17/outbox.cif.g08.bks.cpg/sg2_141_cif.got.tgz:280159.got - 2010.06.03 11:33:40.
