data_PCOD9032903
_publ_section_title
;
Structure prediction by ZEFSAII (Michael W. Deem and Ramdas Pophale) SiO2 
 PCOD9032903
Probable space group: P -1
;
_chemical_formula_sum "Si O2"
_cell_formula_units_Z 16
_cell_length_a 14.193358
_cell_length_b 9.019476
_cell_length_c 7.631174
_cell_angle_alpha 137.684108
_cell_angle_beta 74.558974
_cell_angle_gamma 88.321277
_cell_volume 594.188854
_symmetry_space_group_name_H-M "P -1"
_symmetry_group_IT_number 2
_symmetry_cell_setting 'triclinic'
loop_
_space_group_symop_operation_xyz
x,y,z
-x,-y,-z
loop_
_atom_site_type_symbol
_atom_site_label
_atom_site_fract_x
_atom_site_fract_y
_atom_site_fract_z
Si Si1 0.378478 0.195956 0.365661
Si Si2 0.435911 0.503471 0.362448
Si Si3 0.209765 0.056299 0.179025
Si Si4 0.444225 0.145473 0.822347
Si Si5 0.077234 0.780643 0.169290
Si Si6 0.258702 0.492530 0.015682
Si Si7 0.077172 0.566653 0.645105
Si Si8 0.227223 0.819818 0.622765
O O1 0.368803 0.346567 0.326940
O O2 0.319734 0.019452 0.185228
O O3 0.497513 0.053418 0.235713
O O4 0.325751 0.380152 0.709199
O O5 0.500000 0.500000 0.500000
O O6 0.347851 0.737746 0.555226
O O7 0.488686 0.353214 0.037286
O O8 0.146598 0.324725 0.491086
O O9 0.166554 0.868123 0.120134
O O10 0.190671 0.043003 0.966925
O O11 0.500000 0.000000 0.500000
O O12 0.324903 0.291070 0.946409
O O13 0.138872 0.558758 0.067419
O O14 0.022857 0.729568 0.978080
O O15 0.000000 0.000000 0.500000
O O16 0.245550 0.740138 0.340083
O O17 0.150448 0.681058 0.603294
O O18 0.000000 0.500000 0.500000
#
# Coordination Sequence:
#
# PCOD9032903 Si02
#       8
#     2   2   2   2   2   2   2   2
#     4  11  20  43  67  96 135 179 226 269 335 401
#     4  11  21  40  65  95 135 177 223 276 326 399
#     4  11  23  44  69  95 134 180 220 274 336 394
#     4   9  21  38  64  95 129 176 221 269 328 394
#     4  11  26  44  68  99 134 176 223 276 338 398
#     4  10  22  44  62  95 139 168 216 283 325 396
#     4  11  25  44  69  98 130 176 226 281 332 398
#     4  10  23  42  65  98 134 172 224 278 333 392
#
# _framework density 26.927465999999999
#
# number of rings (size 3 to 8) (size 9 to 14) (size 15 to 20)
#    0.000    1.500    2.500    1.875    3.500    2.500 
#    0.000   13.750    0.000    0.000    0.000    0.000 
#    0.000    0.000    0.000    0.000    0.000    0.000 
#
# Total GULP energy -89145.442616 kJ/mol
# GULP energy per Si atom -5571.590164 kJ/mol
# Density = 2.686618 g / cm^3
# Si number density = 26.927466 Si / 1000 Ang^3
#
#
#
# Elastic Constant Matrix: (Units=GPa)
#
#
# Indices 1 2 3 4 5 6 
#
# 1 133.3360 33.2337 39.4456 -16.5822 23.8609 -24.3004
# 2 33.2337 86.6926 18.5506 -17.1518 2.2759 -22.4156
# 3 39.4456 18.5506 192.3974 -43.0480 3.7141 -14.6521
# 4 -16.5822 -17.1518 -43.0480 38.1425 -18.1435 10.3683
# 5 23.8609 2.2759 3.7141 -18.1435 49.7534 7.3120
# 6 -24.3004 -22.4156 -14.6521 10.3683 7.3120 44.7684
#
#
#
# Elastic Compliance Matrix: (Units=1/GPa)
#
#
# Indices 1 2 3 4 5 6 
#
# 1 0.010690 -0.002739 -0.002277 -0.004167 -0.007207 0.005828
# 2 -0.002739 0.014705 0.000824 0.006222 0.002210 0.004344
# 3 -0.002277 0.000824 0.007795 0.010799 0.004635 -0.001530
# 4 -0.004167 0.006222 0.010799 0.052912 0.021884 -0.011440
# 5 -0.007207 0.002210 0.004635 0.021884 0.032811 -0.011716
# 6 0.005828 0.004344 -0.001530 -0.011440 -0.011716 0.031738
#
#
# Mechanical properties :
#
#
# Convention : Reuss Voigt Hill
#
# Bulk Modulus (GPa) = 40.31222 66.09842 53.20532
# Shear Modulus (GPa) = 29.88593 47.94594 38.91594
#
# Velocity S-wave (km/s) = 3.33508 4.22424 3.80572
# Velocity P-wave (km/s) = 5.46201 6.95647 6.25404
#
# Compressibility (1/GPa) = 0.02480637
#
# Stress axis : x y z
#
# Youngs Moduli (GPa) = 93.54650 68.00501 128.28366
#
# Poissons Ratio (x) = 0.18626 0.29208
# Poissons Ratio (y) = 0.25622 -0.10571
# Poissons Ratio (z) = 0.21299 -0.05604
#
# Static dielectric constant tensor:
#      x y z
#    x 2.192940 0.049210 0.082030 
#    y 0.049210 2.133860 0.011560 
#    z 0.082030 0.011560 2.429650 
# 
# From -- ./inp_files/308944.got.cif
#   From: 2010.05.17/outbox.cif.g08.bks.cpg/sg2_155_cif.got.tgz:308944.got - 2010.06.03 11:33:40.
