data_PCOD9032140
_publ_section_title
;
Structure prediction by ZEFSAII (Michael W. Deem and Ramdas Pophale) SiO2 
 PCOD9032140
Probable space group: P -1
;
_chemical_formula_sum "Si O2"
_cell_formula_units_Z 11
_cell_length_a 5.071438
_cell_length_b 11.339754
_cell_length_c 11.818455
_cell_angle_alpha 48.714226
_cell_angle_beta 88.427440
_cell_angle_gamma 114.405653
_cell_volume 417.979461
_symmetry_space_group_name_H-M "P -1"
_symmetry_group_IT_number 2
_symmetry_cell_setting 'triclinic'
loop_
_space_group_symop_operation_xyz
x,y,z
-x,-y,-z
loop_
_atom_site_type_symbol
_atom_site_label
_atom_site_fract_x
_atom_site_fract_y
_atom_site_fract_z
Si Si1 0.294110 0.086357 0.099818
Si Si2 0.519223 0.843997 0.299473
Si Si3 0.375054 0.625062 0.886926
Si Si4 0.000000 0.500000 0.500000
Si Si5 0.727060 0.701485 0.242429
Si Si6 0.648580 0.890024 0.523633
O O1 0.421087 0.185318 0.156454
O O2 0.508558 0.003809 0.127598
O O3 0.328250 0.243423 0.913485
O O4 0.920167 0.906981 0.185529
O O5 0.411198 0.640289 0.358968
O O6 0.685141 0.901723 0.381621
O O7 0.138529 0.710514 0.432792
O O8 0.442674 0.684890 0.717577
O O9 0.500000 0.500000 0.000000
O O10 0.000000 0.500000 0.000000
O O11 0.876458 0.587800 0.331143
O O12 0.500000 0.000000 0.500000
O O13 0.000000 0.000000 0.500000
#
# Coordination Sequence:
#
# PCOD9032140 Si02
#       6
#     2   2   2   1   2   2
#     4  10  23  43  68  98 136 190 239 294 362 439
#     4  11  23  42  70  97 141 180 248 292 366 432
#     4  12  28  48  71 110 150 193 243 304 367 434
#     4  10  24  40  62 106 130 178 234 302 368 422
#     4  10  22  43  69  98 137 183 237 303 365 427
#     4  12  26  48  77 106 144 198 248 300 365 441
#
# _framework density 26.317080000000001
#
# number of rings (size 3 to 8) (size 9 to 14) (size 15 to 20)
#    0.000    1.091    1.818    3.273    7.636    1.455 
#    0.000    0.000    0.000    0.000    0.000    0.000 
#    0.000    0.000    0.000    0.000    0.000    0.000 
#
# Total GULP energy -61305.520309 kJ/mol
# GULP energy per Si atom -5573.229119 kJ/mol
# Density = 2.625718 g / cm^3
# Si number density = 26.317080 Si / 1000 Ang^3
#
#
#
# Elastic Constant Matrix: (Units=GPa)
#
#
# Indices 1 2 3 4 5 6 
#
# 1 189.0590 20.7841 44.3515 -1.1942 28.4117 21.6609
# 2 20.7841 107.6194 9.2116 25.5293 3.8829 28.8956
# 3 44.3515 9.2116 156.4107 24.8879 30.4738 11.2826
# 4 -1.1942 25.5293 24.8879 54.2489 6.2953 2.9413
# 5 28.4117 3.8829 30.4738 6.2953 68.2984 -16.0535
# 6 21.6609 28.8956 11.2826 2.9413 -16.0535 47.8440
#
#
#
# Elastic Compliance Matrix: (Units=1/GPa)
#
#
# Indices 1 2 3 4 5 6 
#
# 1 0.006497 -0.000435 -0.001185 0.001444 -0.003112 -0.003532
# 2 -0.000435 0.013088 0.001456 -0.006062 -0.002669 -0.008573
# 3 -0.001185 0.001456 0.008210 -0.003875 -0.003664 -0.003270
# 4 0.001444 -0.006062 -0.003875 0.022968 -0.000059 0.002489
# 5 -0.003112 -0.002669 -0.003664 -0.000059 0.020239 0.010680
# 6 -0.003532 -0.008573 -0.003270 0.002489 0.010680 0.031880
#
#
# Mechanical properties :
#
#
# Convention : Reuss Voigt Hill
#
# Bulk Modulus (GPa) = 36.40979 66.86486 51.63732
# Shear Modulus (GPa) = 44.49753 59.32773 51.91263
#
# Velocity S-wave (km/s) = 4.11642 4.75314 4.44620
# Velocity P-wave (km/s) = 6.03807 7.45558 6.78395
#
# Compressibility (1/GPa) = 0.02746514
#
# Stress axis : x y z
#
# Youngs Moduli (GPa) = 153.92254 76.40762 121.79950
#
# Poissons Ratio (x) = 0.03325 0.14436
# Poissons Ratio (y) = 0.06698 -0.17729
# Poissons Ratio (z) = 0.18243 -0.11122
#
# Static dielectric constant tensor:
#      x y z
#    x 2.387530 -0.060830 -0.179560 
#    y -0.060830 2.236030 -0.030690 
#    z -0.179560 -0.030690 2.120530 
# 
# From -- ./inp_files/21117.got.cif
#   From: 2010.05.17/outbox.cif.g08.bks.cpg/sg2_11_cif.got.tgz:21117.got - 2010.06.03 11:33:40.
