data_PCOD9032840
_publ_section_title
;
Structure prediction by ZEFSAII (Michael W. Deem and Ramdas Pophale) SiO2 
 PCOD9032840
Probable space group: P -1
;
_chemical_formula_sum "Si O2"
_cell_formula_units_Z 10
_cell_length_a 9.843276
_cell_length_b 12.311703
_cell_length_c 5.231260
_cell_angle_alpha 70.894369
_cell_angle_beta 107.886090
_cell_angle_gamma 143.974412
_cell_volume 351.297314
_symmetry_space_group_name_H-M "P -1"
_symmetry_group_IT_number 2
_symmetry_cell_setting 'triclinic'
loop_
_space_group_symop_operation_xyz
x,y,z
-x,-y,-z
loop_
_atom_site_type_symbol
_atom_site_label
_atom_site_fract_x
_atom_site_fract_y
_atom_site_fract_z
Si Si1 0.161775 0.030389 0.877532
Si Si2 0.560621 0.466964 0.812234
Si Si3 0.963022 0.234685 0.323767
Si Si4 0.774214 0.417481 0.532087
Si Si5 0.575610 0.179850 0.124256
O O1 0.383991 0.251943 0.822880
O O2 0.295318 0.997605 0.076531
O O3 0.073236 0.923720 0.635917
O O4 0.000000 0.000000 0.000000
O O5 0.500000 0.500000 0.500000
O O6 0.834446 0.611730 0.888301
O O7 0.500000 0.500000 0.000000
O O8 0.128703 0.392014 0.519549
O O9 0.724936 0.156936 0.265557
O O10 0.696607 0.306049 0.837234
O O11 0.000000 0.500000 0.500000
O O12 0.598709 0.274930 0.316466
#
# Coordination Sequence:
#
# PCOD9032840 Si02
#       5
#     2   2   2   2   2
#     4  12  27  51  79 117 155 204 259 317 383 462
#     4  12  29  51  77 109 157 205 251 316 387 455
#     4  11  24  48  82 110 153 197 258 315 379 446
#     4  10  22  43  77 109 153 195 245 310 387 446
#     4  11  25  49  75 116 151 200 251 317 382 452
#
# _framework density 28.465921000000002
#
# number of rings (size 3 to 8) (size 9 to 14) (size 15 to 20)
#    0.000    0.800    4.000    3.000    2.800    2.400 
#    3.600    5.000    0.000    0.000    0.000    0.000 
#    0.000    0.000    0.000    0.000    0.000    0.000 
#
# Total GULP energy -55729.837757 kJ/mol
# GULP energy per Si atom -5572.983776 kJ/mol
# Density = 2.840113 g / cm^3
# Si number density = 28.465921 Si / 1000 Ang^3
#
#
#
# Elastic Constant Matrix: (Units=GPa)
#
#
# Indices 1 2 3 4 5 6 
#
# 1 230.0558 60.6370 40.1714 14.4262 -36.4664 14.7733
# 2 60.6370 111.8763 13.6424 11.7842 -4.6159 -19.2630
# 3 40.1714 13.6424 162.5767 0.8306 -27.0935 -35.0715
# 4 14.4262 11.7842 0.8306 41.7933 -13.1079 -20.8985
# 5 -36.4664 -4.6159 -27.0935 -13.1079 57.3703 24.8691
# 6 14.7733 -19.2630 -35.0715 -20.8985 24.8691 68.7181
#
#
#
# Elastic Compliance Matrix: (Units=1/GPa)
#
#
# Indices 1 2 3 4 5 6 
#
# 1 0.007339 -0.004363 -0.001936 -0.002841 0.005655 -0.006699
# 2 -0.004363 0.012122 0.000693 -0.000159 -0.004174 0.006152
# 3 -0.001936 0.000693 0.007853 0.003254 0.001004 0.005245
# 4 -0.002841 -0.000159 0.003254 0.030989 0.002073 0.010901
# 5 0.005655 -0.004174 0.001004 0.002073 0.026302 -0.010761
# 6 -0.006699 0.006152 0.005245 0.010901 -0.010761 0.027604
#
#
# Mechanical properties :
#
#
# Convention : Reuss Voigt Hill
#
# Bulk Modulus (GPa) = 62.09514 81.49003 71.79258
# Shear Modulus (GPa) = 38.82321 59.58020 49.20170
#
# Velocity S-wave (km/s) = 3.69704 4.57993 4.16196
# Velocity P-wave (km/s) = 6.33130 7.52709 6.95494
#
# Compressibility (1/GPa) = 0.01610432
#
# Stress axis : x y z
#
# Youngs Moduli (GPa) = 136.24973 82.49216 127.33675
#
# Poissons Ratio (x) = 0.35990 0.24649
# Poissons Ratio (y) = 0.59444 -0.08827
# Poissons Ratio (z) = 0.26374 -0.05719
#
# Static dielectric constant tensor:
#      x y z
#    x 2.583550 -0.202040 0.087290 
#    y -0.202040 2.411900 -0.002990 
#    z 0.087290 -0.002990 2.535590 
# 
# From -- ./inp_files/77886.got.cif
#   From: 2010.05.17/outbox.cif.g08.bks.cpg/sg2_39_cif.got.tgz:77886.got - 2010.06.03 11:33:40.
