data_PCOD9032775
_publ_section_title
;
Structure prediction by ZEFSAII (Michael W. Deem and Ramdas Pophale) SiO2 
 PCOD9032775
Probable space group: P -1
;
_chemical_formula_sum "Si O2"
_cell_formula_units_Z 13
_cell_length_a 8.696029
_cell_length_b 15.837504
_cell_length_c 5.257110
_cell_angle_alpha 112.070044
_cell_angle_beta 88.103636
_cell_angle_gamma 50.453412
_cell_volume 478.349757
_symmetry_space_group_name_H-M "P -1"
_symmetry_group_IT_number 2
_symmetry_cell_setting 'triclinic'
loop_
_space_group_symop_operation_xyz
x,y,z
-x,-y,-z
loop_
_atom_site_type_symbol
_atom_site_label
_atom_site_fract_x
_atom_site_fract_y
_atom_site_fract_z
Si Si1 0.366759 0.121884 0.961525
Si Si2 0.320847 0.442561 0.313950
Si Si3 0.503761 0.207793 0.735988
Si Si4 0.830348 0.631749 0.417910
Si Si5 0.500000 0.500000 0.000000
Si Si6 0.075587 0.775994 0.105040
Si Si7 0.863095 0.134323 0.295603
O O1 0.545358 0.096678 0.745758
O O2 0.164460 0.160205 0.874947
O O3 0.260847 0.251987 0.261761
O O4 0.500000 0.000000 0.000000
O O5 0.281188 0.420808 0.574793
O O6 0.388667 0.510894 0.282673
O O7 0.083061 0.522816 0.305788
O O8 0.491160 0.302177 0.017511
O O9 0.257092 0.300090 0.766472
O O10 0.648729 0.171212 0.446334
O O11 0.255602 0.631910 0.044020
O O12 0.056680 0.857021 0.430496
O O13 0.150795 0.784355 0.833226
O O14 0.000000 0.000000 0.000000
#
# Coordination Sequence:
#
# PCOD9032775 Si02
#       7
#     2   2   2   2   1   2   2
#     4  11  29  51  81 121 169 222 287 353 414 507
#     4  10  22  43  74 117 155 215 266 347 409 513
#     4  11  24  49  79 111 163 221 279 342 429 496
#     4  10  23  45  76 112 162 216 280 330 427 496
#     4  12  24  48  82 124 176 202 282 356 430 496
#     4  12  30  55  85 129 167 223 283 354 434 492
#     4  12  30  57  86 119 173 227 288 346 424 519
#
# _framework density 27.176766000000001
#
# number of rings (size 3 to 8) (size 9 to 14) (size 15 to 20)
#    0.000    0.923    1.538    2.769    8.615    4.923 
#    0.000    0.769    0.000    0.000    0.000    0.000 
#    0.000    0.000    0.000    0.000    0.000    0.000 
#
# Total GULP energy -72453.116226 kJ/mol
# GULP energy per Si atom -5573.316633 kJ/mol
# Density = 2.711491 g / cm^3
# Si number density = 27.176766 Si / 1000 Ang^3
#
#
#
# Elastic Constant Matrix: (Units=GPa)
#
#
# Indices 1 2 3 4 5 6 
#
# 1 112.7171 71.0242 69.6022 -8.0961 -3.8691 -6.2007
# 2 71.0242 182.7870 68.0560 -15.0523 -14.7291 12.8697
# 3 69.6022 68.0560 147.1880 -1.2751 -12.4258 11.4569
# 4 -8.0961 -15.0523 -1.2751 58.0792 -3.3752 -15.1520
# 5 -3.8691 -14.7291 -12.4258 -3.3752 42.2734 -10.1585
# 6 -6.2007 12.8697 11.4569 -15.1520 -10.1585 47.0549
#
#
#
# Elastic Compliance Matrix: (Units=1/GPa)
#
#
# Indices 1 2 3 4 5 6 
#
# 1 0.015487 -0.004030 -0.005872 0.002346 -0.000258 0.005272
# 2 -0.004030 0.007931 -0.001486 0.001136 0.001661 -0.001614
# 3 -0.005872 -0.001486 0.010592 -0.001758 0.001133 -0.003268
# 4 0.002346 0.001136 -0.001758 0.019995 0.003523 0.007625
# 5 -0.000258 0.001661 0.001133 0.003523 0.026277 0.006043
# 6 0.005272 -0.001614 -0.003268 0.007625 0.006043 0.026944
#
#
# Mechanical properties :
#
#
# Convention : Reuss Voigt Hill
#
# Bulk Modulus (GPa) = 89.00850 95.56188 92.28519
# Shear Modulus (GPa) = 37.38440 45.08214 41.23327
#
# Velocity S-wave (km/s) = 3.71293 4.07732 3.89938
# Velocity P-wave (km/s) = 7.15569 7.57664 7.36917
#
# Compressibility (1/GPa) = 0.01123488
#
# Stress axis : x y z
#
# Youngs Moduli (GPa) = 64.57163 126.08726 94.40768
#
# Poissons Ratio (x) = 0.50816 0.55434
# Poissons Ratio (y) = 0.26024 0.14025
# Poissons Ratio (z) = 0.37915 0.18732
#
# Static dielectric constant tensor:
#      x y z
#    x 2.216770 0.032610 0.034420 
#    y 0.032610 2.162530 -0.033580 
#    z 0.034420 -0.033580 2.146510 
# 
# From -- ./inp_files/35810.got.cif
#   From: 2010.05.17/outbox.cif.g08.bks.cpg/sg2_18_cif.got.tgz:35810.got - 2010.06.03 11:33:40.
