data_PCOD9032945
_publ_section_title
;
Structure prediction by ZEFSAII (Michael W. Deem and Ramdas Pophale) SiO2 
 PCOD9032945
Probable space group: P -1
;
_chemical_formula_sum "Si O2"
_cell_formula_units_Z 16
_cell_length_a 14.720074
_cell_length_b 8.538222
_cell_length_c 11.468776
_cell_angle_alpha 81.762068
_cell_angle_beta 149.044337
_cell_angle_gamma 87.459853
_cell_volume 693.080785
_symmetry_space_group_name_H-M "P -1"
_symmetry_group_IT_number 2
_symmetry_cell_setting 'triclinic'
loop_
_space_group_symop_operation_xyz
x,y,z
-x,-y,-z
loop_
_atom_site_type_symbol
_atom_site_label
_atom_site_fract_x
_atom_site_fract_y
_atom_site_fract_z
Si Si1 0.466648 0.355601 0.402492
Si Si2 0.440165 0.577719 0.136936
Si Si3 0.596054 0.046177 0.304343
Si Si4 0.254131 0.364600 0.844715
Si Si5 0.945042 0.098753 0.808379
Si Si6 0.784244 0.696641 0.438691
Si Si7 0.673357 0.116322 0.844713
Si Si8 0.066958 0.401738 0.884144
O O1 0.500000 0.500000 0.500000
O O2 0.494431 0.412681 0.296807
O O3 0.598962 0.189968 0.627129
O O4 0.250928 0.365450 0.169096
O O5 0.617841 0.617647 0.279992
O O6 0.338668 0.733020 0.094320
O O7 0.311034 0.532418 0.903379
O O8 0.700324 0.893231 0.349211
O O9 0.468785 0.973977 0.255529
O O10 0.757138 0.086098 0.548663
O O11 0.448925 0.208477 0.066633
O O12 0.145782 0.348801 0.610683
O O13 0.146171 0.350909 0.845694
O O14 0.946983 0.287654 0.804050
O O15 0.000000 0.000000 0.000000
O O16 0.118035 0.006857 0.923406
O O17 0.942786 0.596311 0.715696
#
# Coordination Sequence:
#
# PCOD9032945 Si02
#       8
#     2   2   2   2   2   2   2   2
#     4   9  20  38  65  90 126 173 204 261 336 383
#     4   9  21  39  67  93 129 169 219 272 324 395
#     4  11  25  44  67  99 136 174 220 277 328 395
#     4  11  22  44  69  91 134 178 218 280 336 378
#     4  12  27  41  69 100 136 176 223 265 333 403
#     4  11  24  42  67  98 128 176 228 273 330 391
#     4  10  22  44  63  99 137 174 212 274 335 390
#     4  11  24  42  65  99 134 167 228 276 320 401
#
# _framework density 23.085331
#
# number of rings (size 3 to 8) (size 9 to 14) (size 15 to 20)
#    0.000    1.500    1.250    2.625   10.500    1.000 
#    0.000    3.125    0.000    0.000    0.000    0.000 
#    0.000    0.000    0.000    0.000    0.000    0.000 
#
# Total GULP energy -89497.832285 kJ/mol
# GULP energy per Si atom -5593.614518 kJ/mol
# Density = 2.303279 g / cm^3
# Si number density = 23.085331 Si / 1000 Ang^3
#
#
#
# Elastic Constant Matrix: (Units=GPa)
#
#
# Indices 1 2 3 4 5 6 
#
# 1 43.0814 10.7458 -1.4001 9.5673 7.7375 -8.4658
# 2 10.7458 88.2254 50.2965 14.4146 9.7607 5.1034
# 3 -1.4001 50.2965 107.3371 0.6017 6.7659 -2.9553
# 4 9.5673 14.4146 0.6017 37.2103 -1.2228 8.5392
# 5 7.7375 9.7607 6.7659 -1.2228 30.0702 1.3366
# 6 -8.4658 5.1034 -2.9553 8.5392 1.3366 27.4644
#
#
#
# Elastic Compliance Matrix: (Units=1/GPa)
#
#
# Indices 1 2 3 4 5 6 
#
# 1 0.030748 -0.003790 0.003150 -0.009986 -0.008420 0.014036
# 2 -0.003790 0.017922 -0.008330 -0.005092 -0.003012 -0.003665
# 3 0.003150 -0.008330 0.013431 0.001331 -0.001235 0.003610
# 4 -0.009986 -0.005092 0.001331 0.034576 0.005908 -0.013027
# 5 -0.008420 -0.003012 -0.001235 0.005908 0.037177 -0.005815
# 6 0.014036 -0.003665 0.003610 -0.013027 -0.005815 0.046140
#
#
# Mechanical properties :
#
#
# Convention : Reuss Voigt Hill
#
# Bulk Modulus (GPa) = 22.64422 39.76981 31.20701
# Shear Modulus (GPa) = 23.51248 30.88241 27.19745
#
# Velocity S-wave (km/s) = 3.19486 3.66150 3.43611
# Velocity P-wave (km/s) = 4.84146 5.92791 5.41202
#
# Compressibility (1/GPa) = 0.04416138
#
# Stress axis : x y z
#
# Youngs Moduli (GPa) = 32.52283 55.79682 74.45667
#
# Poissons Ratio (x) = 0.21144 -0.23454
# Poissons Ratio (y) = 0.12325 0.62022
# Poissons Ratio (z) = -0.10245 0.46479
#
# Static dielectric constant tensor:
#      x y z
#    x 1.895580 -0.030080 -0.007080 
#    y -0.030080 1.856330 -0.025380 
#    z -0.007080 -0.025380 1.874820 
# 
# From -- ./inp_files/447396.got.cif
#   From: 2010.05.17/outbox.cif.g08.bks.cpg/sg2_224_cif.got.tgz:447396.got - 2010.06.03 11:33:40.
