data_PCOD9032354
_publ_section_title
;
Structure prediction by ZEFSAII (Michael W. Deem and Ramdas Pophale) SiO2 
 PCOD9032354
Probable space group: P -1
;
_chemical_formula_sum "Si O2"
_cell_formula_units_Z 12
_cell_length_a 15.219411
_cell_length_b 15.296688
_cell_length_c 7.394364
_cell_angle_alpha 110.016699
_cell_angle_beta 63.953079
_cell_angle_gamma 161.282169
_cell_volume 479.882184
_symmetry_space_group_name_H-M "P -1"
_symmetry_group_IT_number 2
_symmetry_cell_setting 'triclinic'
loop_
_space_group_symop_operation_xyz
x,y,z
-x,-y,-z
loop_
_atom_site_type_symbol
_atom_site_label
_atom_site_fract_x
_atom_site_fract_y
_atom_site_fract_z
Si Si1 0.737387 0.293640 0.463926
Si Si2 0.920116 0.645725 0.500777
Si Si3 0.409823 0.434038 0.825267
Si Si4 0.385159 0.600340 0.785201
Si Si5 0.553389 0.144736 0.149500
Si Si6 0.038152 0.945046 0.612559
O O1 0.701605 0.372159 0.588143
O O2 0.000000 0.500000 0.500000
O O3 0.500000 0.000000 0.500000
O O4 0.791443 0.344103 0.235004
O O5 0.792755 0.556239 0.354052
O O6 0.247191 0.896625 0.355306
O O7 0.950008 0.769003 0.665930
O O8 0.297088 0.435152 0.873299
O O9 0.188099 0.155961 0.755454
O O10 0.500000 0.500000 0.000000
O O11 0.733020 0.707239 0.633643
O O12 0.719248 0.874826 0.619263
O O13 0.374759 0.699410 0.924999
O O14 0.500000 0.000000 0.000000
#
# Coordination Sequence:
#
# PCOD9032354 Si02
#       6
#     2   2   2   2   2   2
#     4  11  22  42  67  97 133 172 227 282 334 399
#     4  10  22  43  70  99 129 181 236 262 334 419
#     4  12  26  43  66 105 141 170 220 292 345 387
#     4  10  23  42  72  96 130 186 235 264 332 422
#     4  10  23  44  69 100 138 179 229 285 338 403
#     4  11  23  44  71  94 134 181 228 267 330 420
#
# _framework density 25.006139999999998
#
# number of rings (size 3 to 8) (size 9 to 14) (size 15 to 20)
#    0.000    1.333    3.333    1.500    4.667    2.667 
#    6.000    0.000    0.000    0.000    0.000    0.000 
#    0.000    0.000    0.000    0.000    0.000    0.000 
#
# Total GULP energy -67039.051995 kJ/mol
# GULP energy per Si atom -5586.587666 kJ/mol
# Density = 2.494922 g / cm^3
# Si number density = 25.006140 Si / 1000 Ang^3
#
#
#
# Elastic Constant Matrix: (Units=GPa)
#
#
# Indices 1 2 3 4 5 6 
#
# 1 244.0471 79.3478 72.2437 50.9390 -18.0597 -48.0044
# 2 79.3478 165.1090 30.6760 50.3397 -15.1587 -22.8282
# 3 72.2437 30.6760 69.2974 19.7709 -15.5263 -21.7925
# 4 50.9390 50.3397 19.7709 41.5068 -12.4045 -23.3229
# 5 -18.0597 -15.1587 -15.5263 -12.4045 35.8884 17.4859
# 6 -48.0044 -22.8282 -21.7925 -23.3229 17.4859 68.7702
#
#
#
# Elastic Compliance Matrix: (Units=1/GPa)
#
#
# Indices 1 2 3 4 5 6 
#
# 1 0.007267 -0.000962 -0.005651 -0.004514 -0.001657 0.001853
# 2 -0.000962 0.009885 -0.000553 -0.011286 0.000262 -0.001460
# 3 -0.005651 -0.000553 0.022451 -0.000628 0.005784 0.001303
# 4 -0.004514 -0.011286 -0.000628 0.050103 0.005919 0.008391
# 5 -0.001657 0.000262 0.005784 0.005919 0.034629 -0.006035
# 6 0.001853 -0.001460 0.001303 0.008391 -0.006035 0.020143
#
#
# Mechanical properties :
#
#
# Convention : Reuss Voigt Hill
#
# Bulk Modulus (GPa) = 39.57076 93.66540 66.61808
# Shear Modulus (GPa) = 29.89793 48.97882 39.43837
#
# Velocity S-wave (km/s) = 3.46153 4.43049 3.97564
# Velocity P-wave (km/s) = 5.64225 7.98189 6.91179
#
# Compressibility (1/GPa) = 0.02527118
#
# Stress axis : x y z
#
# Youngs Moduli (GPa) = 137.60169 101.16255 44.54070
#
# Poissons Ratio (x) = 0.09735 0.25170
# Poissons Ratio (y) = 0.13241 0.02463
# Poissons Ratio (z) = 0.77759 0.05594
#
# Static dielectric constant tensor:
#      x y z
#    x 2.069530 -0.059920 -0.049140 
#    y -0.059920 2.116700 -0.100080 
#    z -0.049140 -0.100080 2.186450 
# 
# From -- ./inp_files/133257.got.cif
#   From: 2010.05.17/outbox.cif.g08.bks.cpg/sg2_67_cif.got.tgz:133257.got - 2010.06.03 11:33:40.
