data_PCOD9032577
_publ_section_title
;
Structure prediction by ZEFSAII (Michael W. Deem and Ramdas Pophale) SiO2 
 PCOD9032577
Probable space group: P -1
;
_chemical_formula_sum "Si O2"
_cell_formula_units_Z 12
_cell_length_a 7.531990
_cell_length_b 9.662958
_cell_length_c 11.378596
_cell_angle_alpha 71.291169
_cell_angle_beta 143.004774
_cell_angle_gamma 95.533090
_cell_volume 453.082388
_symmetry_space_group_name_H-M "P -1"
_symmetry_group_IT_number 2
_symmetry_cell_setting 'triclinic'
loop_
_space_group_symop_operation_xyz
x,y,z
-x,-y,-z
loop_
_atom_site_type_symbol
_atom_site_label
_atom_site_fract_x
_atom_site_fract_y
_atom_site_fract_z
Si Si1 0.203002 0.439846 0.844252
Si Si2 0.242053 0.138154 0.388031
Si Si3 0.639660 0.001751 0.828544
Si Si4 0.578310 0.188146 0.952884
Si Si5 0.348615 0.314656 0.190555
Si Si6 0.422784 0.455339 0.608442
O O1 0.312190 0.284709 0.869452
O O2 0.925616 0.547520 0.598342
O O3 0.500000 0.500000 0.000000
O O4 0.128679 0.408902 0.948267
O O5 0.208242 0.278730 0.246832
O O6 0.500000 0.000000 0.500000
O O7 0.413733 0.138233 0.598929
O O8 0.896574 0.131026 0.209283
O O9 0.557703 0.850098 0.780967
O O10 0.557900 0.043711 0.907029
O O11 0.000000 0.000000 0.000000
O O12 0.594680 0.310007 0.821083
O O13 0.575310 0.405152 0.338527
O O14 0.500000 0.500000 0.500000
#
# Coordination Sequence:
#
# PCOD9032577 Si02
#       6
#     2   2   2   2   2   2
#     4  12  29  48  71 109 157 188 242 306 368 432
#     4  10  22  43  72 104 143 184 245 297 352 430
#     4  11  24  44  75 110 147 189 245 305 363 432
#     4  12  25  45  75 104 148 195 239 300 372 421
#     4  11  25  45  74 106 147 188 248 295 364 431
#     4  12  28  46  79 107 142 197 255 296 358 439
#
# _framework density 26.485249
#
# number of rings (size 3 to 8) (size 9 to 14) (size 15 to 20)
#    0.000    0.667    5.000    2.500    7.000    2.000 
#    0.000    4.167    0.000    0.000    0.000    0.000 
#    0.000    0.000    0.000    0.000    0.000    0.000 
#
# Total GULP energy -66937.693045 kJ/mol
# GULP energy per Si atom -5578.141087 kJ/mol
# Density = 2.642497 g / cm^3
# Si number density = 26.485249 Si / 1000 Ang^3
#
#
#
# Elastic Constant Matrix: (Units=GPa)
#
#
# Indices 1 2 3 4 5 6 
#
# 1 83.7326 33.2218 50.6552 0.3487 -28.5862 -15.1093
# 2 33.2218 142.4229 38.5877 12.2223 1.4036 -39.5482
# 3 50.6552 38.5877 247.2048 7.1125 -7.7064 -12.2937
# 4 0.3487 12.2223 7.1125 49.6032 -8.7390 -1.6334
# 5 -28.5862 1.4036 -7.7064 -8.7390 52.5885 2.4977
# 6 -15.1093 -39.5482 -12.2937 -1.6334 2.4977 47.9070
#
#
#
# Elastic Compliance Matrix: (Units=1/GPa)
#
#
# Indices 1 2 3 4 5 6 
#
# 1 0.019033 -0.003443 -0.003029 0.003047 0.010408 0.001944
# 2 -0.003443 0.010268 -0.000550 -0.002719 -0.003025 0.007314
# 3 -0.003029 -0.000550 0.004731 -0.000712 -0.001049 -0.000164
# 4 0.003047 -0.002719 -0.000712 0.021811 0.005296 -0.000999
# 5 0.010408 -0.003025 -0.001049 0.005296 0.025510 -0.000634
# 6 0.001944 0.007314 -0.000164 -0.000999 -0.000634 0.027482
#
#
# Mechanical properties :
#
#
# Convention : Reuss Voigt Hill
#
# Bulk Modulus (GPa) = 50.02946 79.80995 64.91970
# Shear Modulus (GPa) = 38.59800 53.41277 46.00538
#
# Velocity S-wave (km/s) = 3.82165 4.49564 4.17228
# Velocity P-wave (km/s) = 6.19709 7.55955 6.91197
#
# Compressibility (1/GPa) = 0.01998822
#
# Stress axis : x y z
#
# Youngs Moduli (GPa) = 52.54118 97.39450 211.35798
#
# Poissons Ratio (x) = 0.33533 0.64022
# Poissons Ratio (y) = 0.18090 0.11615
# Poissons Ratio (z) = 0.15915 0.05352
#
# Static dielectric constant tensor:
#      x y z
#    x 2.174000 0.121280 -0.032980 
#    y 0.121280 2.243940 -0.022650 
#    z -0.032980 -0.022650 2.023540 
# 
# From -- ./inp_files/389887.got.cif
#   From: 2010.05.17/outbox.cif.g08.bks.cpg/sg2_195_cif.got.tgz:389887.got - 2010.06.03 11:33:40.
