data_PCOD9032460
_publ_section_title
;
Structure prediction by ZEFSAII (Michael W. Deem and Ramdas Pophale) SiO2 
 PCOD9032460
Probable space group: P -1
;
_chemical_formula_sum "Si O2"
_cell_formula_units_Z 12
_cell_length_a 14.241755
_cell_length_b 14.020135
_cell_length_c 7.939007
_cell_angle_alpha 128.482803
_cell_angle_beta 106.650664
_cell_angle_gamma 30.470101
_cell_volume 489.012442
_symmetry_space_group_name_H-M "P -1"
_symmetry_group_IT_number 2
_symmetry_cell_setting 'triclinic'
loop_
_space_group_symop_operation_xyz
x,y,z
-x,-y,-z
loop_
_atom_site_type_symbol
_atom_site_label
_atom_site_fract_x
_atom_site_fract_y
_atom_site_fract_z
Si Si1 0.464359 0.897895 0.401184
Si Si2 0.139494 0.747135 0.171618
Si Si3 0.225642 0.973327 0.938301
Si Si4 0.548063 0.763585 0.691788
Si Si5 0.020544 0.585940 0.472050
Si Si6 0.720351 0.312220 0.163478
O O1 0.482882 0.863787 0.575123
O O2 0.500000 0.000000 0.500000
O O3 0.198149 0.169497 0.499915
O O4 0.663016 0.586270 0.066780
O O5 0.282109 0.663246 0.010167
O O6 0.000000 0.000000 0.500000
O O7 0.910748 0.935640 0.184073
O O8 0.337346 0.975124 0.945349
O O9 0.374982 0.706533 0.831130
O O10 0.012592 0.253544 0.260349
O O11 0.619716 0.538547 0.465880
O O12 0.722759 0.669390 0.750650
O O13 0.000000 0.500000 0.500000
O O14 0.000000 0.000000 0.000000
#
# Coordination Sequence:
#
# PCOD9032460 Si02
#       6
#     2   2   2   2   2   2
#     4  11  23  48  73 101 143 192 237 299 360 427
#     4  10  22  43  71 108 147 186 241 297 361 425
#     4  11  23  44  69 100 143 189 235 296 358 430
#     4  11  23  44  71 102 143 184 243 293 359 426
#     4  12  24  46  73  99 144 189 242 301 355 426
#     4   9  18  40  68  92 142 184 224 292 353 414
#
# _framework density 24.539252000000001
#
# number of rings (size 3 to 8) (size 9 to 14) (size 15 to 20)
#    0.000    1.333    6.667    0.500    0.000    6.000 
#    3.000    5.000    0.000    3.000    0.000    0.000 
#    0.000    0.000    0.000    0.000    0.000    0.000 
#
# Total GULP energy -66904.074056 kJ/mol
# GULP energy per Si atom -5575.339505 kJ/mol
# Density = 2.448340 g / cm^3
# Si number density = 24.539252 Si / 1000 Ang^3
#
#
#
# Elastic Constant Matrix: (Units=GPa)
#
#
# Indices 1 2 3 4 5 6 
#
# 1 197.6972 54.1900 32.4999 10.7125 5.8628 -2.3180
# 2 54.1900 115.6398 22.4572 17.3450 11.6983 -17.4828
# 3 32.4999 22.4572 126.3847 14.1226 19.4419 1.4006
# 4 10.7125 17.3450 14.1226 25.2757 -2.9702 6.3869
# 5 5.8628 11.6983 19.4419 -2.9702 33.1905 5.0225
# 6 -2.3180 -17.4828 1.4006 6.3869 5.0225 48.9124
#
#
#
# Elastic Compliance Matrix: (Units=1/GPa)
#
#
# Indices 1 2 3 4 5 6 
#
# 1 0.005976 -0.002832 -0.001189 0.000377 0.000798 -0.000826
# 2 -0.002832 0.013072 0.000467 -0.010423 -0.006302 0.006533
# 3 -0.001189 0.000467 0.009835 -0.006412 -0.006491 0.001333
# 4 0.000377 -0.010423 -0.006412 0.054864 0.014109 -0.012137
# 5 0.000798 -0.006302 -0.006491 0.014109 0.038458 -0.007820
# 6 -0.000826 0.006533 0.001333 -0.012137 -0.007820 0.025090
#
#
# Mechanical properties :
#
#
# Convention : Reuss Voigt Hill
#
# Bulk Modulus (GPa) = 45.92192 73.11287 59.51739
# Shear Modulus (GPa) = 30.92863 43.51402 37.22132
#
# Velocity S-wave (km/s) = 3.55403 4.21556 3.89885
# Velocity P-wave (km/s) = 5.96622 7.31802 6.67642
#
# Compressibility (1/GPa) = 0.02177609
#
# Stress axis : x y z
#
# Youngs Moduli (GPa) = 167.33156 76.49687 101.67328
#
# Poissons Ratio (x) = 0.21662 0.12093
# Poissons Ratio (y) = 0.47384 -0.04750
# Poissons Ratio (z) = 0.19902 -0.03574
#
# Static dielectric constant tensor:
#      x y z
#    x 2.114990 -0.074650 -0.205420 
#    y -0.074650 2.164890 0.199360 
#    z -0.205420 0.199360 2.208130 
# 
# From -- ./inp_files/315939.got.cif
#   From: 2010.05.17/outbox.cif.g08.bks.cpg/sg2_158_cif.got.tgz:315939.got - 2010.06.03 11:33:40.
