data_PCOD9032385
_publ_section_title
;
Structure prediction by ZEFSAII (Michael W. Deem and Ramdas Pophale) SiO2 
 PCOD9032385
Probable space group: P -1
;
_chemical_formula_sum "Si O2"
_cell_formula_units_Z 14
_cell_length_a 7.419266
_cell_length_b 18.239147
_cell_length_c 7.797535
_cell_angle_alpha 139.840433
_cell_angle_beta 98.331904
_cell_angle_gamma 106.397479
_cell_volume 530.429066
_symmetry_space_group_name_H-M "P -1"
_symmetry_group_IT_number 2
_symmetry_cell_setting 'triclinic'
loop_
_space_group_symop_operation_xyz
x,y,z
-x,-y,-z
loop_
_atom_site_type_symbol
_atom_site_label
_atom_site_fract_x
_atom_site_fract_y
_atom_site_fract_z
Si Si1 0.487252 0.359817 0.737902
Si Si2 0.020135 0.851518 0.058081
Si Si3 0.191959 0.711911 0.259634
Si Si4 0.537253 0.732148 0.822290
Si Si5 0.860548 0.558295 0.629510
Si Si6 0.366422 0.995964 0.670236
Si Si7 0.031750 0.849818 0.668706
O O1 0.701463 0.371382 0.864300
O O2 0.483540 0.315942 0.462315
O O3 0.237167 0.234667 0.559472
O O4 0.500000 0.500000 0.000000
O O5 0.235731 0.939259 0.370375
O O6 0.070029 0.904709 0.965510
O O7 0.807491 0.835613 0.088760
O O8 0.911625 0.682425 0.735718
O O9 0.394568 0.874762 0.510610
O O10 0.101265 0.742009 0.470043
O O11 0.973468 0.636717 0.967899
O O12 0.399129 0.586920 0.652985
O O13 0.455442 0.831497 0.005781
O O14 0.000000 0.500000 0.500000
O O15 0.198066 0.965349 0.753317
#
# Coordination Sequence:
#
# PCOD9032385 Si02
#       7
#     2   2   2   2   2   2   2
#     4  11  24  38  70 108 136 186 235 287 350 417
#     4  10  22  43  71 100 139 185 234 289 349 420
#     4   9  23  46  69  98 147 179 230 295 343 416
#     4  11  24  42  71 102 141 181 240 290 348 424
#     4  11  25  41  66 100 139 187 230 289 356 407
#     4   9  22  47  71 102 140 188 228 293 354 413
#     4   9  22  44  73 101 140 182 235 279 360 410
#
# _framework density 26.393727999999999
#
# number of rings (size 3 to 8) (size 9 to 14) (size 15 to 20)
#    0.857    1.143    0.000    1.714    6.000    5.143 
#    0.000    5.714    0.000    0.000    0.000    0.000 
#    0.000    0.000    0.000    0.000    0.000    0.000 
#
# Total GULP energy -78308.294885 kJ/mol
# GULP energy per Si atom -5593.449635 kJ/mol
# Density = 2.633365 g / cm^3
# Si number density = 26.393728 Si / 1000 Ang^3
#
#
#
# Elastic Constant Matrix: (Units=GPa)
#
#
# Indices 1 2 3 4 5 6 
#
# 1 99.3724 17.6936 20.5951 6.8766 -15.5772 -6.1006
# 2 17.6936 70.1214 23.9685 13.6170 -6.4416 11.8167
# 3 20.5951 23.9685 97.8453 18.3996 -21.5273 -6.2671
# 4 6.8766 13.6170 18.3996 50.9085 -7.6983 -7.4895
# 5 -15.5772 -6.4416 -21.5273 -7.6983 53.5777 7.8554
# 6 -6.1006 11.8167 -6.2671 -7.4895 7.8554 38.6709
#
#
#
# Elastic Compliance Matrix: (Units=1/GPa)
#
#
# Indices 1 2 3 4 5 6 
#
# 1 0.011221 -0.002610 -0.001148 0.000225 0.002231 0.001972
# 2 -0.002610 0.018253 -0.003480 -0.004296 0.000519 -0.007491
# 3 -0.001148 -0.003480 0.012754 -0.002713 0.003738 0.001664
# 4 0.000225 -0.004296 -0.002713 0.022638 0.000964 0.005097
# 5 0.002231 0.000519 0.003738 0.000964 0.021512 -0.003384
# 6 0.001972 -0.007491 0.001664 0.005097 -0.003384 0.030404
#
#
# Mechanical properties :
#
#
# Convention : Reuss Voigt Hill
#
# Bulk Modulus (GPa) = 36.03294 43.53928 39.78611
# Shear Modulus (GPa) = 35.58527 42.30354 38.94441
#
# Velocity S-wave (km/s) = 3.67583 4.00783 3.84541
# Velocity P-wave (km/s) = 5.63004 6.16026 5.90111
#
# Compressibility (1/GPa) = 0.02775238
#
# Stress axis : x y z
#
# Youngs Moduli (GPa) = 89.11910 54.78486 78.40942
#
# Poissons Ratio (x) = 0.14300 0.08999
# Poissons Ratio (y) = 0.23262 0.27285
# Poissons Ratio (z) = 0.10228 0.19064
#
# Static dielectric constant tensor:
#      x y z
#    x 2.166230 -0.007200 0.049560 
#    y -0.007200 2.055210 0.016060 
#    z 0.049560 0.016060 2.090530 
# 
# From -- ./inp_files/222622.got.cif
#   From: 2010.05.17/outbox.cif.g08.bks.cpg/sg2_112_cif.got.tgz:222622.got - 2010.06.03 11:33:40.
