data_PCOD9032624
_publ_section_title
;
Structure prediction by ZEFSAII (Michael W. Deem and Ramdas Pophale) SiO2 
 PCOD9032624
Probable space group: P -1
;
_chemical_formula_sum "Si O2"
_cell_formula_units_Z 14
_cell_length_a 15.572291
_cell_length_b 16.267353
_cell_length_c 9.759532
_cell_angle_alpha 142.161959
_cell_angle_beta 37.325313
_cell_angle_gamma 153.749962
_cell_volume 635.426774
_symmetry_space_group_name_H-M "P -1"
_symmetry_group_IT_number 2
_symmetry_cell_setting 'triclinic'
loop_
_space_group_symop_operation_xyz
x,y,z
-x,-y,-z
loop_
_atom_site_type_symbol
_atom_site_label
_atom_site_fract_x
_atom_site_fract_y
_atom_site_fract_z
Si Si1 0.207881 0.562036 0.211925
Si Si2 0.356709 0.532723 0.721219
Si Si3 0.990370 0.885251 0.482678
Si Si4 0.176066 0.194546 0.120561
Si Si5 0.454974 0.120872 0.264876
Si Si6 0.959566 0.278679 0.383470
Si Si7 0.540364 0.827104 0.356668
O O1 0.081542 0.597986 0.355199
O O2 0.352862 0.724943 0.359184
O O3 0.056515 0.357228 0.212462
O O4 0.344427 0.585884 0.957181
O O5 0.500000 0.500000 0.500000
O O6 0.133284 0.327029 0.693591
O O7 0.433331 0.696052 0.733267
O O8 0.866669 0.858128 0.734825
O O9 0.000000 0.000000 0.500000
O O10 0.214130 0.993139 0.389844
O O11 0.126331 0.314941 0.310720
O O12 0.384684 0.273396 0.904663
O O13 0.000000 0.000000 0.000000
O O14 0.512112 0.182392 0.431902
O O15 0.500000 0.000000 0.000000
O O16 0.742045 0.054256 0.367466
#
# Coordination Sequence:
#
# PCOD9032624 Si02
#       7
#     2   2   2   2   2   2   2
#     4  11  26  43  69 102 136 179 230 286 339 417
#     4  12  28  44  72 107 143 186 239 282 360 428
#     4  12  26  48  73 101 146 188 230 297 355 414
#     4  10  22  43  72  97 132 177 236 278 338 415
#     4  12  28  48  70 107 145 185 235 294 357 418
#     4  10  23  43  69  99 135 173 233 281 347 396
#     4  11  24  44  73  97 135 181 233 283 341 412
#
# _framework density 22.032437000000002
#
# number of rings (size 3 to 8) (size 9 to 14) (size 15 to 20)
#    0.000    0.857    4.286    2.143    8.000    3.429 
#    0.000    0.000    0.000    0.000    0.000    0.000 
#    0.000    0.000    0.000    0.000    0.000    0.000 
#
# Total GULP energy -78325.644895 kJ/mol
# GULP energy per Si atom -5594.688921 kJ/mol
# Density = 2.198229 g / cm^3
# Si number density = 22.032437 Si / 1000 Ang^3
#
#
#
# Elastic Constant Matrix: (Units=GPa)
#
#
# Indices 1 2 3 4 5 6 
#
# 1 85.9641 26.5369 77.9634 3.9954 8.1919 -25.6389
# 2 26.5369 117.1627 32.5099 1.3820 13.5325 -28.1837
# 3 77.9634 32.5099 156.0597 -21.9158 8.5567 -32.1940
# 4 3.9954 1.3820 -21.9158 25.2927 -1.3480 1.6341
# 5 8.1919 13.5325 8.5567 -1.3480 47.3795 2.6112
# 6 -25.6389 -28.1837 -32.1940 1.6341 2.6112 44.3731
#
#
#
# Elastic Compliance Matrix: (Units=1/GPa)
#
#
# Indices 1 2 3 4 5 6 
#
# 1 0.028662 -0.000177 -0.015455 -0.018462 -0.002975 0.006090
# 2 -0.000177 0.010757 -0.000947 -0.001963 -0.003274 0.006308
# 3 -0.015455 -0.000947 0.017218 0.017273 0.000197 0.002313
# 4 -0.018462 -0.001963 0.017273 0.057760 0.002367 -0.001648
# 5 -0.002975 -0.003274 0.000197 0.002367 0.022868 -0.005088
# 6 0.006090 0.006308 0.002313 -0.001648 -0.005088 0.032100
#
#
# Mechanical properties :
#
#
# Convention : Reuss Voigt Hill
#
# Bulk Modulus (GPa) = 42.59246 70.35631 56.47439
# Shear Modulus (GPa) = 23.76997 38.22082 30.99540
#
# Velocity S-wave (km/s) = 3.28817 4.16955 3.75481
# Velocity P-wave (km/s) = 5.81289 7.42850 6.66980
#
# Compressibility (1/GPa) = 0.02347833
#
# Stress axis : x y z
#
# Youngs Moduli (GPa) = 34.88942 92.96542 58.07832
#
# Poissons Ratio (x) = 0.01645 0.89760
# Poissons Ratio (y) = 0.00618 0.05502
# Poissons Ratio (z) = 0.53922 0.08806
#
# Static dielectric constant tensor:
#      x y z
#    x 1.733350 0.007790 0.013880 
#    y 0.007790 1.827310 -0.008390 
#    z 0.013880 -0.008390 1.797600 
# 
# From -- ./inp_files/261911.got.cif
#   From: 2010.05.17/outbox.cif.g08.bks.cpg/sg2_131_cif.got.tgz:261911.got - 2010.06.03 11:33:40.
