data_PCOD9032657
_publ_section_title
;
Structure prediction by ZEFSAII (Michael W. Deem and Ramdas Pophale) SiO2 
 PCOD9032657
Probable space group: P -1
;
_chemical_formula_sum "Si O2"
_cell_formula_units_Z 14
_cell_length_a 9.056707
_cell_length_b 9.334831
_cell_length_c 16.402658
_cell_angle_alpha 108.793742
_cell_angle_beta 29.419987
_cell_angle_gamma 118.435917
_cell_volume 585.059510
_symmetry_space_group_name_H-M "P -1"
_symmetry_group_IT_number 2
_symmetry_cell_setting 'triclinic'
loop_
_space_group_symop_operation_xyz
x,y,z
-x,-y,-z
loop_
_atom_site_type_symbol
_atom_site_label
_atom_site_fract_x
_atom_site_fract_y
_atom_site_fract_z
Si Si1 0.482770 0.661566 0.000098
Si Si2 0.606315 0.897602 0.679389
Si Si3 0.595444 0.416092 0.166576
Si Si4 0.303106 0.986988 0.508516
Si Si5 0.816210 0.009743 0.977889
Si Si6 0.000802 0.196906 0.766395
Si Si7 0.491087 0.718838 0.330282
O O1 0.753912 0.829101 0.941523
O O2 0.144982 0.686368 0.183594
O O3 0.500000 0.500000 0.000000
O O4 0.494991 0.646418 0.893838
O O5 0.525111 0.726593 0.733466
O O6 0.493016 0.887190 0.638118
O O7 0.430259 0.989677 0.834049
O O8 0.000000 0.000000 0.500000
O O9 0.441969 0.550023 0.279933
O O10 0.000000 0.500000 0.000000
O O11 0.230927 0.800296 0.478640
O O12 0.500000 0.000000 0.500000
O O13 0.021918 0.048636 0.676759
O O14 0.805975 0.866446 0.161404
O O15 0.773262 0.108475 0.937497
O O16 0.359382 0.291762 0.653975
#
# Coordination Sequence:
#
# PCOD9032657 Si02
#       7
#     2   2   2   2   2   2   2
#     4  12  25  39  72 112 144 182 248 301 358 430
#     4  12  26  43  75 103 151 196 236 292 379 430
#     4  12  23  48  71 110 145 191 243 306 356 431
#     4  10  23  44  71 106 141 188 244 301 353 430
#     4  10  22  43  73 100 142 197 242 286 365 441
#     4   9  19  44  70  94 145 185 241 284 366 418
#     4   9  21  43  75 101 139 184 246 296 354 420
#
# _framework density 23.929189999999998
#
# number of rings (size 3 to 8) (size 9 to 14) (size 15 to 20)
#    0.857    0.571    4.286    1.286    4.000    1.714 
#    0.000    6.429    0.000    0.000    0.000    0.000 
#    0.000    0.000    0.000    0.000    0.000    0.000 
#
# Total GULP energy -78144.727726 kJ/mol
# GULP energy per Si atom -5581.766266 kJ/mol
# Density = 2.387473 g / cm^3
# Si number density = 23.929190 Si / 1000 Ang^3
#
#
#
# Elastic Constant Matrix: (Units=GPa)
#
#
# Indices 1 2 3 4 5 6 
#
# 1 98.7314 62.5258 57.9933 4.5625 19.1478 -25.7663
# 2 62.5258 224.4219 70.4136 32.1736 14.4300 -27.2473
# 3 57.9933 70.4136 127.1062 19.2827 22.9590 -6.9041
# 4 4.5625 32.1736 19.2827 56.4039 -3.8289 -4.5114
# 5 19.1478 14.4300 22.9590 -3.8289 38.4872 5.1105
# 6 -25.7663 -27.2473 -6.9041 -4.5114 5.1105 47.4173
#
#
#
# Elastic Compliance Matrix: (Units=1/GPa)
#
#
# Indices 1 2 3 4 5 6 
#
# 1 0.018215 -0.002083 -0.005980 0.002066 -0.005656 0.008637
# 2 -0.002083 0.006309 -0.001896 -0.002668 -0.000735 0.002043
# 3 -0.005980 -0.001896 0.012713 -0.003236 -0.003905 -0.002375
# 4 0.002066 -0.002668 -0.003236 0.020505 0.003856 0.000653
# 5 -0.005656 -0.000735 -0.003905 0.003856 0.032744 -0.007226
# 6 0.008637 0.002043 -0.002375 0.000653 -0.007226 0.027451
#
#
# Mechanical properties :
#
#
# Convention : Reuss Voigt Hill
#
# Bulk Modulus (GPa) = 57.73619 92.45833 75.09726
# Shear Modulus (GPa) = 34.81201 45.75012 40.28107
#
# Velocity S-wave (km/s) = 3.81831 4.37727 4.10731
# Velocity P-wave (km/s) = 6.60452 8.01682 7.34470
#
# Compressibility (1/GPa) = 0.01732016
#
# Stress axis : x y z
#
# Youngs Moduli (GPa) = 54.89938 158.50599 78.65689
#
# Poissons Ratio (x) = 0.33011 0.47035
# Poissons Ratio (y) = 0.11433 0.14915
# Poissons Ratio (z) = 0.32829 0.30057
#
# Static dielectric constant tensor:
#      x y z
#    x 2.100940 0.066230 -0.038420 
#    y 0.066230 1.916880 0.010110 
#    z -0.038420 0.010110 1.942860 
# 
# From -- ./inp_files/465804.got.cif
#   From: 2010.05.17/outbox.cif.g08.bks.cpg/sg2_233_cif.got.tgz:465804.got - 2010.06.03 11:33:40.
