data_PCOD9032932
_publ_section_title
;
Structure prediction by ZEFSAII (Michael W. Deem and Ramdas Pophale) SiO2 
 PCOD9032932
Probable space group: P -1
;
_chemical_formula_sum "Si O2"
_cell_formula_units_Z 15
_cell_length_a 18.396947
_cell_length_b 5.363608
_cell_length_c 18.238061
_cell_angle_alpha 111.672777
_cell_angle_beta 25.087002
_cell_angle_gamma 98.608090
_cell_volume 626.270098
_symmetry_space_group_name_H-M "P -1"
_symmetry_group_IT_number 2
_symmetry_cell_setting 'triclinic'
loop_
_space_group_symop_operation_xyz
x,y,z
-x,-y,-z
loop_
_atom_site_type_symbol
_atom_site_label
_atom_site_fract_x
_atom_site_fract_y
_atom_site_fract_z
Si Si1 0.587517 0.858281 0.088889
Si Si2 0.968071 0.581204 0.623118
Si Si3 0.000000 0.500000 0.000000
Si Si4 0.840817 0.970030 0.495414
Si Si5 0.339377 0.971137 0.594227
Si Si6 0.884940 0.500227 0.911785
Si Si7 0.556801 0.387889 0.254566
Si Si8 0.779880 0.114649 0.152578
O O1 0.392089 0.826493 0.261624
O O2 0.499751 0.213894 0.228363
O O3 0.736415 0.689402 0.001504
O O4 0.737640 0.748287 0.872390
O O5 0.073995 0.270023 0.540499
O O6 0.000000 0.500000 0.500000
O O7 0.056725 0.813664 0.581820
O O8 0.890353 0.303320 0.055528
O O9 0.821907 0.700100 0.241702
O O10 0.914444 0.740383 0.333358
O O11 0.420120 0.741738 0.429307
O O12 0.243521 0.875692 0.738184
O O13 0.500000 0.000000 0.500000
O O14 0.769949 0.331064 0.030645
O O15 0.878765 0.759531 0.000599
O O16 0.584383 0.259253 0.298464
#
# Coordination Sequence:
#
# PCOD9032932 Si02
#       8
#     2   2   1   2   2   2   2   2
#     4  10  25  43  69 102 140 181 232 282 343 417
#     4  11  25  47  75 110 150 182 226 286 337 411
#     4  12  26  38  60  88 126 164 226 284 342 432
#     4  11  25  45  74 106 144 191 231 278 346 417
#     4  12  24  42  60  86 121 169 223 285 350 401
#     4  10  22  44  63  94 137 175 232 290 345 411
#     4  11  22  43  66  87 128 176 221 296 347 404
#     4  11  23  43  60  90 125 171 225 292 348 407
#
# _framework density 23.951326000000002
#
# number of rings (size 3 to 8) (size 9 to 14) (size 15 to 20)
#    0.000    1.067    4.000    1.200    3.733    1.067 
#    4.800    0.000    0.000    0.000    0.000    0.000 
#    0.000    0.000    0.000    0.000    0.000    0.000 
#
# Total GULP energy -83553.001260 kJ/mol
# GULP energy per Si atom -5570.200084 kJ/mol
# Density = 2.389681 g / cm^3
# Si number density = 23.951326 Si / 1000 Ang^3
#
#
#
# Elastic Constant Matrix: (Units=GPa)
#
#
# Indices 1 2 3 4 5 6 
#
# 1 -39.2242 42.8523 54.7145 -34.7617 -4.3969 -23.3342
# 2 42.8523 61.9440 -1.5758 15.7786 3.4899 9.8447
# 3 54.7145 -1.5758 161.7852 19.1533 11.3237 14.0433
# 4 -34.7617 15.7786 19.1533 15.9922 -11.5654 -11.4286
# 5 -4.3969 3.4899 11.3237 -11.5654 27.5970 -0.0282
# 6 -23.3342 9.8447 14.0433 -11.4286 -0.0282 29.2832
#
#
#
# Elastic Compliance Matrix: (Units=1/GPa)
#
#
# Indices 1 2 3 4 5 6 
#
# 1 0.001479 0.004479 0.002503 -0.015036 -0.007667 -0.007403
# 2 0.004479 0.011522 -0.002193 0.003935 0.001808 0.002285
# 3 0.002503 -0.002193 0.005053 0.001822 -0.000633 0.001019
# 4 -0.015036 0.003935 0.001822 0.026357 0.007401 -0.003885
# 5 -0.007667 0.001808 -0.000633 0.007401 0.038143 -0.003488
# 6 -0.007403 0.002285 0.001019 -0.003885 -0.003488 0.025474
#
#
# Mechanical properties :
#
#
# Convention : Reuss Voigt Hill
#
# Bulk Modulus (GPa) = 36.19064 41.83190 39.01127
# Shear Modulus (GPa) = 46.44129 20.47541 33.45835
#
# Velocity S-wave (km/s) = 4.40817 2.92700 3.74161
# Velocity P-wave (km/s) = 6.40720 5.37833 5.91517
#
# Compressibility (1/GPa) = 0.02763145
#
# Stress axis : x y z
#
# Youngs Moduli (GPa) = 676.04282 86.79084 197.88748
#
# Poissons Ratio (x) = -0.38874 -0.49526
# Poissons Ratio (y) = -3.02801 0.43402
# Poissons Ratio (z) = -1.69194 0.19036
#
# Static dielectric constant tensor:
#      x y z
#    x 2.055020 -0.206630 -0.080830 
#    y -0.206630 2.250080 -0.006940 
#    z -0.080830 -0.006940 1.980820 
# 
# From -- ./inp_files/600711.got.cif
#   From: 2010.05.17/outbox.cif.g08.bks.cpg/sg2_301_cif.got.tgz:600711.got - 2010.06.03 11:33:40.
