data_PCOD9032968
_publ_section_title
;
Structure prediction by ZEFSAII (Michael W. Deem and Ramdas Pophale) SiO2 
 PCOD9032968
Probable space group: P -1
;
_chemical_formula_sum "Si O2"
_cell_formula_units_Z 16
_cell_length_a 7.466131
_cell_length_b 14.432091
_cell_length_c 15.141784
_cell_angle_alpha 140.430093
_cell_angle_beta 86.073443
_cell_angle_gamma 122.153728
_cell_volume 680.692671
_symmetry_space_group_name_H-M "P -1"
_symmetry_group_IT_number 2
_symmetry_cell_setting 'triclinic'
loop_
_space_group_symop_operation_xyz
x,y,z
-x,-y,-z
loop_
_atom_site_type_symbol
_atom_site_label
_atom_site_fract_x
_atom_site_fract_y
_atom_site_fract_z
Si Si1 0.941117 0.352905 0.256979
Si Si2 0.830160 0.133181 0.822347
Si Si3 0.596129 0.591828 0.664130
Si Si4 0.269228 0.284029 0.613896
Si Si5 0.370370 0.792601 0.463042
Si Si6 0.809750 0.403932 0.851460
Si Si7 0.601071 0.905980 0.837063
Si Si8 0.251666 0.218416 0.753370
O O1 0.725334 0.278001 0.280891
O O2 0.161750 0.372426 0.298332
O O3 0.108441 0.587190 0.378927
O O4 0.747660 0.138250 0.041526
O O5 0.078229 0.201965 0.817217
O O6 0.587087 0.023635 0.680117
O O7 0.692164 0.947234 0.763185
O O8 0.986948 0.359283 0.031486
O O9 0.500000 0.500000 0.500000
O O10 0.377357 0.436575 0.637710
O O11 0.681182 0.812595 0.820901
O O12 0.448966 0.245139 0.579950
O O13 0.297937 0.351223 0.763792
O O14 0.954353 0.043617 0.445568
O O15 0.269212 0.759868 0.342307
O O16 0.540175 0.320500 0.833958
O O17 0.000000 0.500000 0.000000
#
# Coordination Sequence:
#
# PCOD9032968 Si02
#       8
#     2   2   2   2   2   2   2   2
#     4  10  22  44  64  90 137 176 211 277 328 388
#     4  11  22  41  67  92 119 172 218 260 329 385
#     4  11  22  39  65 103 130 168 227 267 322 402
#     4   8  17  36  64  92 122 165 213 264 319 379
#     4   9  19  40  65  85 128 168 208 268 321 382
#     4  11  23  41  59  94 130 162 211 264 324 391
#     4  11  23  42  67  97 131 174 222 266 337 391
#     4   9  18  39  64  86 124 168 207 265 321 375
#
# _framework density 23.505468
#
# number of rings (size 3 to 8) (size 9 to 14) (size 15 to 20)
#    0.000    2.000    1.250    3.750    0.000    2.500 
#    9.000    0.000    0.000    0.000    0.000    0.000 
#    0.000    0.000    0.000    0.000    0.000    0.000 
#
# Total GULP energy -89253.095329 kJ/mol
# GULP energy per Si atom -5578.318458 kJ/mol
# Density = 2.345197 g / cm^3
# Si number density = 23.505468 Si / 1000 Ang^3
#
#
#
# Elastic Constant Matrix: (Units=GPa)
#
#
# Indices 1 2 3 4 5 6 
#
# 1 66.3006 52.3034 29.0986 8.0740 28.7551 10.6984
# 2 52.3034 193.8057 35.2413 6.7419 25.7360 20.7260
# 3 29.0986 35.2413 109.5411 12.7539 25.2343 14.2404
# 4 8.0740 6.7419 12.7539 25.8163 2.9891 4.9425
# 5 28.7551 25.7360 25.2343 2.9891 44.3559 1.9315
# 6 10.6984 20.7260 14.2404 4.9425 1.9315 26.5601
#
#
#
# Elastic Compliance Matrix: (Units=1/GPa)
#
#
# Indices 1 2 3 4 5 6 
#
# 1 0.026083 -0.004413 -0.001447 -0.003895 -0.013062 -0.004612
# 2 -0.004413 0.006881 -0.000498 0.000561 -0.000739 -0.003376
# 3 -0.001447 -0.000498 0.011849 -0.003862 -0.005067 -0.004294
# 4 -0.003895 0.000561 -0.003862 0.042436 0.001747 -0.004822
# 5 -0.013062 -0.000739 -0.005067 0.001747 0.033956 0.005761
# 6 -0.004612 -0.003376 -0.004294 -0.004822 0.005761 0.044923
#
#
# Mechanical properties :
#
#
# Convention : Reuss Voigt Hill
#
# Bulk Modulus (GPa) = 31.15483 66.99265 49.07374
# Shear Modulus (GPa) = 26.37958 36.21340 31.29649
#
# Velocity S-wave (km/s) = 3.35367 3.92935 3.65287
# Velocity P-wave (km/s) = 5.31782 7.01065 6.22207
#
# Compressibility (1/GPa) = 0.03209775
#
# Stress axis : x y z
#
# Youngs Moduli (GPa) = 38.33975 145.33067 84.39827
#
# Poissons Ratio (x) = 0.64130 0.12211
# Poissons Ratio (y) = 0.16918 0.04200
# Poissons Ratio (z) = 0.05547 0.07232
#
# Static dielectric constant tensor:
#      x y z
#    x 1.922840 -0.211170 0.091140 
#    y -0.211170 2.610940 -0.582630 
#    z 0.091140 -0.582630 2.480090 
# 
# From -- ./inp_files/505499.got.cif
#   From: 2010.05.17/outbox.cif.g08.bks.cpg/sg2_253_cif.got.tgz:505499.got - 2010.06.03 11:33:40.
