data_PCOD9032449
_publ_section_title
;
Structure prediction by ZEFSAII (Michael W. Deem and Ramdas Pophale) SiO2 
 PCOD9032449
Probable space group: P -1
;
_chemical_formula_sum "Si O2"
_cell_formula_units_Z 14
_cell_length_a 7.828404
_cell_length_b 13.962451
_cell_length_c 9.258796
_cell_angle_alpha 106.536576
_cell_angle_beta 94.664970
_cell_angle_gamma 34.485002
_cell_volume 526.937279
_symmetry_space_group_name_H-M "P -1"
_symmetry_group_IT_number 2
_symmetry_cell_setting 'triclinic'
loop_
_space_group_symop_operation_xyz
x,y,z
-x,-y,-z
loop_
_atom_site_type_symbol
_atom_site_label
_atom_site_fract_x
_atom_site_fract_y
_atom_site_fract_z
Si Si1 0.861380 0.228402 0.539184
Si Si2 0.591232 0.367340 0.266592
Si Si3 0.543586 0.900944 0.169023
Si Si4 0.322246 0.879587 0.895940
Si Si5 0.515460 0.111705 0.392003
Si Si6 0.181566 0.614958 0.953709
Si Si7 0.386953 0.313438 0.700331
O O1 0.689429 0.418247 0.635020
O O2 0.680763 0.232338 0.622032
O O3 0.212753 0.052623 0.547245
O O4 0.778001 0.249739 0.375288
O O5 0.285747 0.297344 0.545952
O O6 0.830131 0.306240 0.149904
O O7 0.471334 0.322530 0.171161
O O8 0.000000 0.000000 0.000000
O O9 0.373738 0.079287 0.303948
O O10 0.532122 0.807463 0.225307
O O11 0.446990 0.910261 0.009551
O O12 0.327270 0.910837 0.743873
O O13 0.904097 0.758788 0.110390
O O14 0.189959 0.498288 0.840914
O O15 0.500000 0.500000 0.000000
#
# Coordination Sequence:
#
# PCOD9032449 Si02
#       7
#     2   2   2   2   2   2   2
#     4  10  22  43  74 104 140 186 242 298 362 427
#     4  10  22  43  71 106 139 184 246 295 356 433
#     4  12  26  45  69 109 149 192 241 300 366 436
#     4  12  26  46  74 106 148 194 241 301 366 433
#     4  12  25  45  71 106 148 194 243 299 360 435
#     4  11  24  47  76 106 147 193 243 300 369 436
#     4  11  23  43  72 106 142 188 242 300 359 428
#
# _framework density 26.568625000000001
#
# number of rings (size 3 to 8) (size 9 to 14) (size 15 to 20)
#    0.000    0.857    1.429    6.000    2.000    1.143 
#    2.571    0.714    0.000    0.000    0.000    0.000 
#    0.000    0.000    0.000    0.000    0.000    0.000 
#
# Total GULP energy -78465.812544 kJ/mol
# GULP energy per Si atom -5604.700896 kJ/mol
# Density = 2.650815 g / cm^3
# Si number density = 26.568625 Si / 1000 Ang^3
#
#
#
# Elastic Constant Matrix: (Units=GPa)
#
#
# Indices 1 2 3 4 5 6 
#
# 1 129.3409 47.1344 37.3196 14.1802 29.7373 29.8388
# 2 47.1344 82.9040 41.3893 -5.6480 10.6825 28.0721
# 3 37.3196 41.3893 151.9073 -9.3820 18.8882 23.1454
# 4 14.1802 -5.6480 -9.3820 45.0399 20.4835 6.5407
# 5 29.7373 10.6825 18.8882 20.4835 64.4296 9.9936
# 6 29.8388 28.0721 23.1454 6.5407 9.9936 55.4775
#
#
#
# Elastic Compliance Matrix: (Units=1/GPa)
#
#
# Indices 1 2 3 4 5 6 
#
# 1 0.011316 -0.005020 -0.000860 -0.002705 -0.002915 -0.002344
# 2 -0.005020 0.018637 -0.002576 0.004494 -0.000501 -0.006095
# 3 -0.000860 -0.002576 0.008200 0.002914 -0.002259 -0.001591
# 4 -0.002705 0.004494 0.002914 0.028840 -0.008926 -0.003827
# 5 -0.002915 -0.000501 -0.002259 -0.008926 0.020428 0.000137
# 6 -0.002344 -0.006095 -0.001591 -0.003827 0.000137 0.023461
#
#
# Mechanical properties :
#
#
# Convention : Reuss Voigt Hill
#
# Bulk Modulus (GPa) = 47.07787 68.42655 57.75221
# Shear Modulus (GPa) = 37.07173 48.87664 42.97419
#
# Velocity S-wave (km/s) = 3.73945 4.29375 4.02615
# Velocity P-wave (km/s) = 6.03345 7.09875 6.58767
#
# Compressibility (1/GPa) = 0.02124140
#
# Stress axis : x y z
#
# Youngs Moduli (GPa) = 88.36737 53.65740 121.95806
#
# Poissons Ratio (x) = 0.26934 0.10488
# Poissons Ratio (y) = 0.44357 0.31417
# Poissons Ratio (z) = 0.07600 0.13823
#
# Static dielectric constant tensor:
#      x y z
#    x 2.100080 -0.015150 0.032380 
#    y -0.015150 2.079920 0.033480 
#    z 0.032380 0.033480 2.110250 
# 
# From -- ./inp_files/197191.got.cif
#   From: 2010.05.17/outbox.cif.g08.bks.cpg/sg2_99_cif.got.tgz:197191.got - 2010.06.03 11:33:40.
