data_PCOD9032862
_publ_section_title
;
Structure prediction by ZEFSAII (Michael W. Deem and Ramdas Pophale) SiO2 
 PCOD9032862
Probable space group: P -1
;
_chemical_formula_sum "Si O2"
_cell_formula_units_Z 14
_cell_length_a 6.916587
_cell_length_b 17.898091
_cell_length_c 7.309536
_cell_angle_alpha 91.898395
_cell_angle_beta 119.934105
_cell_angle_gamma 122.156433
_cell_volume 606.353758
_symmetry_space_group_name_H-M "P -1"
_symmetry_group_IT_number 2
_symmetry_cell_setting 'triclinic'
loop_
_space_group_symop_operation_xyz
x,y,z
-x,-y,-z
loop_
_atom_site_type_symbol
_atom_site_label
_atom_site_fract_x
_atom_site_fract_y
_atom_site_fract_z
Si Si1 0.828004 0.064303 0.597171
Si Si2 0.278516 0.346622 0.420326
Si Si3 0.578170 0.271488 0.704116
Si Si4 0.757536 0.334804 0.208614
Si Si5 0.082375 0.533462 0.251806
Si Si6 0.060602 0.078283 0.320606
Si Si7 0.145005 0.206704 0.054779
O O1 0.869516 0.066677 0.399235
O O2 0.500000 0.000000 0.500000
O O3 0.974325 0.017380 0.730568
O O4 0.994842 0.166502 0.786176
O O5 0.610668 0.441800 0.561171
O O6 0.336313 0.285666 0.566262
O O7 0.150304 0.287370 0.164648
O O8 0.046427 0.352081 0.394772
O O9 0.835488 0.361149 0.707576
O O10 0.398224 0.161949 0.546752
O O11 0.670472 0.291626 0.958593
O O12 0.482585 0.260497 0.194660
O O13 0.839100 0.440440 0.246406
O O14 0.000000 0.500000 0.000000
O O15 0.008857 0.117585 0.121872
#
# Coordination Sequence:
#
# PCOD9032862 Si02
#       7
#     2   2   2   2   2   2   2
#     4  11  25  41  68  90 119 166 205 258 329 379
#     4   9  21  36  60  93 125 167 212 253 303 369
#     4   8  18  37  59  88 125 159 200 262 297 358
#     4  11  19  37  67  86 131 170 204 255 316 360
#     4   8  17  36  63  87 128 172 203 257 305 360
#     4  10  22  44  60  89 130 149 212 267 305 375
#     4  11  24  40  63  97 124 163 211 258 314 382
#
# _framework density 23.088832
#
# number of rings (size 3 to 8) (size 9 to 14) (size 15 to 20)
#    0.857    1.429    1.429    0.857    2.000    3.429 
#    0.000    0.000    0.000    3.429    0.000    0.000 
#    0.000    0.000    0.000    0.000    0.000    0.000 
#
# Total GULP energy -78023.527982 kJ/mol
# GULP energy per Si atom -5573.109142 kJ/mol
# Density = 2.303628 g / cm^3
# Si number density = 23.088832 Si / 1000 Ang^3
#
#
#
# Elastic Constant Matrix: (Units=GPa)
#
#
# Indices 1 2 3 4 5 6 
#
# 1 107.8782 27.0213 25.7488 -5.1068 -6.5602 21.9655
# 2 27.0213 46.0060 -5.6325 -0.3205 1.2289 15.6295
# 3 25.7488 -5.6325 89.7751 17.1143 -18.4889 -1.4987
# 4 -5.1068 -0.3205 17.1143 28.0737 5.7635 1.8677
# 5 -6.5602 1.2289 -18.4889 5.7635 16.8029 3.8704
# 6 21.9655 15.6295 -1.4987 1.8677 3.8704 21.9264
#
#
#
# Elastic Compliance Matrix: (Units=1/GPa)
#
#
# Indices 1 2 3 4 5 6 
#
# 1 0.014904 -0.005359 -0.006336 0.007424 -0.000524 -0.012084
# 2 -0.005359 0.031259 0.005495 -0.004276 0.007151 -0.017436
# 3 -0.006336 0.005495 0.023835 -0.021971 0.030773 0.000499
# 4 0.007424 -0.004276 -0.021971 0.058836 -0.040272 -0.003794
# 5 -0.000524 0.007151 0.030773 -0.040272 0.110741 -0.018587
# 6 -0.012084 -0.017436 0.000499 -0.003794 -0.018587 0.073780
#
#
# Mechanical properties :
#
#
# Convention : Reuss Voigt Hill
#
# Bulk Modulus (GPa) = 17.36121 37.54829 27.45475
# Shear Modulus (GPa) = 14.49464 26.46206 20.47835
#
# Velocity S-wave (km/s) = 2.50827 3.38908 2.98138
# Velocity P-wave (km/s) = 3.99051 5.62248 4.87527
#
# Compressibility (1/GPa) = 0.05759968
#
# Stress axis : x y z
#
# Youngs Moduli (GPa) = 67.09482 31.99059 41.95473
#
# Poissons Ratio (x) = 0.17142 0.26582
# Poissons Ratio (y) = 0.35953 -0.23054
# Poissons Ratio (z) = 0.42510 -0.17578
#
# Static dielectric constant tensor:
#      x y z
#    x 1.824520 0.001350 -0.026650 
#    y 0.001350 1.983390 0.091180 
#    z -0.026650 0.091180 1.950590 
# 
# From -- ./inp_files/137993.got.cif
#   From: 2010.05.17/outbox.cif.g08.bks.cpg/sg2_69_cif.got.tgz:137993.got - 2010.06.03 11:33:40.
