data_PCOD9032257
_publ_section_title
;
Structure prediction by ZEFSAII (Michael W. Deem and Ramdas Pophale) SiO2 
 PCOD9032257
Probable space group: P -1
;
_chemical_formula_sum "Si O2"
_cell_formula_units_Z 14
_cell_length_a 9.146535
_cell_length_b 18.507492
_cell_length_c 13.358322
_cell_angle_alpha 38.821406
_cell_angle_beta 133.312281
_cell_angle_gamma 98.263407
_cell_volume 532.269418
_symmetry_space_group_name_H-M "P -1"
_symmetry_group_IT_number 2
_symmetry_cell_setting 'triclinic'
loop_
_space_group_symop_operation_xyz
x,y,z
-x,-y,-z
loop_
_atom_site_type_symbol
_atom_site_label
_atom_site_fract_x
_atom_site_fract_y
_atom_site_fract_z
Si Si1 0.301026 0.276229 0.734785
Si Si2 0.062375 0.207243 0.025933
Si Si3 0.658587 0.559058 0.289655
Si Si4 0.679057 0.509913 0.870607
Si Si5 0.971451 0.257649 0.464729
Si Si6 0.915063 0.458427 0.824494
Si Si7 0.795243 0.113157 0.612467
O O1 0.547496 0.229799 0.981885
O O2 0.898093 0.479852 0.389879
O O3 0.249067 0.174040 0.772261
O O4 0.312130 0.349846 0.564047
O O5 0.849324 0.360726 0.859036
O O6 0.500000 0.000000 0.500000
O O7 0.993237 0.114369 0.048001
O O8 0.955609 0.350030 0.733905
O O9 0.406830 0.576878 0.113594
O O10 0.301494 0.762341 0.467555
O O11 0.996289 0.325416 0.304991
O O12 0.828573 0.503135 0.851681
O O13 0.986596 0.111635 0.628085
O O14 0.500000 0.500000 0.000000
O O15 0.353901 0.288528 0.194999
#
# Coordination Sequence:
#
# PCOD9032257 Si02
#       7
#     2   2   2   2   2   2   2
#     4  10  18  33  53  80 109 140 178 224 263 312
#     4   9  21  36  53  76 111 146 178 212 271 326
#     4  10  20  34  56  82 106 141 183 223 262 318
#     4  11  20  32  58  90 105 134 183 228 270 300
#     4  10  17  32  54  81 108 139 181 219 261 316
#     4  10  19  34  57  83 110 140 174 225 270 315
#     4  10  18  34  55  79 109 144 178 215 258 326
#
# _framework density 26.30247
#
# number of rings (size 3 to 8) (size 9 to 14) (size 15 to 20)
#    0.000    2.000    5.714    0.429    0.000    2.857 
#    0.000    0.714    0.000    4.286    0.000    0.000 
#    0.000    0.000    0.000    0.000    0.000    0.000 
#
# Total GULP energy -77952.463510 kJ/mol
# GULP energy per Si atom -5568.033108 kJ/mol
# Density = 2.624260 g / cm^3
# Si number density = 26.302470 Si / 1000 Ang^3
#
#
#
# Elastic Constant Matrix: (Units=GPa)
#
#
# Indices 1 2 3 4 5 6 
#
# 1 131.2917 46.4202 38.8175 -9.8043 -37.9647 0.7716
# 2 46.4202 227.3881 33.4787 1.2215 -16.8763 24.3927
# 3 38.8175 33.4787 65.3392 -3.1007 -3.2847 -7.6734
# 4 -9.8043 1.2215 -3.1007 44.5453 11.5866 -5.5147
# 5 -37.9647 -16.8763 -3.2847 11.5866 32.3217 12.1809
# 6 0.7716 24.3927 -7.6734 -5.5147 12.1809 49.0539
#
#
#
# Elastic Compliance Matrix: (Units=1/GPa)
#
#
# Indices 1 2 3 4 5 6 
#
# 1 0.017411 0.000886 -0.010831 -0.004540 0.024867 -0.009094
# 2 0.000886 0.005924 -0.004003 -0.002705 0.006799 -0.005578
# 3 -0.010831 -0.004003 0.024444 0.005654 -0.018589 0.011236
# 4 -0.004540 -0.002705 0.005654 0.028527 -0.020380 0.010568
# 5 0.024867 0.006799 -0.018589 -0.020380 0.079978 -0.028831
# 6 -0.009094 -0.005578 0.011236 0.010568 -0.028831 0.033407
#
#
# Mechanical properties :
#
#
# Convention : Reuss Voigt Hill
#
# Bulk Modulus (GPa) = 50.29690 73.49464 61.89577
# Shear Modulus (GPa) = 22.30011 45.53771 33.91891
#
# Velocity S-wave (km/s) = 2.91492 4.16541 3.59496
# Velocity P-wave (km/s) = 5.52205 7.15101 6.38866
#
# Compressibility (1/GPa) = 0.01988194
#
# Stress axis : x y z
#
# Youngs Moduli (GPa) = 57.43651 168.80981 40.91035
#
# Poissons Ratio (x) = -0.14953 0.44309
# Poissons Ratio (y) = -0.05088 0.16377
# Poissons Ratio (z) = 0.62207 0.67578
#
# Static dielectric constant tensor:
#      x y z
#    x 2.106440 -0.026070 0.110890 
#    y -0.026070 2.386350 -0.112230 
#    z 0.110890 -0.112230 2.179090 
# 
# From -- ./inp_files/251819.got.cif
#   From: 2010.05.17/outbox.cif.g08.bks.cpg/sg2_126_cif.got.tgz:251819.got - 2010.06.03 11:33:40.
