data_PCOD9032238
_publ_section_title
;
Structure prediction by ZEFSAII (Michael W. Deem and Ramdas Pophale) SiO2 
 PCOD9032238
Probable space group: P -1
;
_chemical_formula_sum "Si O2"
_cell_formula_units_Z 16
_cell_length_a 10.315177
_cell_length_b 6.746041
_cell_length_c 11.623002
_cell_angle_alpha 61.856322
_cell_angle_beta 77.175681
_cell_angle_gamma 63.482534
_cell_volume 638.084422
_symmetry_space_group_name_H-M "P -1"
_symmetry_group_IT_number 2
_symmetry_cell_setting 'triclinic'
loop_
_space_group_symop_operation_xyz
x,y,z
-x,-y,-z
loop_
_atom_site_type_symbol
_atom_site_label
_atom_site_fract_x
_atom_site_fract_y
_atom_site_fract_z
Si Si1 0.004150 0.063711 0.115791
Si Si2 0.882655 0.357842 0.512690
Si Si3 0.208437 0.189862 0.758677
Si Si4 0.609909 0.200696 0.325917
Si Si5 0.405922 0.610950 0.375557
Si Si6 0.754219 0.555513 0.100868
Si Si7 0.279699 0.093092 0.179193
Si Si8 0.812297 0.801712 0.572300
O O1 0.216279 0.259446 0.868838
O O2 0.156871 0.025791 0.154029
O O3 0.000000 0.000000 0.000000
O O4 0.915274 0.907731 0.224412
O O5 0.757620 0.263682 0.581011
O O6 0.827834 0.556744 0.368057
O O7 0.860833 0.530846 0.580932
O O8 0.040137 0.168525 0.501325
O O9 0.355786 0.979724 0.739623
O O10 0.448725 0.376014 0.348181
O O11 0.676709 0.400540 0.225046
O O12 0.686724 0.011686 0.466618
O O13 0.500000 0.500000 0.500000
O O14 0.416669 0.838465 0.245161
O O15 0.902298 0.345041 0.083993
O O16 0.682079 0.719105 0.959022
O O17 0.218330 0.209711 0.283989
#
# Coordination Sequence:
#
# PCOD9032238 Si02
#       8
#     2   2   2   2   2   2   2   2
#     4  11  24  42  70 108 153 180 236 304 373 429
#     4  10  24  42  74 103 145 185 248 305 360 434
#     4  10  22  43  70 102 141 190 236 289 372 425
#     4  10  24  48  72 100 150 193 241 301 357 433
#     4  12  26  47  69 107 149 197 243 302 363 429
#     4  11  24  45  73 103 146 191 237 302 361 434
#     4  12  26  41  74 109 143 194 242 299 368 437
#     4  10  23  45  72 111 136 192 243 304 371 425
#
# _framework density 25.075051999999999
#
# number of rings (size 3 to 8) (size 9 to 14) (size 15 to 20)
#    0.000    1.250    2.500    1.875    8.750    4.000 
#    2.250    0.625    0.000    0.000    0.000    0.000 
#    0.000    0.000    0.000    0.000    0.000    0.000 
#
# Total GULP energy -89427.945140 kJ/mol
# GULP energy per Si atom -5589.246571 kJ/mol
# Density = 2.501798 g / cm^3
# Si number density = 25.075052 Si / 1000 Ang^3
#
#
#
# Elastic Constant Matrix: (Units=GPa)
#
#
# Indices 1 2 3 4 5 6 
#
# 1 48.5072 9.4277 11.5078 1.2698 1.1529 9.7640
# 2 9.4277 117.4838 48.8582 16.5794 22.4798 -12.1967
# 3 11.5078 48.8582 152.0747 -6.0815 21.7017 14.1982
# 4 1.2698 16.5794 -6.0815 61.4432 9.0793 5.3789
# 5 1.1529 22.4798 21.7017 9.0793 30.6791 2.0572
# 6 9.7640 -12.1967 14.1982 5.3789 2.0572 41.7621
#
#
#
# Elastic Compliance Matrix: (Units=1/GPa)
#
#
# Indices 1 2 3 4 5 6 
#
# 1 0.022389 -0.002580 -0.000533 0.000451 0.001691 -0.005948
# 2 -0.002580 0.012503 -0.003701 -0.003365 -0.005869 0.006236
# 3 -0.000533 -0.003701 0.008896 0.002864 -0.004130 -0.004146
# 4 0.000451 -0.003365 0.002864 0.018532 -0.004779 -0.004214
# 5 0.001691 -0.005869 -0.004130 -0.004779 0.041311 -0.002125
# 6 -0.005948 0.006236 -0.004146 -0.004214 -0.002125 0.029214
#
#
# Mechanical properties :
#
#
# Convention : Reuss Voigt Hill
#
# Bulk Modulus (GPa) = 33.15664 50.85032 42.00348
# Shear Modulus (GPa) = 31.94347 43.32833 37.63590
#
# Velocity S-wave (km/s) = 3.57307 4.16137 3.87839
# Velocity P-wave (km/s) = 5.50219 6.58882 6.06987
#
# Compressibility (1/GPa) = 0.03015987
#
# Stress axis : x y z
#
# Youngs Moduli (GPa) = 44.66545 79.97934 112.40769
#
# Poissons Ratio (x) = 0.20632 0.05996
# Poissons Ratio (y) = 0.11522 0.41603
# Poissons Ratio (z) = 0.02383 0.29601
#
# Static dielectric constant tensor:
#      x y z
#    x 2.277660 0.070960 -0.142050 
#    y 0.070960 1.944810 0.001580 
#    z -0.142050 0.001580 2.071620 
# 
# From -- ./inp_files/416530.got.cif
#   From: 2010.05.17/outbox.cif.g08.bks.cpg/sg2_209_cif.got.tgz:416530.got - 2010.06.03 11:33:40.
