data_PCOD9032478
_publ_section_title
;
Structure prediction by ZEFSAII (Michael W. Deem and Ramdas Pophale) SiO2 
 PCOD9032478
Probable space group: P -1
;
_chemical_formula_sum "Si O2"
_cell_formula_units_Z 16
_cell_length_a 12.984757
_cell_length_b 15.963153
_cell_length_c 7.771844
_cell_angle_alpha 44.528336
_cell_angle_beta 133.041085
_cell_angle_gamma 115.195227
_cell_volume 819.802288
_symmetry_space_group_name_H-M "P -1"
_symmetry_group_IT_number 2
_symmetry_cell_setting 'triclinic'
loop_
_space_group_symop_operation_xyz
x,y,z
-x,-y,-z
loop_
_atom_site_type_symbol
_atom_site_label
_atom_site_fract_x
_atom_site_fract_y
_atom_site_fract_z
Si Si1 0.899903 0.405892 0.455687
Si Si2 0.761811 0.197103 0.727631
Si Si3 0.832650 0.002735 0.838646
Si Si4 0.990460 0.638670 0.735379
Si Si5 0.347364 0.469756 0.816606
Si Si6 0.269072 0.682769 0.151678
Si Si7 0.705023 0.762097 0.109803
Si Si8 0.610487 0.213212 0.185090
O O1 0.886439 0.283507 0.725277
O O2 0.950715 0.362287 0.390685
O O3 0.750394 0.486342 0.196981
O O4 0.000000 0.500000 0.500000
O O5 0.701142 0.218728 0.815952
O O6 0.653110 0.247846 0.377416
O O7 0.807672 0.062567 0.913029
O O8 0.728062 0.096087 0.466515
O O9 0.774358 0.875347 0.948725
O O10 0.000000 0.000000 0.000000
O O11 0.829086 0.698430 0.467260
O O12 0.103832 0.700031 0.885682
O O13 0.000000 0.500000 0.000000
O O14 0.300041 0.556373 0.472362
O O15 0.325780 0.336721 0.923656
O O16 0.500000 0.500000 0.000000
O O17 0.358786 0.694751 0.063774
O O18 0.554594 0.804080 0.968282
#
# Coordination Sequence:
#
# PCOD9032478 Si02
#       8
#     2   2   2   2   2   2   2   2
#     4  11  19  38  60  91 128 169 214 270 320 388
#     4   9  21  40  66  94 127 169 217 265 330 380
#     4  10  22  43  71  95 128 180 221 266 330 390
#     4  12  22  38  61  97 133 173 222 273 320 392
#     4  11  25  39  66  98 135 173 216 273 336 395
#     4  11  21  43  66  93 132 173 218 273 329 389
#     4  12  22  41  66  98 134 175 220 268 336 388
#     4  10  23  41  70  93 131 172 216 275 326 388
#
# _framework density 19.516901000000001
#
# number of rings (size 3 to 8) (size 9 to 14) (size 15 to 20)
#    0.750    0.500    3.750    4.125    0.000    1.500 
#    0.000    3.125    0.000    0.000    0.000    0.000 
#    0.000    0.000    0.000    0.000    0.000    0.000 
#
# Total GULP energy -89093.779277 kJ/mol
# GULP energy per Si atom -5568.361205 kJ/mol
# Density = 1.947248 g / cm^3
# Si number density = 19.516901 Si / 1000 Ang^3
#
#
#
# Elastic Constant Matrix: (Units=GPa)
#
#
# Indices 1 2 3 4 5 6 
#
# 1 88.3332 26.9837 41.5081 20.0384 22.1630 10.4085
# 2 26.9837 121.9964 33.5343 3.0393 10.8697 7.6746
# 3 41.5081 33.5343 79.4034 8.4347 13.6852 9.0342
# 4 20.0384 3.0393 8.4347 36.5643 -0.7542 0.7940
# 5 22.1630 10.8697 13.6852 -0.7542 31.1195 9.8374
# 6 10.4085 7.6746 9.0342 0.7940 9.8374 35.7246
#
#
#
# Elastic Compliance Matrix: (Units=1/GPa)
#
#
# Indices 1 2 3 4 5 6 
#
# 1 0.019842 -0.001259 -0.006935 -0.009376 -0.010676 -0.000608
# 2 -0.001259 0.009447 -0.003191 0.000639 -0.000777 -0.000656
# 3 -0.006935 -0.003191 0.017981 -0.000079 -0.001396 -0.001455
# 4 -0.009376 0.000639 -0.000079 0.032607 0.007319 -0.000126
# 5 -0.010676 -0.000777 -0.001396 0.007319 0.043490 -0.008508
# 6 -0.000608 -0.000656 -0.001455 -0.000126 -0.008508 0.031024
#
#
# Mechanical properties :
#
#
# Convention : Reuss Voigt Hill
#
# Bulk Modulus (GPa) = 40.81671 54.86500 47.84085
# Shear Modulus (GPa) = 26.97926 33.19547 30.08736
#
# Velocity S-wave (km/s) = 3.72203 4.12862 3.93059
# Velocity P-wave (km/s) = 6.27936 7.13442 6.72050
#
# Compressibility (1/GPa) = 0.02449977
#
# Stress axis : x y z
#
# Youngs Moduli (GPa) = 50.39881 105.85188 55.61302
#
# Poissons Ratio (x) = 0.13329 0.38568
# Poissons Ratio (y) = 0.06346 0.17746
# Poissons Ratio (z) = 0.34952 0.33776
#
# Static dielectric constant tensor:
#      x y z
#    x 1.726260 -0.003250 0.009100 
#    y -0.003250 1.709810 -0.003060 
#    z 0.009100 -0.003060 1.732460 
# 
# From -- ./inp_files/317498.got.cif
#   From: 2010.05.17/outbox.cif.g08.bks.cpg/sg2_159_cif.got.tgz:317498.got - 2010.06.03 11:33:40.
