data_PCOD9032067
_publ_section_title
;
Structure prediction by ZEFSAII (Michael W. Deem and Ramdas Pophale) SiO2 
 PCOD9032067
Probable space group: P -1
;
_chemical_formula_sum "Si O2"
_cell_formula_units_Z 15
_cell_length_a 9.668620
_cell_length_b 9.621902
_cell_length_c 15.336325
_cell_angle_alpha 103.568239
_cell_angle_beta 142.683251
_cell_angle_gamma 102.378302
_cell_volume 616.183114
_symmetry_space_group_name_H-M "P -1"
_symmetry_group_IT_number 2
_symmetry_cell_setting 'triclinic'
loop_
_space_group_symop_operation_xyz
x,y,z
-x,-y,-z
loop_
_atom_site_type_symbol
_atom_site_label
_atom_site_fract_x
_atom_site_fract_y
_atom_site_fract_z
Si Si1 0.219864 0.603757 0.803744
Si Si2 0.940682 0.471071 0.820842
Si Si3 0.213698 0.994262 0.852045
Si Si4 0.779079 0.175971 0.499895
Si Si5 0.500000 0.000000 0.500000
Si Si6 0.288041 0.440545 0.119335
Si Si7 0.106351 0.009957 0.149867
Si Si8 0.012592 0.286682 0.446885
O O1 0.044589 0.588462 0.799712
O O2 0.100064 0.392700 0.709827
O O3 0.111067 0.635271 0.664157
O O4 0.584782 0.777225 0.024808
O O5 0.803023 0.523130 0.829577
O O6 0.713680 0.240507 0.652105
O O7 0.239228 0.532926 0.030918
O O8 0.017604 0.934315 0.832099
O O9 0.002376 0.852196 0.647121
O O10 0.500000 0.000000 0.000000
O O11 0.800427 0.154463 0.404234
O O12 0.702463 0.037835 0.519639
O O13 0.475621 0.149722 0.354348
O O14 0.636932 0.535232 0.321007
O O15 0.048176 0.210552 0.943215
O O16 0.000000 0.000000 0.000000
#
# Coordination Sequence:
#
# PCOD9032067 Si02
#       8
#     2   2   2   2   1   2   2   2
#     4  10  22  43  69  93 140 181 231 291 350 411
#     4  10  24  44  70  99 148 186 234 292 349 430
#     4  10  24  43  65 104 142 176 234 295 354 410
#     4  11  23  43  69  97 137 180 231 290 348 418
#     4  10  22  46  68  98 134 190 232 284 348 418
#     4  11  25  43  67 105 144 186 239 281 364 414
#     4  12  24  41  72 100 140 185 236 290 350 420
#     4  11  24  41  69 102 139 178 238 296 350 413
#
# _framework density 24.343413000000002
#
# number of rings (size 3 to 8) (size 9 to 14) (size 15 to 20)
#    0.000    1.333    1.333    3.600    9.333    0.533 
#    2.400    3.333    0.000    0.000    0.000    0.000 
#    0.000    0.000    0.000    0.000    0.000    0.000 
#
# Total GULP energy -83536.120494 kJ/mol
# GULP energy per Si atom -5569.074700 kJ/mol
# Density = 2.428801 g / cm^3
# Si number density = 24.343413 Si / 1000 Ang^3
#
#
#
# Elastic Constant Matrix: (Units=GPa)
#
#
# Indices 1 2 3 4 5 6 
#
# 1 -117.9481 226.7907-1076.3023 -313.2603 -37.3869 227.0796
# 2 226.7907 -32.9478 669.2949 181.5602 8.1267 -92.7533
# 3 -1076.3023 669.2949-3820.7223-1083.4006 -62.7654 716.6573
# 4 -313.2603 181.5602-1083.4006 -272.9710 -14.8173 199.8932
# 5 -37.3869 8.1267 -62.7654 -14.8173 29.4968 4.8572
# 6 227.0796 -92.7533 716.6573 199.8932 4.8572 -88.8274
#
#
#
# Elastic Compliance Matrix: (Units=1/GPa)
#
#
# Indices 1 2 3 4 5 6 
#
# 1 0.006449 -0.002210 -0.002677 0.000541 0.003587 -0.001391
# 2 -0.002210 0.017565 0.000770 0.002806 -0.002681 -0.011611
# 3 -0.002677 0.000770 0.003799 -0.008269 -0.000395 0.004377
# 4 0.000541 0.002806 -0.008269 0.030175 -0.002444 -0.000489
# 5 0.003587 -0.002681 -0.000395 -0.002444 0.036252 0.005266
# 6 -0.001391 -0.011611 0.004377 -0.000489 0.005266 0.031812
#
#
# Mechanical properties :
#
#
# Convention : Reuss Voigt Hill
#
# Bulk Modulus (GPa) = 51.07700 -481.33908 -215.13104
# Shear Modulus (GPa) = 35.50823 -319.22043 -141.85610
#
# Velocity S-wave (km/s) = 3.82336 -11.46372 -7.64195
# Velocity P-wave (km/s) = 6.36539 19.32305 12.90082
#
# Compressibility (1/GPa) = 0.01957829
#
# Stress axis : x y z
#
# Youngs Moduli (GPa) = 155.06566 56.93286 263.19416
#
# Poissons Ratio (x) = 0.12585 0.70458
# Poissons Ratio (y) = 0.34277 -0.20271
# Poissons Ratio (z) = 0.41512 -0.04385
#
# Static dielectric constant tensor:
#      x y z
#    x 1.991690 -0.029460 -0.059260 
#    y -0.029460 2.164560 -0.090640 
#    z -0.059260 -0.090640 1.960430 
# 
# From -- ./inp_files/500608.got.cif
#   From: 2010.05.17/outbox.cif.g08.bks.cpg/sg2_251_cif.got.tgz:500608.got - 2010.06.03 11:33:40.
