data_PCOD9032097
_publ_section_title
;
Structure prediction by ZEFSAII (Michael W. Deem and Ramdas Pophale) SiO2 
 PCOD9032097
Probable space group: P -1
;
_chemical_formula_sum "Si O2"
_cell_formula_units_Z 16
_cell_length_a 10.988098
_cell_length_b 5.355284
_cell_length_c 29.230707
_cell_angle_alpha 54.368927
_cell_angle_beta 148.560710
_cell_angle_gamma 113.938508
_cell_volume 712.106427
_symmetry_space_group_name_H-M "P -1"
_symmetry_group_IT_number 2
_symmetry_cell_setting 'triclinic'
loop_
_space_group_symop_operation_xyz
x,y,z
-x,-y,-z
loop_
_atom_site_type_symbol
_atom_site_label
_atom_site_fract_x
_atom_site_fract_y
_atom_site_fract_z
Si Si1 0.854795 0.792146 0.233728
Si Si2 0.961501 0.870469 0.952352
Si Si3 0.801711 0.673477 0.062154
Si Si4 0.865237 0.267107 0.364972
Si Si5 0.580221 0.494814 0.098798
Si Si6 0.221817 0.096897 0.265664
Si Si7 0.447023 0.949868 0.259815
Si Si8 0.277926 0.728338 0.576287
O O1 0.916982 0.552204 0.321565
O O2 0.686543 0.643301 0.160743
O O3 0.724229 0.132049 0.175563
O O4 0.086175 0.856233 0.273193
O O5 0.699987 0.056753 0.832494
O O6 0.153334 0.989814 0.970244
O O7 0.000000 0.500000 0.000000
O O8 0.000000 0.000000 0.000000
O O9 0.637776 0.685176 0.052440
O O10 0.047701 0.436104 0.179441
O O11 0.688453 0.539188 0.995638
O O12 0.831807 0.310678 0.404333
O O13 0.610698 0.197359 0.277282
O O14 0.072876 0.955191 0.458048
O O15 0.490388 0.113335 0.364966
O O16 0.253402 0.044491 0.227305
O O17 0.617760 0.629202 0.366325
#
# Coordination Sequence:
#
# PCOD9032097 Si02
#       8
#     2   2   2   2   2   2   2   2
#     4  11  25  43  68 105 133 176 222 290 330 391
#     4  12  27  38  63  99 135 170 217 270 323 389
#     4  10  22  45  65  96 134 183 219 269 329 410
#     4  10  25  42  68  97 135 171 229 285 339 402
#     4  10  25  42  70  94 138 178 225 267 338 400
#     4  10  22  43  69  96 133 176 228 274 335 404
#     4  11  23  43  68  93 135 181 221 272 338 412
#     4  10  22  46  68  96 128 183 226 273 348 406
#
# _framework density 22.468553
#
# number of rings (size 3 to 8) (size 9 to 14) (size 15 to 20)
#    0.000    1.500    1.250    1.875    8.750    7.000 
#    0.000    0.625    0.000    0.000    0.000    0.000 
#    0.000    0.000    0.000    0.000    0.000    0.000 
#
# Total GULP energy -89416.458887 kJ/mol
# GULP energy per Si atom -5588.528680 kJ/mol
# Density = 2.241741 g / cm^3
# Si number density = 22.468553 Si / 1000 Ang^3
#
#
#
# Elastic Constant Matrix: (Units=GPa)
#
#
# Indices 1 2 3 4 5 6 
#
# 1 69.5066 53.2580 42.2742 -5.3276 3.9694 24.5459
# 2 53.2580 139.5847 34.5054 -14.9987 -12.0496 26.5930
# 3 42.2742 34.5054 72.8161 -6.8967 -2.4235 22.3800
# 4 -5.3276 -14.9987 -6.8967 30.7299 -0.3040 -6.3484
# 5 3.9694 -12.0496 -2.4235 -0.3040 24.7239 -8.1079
# 6 24.5459 26.5930 22.3800 -6.3484 -8.1079 45.6642
#
#
#
# Elastic Compliance Matrix: (Units=1/GPa)
#
#
# Indices 1 2 3 4 5 6 
#
# 1 0.033056 -0.009338 -0.012796 -0.003715 -0.014138 -0.009086
# 2 -0.009338 0.011705 0.000581 0.004254 0.007246 -0.000204
# 3 -0.012796 0.000581 0.022285 0.002389 0.003423 -0.003442
# 4 -0.003715 0.004254 0.002389 0.035404 0.004685 0.004103
# 5 -0.014138 0.007246 0.003423 0.004685 0.050344 0.011292
# 6 -0.009086 -0.000204 -0.003442 0.004103 0.011292 0.031164
#
#
# Mechanical properties :
#
#
# Convention : Reuss Voigt Hill
#
# Bulk Modulus (GPa) = 41.76988 60.22029 50.99508
# Shear Modulus (GPa) = 21.27278 30.34825 25.81052
#
# Velocity S-wave (km/s) = 3.08032 3.67917 3.39298
# Velocity P-wave (km/s) = 5.59302 6.70139 6.17214
#
# Compressibility (1/GPa) = 0.02394069
#
# Stress axis : x y z
#
# Youngs Moduli (GPa) = 30.25186 85.43609 44.87394
#
# Poissons Ratio (x) = 0.79779 0.57420
# Poissons Ratio (y) = 0.28249 -0.02609
# Poissons Ratio (z) = 0.38710 -0.04968
#
# Static dielectric constant tensor:
#      x y z
#    x 1.836720 -0.005580 0.042390 
#    y -0.005580 1.858630 0.013700 
#    z 0.042390 0.013700 1.819160 
# 
# From -- ./inp_files/113110.got.cif
#   From: 2010.05.17/outbox.cif.g08.bks.cpg/sg2_57_cif.got.tgz:113110.got - 2010.06.03 11:33:40.
