data_PCOD9032578
_publ_section_title
;
Structure prediction by ZEFSAII (Michael W. Deem and Ramdas Pophale) SiO2 
 PCOD9032578
Probable space group: P -1
;
_chemical_formula_sum "Si O2"
_cell_formula_units_Z 14
_cell_length_a 12.277095
_cell_length_b 13.873078
_cell_length_c 7.465628
_cell_angle_alpha 62.083734
_cell_angle_beta 71.529136
_cell_angle_gamma 29.951586
_cell_volume 549.481333
_symmetry_space_group_name_H-M "P -1"
_symmetry_group_IT_number 2
_symmetry_cell_setting 'triclinic'
loop_
_space_group_symop_operation_xyz
x,y,z
-x,-y,-z
loop_
_atom_site_type_symbol
_atom_site_label
_atom_site_fract_x
_atom_site_fract_y
_atom_site_fract_z
Si Si1 0.568953 0.821957 0.834310
Si Si2 0.247596 0.896310 0.818377
Si Si3 0.109427 0.604713 0.860986
Si Si4 0.421696 0.444515 0.542496
Si Si5 0.325711 0.937538 0.367548
Si Si6 0.261625 0.260795 0.566570
Si Si7 0.195306 0.687622 0.090186
O O1 0.449689 0.804624 0.865084
O O2 0.678128 0.788501 0.632083
O O3 0.361669 0.070112 0.772908
O O4 0.778741 0.605734 0.022495
O O5 0.226024 0.957384 0.574234
O O6 0.278935 0.740599 0.945676
O O7 0.033540 0.102651 0.866829
O O8 0.220887 0.574444 0.661306
O O9 0.158034 0.637610 0.985731
O O10 0.842798 0.828889 0.791949
O O11 0.500000 0.500000 0.500000
O O12 0.628845 0.193880 0.684791
O O13 0.351195 0.506031 0.317552
O O14 0.573021 0.782607 0.404036
O O15 0.000000 0.500000 0.500000
#
# Coordination Sequence:
#
# PCOD9032578 Si02
#       7
#     2   2   2   2   2   2   2
#     4  10  24  43  73 105 139 188 243 297 367 428
#     4  10  22  43  72 104 143 195 243 289 358 428
#     4  12  27  45  71 109 153 188 241 299 363 440
#     4  12  27  44  71 109 150 198 246 294 355 435
#     4  11  26  46  70 109 149 189 242 310 361 429
#     4  10  24  47  77 104 137 188 246 305 368 430
#     4  11  24  43  73 104 150 199 235 291 360 427
#
# _framework density 25.478570999999999
#
# number of rings (size 3 to 8) (size 9 to 14) (size 15 to 20)
#    0.000    1.143    1.429    3.429   10.000    4.571 
#    0.000    1.429    0.000    0.000    0.000    0.000 
#    0.000    0.000    0.000    0.000    0.000    0.000 
#
# Total GULP energy -78338.035285 kJ/mol
# GULP energy per Si atom -5595.573949 kJ/mol
# Density = 2.542058 g / cm^3
# Si number density = 25.478571 Si / 1000 Ang^3
#
#
#
# Elastic Constant Matrix: (Units=GPa)
#
#
# Indices 1 2 3 4 5 6 
#
# 1 82.0636 39.6189 40.3356 -13.4725 -18.5539 5.4433
# 2 39.6189 213.8593 77.4926 -38.9711 -18.6246 -1.4813
# 3 40.3356 77.4926 120.0240 -18.5976 -3.6619 -0.6425
# 4 -13.4725 -38.9711 -18.5976 64.3583 15.8513 -0.4103
# 5 -18.5539 -18.6246 -3.6619 15.8513 30.7624 1.7438
# 6 5.4433 -1.4813 -0.6425 -0.4103 1.7438 34.3367
#
#
#
# Elastic Compliance Matrix: (Units=1/GPa)
#
#
# Indices 1 2 3 4 5 6 
#
# 1 0.017479 -0.000589 -0.005320 -0.000753 0.010134 -0.003419
# 2 -0.000589 0.006750 -0.003727 0.002385 0.002045 0.000239
# 3 -0.005320 -0.003727 0.012612 0.001460 -0.004782 0.001179
# 4 -0.000753 0.002385 0.001460 0.019447 -0.008910 0.000934
# 5 0.010134 0.002045 -0.004782 -0.008910 0.044104 -0.003954
# 6 -0.003419 0.000239 0.001179 0.000934 -0.003954 0.029910
#
#
# Mechanical properties :
#
#
# Convention : Reuss Voigt Hill
#
# Bulk Modulus (GPa) = 56.91359 81.20459 69.05909
# Shear Modulus (GPa) = 32.16900 43.12481 37.64690
#
# Velocity S-wave (km/s) = 3.55715 4.11857 3.84811
# Velocity P-wave (km/s) = 6.26557 7.38632 6.84891
#
# Compressibility (1/GPa) = 0.01757049
#
# Stress axis : x y z
#
# Youngs Moduli (GPa) = 57.21098 148.15079 79.28807
#
# Poissons Ratio (x) = 0.08723 0.42179
# Poissons Ratio (y) = 0.03369 0.29550
# Poissons Ratio (z) = 0.30434 0.55215
#
# Static dielectric constant tensor:
#      x y z
#    x 2.016120 0.020610 0.041210 
#    y 0.020610 2.044780 -0.093560 
#    z 0.041210 -0.093560 2.102530 
# 
# From -- ./inp_files/271795.got.cif
#   From: 2010.05.17/outbox.cif.g08.bks.cpg/sg2_136_cif.got.tgz:271795.got - 2010.06.03 11:33:40.
