data_PCOD9032929
_publ_section_title
;
Structure prediction by ZEFSAII (Michael W. Deem and Ramdas Pophale) SiO2 
 PCOD9032929
Probable space group: P -1
;
_chemical_formula_sum "Si O2"
_cell_formula_units_Z 14
_cell_length_a 14.937139
_cell_length_b 15.597757
_cell_length_c 25.014227
_cell_angle_alpha 19.245148
_cell_angle_beta 162.395626
_cell_angle_gamma 154.975067
_cell_volume 579.846977
_symmetry_space_group_name_H-M "P -1"
_symmetry_group_IT_number 2
_symmetry_cell_setting 'triclinic'
loop_
_space_group_symop_operation_xyz
x,y,z
-x,-y,-z
loop_
_atom_site_type_symbol
_atom_site_label
_atom_site_fract_x
_atom_site_fract_y
_atom_site_fract_z
Si Si1 0.132015 0.010199 0.628179
Si Si2 0.890259 0.509024 0.030140
Si Si3 0.201228 0.044301 0.922307
Si Si4 0.532163 0.705373 0.171203
Si Si5 0.535155 0.658331 0.841536
Si Si6 0.315860 0.796554 0.386114
Si Si7 0.958395 0.575525 0.226892
O O1 0.070826 0.289146 0.452317
O O2 0.483451 0.979847 0.854565
O O3 0.000000 0.000000 0.500000
O O4 0.978166 0.755373 0.718914
O O5 0.750641 0.431458 0.939706
O O6 0.632337 0.572765 0.888845
O O7 0.106647 0.763440 0.007859
O O8 0.235944 0.245524 0.774452
O O9 0.949605 0.124607 0.772184
O O10 0.613846 0.492921 0.385780
O O11 0.500000 0.000000 0.000000
O O12 0.296804 0.466228 0.848584
O O13 0.449249 0.958174 0.615925
O O14 0.819759 0.654371 0.045441
O O15 0.207259 0.773040 0.277038
#
# Coordination Sequence:
#
# PCOD9032929 Si02
#       7
#     2   2   2   2   2   2   2
#     4  11  22  39  62  91 132 171 206 257 314 370
#     4  10  22  44  63  94 127 164 219 256 318 386
#     4  10  24  41  64  95 126 170 214 260 318 376
#     4  11  24  42  66  93 130 165 211 266 321 379
#     4  10  23  40  63  93 123 171 209 262 314 370
#     4  11  23  41  65  95 127 165 214 261 314 378
#     4  11  22  39  63  90 131 166 210 260 310 372
#
# _framework density 24.144300999999999
#
# number of rings (size 3 to 8) (size 9 to 14) (size 15 to 20)
#    0.000    1.429    1.429    4.286    2.000    6.857 
#    0.000    0.000    0.000    0.000    0.000    0.000 
#    0.000    0.000    0.000    0.000    0.000    0.000 
#
# Total GULP energy -78303.548625 kJ/mol
# GULP energy per Si atom -5593.110616 kJ/mol
# Density = 2.408935 g / cm^3
# Si number density = 24.144301 Si / 1000 Ang^3
#
#
#
# Elastic Constant Matrix: (Units=GPa)
#
#
# Indices 1 2 3 4 5 6 
#
# 1 69.4261 18.0039 11.2210 2.8181 8.0081 -12.6828
# 2 18.0039 147.2733 32.5927 -22.8136 -6.0307 -34.0711
# 3 11.2210 32.5927 95.7032 -25.2573 -4.5913 -16.1621
# 4 2.8181 -22.8136 -25.2573 40.6540 -9.2017 -1.0248
# 5 8.0081 -6.0307 -4.5913 -9.2017 31.8826 -4.7440
# 6 -12.6828 -34.0711 -16.1621 -1.0248 -4.7440 45.0131
#
#
#
# Elastic Compliance Matrix: (Units=1/GPa)
#
#
# Indices 1 2 3 4 5 6 
#
# 1 0.016621 -0.002280 -0.002755 -0.005571 -0.006438 0.001163
# 2 -0.002280 0.010307 0.000490 0.007824 0.006064 0.008152
# 3 -0.002755 0.000490 0.015019 0.011573 0.007181 0.006007
# 4 -0.005571 0.007824 0.011573 0.040936 0.018048 0.011342
# 5 -0.006438 0.006064 0.007181 0.018048 0.041887 0.010180
# 6 0.001163 0.008152 0.006007 0.011342 0.010180 0.032202
#
#
# Mechanical properties :
#
#
# Convention : Reuss Voigt Hill
#
# Bulk Modulus (GPa) = 30.43546 48.44864 39.44205
# Shear Modulus (GPa) = 28.24645 40.21560 34.23102
#
# Velocity S-wave (km/s) = 3.42409 4.08565 3.76941
# Velocity P-wave (km/s) = 5.31654 6.50896 5.94273
#
# Compressibility (1/GPa) = 0.03285641
#
# Stress axis : x y z
#
# Youngs Moduli (GPa) = 60.16310 97.02503 66.58410
#
# Poissons Ratio (x) = 0.22119 0.18345
# Poissons Ratio (y) = 0.13715 -0.03261
# Poissons Ratio (z) = 0.16576 -0.04751
#
# Static dielectric constant tensor:
#      x y z
#    x 1.956570 0.041070 0.006110 
#    y 0.041070 1.942580 0.011940 
#    z 0.006110 0.011940 1.948070 
# 
# From -- ./inp_files/407453.got.cif
#   From: 2010.05.17/outbox.cif.g08.bks.cpg/sg2_204_cif.got.tgz:407453.got - 2010.06.03 11:33:40.
