data_PCOD9032186
_publ_section_title
;
Structure prediction by ZEFSAII (Michael W. Deem and Ramdas Pophale) SiO2 
 PCOD9032186
Probable space group: P -1
;
_chemical_formula_sum "Si O2"
_cell_formula_units_Z 16
_cell_length_a 9.288141
_cell_length_b 13.488366
_cell_length_c 7.312090
_cell_angle_alpha 87.565645
_cell_angle_beta 48.082848
_cell_angle_gamma 101.433810
_cell_volume 648.635009
_symmetry_space_group_name_H-M "P -1"
_symmetry_group_IT_number 2
_symmetry_cell_setting 'triclinic'
loop_
_space_group_symop_operation_xyz
x,y,z
-x,-y,-z
loop_
_atom_site_type_symbol
_atom_site_label
_atom_site_fract_x
_atom_site_fract_y
_atom_site_fract_z
Si Si1 0.230400 0.380262 0.748216
Si Si2 0.571903 0.900650 0.436674
Si Si3 0.154648 0.091014 0.123072
Si Si4 0.429103 0.741773 0.116043
Si Si5 0.873982 0.140450 0.763068
Si Si6 0.676350 0.762744 0.591399
Si Si7 0.864281 0.202195 0.191094
Si Si8 0.428743 0.529323 0.258472
O O1 0.315170 0.287601 0.609782
O O2 0.255135 0.445089 0.531270
O O3 0.375252 0.445051 0.776411
O O4 0.013169 0.319423 0.025345
O O5 0.766325 0.923271 0.144714
O O6 0.640328 0.872592 0.576287
O O7 0.366809 0.812072 0.554078
O O8 0.500000 0.000000 0.500000
O O9 0.348758 0.182315 0.025176
O O10 0.967090 0.136437 0.242968
O O11 0.136267 0.980210 0.243562
O O12 0.482347 0.702030 0.874641
O O13 0.282257 0.812167 0.210487
O O14 0.365198 0.634805 0.288719
O O15 0.100383 0.213839 0.519424
O O16 0.848481 0.156896 0.000768
O O17 0.500000 0.500000 0.000000
#
# Coordination Sequence:
#
# PCOD9032186 Si02
#       8
#     2   2   2   2   2   2   2   2
#     4  10  22  43  70 100 133 178 223 289 343 403
#     4  12  21  36  66  97 130 186 226 264 330 400
#     4  12  23  40  62  99 140 177 224 281 333 405
#     4  12  24  42  65 100 133 178 225 282 347 405
#     4  11  23  39  65  95 141 177 223 275 334 413
#     4  11  22  41  65  94 139 177 221 280 338 400
#     4  11  21  39  67  98 135 179 232 270 338 408
#     4  11  22  43  75  98 133 179 227 286 357 399
#
# _framework density 24.667186000000001
#
# number of rings (size 3 to 8) (size 9 to 14) (size 15 to 20)
#    0.000    0.750    7.500    1.500    0.000    1.500 
#    0.000    2.500    2.750    8.250    0.000    0.000 
#    0.000    0.000    0.000    0.000    0.000    0.000 
#
# Total GULP energy -89357.478507 kJ/mol
# GULP energy per Si atom -5584.842407 kJ/mol
# Density = 2.461104 g / cm^3
# Si number density = 24.667186 Si / 1000 Ang^3
#
#
#
# Elastic Constant Matrix: (Units=GPa)
#
#
# Indices 1 2 3 4 5 6 
#
# 1 120.4320 38.9054 31.3018 -1.2660 -7.7833 -19.7942
# 2 38.9054 96.3538 36.3801 -29.3988 8.0893 -16.2271
# 3 31.3018 36.3801 106.0229 -7.1300 -9.0668 -11.7467
# 4 -1.2660 -29.3988 -7.1300 35.5429 -2.3257 2.4890
# 5 -7.7833 8.0893 -9.0668 -2.3257 45.0544 0.0230
# 6 -19.7942 -16.2271 -11.7467 2.4890 0.0230 41.3147
#
#
#
# Elastic Compliance Matrix: (Units=1/GPa)
#
#
# Indices 1 2 3 4 5 6 
#
# 1 0.010781 -0.004686 -0.001287 -0.003827 0.002246 0.003188
# 2 -0.004686 0.019144 -0.004241 0.014307 -0.004363 0.003209
# 3 -0.001287 -0.004241 0.011549 -0.001128 0.002805 0.001068
# 4 -0.003827 0.014307 -0.001128 0.039437 -0.001422 0.001090
# 5 0.002246 -0.004363 0.002805 -0.001422 0.023858 0.000232
# 6 0.003188 0.003209 0.001068 0.001090 0.000232 0.027230
#
#
# Mechanical properties :
#
#
# Convention : Reuss Voigt Hill
#
# Bulk Modulus (GPa) = 47.51593 59.55369 53.53481
# Shear Modulus (GPa) = 31.35956 38.79714 35.07835
#
# Velocity S-wave (km/s) = 3.56941 3.97019 3.77512
# Velocity P-wave (km/s) = 6.02430 6.72397 6.38373
#
# Compressibility (1/GPa) = 0.02104557
#
# Stress axis : x y z
#
# Youngs Moduli (GPa) = 92.75827 52.23674 86.58513
#
# Poissons Ratio (x) = 0.24480 0.11143
# Poissons Ratio (y) = 0.43470 0.36719
# Poissons Ratio (z) = 0.11937 0.22152
#
# Static dielectric constant tensor:
#      x y z
#    x 2.006550 0.049660 0.094000 
#    y 0.049660 2.085700 0.029280 
#    z 0.094000 0.029280 2.071770 
# 
# From -- ./inp_files/206697.got.cif
#   From: 2010.05.17/outbox.cif.g08.bks.cpg/sg2_104_cif.got.tgz:206697.got - 2010.06.03 11:33:40.
