data_PCOD9032718
_publ_section_title
;
Structure prediction by ZEFSAII (Michael W. Deem and Ramdas Pophale) SiO2 
 PCOD9032718
Probable space group: P -1
;
_chemical_formula_sum "Si O2"
_cell_formula_units_Z 16
_cell_length_a 8.199766
_cell_length_b 5.434477
_cell_length_c 19.616302
_cell_angle_alpha 107.479291
_cell_angle_beta 117.954468
_cell_angle_gamma 58.165206
_cell_volume 654.342644
_symmetry_space_group_name_H-M "P -1"
_symmetry_group_IT_number 2
_symmetry_cell_setting 'triclinic'
loop_
_space_group_symop_operation_xyz
x,y,z
-x,-y,-z
loop_
_atom_site_type_symbol
_atom_site_label
_atom_site_fract_x
_atom_site_fract_y
_atom_site_fract_z
Si Si1 0.205239 0.398177 0.577651
Si Si2 0.828752 0.763744 0.752362
Si Si3 0.866146 0.335276 0.979169
Si Si4 0.225154 0.352357 0.879434
Si Si5 0.678902 0.250632 0.470801
Si Si6 0.971865 0.311913 0.639775
Si Si7 0.534812 0.313544 0.815931
Si Si8 0.179704 0.886821 0.766748
O O1 0.305848 0.591764 0.582748
O O2 0.107526 0.438094 0.636943
O O3 0.000000 0.500000 0.500000
O O4 0.335726 0.048512 0.565051
O O5 0.989196 0.566148 0.825984
O O6 0.798297 0.559496 0.673543
O O7 0.971398 0.878536 0.749988
O O8 0.627313 0.020958 0.766045
O O9 0.727635 0.338601 0.888897
O O10 0.734616 0.520519 0.033404
O O11 0.000000 0.500000 0.000000
O O12 0.000000 0.000000 0.000000
O O13 0.386498 0.324813 0.849944
O O14 0.235139 0.037421 0.854476
O O15 0.500000 0.500000 0.500000
O O16 0.878300 0.184019 0.553786
O O17 0.117883 0.083126 0.704067
O O18 0.387925 0.596257 0.768816
#
# Coordination Sequence:
#
# PCOD9032718 Si02
#       8
#     2   2   2   2   2   2   2   2
#     4  10  22  43  73  96 135 179 226 285 345 407
#     4  10  22  44  65  96 142 180 233 288 345 424
#     4  12  26  44  78 102 140 189 236 293 361 404
#     4  10  23  44  67 101 138 180 240 292 352 407
#     4  11  24  45  71 105 139 173 234 295 341 414
#     4  10  23  43  67  95 138 184 227 278 359 410
#     4  11  24  44  71 101 141 182 241 288 349 416
#     4  10  24  42  67  97 140 184 234 286 348 420
#
# _framework density 24.452019
#
# number of rings (size 3 to 8) (size 9 to 14) (size 15 to 20)
#    0.000    1.500    1.250    3.000    8.750    2.500 
#    9.000    0.000    0.000    0.000    0.000    0.000 
#    0.000    0.000    0.000    0.000    0.000    0.000 
#
# Total GULP energy -89518.271386 kJ/mol
# GULP energy per Si atom -5594.891962 kJ/mol
# Density = 2.439637 g / cm^3
# Si number density = 24.452019 Si / 1000 Ang^3
#
#
#
# Elastic Constant Matrix: (Units=GPa)
#
#
# Indices 1 2 3 4 5 6 
#
# 1 50.5241 49.9491 16.7514 -10.3148 -6.3600 -1.8586
# 2 49.9491 160.0366 44.2530 21.7703 -19.0538 -20.3601
# 3 16.7514 44.2530 109.7108 18.7492 -8.1961 -5.3941
# 4 -10.3148 21.7703 18.7492 48.8547 -1.7362 -8.7099
# 5 -6.3600 -19.0538 -8.1961 -1.7362 41.4930 9.1785
# 6 -1.8586 -20.3601 -5.3941 -8.7099 9.1785 38.8125
#
#
#
# Elastic Compliance Matrix: (Units=1/GPa)
#
#
# Indices 1 2 3 4 5 6 
#
# 1 0.035974 -0.012575 -0.002891 0.013923 0.000240 -0.002208
# 2 -0.012575 0.012244 -0.001505 -0.006821 0.002332 0.003529
# 3 -0.002891 -0.001505 0.010926 -0.004202 0.000977 -0.000584
# 4 0.013923 -0.006821 -0.004202 0.028590 -0.001348 0.003239
# 5 0.000240 0.002332 0.000977 -0.001348 0.026494 -0.005198
# 6 -0.002208 0.003529 -0.000584 0.003239 -0.005198 0.029386
#
#
# Mechanical properties :
#
#
# Convention : Reuss Voigt Hill
#
# Bulk Modulus (GPa) = 39.67883 60.24205 49.96044
# Shear Modulus (GPa) = 26.88794 39.78657 33.33726
#
# Velocity S-wave (km/s) = 3.31965 4.03814 3.69640
# Velocity P-wave (km/s) = 5.56380 6.81414 6.22046
#
# Compressibility (1/GPa) = 0.02520236
#
# Stress axis : x y z
#
# Youngs Moduli (GPa) = 27.79768 81.67168 91.52649
#
# Poissons Ratio (x) = 1.02702 0.26457
# Poissons Ratio (y) = 0.34956 0.13777
# Poissons Ratio (z) = 0.08035 0.12294
#
# Static dielectric constant tensor:
#      x y z
#    x 1.971640 0.032970 0.016020 
#    y 0.032970 1.986980 0.030070 
#    z 0.016020 0.030070 1.965050 
# 
# From -- ./inp_files/553635.got.cif
#   From: 2010.05.17/outbox.cif.g08.bks.cpg/sg2_277_cif.got.tgz:553635.got - 2010.06.03 11:33:40.
