data_PCOD9032662
_publ_section_title
;
Structure prediction by ZEFSAII (Michael W. Deem and Ramdas Pophale) SiO2 
 PCOD9032662
Probable space group: P -1
;
_chemical_formula_sum "Si O2"
_cell_formula_units_Z 16
_cell_length_a 10.404509
_cell_length_b 17.838922
_cell_length_c 9.406857
_cell_angle_alpha 109.573394
_cell_angle_beta 112.651814
_cell_angle_gamma 130.555116
_cell_volume 673.791879
_symmetry_space_group_name_H-M "P -1"
_symmetry_group_IT_number 2
_symmetry_cell_setting 'triclinic'
loop_
_space_group_symop_operation_xyz
x,y,z
-x,-y,-z
loop_
_atom_site_type_symbol
_atom_site_label
_atom_site_fract_x
_atom_site_fract_y
_atom_site_fract_z
Si Si1 0.492639 0.119554 0.503602
Si Si2 0.596853 0.357221 0.662275
Si Si3 0.764726 0.777552 0.076451
Si Si4 0.319051 0.484419 0.466955
Si Si5 0.626417 0.107060 0.837691
Si Si6 0.756572 0.066155 0.187224
Si Si7 0.896540 0.985266 0.094440
Si Si8 0.393737 0.367636 0.785251
O O1 0.665452 0.176204 0.753693
O O2 0.117947 0.937709 0.269927
O O3 0.644258 0.284946 0.636668
O O4 0.492848 0.042527 0.350807
O O5 0.640272 0.420705 0.567436
O O6 0.676524 0.465102 0.884935
O O7 0.228256 0.170402 0.425873
O O8 0.708029 0.836287 0.028528
O O9 0.731486 0.750735 0.212376
O O10 0.495464 0.593711 0.757836
O O11 0.500000 0.500000 0.500000
O O12 0.122814 0.264879 0.500187
O O13 0.372218 0.023629 0.769374
O O14 0.953496 0.275268 0.169158
O O15 0.731830 0.984499 0.008336
O O16 0.500000 0.000000 0.000000
O O17 0.000000 0.000000 0.000000
O O18 0.500000 0.500000 0.000000
#
# Coordination Sequence:
#
# PCOD9032662 Si02
#       8
#     2   2   2   2   2   2   2   2
#     4  10  23  43  70  96 134 185 233 284 356 412
#     4  10  24  41  72  98 133 183 245 281 337 432
#     4  11  22  41  71  95 134 179 237 282 340 424
#     4  12  24  40  70 102 136 181 238 289 350 420
#     4  11  25  43  68 100 143 179 229 295 360 407
#     4  11  27  42  68 103 139 179 228 287 353 416
#     4  10  22  43  73 101 130 182 239 284 338 425
#     4  11  25  44  69 102 138 182 235 292 347 409
#
# _framework density 23.746203999999999
#
# number of rings (size 3 to 8) (size 9 to 14) (size 15 to 20)
#    0.000    1.250    3.750    0.750   10.500    2.000 
#    0.000    1.875    0.000    0.000    0.000    0.000 
#    0.000    0.000    0.000    0.000    0.000    0.000 
#
# Total GULP energy -89128.773379 kJ/mol
# GULP energy per Si atom -5570.548336 kJ/mol
# Density = 2.369216 g / cm^3
# Si number density = 23.746204 Si / 1000 Ang^3
#
#
#
# Elastic Constant Matrix: (Units=GPa)
#
#
# Indices 1 2 3 4 5 6 
#
# 1 124.2523 37.4757 36.9300 -0.4086 -17.0005 -23.8521
# 2 37.4757 124.2161 21.6171 -15.2675 -7.9479 -16.7861
# 3 36.9300 21.6171 102.8951 -15.7072 5.5081 -8.3521
# 4 -0.4086 -15.2675 -15.7072 40.9122 1.1934 2.0450
# 5 -17.0005 -7.9479 5.5081 1.1934 32.0151 -3.5917
# 6 -23.8521 -16.7861 -8.3521 2.0450 -3.5917 41.7926
#
#
#
# Elastic Compliance Matrix: (Units=1/GPa)
#
#
# Indices 1 2 3 4 5 6 
#
# 1 0.012064 -0.001949 -0.004250 -0.002756 0.007432 0.006027
# 2 -0.001949 0.009601 -0.000721 0.003109 0.001647 0.002590
# 3 -0.004250 -0.000721 0.012281 0.004589 -0.004821 -0.000900
# 4 -0.002756 0.003109 0.004589 0.027462 -0.002614 -0.000976
# 5 0.007432 0.001647 -0.004821 -0.002614 0.037334 0.007277
# 6 0.006027 0.002590 -0.000900 -0.000976 0.007277 0.028901
#
#
# Mechanical properties :
#
#
# Convention : Reuss Voigt Hill
#
# Bulk Modulus (GPa) = 49.73450 60.37880 55.05665
# Shear Modulus (GPa) = 33.74160 39.96669 36.85415
#
# Velocity S-wave (km/s) = 3.77361 4.10698 3.94382
# Velocity P-wave (km/s) = 6.32269 6.92616 6.63129
#
# Compressibility (1/GPa) = 0.02010677
#
# Stress axis : x y z
#
# Youngs Moduli (GPa) = 82.89251 104.15108 81.42674
#
# Poissons Ratio (x) = 0.20298 0.34605
# Poissons Ratio (y) = 0.16155 0.05871
# Poissons Ratio (z) = 0.35228 0.07510
#
# Static dielectric constant tensor:
#      x y z
#    x 2.021620 -0.134140 -0.184960 
#    y -0.134140 2.027350 0.029280 
#    z -0.184960 0.029280 2.094910 
# 
# From -- ./inp_files/267691.got.cif
#   From: 2010.05.17/outbox.cif.g08.bks.cpg/sg2_134_cif.got.tgz:267691.got - 2010.06.03 11:33:40.
