data_PCOD9032455
_publ_section_title
;
Structure prediction by ZEFSAII (Michael W. Deem and Ramdas Pophale) SiO2 
 PCOD9032455
Probable space group: P -1
;
_chemical_formula_sum "Si O2"
_cell_formula_units_Z 12
_cell_length_a 9.671753
_cell_length_b 7.935022
_cell_length_c 7.756509
_cell_angle_alpha 106.293151
_cell_angle_beta 47.898398
_cell_angle_gamma 92.825317
_cell_volume 415.802306
_symmetry_space_group_name_H-M "P -1"
_symmetry_group_IT_number 2
_symmetry_cell_setting 'triclinic'
loop_
_space_group_symop_operation_xyz
x,y,z
-x,-y,-z
loop_
_atom_site_type_symbol
_atom_site_label
_atom_site_fract_x
_atom_site_fract_y
_atom_site_fract_z
Si Si1 0.925867 0.683942 0.989828
Si Si2 0.049773 0.140772 0.308325
Si Si3 0.842341 0.665485 0.413554
Si Si4 0.351083 0.598710 0.795858
Si Si5 0.457964 0.934403 0.707016
Si Si6 0.673093 0.166092 0.795056
O O1 0.120853 0.159188 0.060725
O O2 0.107375 0.546305 0.723508
O O3 0.954603 0.735282 0.178001
O O4 0.766334 0.560636 0.103790
O O5 0.085286 0.300265 0.449963
O O6 0.821635 0.164904 0.513854
O O7 0.180536 0.975161 0.249260
O O8 0.639041 0.786083 0.586260
O O9 0.500000 0.500000 0.500000
O O10 0.310004 0.799198 0.798177
O O11 0.386474 0.661656 0.983436
O O12 0.500000 0.000000 0.500000
O O13 0.492305 0.094649 0.853294
#
# Coordination Sequence:
#
# PCOD9032455 Si02
#       6
#     2   2   2   2   2   2
#     4  11  23  43  76 109 146 191 242 310 370 427
#     4  10  22  46  78 109 141 190 252 306 375 420
#     4  10  22  43  71 107 144 183 250 301 347 452
#     4  12  25  46  70 108 151 190 248 301 363 453
#     4  11  26  48  71 106 152 198 239 301 379 437
#     4  10  24  47  73 109 149 189 250 308 355 457
#
# _framework density 28.859873
#
# number of rings (size 3 to 8) (size 9 to 14) (size 15 to 20)
#    0.000    1.333    3.333    1.000    2.333    2.667 
#    0.000    7.500    0.000    0.000    0.000    0.000 
#    0.000    0.000    0.000    0.000    0.000    0.000 
#
# Total GULP energy -66899.874787 kJ/mol
# GULP energy per Si atom -5574.989566 kJ/mol
# Density = 2.879419 g / cm^3
# Si number density = 28.859873 Si / 1000 Ang^3
#
#
#
# Elastic Constant Matrix: (Units=GPa)
#
#
# Indices 1 2 3 4 5 6 
#
# 1 93.3592 51.1612 21.6943 -14.3380 10.2871 12.7484
# 2 51.1612 132.9395 42.8538 -21.3170 16.8469 16.9091
# 3 21.6943 42.8538 123.5181 -19.5835 18.7275 22.4883
# 4 -14.3380 -21.3170 -19.5835 75.7547 3.8184 12.5295
# 5 10.2871 16.8469 18.7275 3.8184 59.9409 -5.7657
# 6 12.7484 16.9091 22.4883 12.5295 -5.7657 47.2640
#
#
#
# Elastic Compliance Matrix: (Units=1/GPa)
#
#
# Indices 1 2 3 4 5 6 
#
# 1 0.014062 -0.004578 0.000226 0.002008 -0.001613 -0.002992
# 2 -0.004578 0.010826 -0.001797 0.002257 -0.002093 -0.002637
# 3 0.000226 -0.001797 0.010899 0.003535 -0.003741 -0.005998
# 4 0.002008 0.002257 0.003535 0.016636 -0.003905 -0.007918
# 5 -0.001613 -0.002093 -0.003741 -0.003905 0.019580 0.006388
# 6 -0.002992 -0.002637 -0.005998 -0.007918 0.006388 0.028640
#
#
# Mechanical properties :
#
#
# Convention : Reuss Voigt Hill
#
# Bulk Modulus (GPa) = 42.57000 64.58169 53.57585
# Shear Modulus (GPa) = 41.40097 52.19910 46.80004
#
# Velocity S-wave (km/s) = 3.79166 4.25751 4.03132
# Velocity P-wave (km/s) = 5.82679 6.82603 6.34611
#
# Compressibility (1/GPa) = 0.02349072
#
# Stress axis : x y z
#
# Youngs Moduli (GPa) = 71.11354 92.37321 91.74860
#
# Poissons Ratio (x) = 0.42285 -0.02074
# Poissons Ratio (y) = 0.32553 0.16483
# Poissons Ratio (z) = -0.01607 0.16595
#
# Static dielectric constant tensor:
#      x y z
#    x 2.647620 0.105540 -0.237340 
#    y 0.105540 2.336760 -0.038190 
#    z -0.237340 -0.038190 2.606890 
# 
# From -- ./inp_files/240078.got.cif
#   From: 2010.05.17/outbox.cif.g08.bks.cpg/sg2_121_cif.got.tgz:240078.got - 2010.06.03 11:33:40.
