data_PCOD9032300
_publ_section_title
;
Structure prediction by ZEFSAII (Michael W. Deem and Ramdas Pophale) SiO2 
 PCOD9032300
Probable space group: P -1
;
_chemical_formula_sum "Si O2"
_cell_formula_units_Z 14
_cell_length_a 32.463199
_cell_length_b 4.869240
_cell_length_c 9.951297
_cell_angle_alpha 57.785026
_cell_angle_beta 146.650618
_cell_angle_gamma 132.328067
_cell_volume 637.638387
_symmetry_space_group_name_H-M "P -1"
_symmetry_group_IT_number 2
_symmetry_cell_setting 'triclinic'
loop_
_space_group_symop_operation_xyz
x,y,z
-x,-y,-z
loop_
_atom_site_type_symbol
_atom_site_label
_atom_site_fract_x
_atom_site_fract_y
_atom_site_fract_z
Si Si1 0.411975 0.390987 0.010171
Si Si2 0.339540 0.620997 0.509978
Si Si3 0.089532 0.510291 0.228175
Si Si4 0.826195 0.925227 0.455612
Si Si5 0.330522 0.507486 0.018073
Si Si6 0.433854 0.697673 0.501706
Si Si7 0.230193 0.778790 0.344140
O O1 0.391105 0.619162 0.783441
O O2 0.393485 0.482468 0.085406
O O3 0.349037 0.938021 0.942760
O O4 0.509730 0.474579 0.239734
O O5 0.401659 0.845079 0.498892
O O6 0.262216 0.702948 0.310918
O O7 0.295976 0.194700 0.453445
O O8 0.090432 0.120531 0.336656
O O9 0.137002 0.697974 0.166840
O O10 0.000000 0.500000 0.000000
O O11 0.147569 0.747266 0.451875
O O12 0.764217 0.838229 0.183445
O O13 0.766666 0.542953 0.474583
O O14 0.355069 0.472524 0.245868
O O15 0.500000 0.000000 0.500000
#
# Coordination Sequence:
#
# PCOD9032300 Si02
#       7
#     2   2   2   2   2   2   2
#     4  11  19  37  56  76 104 146 192 239 279 309
#     4  12  20  37  56  79 108 151 193 230 270 328
#     4  10  18  31  55  92 117 129 168 229 278 322
#     4  10  17  32  54  81 113 142 175 212 279 321
#     4  11  20  37  55  76 112 147 183 231 272 338
#     4  10  26  38  53  80 113 148 194 241 281 309
#     4  10  19  33  56  82 107 143 180 220 276 326
#
# _framework density 21.956018
#
# number of rings (size 3 to 8) (size 9 to 14) (size 15 to 20)
#    0.857    0.571    4.286    2.143    0.000    4.571 
#    0.000    5.000    0.000    0.000    0.000    6.000 
#    0.000    0.000    0.000    0.000    0.000    0.000 
#
# Total GULP energy -77982.134594 kJ/mol
# GULP energy per Si atom -5570.152471 kJ/mol
# Density = 2.190604 g / cm^3
# Si number density = 21.956018 Si / 1000 Ang^3
#
#
#
# Elastic Constant Matrix: (Units=GPa)
#
#
# Indices 1 2 3 4 5 6 
#
# 1 169.6207 8.6517 51.6230 -5.2609 13.9765 -4.9487
# 2 8.6517 53.6910 -8.8464 2.5569 -10.6280 -8.9856
# 3 51.6230 -8.8464 83.1975 7.1305 6.7098 11.1364
# 4 -5.2609 2.5569 7.1305 14.1451 -3.4115 -6.8503
# 5 13.9765 -10.6280 6.7098 -3.4115 35.6499 6.0229
# 6 -4.9487 -8.9856 11.1364 -6.8503 6.0229 33.2464
#
#
#
# Elastic Compliance Matrix: (Units=1/GPa)
#
#
# Indices 1 2 3 4 5 6 
#
# 1 0.008879 -0.002724 -0.007074 0.009257 -0.002989 0.005404
# 2 -0.002724 0.021410 0.003533 -0.004120 0.006010 0.002260
# 3 -0.007074 0.003533 0.019746 -0.018277 0.000136 -0.010503
# 4 0.009257 -0.004120 -0.018277 0.097459 0.003546 0.025825
# 5 -0.002989 0.006010 0.000136 0.003546 0.031992 -0.003931
# 6 0.005404 0.002260 -0.010503 0.025825 -0.003931 0.041045
#
#
# Mechanical properties :
#
#
# Convention : Reuss Voigt Hill
#
# Bulk Modulus (GPa) = 26.66417 45.48509 36.07463
# Shear Modulus (GPa) = 20.36134 33.61368 26.98751
#
# Velocity S-wave (km/s) = 3.04858 3.91699 3.50974
# Velocity P-wave (km/s) = 4.95606 6.42016 5.73502
#
# Compressibility (1/GPa) = 0.03750352
#
# Stress axis : x y z
#
# Youngs Moduli (GPa) = 112.63160 46.70653 50.64263
#
# Poissons Ratio (x) = 0.12724 0.35826
# Poissons Ratio (y) = 0.30685 -0.17892
# Poissons Ratio (z) = 0.79679 -0.16501
#
# Static dielectric constant tensor:
#      x y z
#    x 1.860940 -0.013920 0.023310 
#    y -0.013920 1.873160 -0.008930 
#    z 0.023310 -0.008930 1.889740 
# 
# From -- ./inp_files/358203.got.cif
#   From: 2010.05.17/outbox.cif.g08.bks.cpg/sg2_180_cif.got.tgz:358203.got - 2010.06.03 11:33:40.
