data_PCOD9032486
_publ_section_title
;
Structure prediction by ZEFSAII (Michael W. Deem and Ramdas Pophale) SiO2 
 PCOD9032486
Probable space group: P -1
;
_chemical_formula_sum "Si O2"
_cell_formula_units_Z 16
_cell_length_a 9.556382
_cell_length_b 15.556860
_cell_length_c 15.483275
_cell_angle_alpha 143.270960
_cell_angle_beta 145.462763
_cell_angle_gamma 39.504591
_cell_volume 737.149430
_symmetry_space_group_name_H-M "P -1"
_symmetry_group_IT_number 2
_symmetry_cell_setting 'triclinic'
loop_
_space_group_symop_operation_xyz
x,y,z
-x,-y,-z
loop_
_atom_site_type_symbol
_atom_site_label
_atom_site_fract_x
_atom_site_fract_y
_atom_site_fract_z
Si Si1 0.417515 0.497985 0.233981
Si Si2 0.205167 0.934061 0.128503
Si Si3 0.084153 0.035654 0.817069
Si Si4 0.751887 0.624406 0.639905
Si Si5 0.435166 0.254895 0.183815
Si Si6 0.348942 0.575213 0.897182
Si Si7 0.033172 0.813317 0.288787
Si Si8 0.427335 0.944982 0.679512
O O1 0.613953 0.554694 0.440434
O O2 0.415564 0.344821 0.156771
O O3 0.512851 0.479945 0.168915
O O4 0.137797 0.632341 0.200659
O O5 0.064053 0.977593 0.182787
O O6 0.443883 0.998397 0.289316
O O7 0.307639 0.753427 0.026518
O O8 0.000000 0.000000 0.000000
O O9 0.900903 0.119551 0.713232
O O10 0.278160 0.868342 0.756387
O O11 0.248780 0.151143 0.007289
O O12 0.651928 0.620954 0.684065
O O13 0.661308 0.807735 0.727874
O O14 0.062772 0.556776 0.737095
O O15 0.500000 0.500000 0.000000
O O16 0.208998 0.866246 0.488986
O O17 0.728673 0.905090 0.224823
#
# Coordination Sequence:
#
# PCOD9032486 Si02
#       8
#     2   2   2   2   2   2   2   2
#     4  11  26  42  70  99 134 185 222 267 345 407
#     4  12  23  42  69  94 129 179 223 270 330 405
#     4  11  23  41  67  98 135 169 226 285 325 387
#     4  11  22  47  68  95 141 178 222 280 332 402
#     4  11  23  41  69 100 131 179 229 273 332 402
#     4  12  26  45  65 101 142 172 220 285 341 392
#     4  10  23  44  66  97 136 169 220 284 330 389
#     4  10  22  43  71  96 129 179 225 269 337 398
#
# _framework density 21.705234000000001
#
# number of rings (size 3 to 8) (size 9 to 14) (size 15 to 20)
#    0.000    1.000    3.750    2.250    3.500    2.000 
#    2.250    0.000    0.000    0.000    0.000    0.000 
#    0.000    0.000    0.000    0.000    0.000    0.000 
#
# Total GULP energy -89379.456113 kJ/mol
# GULP energy per Si atom -5586.216007 kJ/mol
# Density = 2.165583 g / cm^3
# Si number density = 21.705234 Si / 1000 Ang^3
#
#
#
# Elastic Constant Matrix: (Units=GPa)
#
#
# Indices 1 2 3 4 5 6 
#
# 1 137.4754 27.4806 22.3547 3.3040 -13.4342 7.7149
# 2 27.4806 116.2772 11.9355 -3.7037 1.2841 18.4015
# 3 22.3547 11.9355 49.9495 0.3744 -4.5330 -0.6674
# 4 3.3040 -3.7037 0.3744 23.7946 6.3058 -5.6635
# 5 -13.4342 1.2841 -4.5330 6.3058 33.6071 -1.6179
# 6 7.7149 18.4015 -0.6674 -5.6635 -1.6179 33.7875
#
#
#
# Elastic Compliance Matrix: (Units=1/GPa)
#
#
# Indices 1 2 3 4 5 6 
#
# 1 0.008592 -0.001606 -0.003143 -0.002662 0.003503 -0.001428
# 2 -0.001606 0.010025 -0.001909 0.001073 -0.001726 -0.005034
# 3 -0.003143 -0.001909 0.022091 -0.000185 0.001939 0.002256
# 4 -0.002662 0.001073 -0.000185 0.046867 -0.009567 0.007418
# 5 0.003503 -0.001726 0.001939 -0.009567 0.033287 0.000169
# 6 -0.001428 -0.005034 0.002256 0.007418 0.000169 0.033961
#
#
# Mechanical properties :
#
#
# Convention : Reuss Voigt Hill
#
# Bulk Modulus (GPa) = 36.50535 47.47151 41.98843
# Shear Modulus (GPa) = 28.20580 34.36661 31.28620
#
# Velocity S-wave (km/s) = 3.60876 3.98343 3.80071
# Velocity P-wave (km/s) = 5.84973 6.56319 6.21670
#
# Compressibility (1/GPa) = 0.02739324
#
# Stress axis : x y z
#
# Youngs Moduli (GPa) = 116.38076 99.74634 45.26811
#
# Poissons Ratio (x) = 0.16015 0.14228
# Poissons Ratio (y) = 0.18686 0.08642
# Poissons Ratio (z) = 0.36580 0.19041
#
# Static dielectric constant tensor:
#      x y z
#    x 1.769220 -0.027530 0.003630 
#    y -0.027530 1.781510 -0.010480 
#    z 0.003630 -0.010480 1.842180 
# 
# From -- ./inp_files/280215.got.cif
#   From: 2010.05.17/outbox.cif.g08.bks.cpg/sg2_141_cif.got.tgz:280215.got - 2010.06.03 11:33:40.
