data_PCOD9032733
_publ_section_title
;
Structure prediction by ZEFSAII (Michael W. Deem and Ramdas Pophale) SiO2 
 PCOD9032733
Probable space group: P -1
;
_chemical_formula_sum "Si O2"
_cell_formula_units_Z 14
_cell_length_a 14.860130
_cell_length_b 9.202153
_cell_length_c 9.555560
_cell_angle_alpha 57.015927
_cell_angle_beta 36.709999
_cell_angle_gamma 75.086684
_cell_volume 611.982230
_symmetry_space_group_name_H-M "P -1"
_symmetry_group_IT_number 2
_symmetry_cell_setting 'triclinic'
loop_
_space_group_symop_operation_xyz
x,y,z
-x,-y,-z
loop_
_atom_site_type_symbol
_atom_site_label
_atom_site_fract_x
_atom_site_fract_y
_atom_site_fract_z
Si Si1 0.179402 0.239467 0.222725
Si Si2 0.753364 0.163512 0.309695
Si Si3 0.976428 0.855592 0.814695
Si Si4 0.182431 0.596957 0.171535
Si Si5 0.179554 0.148405 0.725889
Si Si6 0.356419 0.552416 0.219618
Si Si7 0.488429 0.806932 0.186430
O O1 0.234064 0.431621 0.133803
O O2 0.077257 0.249749 0.208372
O O3 0.069664 0.070414 0.544588
O O4 0.333709 0.192472 0.010280
O O5 0.901169 0.209736 0.212020
O O6 0.615097 0.212485 0.534246
O O7 0.708243 0.945811 0.441065
O O8 0.801332 0.264618 0.048769
O O9 0.822225 0.837862 0.111609
O O10 0.293892 0.673438 0.127487
O O11 0.000000 0.500000 0.500000
O O12 0.214177 0.352929 0.520116
O O13 0.000000 0.000000 0.000000
O O14 0.404888 0.650021 0.257147
O O15 0.500000 0.500000 0.000000
O O16 0.500000 0.000000 0.000000
#
# Coordination Sequence:
#
# PCOD9032733 Si02
#       7
#     2   2   2   2   2   2   2
#     4  11  24  44  70 103 147 188 241 301 368 425
#     4  11  24  43  73 105 143 187 245 304 358 433
#     4  10  22  43  73  99 137 198 237 298 362 429
#     4  12  26  44  71 108 146 188 250 301 359 438
#     4  10  22  46  72 101 143 191 244 295 363 426
#     4  12  26  47  76 104 148 200 241 299 376 431
#     4  12  26  47  74 106 150 188 245 305 366 436
#
# _framework density 22.876481999999999
#
# number of rings (size 3 to 8) (size 9 to 14) (size 15 to 20)
#    0.000    0.857    2.857    5.143    4.000    3.429 
#    0.000    2.143    0.000    0.000    0.000    0.000 
#    0.000    0.000    0.000    0.000    0.000    0.000 
#
# Total GULP energy -78318.237542 kJ/mol
# GULP energy per Si atom -5594.159824 kJ/mol
# Density = 2.282441 g / cm^3
# Si number density = 22.876482 Si / 1000 Ang^3
#
#
#
# Elastic Constant Matrix: (Units=GPa)
#
#
# Indices 1 2 3 4 5 6 
#
# 1 102.2889 -5.9427 41.7832 -4.6552 27.0414 -10.6425
# 2 -5.9427 69.6618 22.0611 9.0147 3.8233 -3.0288
# 3 41.7832 22.0611 81.6879 10.8936 19.1666 0.0873
# 4 -4.6552 9.0147 10.8936 41.7538 1.8417 -7.2461
# 5 27.0414 3.8233 19.1666 1.8417 32.5025 6.7205
# 6 -10.6425 -3.0288 0.0873 -7.2461 6.7205 28.0950
#
#
#
# Elastic Compliance Matrix: (Units=1/GPa)
#
#
# Indices 1 2 3 4 5 6 
#
# 1 0.018867 0.004826 -0.008434 0.006090 -0.014256 0.012674
# 2 0.004826 0.017203 -0.006285 -0.000650 -0.003184 0.004296
# 3 -0.008434 -0.006285 0.019564 -0.005398 -0.002497 -0.004728
# 4 0.006090 -0.000650 -0.005398 0.028322 -0.005669 0.010914
# 5 -0.014256 -0.003184 -0.002497 -0.005669 0.048693 -0.018845
# 6 0.012674 0.004296 -0.004728 0.010914 -0.018845 0.048195
#
#
# Mechanical properties :
#
#
# Convention : Reuss Voigt Hill
#
# Bulk Modulus (GPa) = 27.89699 41.04910 34.47304
# Shear Modulus (GPa) = 23.52066 33.51940 28.52003
#
# Velocity S-wave (km/s) = 3.20997 3.83199 3.53469
# Velocity P-wave (km/s) = 5.09506 6.12875 5.63566
#
# Compressibility (1/GPa) = 0.03584617
#
# Stress axis : x y z
#
# Youngs Moduli (GPa) = 53.00392 58.12980 51.11430
#
# Poissons Ratio (x) = -0.28053 0.43111
# Poissons Ratio (y) = -0.25579 0.32126
# Poissons Ratio (z) = 0.44705 0.36536
#
# Static dielectric constant tensor:
#      x y z
#    x 1.881370 -0.000700 -0.005380 
#    y -0.000700 1.878510 0.031910 
#    z -0.005380 0.031910 1.883780 
# 
# From -- ./inp_files/207132.got.cif
#   From: 2010.05.17/outbox.cif.g08.bks.cpg/sg2_104_cif.got.tgz:207132.got - 2010.06.03 11:33:40.
