data_PCOD9032782
_publ_section_title
;
Structure prediction by ZEFSAII (Michael W. Deem and Ramdas Pophale) SiO2 
 PCOD9032782
Probable space group: P -1
;
_chemical_formula_sum "Si O2"
_cell_formula_units_Z 16
_cell_length_a 14.884226
_cell_length_b 19.438611
_cell_length_c 9.181114
_cell_angle_alpha 129.196921
_cell_angle_beta 50.190173
_cell_angle_gamma 161.083032
_cell_volume 657.833359
_symmetry_space_group_name_H-M "P -1"
_symmetry_group_IT_number 2
_symmetry_cell_setting 'triclinic'
loop_
_space_group_symop_operation_xyz
x,y,z
-x,-y,-z
loop_
_atom_site_type_symbol
_atom_site_label
_atom_site_fract_x
_atom_site_fract_y
_atom_site_fract_z
Si Si1 0.888535 0.028783 0.529783
Si Si2 0.283192 0.775128 0.488440
Si Si3 0.586849 0.715424 0.656617
Si Si4 0.381946 0.274404 0.850265
Si Si5 0.467131 0.207418 0.923942
Si Si6 0.934141 0.758069 0.870823
Si Si7 0.051493 0.354673 0.539273
Si Si8 0.597190 0.016932 0.776411
O O1 0.809779 0.936195 0.646283
O O2 0.720904 0.856293 0.352008
O O3 0.769268 0.045474 0.669821
O O4 0.220994 0.237200 0.440520
O O5 0.341809 0.720844 0.281443
O O6 0.349068 0.824323 0.658103
O O7 0.988879 0.602892 0.492797
O O8 0.500000 0.000000 0.500000
O O9 0.349497 0.540847 0.548861
O O10 0.433503 0.660455 0.873867
O O11 0.321754 0.177192 0.926319
O O12 0.708375 0.531389 0.858648
O O13 0.218903 0.254108 0.982606
O O14 0.236514 0.980256 0.926623
O O15 0.018138 0.786032 0.657347
O O16 0.831237 0.231523 0.726586
O O17 0.500000 0.000000 0.000000
#
# Coordination Sequence:
#
# PCOD9032782 Si02
#       8
#     2   2   2   2   2   2   2   2
#     4  11  23  46  69 102 150 185 238 303 378 423
#     4  10  22  43  74  96 135 198 238 295 362 430
#     4  11  27  43  69 106 145 187 232 312 365 427
#     4  11  23  42  73 111 138 189 252 297 365 449
#     4  12  23  45  73 101 143 194 240 303 372 426
#     4  11  22  42  76 100 147 189 244 301 362 443
#     4  11  24  48  68 103 145 193 247 292 363 439
#     4  11  25  46  74 106 143 191 245 306 366 433
#
# _framework density 24.322268000000001
#
# number of rings (size 3 to 8) (size 9 to 14) (size 15 to 20)
#    0.000    1.000    6.250    0.375    5.250    1.000 
#    4.500    1.250    0.000    0.000    0.000    0.000 
#    0.000    0.000    0.000    0.000    0.000    0.000 
#
# Total GULP energy -89300.290286 kJ/mol
# GULP energy per Si atom -5581.268143 kJ/mol
# Density = 2.426691 g / cm^3
# Si number density = 24.322268 Si / 1000 Ang^3
#
#
#
# Elastic Constant Matrix: (Units=GPa)
#
#
# Indices 1 2 3 4 5 6 
#
# 1 92.8597 26.8723 44.3855 10.2750 -8.7764 28.9628
# 2 26.8723 76.1592 11.2416 4.5210 -3.1032 7.0779
# 3 44.3855 11.2416 163.8367 1.2136 -9.3241 20.9086
# 4 10.2750 4.5210 1.2136 22.9583 2.4042 11.0538
# 5 -8.7764 -3.1032 -9.3241 2.4042 37.6818 -4.4172
# 6 28.9628 7.0779 20.9086 11.0538 -4.4172 33.4634
#
#
#
# Elastic Compliance Matrix: (Units=1/GPa)
#
#
# Indices 1 2 3 4 5 6 
#
# 1 0.017343 -0.004477 -0.002797 -0.001293 0.001694 -0.011665
# 2 -0.004477 0.014689 0.000076 -0.001562 0.000437 0.001294
# 3 -0.002797 0.000076 0.007226 0.002086 0.000692 -0.002708
# 4 -0.001293 -0.001562 0.002086 0.053733 -0.005490 -0.018328
# 5 0.001694 0.000437 0.000692 -0.005490 0.027901 0.003506
# 6 -0.011665 0.001294 -0.002708 -0.018328 0.003506 0.047915
#
#
# Mechanical properties :
#
#
# Convention : Reuss Voigt Hill
#
# Bulk Modulus (GPa) = 40.21961 55.31716 47.76838
# Shear Modulus (GPa) = 26.11137 35.51110 30.81124
#
# Velocity S-wave (km/s) = 3.28007 3.82517 3.56306
# Velocity P-wave (km/s) = 5.56032 6.50400 6.05059
#
# Compressibility (1/GPa) = 0.02486350
#
# Stress axis : x y z
#
# Youngs Moduli (GPa) = 57.66145 68.07832 138.39738
#
# Poissons Ratio (x) = 0.30476 0.38703
# Poissons Ratio (y) = 0.25813 -0.01055
# Poissons Ratio (z) = 0.16125 -0.00519
#
# Static dielectric constant tensor:
#      x y z
#    x 1.960370 -0.004920 0.000040 
#    y -0.004920 2.057510 -0.059570 
#    z 0.000040 -0.059570 1.951280 
# 
# From -- ./inp_files/319468.got.cif
#   From: 2010.05.17/outbox.cif.g08.bks.cpg/sg2_160_cif.got.tgz:319468.got - 2010.06.03 11:33:40.
