data_PCOD9032530
_publ_section_title
;
Structure prediction by ZEFSAII (Michael W. Deem and Ramdas Pophale) SiO2 
 PCOD9032530
Probable space group: P -1
;
_chemical_formula_sum "Si O2"
_cell_formula_units_Z 12
_cell_length_a 8.771441
_cell_length_b 13.240447
_cell_length_c 6.864507
_cell_angle_alpha 79.862247
_cell_angle_beta 53.178250
_cell_angle_gamma 52.806341
_cell_volume 486.199983
_symmetry_space_group_name_H-M "P -1"
_symmetry_group_IT_number 2
_symmetry_cell_setting 'triclinic'
loop_
_space_group_symop_operation_xyz
x,y,z
-x,-y,-z
loop_
_atom_site_type_symbol
_atom_site_label
_atom_site_fract_x
_atom_site_fract_y
_atom_site_fract_z
Si Si1 0.731931 0.341886 0.973548
Si Si2 0.758856 0.465077 0.248800
Si Si3 0.246099 0.386781 0.470211
Si Si4 0.038475 0.084741 0.074253
Si Si5 0.578068 0.903808 0.654329
Si Si6 0.053184 0.769741 0.560848
O O1 0.763070 0.441106 0.023570
O O2 0.477383 0.374315 0.216418
O O3 0.949081 0.204483 0.957756
O O4 0.769502 0.318889 0.723107
O O5 0.500000 0.500000 0.500000
O O6 0.774901 0.569914 0.301906
O O7 0.955764 0.326902 0.259824
O O8 0.322190 0.242457 0.435443
O O9 0.000000 0.500000 0.500000
O O10 0.885990 0.157695 0.364155
O O11 0.324936 0.983190 0.940319
O O12 0.000000 0.000000 0.000000
O O13 0.794602 0.878468 0.621569
O O14 0.500000 0.000000 0.500000
#
# Coordination Sequence:
#
# PCOD9032530 Si02
#       6
#     2   2   2   2   2   2
#     4  10  22  43  72 100 134 180 234 279 348 410
#     4   9  21  41  69  94 139 173 229 280 341 400
#     4  11  22  43  70 102 138 181 228 288 340 405
#     4  11  23  44  68 100 139 177 233 284 341 414
#     4  12  24  44  70 102 142 182 232 281 345 411
#     4  11  23  43  71  99 137 182 224 288 350 401
#
# _framework density 24.681201000000001
#
# number of rings (size 3 to 8) (size 9 to 14) (size 15 to 20)
#    0.000    1.333    5.000    0.500    0.000    3.333 
#    0.000    2.500    7.333    0.000    0.000    0.000 
#    0.000    0.000    0.000    0.000    0.000    0.000 
#
# Total GULP energy -67085.332807 kJ/mol
# GULP energy per Si atom -5590.444401 kJ/mol
# Density = 2.462503 g / cm^3
# Si number density = 24.681201 Si / 1000 Ang^3
#
#
#
# Elastic Constant Matrix: (Units=GPa)
#
#
# Indices 1 2 3 4 5 6 
#
# 1 125.4056 52.0912 64.7061 13.9539 34.5463 12.5894
# 2 52.0912 152.3334 35.2748 13.6379 23.1171 -14.1246
# 3 64.7061 35.2748 142.9117 18.3672 53.2046 19.7133
# 4 13.9539 13.6379 18.3672 29.8841 2.7152 4.3757
# 5 34.5463 23.1171 53.2046 2.7152 58.3243 24.8132
# 6 12.5894 -14.1246 19.7133 4.3757 24.8132 54.2900
#
#
#
# Elastic Compliance Matrix: (Units=1/GPa)
#
#
# Indices 1 2 3 4 5 6 
#
# 1 0.011862 -0.002869 -0.003483 -0.001730 -0.002160 -0.001106
# 2 -0.002869 0.008836 0.000388 -0.003284 -0.004118 0.004970
# 3 -0.003483 0.000388 0.012759 -0.005674 -0.010024 0.001315
# 4 -0.001730 -0.003284 -0.005674 0.039297 0.007866 -0.005156
# 5 -0.002160 -0.004118 -0.010024 0.007866 0.034509 -0.013337
# 6 -0.001106 0.004970 0.001315 -0.005156 -0.013337 0.026003
#
#
# Mechanical properties :
#
#
# Convention : Reuss Voigt Hill
#
# Bulk Modulus (GPa) = 46.45491 80.53277 63.49384
# Shear Modulus (GPa) = 32.81477 46.40492 39.60985
#
# Velocity S-wave (km/s) = 3.65025 4.34080 4.01042
# Velocity P-wave (km/s) = 6.05216 7.60417 6.87212
#
# Compressibility (1/GPa) = 0.02152625
#
# Stress axis : x y z
#
# Youngs Moduli (GPa) = 84.30312 113.17676 78.37885
#
# Poissons Ratio (x) = 0.32475 0.27302
# Poissons Ratio (y) = 0.24190 -0.03040
# Poissons Ratio (z) = 0.29366 -0.04389
#
# Static dielectric constant tensor:
#      x y z
#    x 1.977770 0.027580 -0.027110 
#    y 0.027580 1.977530 0.016490 
#    z -0.027110 0.016490 2.064090 
# 
# From -- ./inp_files/21671.got.cif
#   From: 2010.05.17/outbox.cif.g08.bks.cpg/sg2_11_cif.got.tgz:21671.got - 2010.06.03 11:33:40.
