data_PCOD9032177
_publ_section_title
;
Structure prediction by ZEFSAII (Michael W. Deem and Ramdas Pophale) SiO2 
 PCOD9032177
Probable space group: P -1
;
_chemical_formula_sum "Si O2"
_cell_formula_units_Z 16
_cell_length_a 12.451089
_cell_length_b 5.767301
_cell_length_c 9.446684
_cell_angle_alpha 94.126788
_cell_angle_beta 107.340457
_cell_angle_gamma 101.519591
_cell_volume 628.183516
_symmetry_space_group_name_H-M "P -1"
_symmetry_group_IT_number 2
_symmetry_cell_setting 'triclinic'
loop_
_space_group_symop_operation_xyz
x,y,z
-x,-y,-z
loop_
_atom_site_type_symbol
_atom_site_label
_atom_site_fract_x
_atom_site_fract_y
_atom_site_fract_z
Si Si1 0.207228 0.901892 0.379989
Si Si2 0.814921 0.362092 0.365381
Si Si3 0.564750 0.778353 0.504793
Si Si4 0.710600 0.352475 0.020871
Si Si5 0.526673 0.591149 0.191120
Si Si6 0.885042 0.529508 0.880960
Si Si7 0.407389 0.132408 0.036998
Si Si8 0.955211 0.789348 0.631372
O O1 0.248480 0.785681 0.532269
O O2 0.178792 0.707907 0.238311
O O3 0.307499 0.123784 0.377310
O O4 0.087516 0.966982 0.384492
O O5 0.734849 0.384086 0.200881
O O6 0.879940 0.609452 0.477908
O O7 0.914657 0.237614 0.339044
O O8 0.500000 0.500000 0.500000
O O9 0.590300 0.741956 0.348458
O O10 0.500000 0.000000 0.500000
O O11 0.707625 0.065979 0.991552
O O12 0.595351 0.340658 0.880675
O O13 0.803015 0.549220 0.981034
O O14 0.600018 0.675099 0.080822
O O15 0.481453 0.307189 0.189953
O O16 0.918599 0.715109 0.775437
O O17 0.000000 0.500000 0.000000
O O18 0.500000 0.000000 0.000000
#
# Coordination Sequence:
#
# PCOD9032177 Si02
#       8
#     2   2   2   2   2   2   2   2
#     4  11  26  45  73  99 143 192 243 300 374 439
#     4  10  22  43  69  99 140 182 245 300 370 438
#     4  12  30  48  76 110 151 203 253 307 371 455
#     4  11  22  39  70  97 140 182 237 298 377 429
#     4  10  23  43  67 100 140 182 244 302 361 441
#     4  11  24  44  67 102 141 182 234 300 369 446
#     4   9  21  39  64  96 134 176 232 303 357 425
#     4  10  23  44  68  99 138 188 236 306 362 452
#
# _framework density 25.470264
#
# number of rings (size 3 to 8) (size 9 to 14) (size 15 to 20)
#    0.000    1.500    1.250    1.875   10.500    4.500 
#    2.250    0.000    0.000    0.000    0.000    0.000 
#    0.000    0.000    0.000    0.000    0.000    0.000 
#
# Total GULP energy -89200.737757 kJ/mol
# GULP energy per Si atom -5575.046110 kJ/mol
# Density = 2.541229 g / cm^3
# Si number density = 25.470264 Si / 1000 Ang^3
#
#
#
# Elastic Constant Matrix: (Units=GPa)
#
#
# Indices 1 2 3 4 5 6 
#
# 1 53.5119 -2.7136 -4.9013 -19.4196 13.7170 3.9690
# 2 -2.7136 80.1320 23.0978 -6.9098 6.3600 3.9047
# 3 -4.9013 23.0978 121.3161 -3.2575 7.5304 5.7100
# 4 -19.4196 -6.9098 -3.2575 34.2334 -1.1516 -6.2731
# 5 13.7170 6.3600 7.5304 -1.1516 39.2975 -3.6984
# 6 3.9690 3.9047 5.7100 -6.2731 -3.6984 40.8960
#
#
#
# Elastic Compliance Matrix: (Units=1/GPa)
#
#
# Indices 1 2 3 4 5 6 
#
# 1 0.027303 0.002644 0.001715 0.015545 -0.009988 -0.001660
# 2 0.002644 0.013794 -0.002205 0.003814 -0.002708 -0.000926
# 3 0.001715 -0.002205 0.008945 0.001086 -0.002039 -0.001223
# 4 0.015545 0.003814 0.001086 0.039400 -0.004759 0.003589
# 5 -0.009988 -0.002708 -0.002039 -0.004759 0.029951 0.003491
# 6 -0.001660 -0.000926 -0.001223 0.003589 0.003491 0.025739
#
#
# Mechanical properties :
#
#
# Convention : Reuss Voigt Hill
#
# Bulk Modulus (GPa) = 18.39908 31.76953 25.08430
# Shear Modulus (GPa) = 31.45819 38.85050 35.15434
#
# Velocity S-wave (km/s) = 3.51820 3.90978 3.71915
# Velocity P-wave (km/s) = 4.87269 5.73429 5.32096
#
# Compressibility (1/GPa) = 0.05435054
#
# Stress axis : x y z
#
# Youngs Moduli (GPa) = 36.62557 72.49777 111.78940
#
# Poissons Ratio (x) = -0.19170 -0.19174
# Poissons Ratio (y) = -0.09685 0.24653
# Poissons Ratio (z) = -0.06282 0.15988
#
# Static dielectric constant tensor:
#      x y z
#    x 2.113870 -0.096740 -0.067240 
#    y -0.096740 2.523680 0.033040 
#    z -0.067240 0.033040 2.381980 
# 
# From -- ./inp_files/289048.got.cif
#   From: 2010.05.17/outbox.cif.g08.bks.cpg/sg2_145_cif.got.tgz:289048.got - 2010.06.03 11:33:40.
