data_PCOD9032239
_publ_section_title
;
Structure prediction by ZEFSAII (Michael W. Deem and Ramdas Pophale) SiO2 
 PCOD9032239
Probable space group: P -1
;
_chemical_formula_sum "Si O2"
_cell_formula_units_Z 14
_cell_length_a 17.872844
_cell_length_b 10.418624
_cell_length_c 7.622253
_cell_angle_alpha 131.119125
_cell_angle_beta 38.802786
_cell_angle_gamma 146.744968
_cell_volume 487.655177
_symmetry_space_group_name_H-M "P -1"
_symmetry_group_IT_number 2
_symmetry_cell_setting 'triclinic'
loop_
_space_group_symop_operation_xyz
x,y,z
-x,-y,-z
loop_
_atom_site_type_symbol
_atom_site_label
_atom_site_fract_x
_atom_site_fract_y
_atom_site_fract_z
Si Si1 0.154468 0.046054 0.102902
Si Si2 0.000000 0.000000 0.000000
Si Si3 0.784434 0.470158 0.980168
Si Si4 0.474892 0.346054 0.235784
Si Si5 0.575062 0.162526 0.671328
Si Si6 0.500000 0.500000 0.000000
Si Si7 0.885801 0.551683 0.262057
Si Si8 0.276827 0.932133 0.465456
O O1 0.222622 0.954152 0.772731
O O2 0.299307 0.285194 0.151446
O O3 0.071629 0.079422 0.137738
O O4 0.014456 0.830234 0.286453
O O5 0.942718 0.742867 0.904726
O O6 0.633416 0.431650 0.129748
O O7 0.784218 0.456125 0.179202
O O8 0.804251 0.299574 0.708394
O O9 0.482818 0.529402 0.283948
O O10 0.319821 0.136032 0.444746
O O11 0.482227 0.248569 0.949717
O O12 0.759973 0.399171 0.512098
O O13 0.562672 0.022085 0.728533
O O14 0.500000 0.000000 0.500000
O O15 0.000000 0.500000 0.000000
#
# Coordination Sequence:
#
# PCOD9032239 Si02
#       8
#     2   1   2   2   2   1   2   2
#     4  11  25  47  73 105 146 197 239 316 357 458
#     4  10  22  46  66  98 152 190 232 286 386 426
#     4  10  22  43  70 102 145 188 235 301 358 444
#     4  11  24  44  70 103 139 194 242 301 362 438
#     4  11  21  42  71 105 143 181 236 307 365 435
#     4  12  26  48  72 102 154 186 252 302 380 438
#     4  11  23  42  72 111 144 182 245 304 371 427
#     4  11  23  42  75 106 138 185 253 297 364 431
#
# _framework density 28.708812000000002
#
# number of rings (size 3 to 8) (size 9 to 14) (size 15 to 20)
#    0.000    1.143    2.857    4.286    2.000    2.857 
#    5.143    0.714    0.000    0.000    0.000    0.000 
#    0.000    0.000    0.000    0.000    0.000    0.000 
#
# Total GULP energy -77937.374508 kJ/mol
# GULP energy per Si atom -5566.955322 kJ/mol
# Density = 2.864347 g / cm^3
# Si number density = 28.708812 Si / 1000 Ang^3
#
#
#
# Elastic Constant Matrix: (Units=GPa)
#
#
# Indices 1 2 3 4 5 6 
#
# 1 169.8510 42.7748 13.9254 -6.4833 4.8349 7.4022
# 2 42.7748 166.2089 25.5811 1.8403 25.0669 -1.2469
# 3 13.9254 25.5811 107.5711 10.2592 28.3606 -8.0696
# 4 -6.4833 1.8403 10.2592 49.4812 -7.0748 12.6169
# 5 4.8349 25.0669 28.3606 -7.0748 29.3597 0.5038
# 6 7.4022 -1.2469 -8.0696 12.6169 0.5038 53.5027
#
#
#
# Elastic Compliance Matrix: (Units=1/GPa)
#
#
# Indices 1 2 3 4 5 6 
#
# 1 0.006543 -0.001858 -0.001310 0.001936 0.002269 -0.001624
# 2 -0.001858 0.007514 0.000613 -0.001946 -0.007189 0.001051
# 3 -0.001310 0.000613 0.014429 -0.006490 -0.015880 0.004052
# 4 0.001936 -0.001946 -0.006490 0.025790 0.013955 -0.007505
# 5 0.002269 -0.007189 -0.015880 0.013955 0.058642 -0.006719
# 6 -0.001624 0.001051 0.004052 -0.007505 -0.006719 0.021384
#
#
# Mechanical properties :
#
#
# Convention : Reuss Voigt Hill
#
# Bulk Modulus (GPa) = 42.77628 67.57707 55.17668
# Shear Modulus (GPa) = 33.96659 50.55872 42.26266
#
# Velocity S-wave (km/s) = 3.44341 4.20108 3.84098
# Velocity P-wave (km/s) = 5.54454 6.86455 6.23955
#
# Compressibility (1/GPa) = 0.02337744
#
# Stress axis : x y z
#
# Youngs Moduli (GPa) = 152.83658 133.08656 69.30325
#
# Poissons Ratio (x) = 0.24728 0.09077
# Poissons Ratio (y) = 0.28398 -0.04251
# Poissons Ratio (z) = 0.20018 -0.08164
#
# Static dielectric constant tensor:
#      x y z
#    x 1.873180 0.304550 -0.035800 
#    y 0.304550 1.963380 -0.004980 
#    z -0.035800 -0.004980 2.420490 
# 
# From -- ./inp_files/345573.got.cif
#   From: 2010.05.17/outbox.cif.g08.bks.cpg/sg2_173_cif.got.tgz:345573.got - 2010.06.03 11:33:40.
