data_PCOD9032518
_publ_section_title
;
Structure prediction by ZEFSAII (Michael W. Deem and Ramdas Pophale) SiO2 
 PCOD9032518
Probable space group: P -1
;
_chemical_formula_sum "Si O2"
_cell_formula_units_Z 16
_cell_length_a 14.014915
_cell_length_b 5.450188
_cell_length_c 13.278209
_cell_angle_alpha 114.591702
_cell_angle_beta 140.342905
_cell_angle_gamma 71.231649
_cell_volume 588.568118
_symmetry_space_group_name_H-M "P -1"
_symmetry_group_IT_number 2
_symmetry_cell_setting 'triclinic'
loop_
_space_group_symop_operation_xyz
x,y,z
-x,-y,-z
loop_
_atom_site_type_symbol
_atom_site_label
_atom_site_fract_x
_atom_site_fract_y
_atom_site_fract_z
Si Si1 0.142438 0.451376 0.940105
Si Si2 0.742089 0.436059 0.226535
Si Si3 0.986967 0.002928 0.870411
Si Si4 0.412090 0.319873 0.436346
Si Si5 0.679398 0.177183 0.709156
Si Si6 0.500937 0.908711 0.101012
Si Si7 0.976839 0.744313 0.366968
Si Si8 0.698770 0.337400 0.413172
O O1 0.067608 0.256873 0.928468
O O2 0.156392 0.245672 0.822423
O O3 0.275685 0.603045 0.130841
O O4 0.044523 0.695104 0.848914
O O5 0.634392 0.695068 0.179955
O O6 0.730962 0.371897 0.325634
O O7 0.908519 0.508502 0.340997
O O8 0.658730 0.236401 0.046142
O O9 0.812513 0.077234 0.725321
O O10 0.000000 0.000000 0.000000
O O11 0.595695 0.403474 0.598214
O O12 0.351371 0.426057 0.512230
O O13 0.500000 0.000000 0.500000
O O14 0.317761 0.101036 0.264072
O O15 0.557378 0.135279 0.262779
O O16 0.500000 0.000000 0.000000
O O17 0.133335 0.741261 0.432340
O O18 0.000000 0.000000 0.500000
#
# Coordination Sequence:
#
# PCOD9032518 Si02
#       8
#     2   2   2   2   2   2   2   2
#     4  11  26  44  78 110 148 202 246 311 386 447
#     4  10  22  43  71  98 142 189 241 301 367 445
#     4  10  22  45  77 109 145 193 250 312 373 452
#     4  11  27  43  72 104 143 191 250 312 377 456
#     4  10  24  45  68 102 142 186 251 306 373 451
#     4   9  20  41  71 100 136 184 241 296 364 443
#     4  12  26  45  71 112 148 194 252 309 372 453
#     4  11  24  45  70 103 144 192 240 310 379 439
#
# _framework density 27.184619999999999
#
# number of rings (size 3 to 8) (size 9 to 14) (size 15 to 20)
#    0.000    1.500    1.250    2.625    7.000    9.000 
#    0.000    0.000    0.000    0.000    0.000    0.000 
#    0.000    0.000    0.000    0.000    0.000    0.000 
#
# Total GULP energy -89089.220709 kJ/mol
# GULP energy per Si atom -5568.076294 kJ/mol
# Density = 2.712275 g / cm^3
# Si number density = 27.184620 Si / 1000 Ang^3
#
#
#
# Elastic Constant Matrix: (Units=GPa)
#
#
# Indices 1 2 3 4 5 6 
#
# 1 123.2129 43.5998 61.8123 18.0152 2.4486 6.6172
# 2 43.5998 148.0527 86.6289 4.5812 12.7918 2.0232
# 3 61.8123 86.6289 198.3419 41.1266 -9.8723 8.2811
# 4 18.0152 4.5812 41.1266 72.9113 1.4218 15.3968
# 5 2.4486 12.7918 -9.8723 1.4218 41.1021 6.0003
# 6 6.6172 2.0232 8.2811 15.3968 6.0003 53.0004
#
#
#
# Elastic Compliance Matrix: (Units=1/GPa)
#
#
# Indices 1 2 3 4 5 6 
#
# 1 0.009964 -0.001544 -0.002232 -0.000993 -0.000544 -0.000486
# 2 -0.001544 0.010285 -0.004746 0.002428 -0.004382 0.000333
# 3 -0.002232 -0.004746 0.008883 -0.004206 0.003911 -0.000149
# 4 -0.000993 0.002428 -0.004206 0.017075 -0.001702 -0.004079
# 5 -0.000544 -0.004382 0.003911 -0.001702 0.027155 -0.002956
# 6 -0.000486 0.000333 -0.000149 -0.004079 -0.002956 0.020459
#
#
# Mechanical properties :
#
#
# Convention : Reuss Voigt Hill
#
# Bulk Modulus (GPa) = 82.72540 94.85437 88.78989
# Shear Modulus (GPa) = 43.51769 51.90721 47.71245
#
# Velocity S-wave (km/s) = 4.00537 4.37445 4.19397
# Velocity P-wave (km/s) = 7.20331 7.77707 7.49568
#
# Compressibility (1/GPa) = 0.01208819
#
# Stress axis : x y z
#
# Youngs Moduli (GPa) = 100.36012 97.22736 112.57014
#
# Poissons Ratio (x) = 0.15013 0.25123
# Poissons Ratio (y) = 0.15497 0.53430
# Poissons Ratio (z) = 0.22398 0.46148
#
# Static dielectric constant tensor:
#      x y z
#    x 2.327410 0.036290 0.236360 
#    y 0.036290 2.474370 -0.077400 
#    z 0.236360 -0.077400 2.404960 
# 
# From -- ./inp_files/526031.got.cif
#   From: 2010.05.17/outbox.cif.g08.bks.cpg/sg2_264_cif.got.tgz:526031.got - 2010.06.03 11:33:40.
