data_PCOD9032794
_publ_section_title
;
Structure prediction by ZEFSAII (Michael W. Deem and Ramdas Pophale) SiO2 
 PCOD9032794
Probable space group: P -1
;
_chemical_formula_sum "Si O2"
_cell_formula_units_Z 14
_cell_length_a 12.875264
_cell_length_b 9.875949
_cell_length_c 8.897121
_cell_angle_alpha 109.544495
_cell_angle_beta 114.850332
_cell_angle_gamma 34.633845
_cell_volume 583.290170
_symmetry_space_group_name_H-M "P -1"
_symmetry_group_IT_number 2
_symmetry_cell_setting 'triclinic'
loop_
_space_group_symop_operation_xyz
x,y,z
-x,-y,-z
loop_
_atom_site_type_symbol
_atom_site_label
_atom_site_fract_x
_atom_site_fract_y
_atom_site_fract_z
Si Si1 0.613715 0.280910 0.097716
Si Si2 0.941099 0.519682 0.141198
Si Si3 0.221789 0.661808 0.538042
Si Si4 0.801139 0.065175 0.562523
Si Si5 0.336958 0.231730 0.384130
Si Si6 0.922239 0.916948 0.913514
Si Si7 0.580534 0.071950 0.217775
O O1 0.697173 0.306160 0.281742
O O2 0.519266 0.241350 0.110773
O O3 0.500000 0.500000 0.000000
O O4 0.781524 0.042555 0.014069
O O5 0.124861 0.378380 0.303856
O O6 0.926643 0.362232 0.091732
O O7 0.752208 0.794770 0.173267
O O8 0.000000 0.500000 0.000000
O O9 0.317090 0.413716 0.497934
O O10 0.005259 0.850241 0.524565
O O11 0.247130 0.719149 0.416408
O O12 0.814571 0.016658 0.726541
O O13 0.666328 0.091760 0.404414
O O14 0.500000 0.000000 0.500000
O O15 0.413359 0.156261 0.231144
O O16 0.000000 0.000000 0.000000
#
# Coordination Sequence:
#
# PCOD9032794 Si02
#       7
#     2   2   2   2   2   2   2
#     4  11  26  44  70 113 155 189 253 308 374 449
#     4  12  28  50  76 108 155 192 252 312 379 453
#     4  10  23  44  71 103 145 195 245 304 364 447
#     4  10  22  43  75 102 142 190 253 295 366 441
#     4  12  29  46  77 109 149 198 257 308 377 444
#     4  12  26  44  74 108 142 196 246 305 376 442
#     4  11  26  50  77 107 147 204 244 311 377 444
#
# _framework density 24.001778000000002
#
# number of rings (size 3 to 8) (size 9 to 14) (size 15 to 20)
#    0.000    0.857    4.286    0.857   10.000    2.857 
#    0.000    0.000    0.000    0.000    0.000    0.000 
#    0.000    0.000    0.000    0.000    0.000    0.000 
#
# Total GULP energy -78415.132059 kJ/mol
# GULP energy per Si atom -5601.080861 kJ/mol
# Density = 2.394715 g / cm^3
# Si number density = 24.001778 Si / 1000 Ang^3
#
#
#
# Elastic Constant Matrix: (Units=GPa)
#
#
# Indices 1 2 3 4 5 6 
#
# 1 85.7861 50.5069 25.0483 3.1522 -2.0096 10.1127
# 2 50.5069 157.3422 28.9073 2.5562 8.0088 30.2876
# 3 25.0483 28.9073 83.9283 -5.3232 -4.0765 13.8952
# 4 3.1522 2.5562 -5.3232 36.1955 1.8640 -4.4892
# 5 -2.0096 8.0088 -4.0765 1.8640 31.3675 -1.9173
# 6 10.1127 30.2876 13.8952 -4.4892 -1.9173 49.1143
#
#
#
# Elastic Compliance Matrix: (Units=1/GPa)
#
#
# Indices 1 2 3 4 5 6 
#
# 1 0.015241 -0.004477 -0.003084 -0.001506 0.001835 0.000429
# 2 -0.004477 0.009052 -0.001234 -0.000836 -0.002984 -0.004504
# 3 -0.003084 -0.001234 0.013845 0.002025 0.001658 -0.002271
# 4 -0.001506 -0.000836 0.002025 0.028524 -0.001143 0.002815
# 5 0.001835 -0.002984 0.001658 -0.001143 0.033176 0.002184
# 6 0.000429 -0.004504 -0.002271 0.002815 0.002184 0.024035
#
#
# Mechanical properties :
#
#
# Convention : Reuss Voigt Hill
#
# Bulk Modulus (GPa) = 48.66640 59.55349 54.10995
# Shear Modulus (GPa) = 33.71242 38.17505 35.94374
#
# Velocity S-wave (km/s) = 3.75184 3.99245 3.87401
# Velocity P-wave (km/s) = 6.25209 6.79108 6.52715
#
# Compressibility (1/GPa) = 0.02054806
#
# Stress axis : x y z
#
# Youngs Moduli (GPa) = 65.61176 110.47334 72.22663
#
# Poissons Ratio (x) = 0.49463 0.22275
# Poissons Ratio (y) = 0.29377 0.08911
# Poissons Ratio (z) = 0.20235 0.13629
#
# Static dielectric constant tensor:
#      x y z
#    x 1.937820 -0.014310 -0.008260 
#    y -0.014310 1.912520 -0.044780 
#    z -0.008260 -0.044780 1.916340 
# 
# From -- ./inp_files/244605.got.cif
#   From: 2010.05.17/outbox.cif.g08.bks.cpg/sg2_123_cif.got.tgz:244605.got - 2010.06.03 11:33:40.
