data_PCOD9032711
_publ_section_title
;
Structure prediction by ZEFSAII (Michael W. Deem and Ramdas Pophale) SiO2 
 PCOD9032711
Probable space group: P -1
;
_chemical_formula_sum "Si O2"
_cell_formula_units_Z 11
_cell_length_a 8.462178
_cell_length_b 10.578912
_cell_length_c 8.236951
_cell_angle_alpha 43.805864
_cell_angle_beta 93.825822
_cell_angle_gamma 113.757311
_cell_volume 436.992925
_symmetry_space_group_name_H-M "P -1"
_symmetry_group_IT_number 2
_symmetry_cell_setting 'triclinic'
loop_
_space_group_symop_operation_xyz
x,y,z
-x,-y,-z
loop_
_atom_site_type_symbol
_atom_site_label
_atom_site_fract_x
_atom_site_fract_y
_atom_site_fract_z
Si Si1 0.594343 0.297072 0.042080
Si Si2 0.000000 0.500000 0.500000
Si Si3 0.131409 0.491512 0.875277
Si Si4 0.788102 0.773457 0.493859
Si Si5 0.306817 0.941907 0.961563
Si Si6 0.181455 0.096765 0.262066
O O1 0.683088 0.519347 0.741215
O O2 0.680026 0.161820 0.109881
O O3 0.662908 0.362471 0.170805
O O4 0.375357 0.171227 0.123938
O O5 0.101946 0.547732 0.642805
O O6 0.140298 0.749132 0.222557
O O7 0.112266 0.261830 0.073896
O O8 0.000000 0.500000 0.000000
O O9 0.774559 0.872603 0.571655
O O10 0.008147 0.872450 0.407845
O O11 0.719333 0.860600 0.263283
O O12 0.500000 0.000000 0.000000
#
# Coordination Sequence:
#
# PCOD9032711 Si02
#       6
#     2   1   2   2   2   2
#     4  11  25  47  77 106 145 199 243 309 369 427
#     4  12  26  48  74 108 156 188 246 312 360 442
#     4  11  21  46  78 105 149 198 237 301 376 427
#     4  10  22  45  72 101 148 192 244 299 366 441
#     4  12  29  48  70 110 149 195 251 302 368 444
#     4  10  22  43  73 111 143 192 253 301 363 443
#
# _framework density 25.172031
#
# number of rings (size 3 to 8) (size 9 to 14) (size 15 to 20)
#    0.000    1.091    3.636    2.182    5.091    2.909 
#    3.273    1.818    0.000    0.000    0.000    0.000 
#    0.000    0.000    0.000    0.000    0.000    0.000 
#
# Total GULP energy -61338.363059 kJ/mol
# GULP energy per Si atom -5576.214824 kJ/mol
# Density = 2.511474 g / cm^3
# Si number density = 25.172031 Si / 1000 Ang^3
#
#
#
# Elastic Constant Matrix: (Units=GPa)
#
#
# Indices 1 2 3 4 5 6 
#
# 1 102.1896 25.3858 68.4541 -6.3841 -9.2153 6.9587
# 2 25.3858 49.8395 42.0937 4.0989 9.2188 27.9365
# 3 68.4541 42.0937 147.2678 17.5743 23.4609 16.8945
# 4 -6.3841 4.0989 17.5743 37.6601 22.6642 0.6910
# 5 -9.2153 9.2188 23.4609 22.6642 43.7063 -4.6505
# 6 6.9587 27.9365 16.8945 0.6910 -4.6505 46.0273
#
#
#
# Elastic Compliance Matrix: (Units=1/GPa)
#
#
# Indices 1 2 3 4 5 6 
#
# 1 0.017970 -0.006712 -0.008822 0.002118 0.009429 0.005516
# 2 -0.006712 0.043854 -0.005007 0.004797 -0.013143 -0.025165
# 3 -0.008822 -0.005007 0.013949 -0.003426 -0.006661 -0.001369
# 4 0.002118 0.004797 -0.003426 0.040122 -0.020021 -0.004599
# 5 0.009429 -0.013143 -0.006661 -0.020021 0.043050 0.013646
# 6 0.005516 -0.025165 -0.001369 -0.004599 0.013646 0.038116
#
#
# Mechanical properties :
#
#
# Convention : Reuss Voigt Hill
#
# Bulk Modulus (GPa) = 28.82578 63.46267 46.14422
# Shear Modulus (GPa) = 20.02355 36.36963 28.19659
#
# Velocity S-wave (km/s) = 2.82346 3.80523 3.35050
# Velocity P-wave (km/s) = 4.70166 6.67628 5.77401
#
# Compressibility (1/GPa) = 0.03469117
#
# Stress axis : x y z
#
# Youngs Moduli (GPa) = 55.64933 22.80307 71.68949
#
# Poissons Ratio (x) = 0.15306 0.63243
# Poissons Ratio (y) = 0.37353 0.35891
# Poissons Ratio (z) = 0.49093 0.11416
#
# Static dielectric constant tensor:
#      x y z
#    x 2.009460 0.005510 -0.038520 
#    y 0.005510 2.127330 -0.041910 
#    z -0.038520 -0.041910 1.968810 
# 
# From -- ./inp_files/183873.got.cif
#   From: 2010.05.17/outbox.cif.g08.bks.cpg/sg2_92_cif.got.tgz:183873.got - 2010.06.03 11:33:40.
