data_PCOD9032171
_publ_section_title
;
Structure prediction by ZEFSAII (Michael W. Deem and Ramdas Pophale) SiO2 
 PCOD9032171
Probable space group: P -1
;
_chemical_formula_sum "Si O2"
_cell_formula_units_Z 16
_cell_length_a 11.186297
_cell_length_b 20.399740
_cell_length_c 7.921498
_cell_angle_alpha 109.704182
_cell_angle_beta 136.320193
_cell_angle_gamma 38.494913
_cell_volume 657.789502
_symmetry_space_group_name_H-M "P -1"
_symmetry_group_IT_number 2
_symmetry_cell_setting 'triclinic'
loop_
_space_group_symop_operation_xyz
x,y,z
-x,-y,-z
loop_
_atom_site_type_symbol
_atom_site_label
_atom_site_fract_x
_atom_site_fract_y
_atom_site_fract_z
Si Si1 0.191358 0.805896 0.922211
Si Si2 0.311015 0.368126 0.463980
Si Si3 0.294705 0.887163 0.824420
Si Si4 0.684758 0.984943 0.815992
Si Si5 0.853953 0.410014 0.977314
Si Si6 0.793764 0.332863 0.359006
Si Si7 0.958652 0.616575 0.219416
Si Si8 0.137289 0.744987 0.259221
O O1 0.200342 0.854498 0.818539
O O2 0.075307 0.768025 0.719750
O O3 0.981670 0.908673 0.941821
O O4 0.527666 0.679441 0.232865
O O5 0.577531 0.300715 0.543237
O O6 0.177383 0.335449 0.293324
O O7 0.032402 0.514611 0.267586
O O8 0.608363 0.755103 0.941126
O O9 0.000000 0.000000 0.500000
O O10 0.396617 0.919181 0.074113
O O11 0.500000 0.000000 0.500000
O O12 0.817444 0.887769 0.007194
O O13 0.574464 0.534914 0.905568
O O14 0.835584 0.333468 0.894259
O O15 0.833411 0.439226 0.783613
O O16 0.860884 0.279546 0.567704
O O17 0.930227 0.364325 0.513428
#
# Coordination Sequence:
#
# PCOD9032171 Si02
#       8
#     2   2   2   2   2   2   2   2
#     4  11  27  43  70 101 142 175 235 293 351 420
#     4  11  23  41  69 106 138 181 217 292 366 408
#     4  12  28  47  72 100 138 191 244 287 338 421
#     4  11  26  48  69  96 139 190 233 293 351 407
#     4  11  22  38  73 105 142 174 227 283 355 428
#     4  11  21  43  67 108 136 178 225 284 351 431
#     4  11  23  42  71 103 139 178 236 282 351 416
#     4  10  22  43  69  99 139 179 231 286 345 417
#
# _framework density 24.323889999999999
#
# number of rings (size 3 to 8) (size 9 to 14) (size 15 to 20)
#    0.000    1.000    2.500    3.750    7.000    4.500 
#    0.000    4.375    0.000    0.000    0.000    0.000 
#    0.000    0.000    0.000    0.000    0.000    0.000 
#
# Total GULP energy -89448.244162 kJ/mol
# GULP energy per Si atom -5590.515260 kJ/mol
# Density = 2.426853 g / cm^3
# Si number density = 24.323890 Si / 1000 Ang^3
#
#
#
# Elastic Constant Matrix: (Units=GPa)
#
#
# Indices 1 2 3 4 5 6 
#
# 1 42.9917 9.7230 3.0512 -3.5112 1.5649 -1.9611
# 2 9.7230 105.1669 39.1865 8.8927 0.0190 -8.9269
# 3 3.0512 39.1865 106.9371 15.3238 7.9811 6.2068
# 4 -3.5112 8.8927 15.3238 45.1450 6.6666 9.6296
# 5 1.5649 0.0190 7.9811 6.6666 31.3513 1.3755
# 6 -1.9611 -8.9269 6.2068 9.6296 1.3755 25.3259
#
#
#
# Elastic Compliance Matrix: (Units=1/GPa)
#
#
# Indices 1 2 3 4 5 6 
#
# 1 0.024092 -0.002416 -0.000052 0.002596 -0.001746 0.000134
# 2 -0.002416 0.012134 -0.004475 -0.002584 0.001535 0.006086
# 3 -0.000052 -0.004475 0.011660 -0.001968 -0.002388 -0.003561
# 4 0.002596 -0.002584 -0.001968 0.026370 -0.004796 -0.009993
# 5 -0.001746 0.001535 -0.002388 -0.004796 0.033567 0.000991
# 6 0.000134 0.006086 -0.003561 -0.009993 0.000991 0.046259
#
#
# Mechanical properties :
#
#
# Convention : Reuss Voigt Hill
#
# Bulk Modulus (GPa) = 29.41132 39.89078 34.65105
# Shear Modulus (GPa) = 27.88604 33.90677 30.89640
#
# Velocity S-wave (km/s) = 3.38959 3.73764 3.56786
# Velocity P-wave (km/s) = 5.23803 5.92132 5.59012
#
# Compressibility (1/GPa) = 0.03400052
#
# Stress axis : x y z
#
# Youngs Moduli (GPa) = 41.50733 82.41055 85.76639
#
# Poissons Ratio (x) = 0.19910 0.00443
# Poissons Ratio (y) = 0.10028 0.38382
# Poissons Ratio (z) = 0.00214 0.36880
#
# Static dielectric constant tensor:
#      x y z
#    x 1.886230 -0.026050 0.002130 
#    y -0.026050 1.934570 0.010210 
#    z 0.002130 0.010210 2.002500 
# 
# From -- ./inp_files/283146.got.cif
#   From: 2010.05.17/outbox.cif.g08.bks.cpg/sg2_142_cif.got.tgz:283146.got - 2010.06.03 11:33:40.
