data_PCOD9032934
_publ_section_title
;
Structure prediction by ZEFSAII (Michael W. Deem and Ramdas Pophale) SiO2 
 PCOD9032934
Probable space group: P -1
;
_chemical_formula_sum "Si O2"
_cell_formula_units_Z 16
_cell_length_a 17.844037
_cell_length_b 11.590770
_cell_length_c 20.782682
_cell_angle_alpha 149.502782
_cell_angle_beta 161.296867
_cell_angle_gamma 27.439771
_cell_volume 628.701994
_symmetry_space_group_name_H-M "P -1"
_symmetry_group_IT_number 2
_symmetry_cell_setting 'triclinic'
loop_
_space_group_symop_operation_xyz
x,y,z
-x,-y,-z
loop_
_atom_site_type_symbol
_atom_site_label
_atom_site_fract_x
_atom_site_fract_y
_atom_site_fract_z
Si Si1 0.865577 0.792219 0.712820
Si Si2 0.784229 0.508225 0.616927
Si Si3 0.738272 0.973786 0.092589
Si Si4 0.302465 0.812365 0.705502
Si Si5 0.771999 0.269090 0.697217
Si Si6 0.231378 0.252930 0.537378
Si Si7 0.188523 0.662924 0.087897
Si Si8 0.455312 0.492417 0.036422
O O1 0.697598 0.737268 0.603801
O O2 0.794657 0.761043 0.567013
O O3 0.158220 0.572205 0.850926
O O4 0.858786 0.065637 0.847326
O O5 0.857643 0.266748 0.514080
O O6 0.529845 0.534941 0.461781
O O7 0.997750 0.552177 0.851716
O O8 0.828896 0.028330 0.261941
O O9 0.638498 0.218852 0.083121
O O10 0.987842 0.745490 0.155728
O O11 0.490088 0.918125 0.875645
O O12 0.519347 0.550088 0.787263
O O13 0.771903 0.996724 0.556094
O O14 0.840936 0.293717 0.838848
O O15 0.480745 0.290997 0.777360
O O16 0.000000 0.500000 0.500000
O O17 0.500000 0.500000 0.000000
#
# Coordination Sequence:
#
# PCOD9032934 Si02
#       8
#     2   2   2   2   2   2   2   2
#     4  11  23  38  65  97 132 174 215 273 327 389
#     4  11  23  41  65  96 129 177 225 262 327 392
#     4  11  23  46  67  96 133 174 217 275 331 381
#     4  10  25  45  70  92 130 178 223 268 323 391
#     4  10  23  40  63  90 131 167 213 272 324 389
#     4  11  20  38  59  98 132 165 210 259 337 393
#     4  10  22  44  63  95 131 171 220 268 323 390
#     4  12  22  38  65  99 137 166 208 273 331 386
#
# _framework density 25.449259000000001
#
# number of rings (size 3 to 8) (size 9 to 14) (size 15 to 20)
#    0.000    1.250    2.500    3.375    0.000    8.500 
#    0.000   11.875    0.000    0.000    0.000    0.000 
#    0.000    0.000    0.000    0.000    0.000    0.000 
#
# Total GULP energy -89687.592106 kJ/mol
# GULP energy per Si atom -5605.474507 kJ/mol
# Density = 2.539133 g / cm^3
# Si number density = 25.449259 Si / 1000 Ang^3
#
#
#
# Elastic Constant Matrix: (Units=GPa)
#
#
# Indices 1 2 3 4 5 6 
#
# 1 116.6806 16.1641 42.7451 2.2562 4.2138 -14.2970
# 2 16.1641 76.6630 18.4450 20.3908 0.8820 -5.4346
# 3 42.7451 18.4450 153.5166 13.3989 -28.3585 -2.1485
# 4 2.2562 20.3908 13.3989 44.7066 -8.0099 6.9723
# 5 4.2138 0.8820 -28.3585 -8.0099 43.2747 2.3917
# 6 -14.2970 -5.4346 -2.1485 6.9723 2.3917 47.7226
#
#
#
# Elastic Compliance Matrix: (Units=1/GPa)
#
#
# Indices 1 2 3 4 5 6 
#
# 1 0.010447 -0.001119 -0.003347 -0.000091 -0.003372 0.003034
# 2 -0.001119 0.015872 -0.001386 -0.007665 -0.002689 0.002664
# 3 -0.003347 -0.001386 0.008767 -0.000590 0.006044 -0.000982
# 4 -0.000091 -0.007665 -0.000590 0.027798 0.005214 -0.005249
# 5 -0.003372 -0.002689 0.006044 0.005214 0.028596 -0.003239
# 6 0.003034 0.002664 -0.000982 -0.005249 -0.003239 0.023052
#
#
# Mechanical properties :
#
#
# Convention : Reuss Voigt Hill
#
# Bulk Modulus (GPa) = 42.76881 55.72984 49.24932
# Shear Modulus (GPa) = 37.30527 45.10784 41.20655
#
# Velocity S-wave (km/s) = 3.83282 4.21463 4.02825
# Velocity P-wave (km/s) = 6.03567 6.75500 6.40544
#
# Compressibility (1/GPa) = 0.02338153
#
# Stress axis : x y z
#
# Youngs Moduli (GPa) = 95.72260 63.00416 114.06906
#
# Poissons Ratio (x) = 0.07053 0.38177
# Poissons Ratio (y) = 0.10715 0.15807
# Poissons Ratio (z) = 0.32037 0.08731
#
# Static dielectric constant tensor:
#      x y z
#    x 2.021730 0.015200 0.016290 
#    y 0.015200 2.071310 -0.036780 
#    z 0.016290 -0.036780 2.012440 
# 
# From -- ./inp_files/447788.got.cif
#   From: 2010.05.17/outbox.cif.g08.bks.cpg/sg2_224_cif.got.tgz:447788.got - 2010.06.03 11:33:40.
