data_PCOD9032588
_publ_section_title
;
Structure prediction by ZEFSAII (Michael W. Deem and Ramdas Pophale) SiO2 
 PCOD9032588
Probable space group: P -1
;
_chemical_formula_sum "Si O2"
_cell_formula_units_Z 16
_cell_length_a 18.785407
_cell_length_b 5.217926
_cell_length_c 8.707530
_cell_angle_alpha 85.020249
_cell_angle_beta 97.523257
_cell_angle_gamma 132.721919
_cell_volume 621.642431
_symmetry_space_group_name_H-M "P -1"
_symmetry_group_IT_number 2
_symmetry_cell_setting 'triclinic'
loop_
_space_group_symop_operation_xyz
x,y,z
-x,-y,-z
loop_
_atom_site_type_symbol
_atom_site_label
_atom_site_fract_x
_atom_site_fract_y
_atom_site_fract_z
Si Si1 0.570896 0.497198 0.917175
Si Si2 0.401788 0.775659 0.779926
Si Si3 0.940028 0.695072 0.147533
Si Si4 0.851168 0.990119 0.031653
Si Si5 0.090265 0.816836 0.405593
Si Si6 0.436012 0.589821 0.516150
Si Si7 0.736517 0.896462 0.736426
Si Si8 0.798599 0.601073 0.337080
O O1 0.660506 0.855274 0.835334
O O2 0.500091 0.179048 0.795985
O O3 0.500000 0.500000 0.000000
O O4 0.610294 0.364362 0.044901
O O5 0.408630 0.539173 0.689810
O O6 0.315595 0.733123 0.679547
O O7 0.895627 0.380084 0.035359
O O8 0.864190 0.541000 0.280367
O O9 0.036737 0.831296 0.249611
O O10 0.068325 0.039354 0.937763
O O11 0.802265 0.828156 0.192342
O O12 0.782241 0.804410 0.874948
O O13 0.000000 0.500000 0.500000
O O14 0.166192 0.795780 0.350698
O O15 0.152959 0.163085 0.510720
O O16 0.500000 0.500000 0.500000
O O17 0.338513 0.373034 0.400187
O O18 0.500000 0.000000 0.500000
#
# Coordination Sequence:
#
# PCOD9032588 Si02
#       8
#     2   2   2   2   2   2   2   2
#     4  11  24  43  77 107 151 194 255 311 389 459
#     4  11  23  44  73 107 148 200 247 316 388 462
#     4  10  23  46  76 104 152 195 258 312 385 447
#     4  10  24  45  74 106 151 195 257 312 380 447
#     4  12  24  48  76 109 152 204 260 318 391 461
#     4  12  27  51  73 114 160 202 257 319 390 468
#     4  12  26  47  75 116 153 202 261 317 387 465
#     4  10  22  43  72 105 146 195 253 303 386 445
#
# _framework density 25.738268999999999
#
# number of rings (size 3 to 8) (size 9 to 14) (size 15 to 20)
#    0.750    0.250    5.000    1.125    1.750    2.000 
#    2.250    2.500    0.000    0.000    0.000    0.000 
#    0.000    0.000    0.000    0.000    0.000    0.000 
#
# Total GULP energy -89305.470432 kJ/mol
# GULP energy per Si atom -5581.591902 kJ/mol
# Density = 2.567969 g / cm^3
# Si number density = 25.738269 Si / 1000 Ang^3
#
#
#
# Elastic Constant Matrix: (Units=GPa)
#
#
# Indices 1 2 3 4 5 6 
#
# 1 152.8654 66.9120 48.4593 22.9208 -15.6231 35.6137
# 2 66.9120 86.3393 41.5500 -0.8535 3.9960 15.5887
# 3 48.4593 41.5500 148.5483 20.0495 19.9828 16.1895
# 4 22.9208 -0.8535 20.0495 47.1467 18.4354 -5.0245
# 5 -15.6231 3.9960 19.9828 18.4354 57.1937 -0.7980
# 6 35.6137 15.5887 16.1895 -5.0245 -0.7980 48.9440
#
#
#
# Elastic Compliance Matrix: (Units=1/GPa)
#
#
# Indices 1 2 3 4 5 6 
#
# 1 0.017181 -0.011761 -0.000822 -0.013115 0.009895 -0.009669
# 2 -0.011761 0.022020 -0.003201 0.010595 -0.006998 0.003577
# 3 -0.000822 -0.003201 0.008725 -0.002673 -0.002210 -0.001579
# 4 -0.013115 0.010595 -0.002673 0.035815 -0.014787 0.010488
# 5 0.009895 -0.006998 -0.002210 -0.014787 0.026140 -0.005332
# 6 -0.009669 0.003577 -0.001579 0.010488 -0.005332 0.027840
#
#
# Mechanical properties :
#
#
# Convention : Reuss Voigt Hill
#
# Bulk Modulus (GPa) = 61.13251 77.95507 69.54379
# Shear Modulus (GPa) = 28.61354 46.04566 37.32960
#
# Velocity S-wave (km/s) = 3.33785 4.23424 3.81248
# Velocity P-wave (km/s) = 6.21757 7.36603 6.81603
#
# Compressibility (1/GPa) = 0.01635791
#
# Stress axis : x y z
#
# Youngs Moduli (GPa) = 58.20473 45.41273 114.60687
#
# Poissons Ratio (x) = 0.53411 0.09422
# Poissons Ratio (y) = 0.68455 0.36685
# Poissons Ratio (z) = 0.04785 0.14537
#
# Static dielectric constant tensor:
#      x y z
#    x 2.104890 0.110200 -0.101630 
#    y 0.110200 2.119160 -0.146500 
#    z -0.101630 -0.146500 2.113970 
# 
# From -- ./inp_files/323877.got.cif
#   From: 2010.05.17/outbox.cif.g08.bks.cpg/sg2_162_cif.got.tgz:323877.got - 2010.06.03 11:33:40.
