data_PCOD9032836
_publ_section_title
;
Structure prediction by ZEFSAII (Michael W. Deem and Ramdas Pophale) SiO2 
 PCOD9032836
Probable space group: P -1
;
_chemical_formula_sum "Si O2"
_cell_formula_units_Z 12
_cell_length_a 7.268369
_cell_length_b 11.015259
_cell_length_c 7.281761
_cell_angle_alpha 53.566811
_cell_angle_beta 77.127327
_cell_angle_gamma 93.218229
_cell_volume 443.869075
_symmetry_space_group_name_H-M "P -1"
_symmetry_group_IT_number 2
_symmetry_cell_setting 'triclinic'
loop_
_space_group_symop_operation_xyz
x,y,z
-x,-y,-z
loop_
_atom_site_type_symbol
_atom_site_label
_atom_site_fract_x
_atom_site_fract_y
_atom_site_fract_z
Si Si1 0.799738 0.631586 0.274688
Si Si2 0.184274 0.930083 0.556649
Si Si3 0.763251 0.226060 0.932684
Si Si4 0.904082 0.640842 0.837718
Si Si5 0.431249 0.727494 0.402183
Si Si6 0.545519 0.747506 0.767000
O O1 0.652632 0.721700 0.312827
O O2 0.696108 0.448627 0.451303
O O3 0.829869 0.686219 0.009512
O O4 0.021326 0.674242 0.257482
O O5 0.208628 0.889528 0.804568
O O6 0.089271 0.769353 0.613557
O O7 0.357410 0.078545 0.340923
O O8 0.000000 0.000000 0.500000
O O9 0.443947 0.767453 0.578560
O O10 0.648963 0.169606 0.822098
O O11 0.705548 0.649452 0.771664
O O12 0.000000 0.500000 0.000000
O O13 0.375512 0.679912 0.012385
#
# Coordination Sequence:
#
# PCOD9032836 Si02
#       6
#     2   2   2   2   2   2
#     4  10  24  45  64 104 153 183 230 306 350 423
#     4   9  22  45  72 103 144 186 239 294 352 432
#     4  11  23  46  73  98 147 188 237 297 354 421
#     4  10  22  43  77 106 139 193 238 289 363 423
#     4  11  25  43  69 107 145 185 241 292 360 426
#     4  11  24  45  75 107 140 191 240 293 359 429
#
# _framework density 27.035
#
# number of rings (size 3 to 8) (size 9 to 14) (size 15 to 20)
#    0.000    1.667    1.667    1.000    4.667    8.000 
#    3.000    3.333    0.000    0.000    0.000    0.000 
#    0.000    0.000    0.000    0.000    0.000    0.000 
#
# Total GULP energy -66950.440756 kJ/mol
# GULP energy per Si atom -5579.203396 kJ/mol
# Density = 2.697347 g / cm^3
# Si number density = 27.035000 Si / 1000 Ang^3
#
#
#
# Elastic Constant Matrix: (Units=GPa)
#
#
# Indices 1 2 3 4 5 6 
#
# 1 201.5835 23.6441 57.3068 4.0941 -9.5232 -24.6926
# 2 23.6441 54.1931 39.4235 5.0294 -11.8579 -0.6190
# 3 57.3068 39.4235 90.2964 -0.2622 -0.0642 -1.8033
# 4 4.0941 5.0294 -0.2622 65.0661 2.4460 11.3485
# 5 -9.5232 -11.8579 -0.0642 2.4460 62.9515 16.4887
# 6 -24.6926 -0.6190 -1.8033 11.3485 16.4887 35.1158
#
#
#
# Elastic Compliance Matrix: (Units=1/GPa)
#
#
# Indices 1 2 3 4 5 6 
#
# 1 0.006806 0.000358 -0.004378 -0.001355 -0.000189 0.005094
# 2 0.000358 0.029357 -0.013089 -0.002211 0.006207 -0.002103
# 3 -0.004378 -0.013089 0.019539 0.001744 -0.002764 -0.001572
# 4 -0.001355 -0.002211 0.001744 0.016753 0.000438 -0.006522
# 5 -0.000189 0.006207 -0.002764 0.000438 0.019483 -0.009455
# 6 0.005094 -0.002103 -0.001572 -0.006522 -0.009455 0.038489
#
#
# Mechanical properties :
#
#
# Convention : Reuss Voigt Hill
#
# Bulk Modulus (GPa) = 46.54353 65.20241 55.87297
# Shear Modulus (GPa) = 29.10259 47.67325 38.38792
#
# Velocity S-wave (km/s) = 3.28453 4.20383 3.77229
# Velocity P-wave (km/s) = 5.62473 6.90891 6.29963
#
# Compressibility (1/GPa) = 0.02148526
#
# Stress axis : x y z
#
# Youngs Moduli (GPa) = 146.93180 34.06313 51.17856
#
# Poissons Ratio (x) = -0.01220 0.22406
# Poissons Ratio (y) = -0.05261 0.66986
# Poissons Ratio (z) = 0.64327 0.44584
#
# Static dielectric constant tensor:
#      x y z
#    x 2.315240 -0.111130 -0.003810 
#    y -0.111130 2.306450 -0.049360 
#    z -0.003810 -0.049360 2.142330 
# 
# From -- ./inp_files/231721.got.cif
#   From: 2010.05.17/outbox.cif.g08.bks.cpg/sg2_116_cif.got.tgz:231721.got - 2010.06.03 11:33:40.
