data_PCOD9032255
_publ_section_title
;
Structure prediction by ZEFSAII (Michael W. Deem and Ramdas Pophale) SiO2 
 PCOD9032255
Probable space group: P -1
;
_chemical_formula_sum "Si O2"
_cell_formula_units_Z 16
_cell_length_a 5.142633
_cell_length_b 8.502948
_cell_length_c 18.626665
_cell_angle_alpha 49.869459
_cell_angle_beta 99.864165
_cell_angle_gamma 85.796588
_cell_volume 595.014388
_symmetry_space_group_name_H-M "P -1"
_symmetry_group_IT_number 2
_symmetry_cell_setting 'triclinic'
loop_
_space_group_symop_operation_xyz
x,y,z
-x,-y,-z
loop_
_atom_site_type_symbol
_atom_site_label
_atom_site_fract_x
_atom_site_fract_y
_atom_site_fract_z
Si Si1 0.596503 0.205412 0.642769
Si Si2 0.997234 0.675270 0.858268
Si Si3 0.823926 0.379547 0.480768
Si Si4 0.879456 0.343891 0.866845
Si Si5 0.378140 0.836266 0.727112
Si Si6 0.149116 0.536976 0.702232
Si Si7 0.640277 0.294204 0.018815
Si Si8 0.616455 0.094966 0.837189
O O1 0.781545 0.191883 0.584975
O O2 0.471268 0.450254 0.584845
O O3 0.696477 0.105407 0.754195
O O4 0.376199 0.079213 0.644309
O O5 0.176268 0.811330 0.787456
O O6 0.054356 0.718126 0.930481
O O7 0.090527 0.436381 0.898878
O O8 0.688482 0.736594 0.796907
O O9 0.929363 0.366462 0.408596
O O10 0.000000 0.500000 0.500000
O O11 0.865229 0.127155 0.889024
O O12 0.907232 0.488827 0.754315
O O13 0.663009 0.331982 0.924076
O O14 0.291411 0.703437 0.698515
O O15 0.372461 0.311076 0.773201
O O16 0.517673 0.095909 0.091044
O O17 0.500000 0.500000 0.000000
#
# Coordination Sequence:
#
# PCOD9032255 Si02
#       8
#     2   2   2   2   2   2   2   2
#     4  10  23  41  71 103 140 186 242 291 368 429
#     4  11  24  46  72 102 143 189 244 302 364 435
#     4  10  22  43  70 104 145 185 241 297 364 443
#     4  11  24  44  68  98 141 189 235 303 360 431
#     4  11  23  45  76 105 143 194 243 302 370 439
#     4  10  24  45  70 104 143 186 240 302 372 431
#     4  12  27  46  71 106 143 193 250 302 363 435
#     4  11  23  46  70  99 142 188 242 296 370 429
#
# _framework density 26.890103
#
# number of rings (size 3 to 8) (size 9 to 14) (size 15 to 20)
#    0.000    1.250    2.500    2.250    3.500    2.000 
#    2.250    1.250    0.000    0.000    0.000    0.000 
#    0.000    0.000    0.000    0.000    0.000    0.000 
#
# Total GULP energy -89301.820926 kJ/mol
# GULP energy per Si atom -5581.363808 kJ/mol
# Density = 2.682890 g / cm^3
# Si number density = 26.890103 Si / 1000 Ang^3
#
#
#
# Elastic Constant Matrix: (Units=GPa)
#
#
# Indices 1 2 3 4 5 6 
#
# 1 128.5689 36.1106 73.4196 9.7148 -39.1189 13.3535
# 2 36.1106 193.5843 79.3050 16.9696 -34.0627 34.0824
# 3 73.4196 79.3050 194.8702 35.0272 -64.8782 5.6141
# 4 9.7148 16.9696 35.0272 62.0623 -6.2502 -9.9570
# 5 -39.1189 -34.0627 -64.8782 -6.2502 58.5083 -10.9833
# 6 13.3535 34.0824 5.6141 -9.9570 -10.9833 53.2472
#
#
#
# Elastic Compliance Matrix: (Units=1/GPa)
#
#
# Indices 1 2 3 4 5 6 
#
# 1 0.010647 0.000100 -0.002715 -0.000040 0.003850 -0.001661
# 2 0.000100 0.007122 -0.002377 -0.001274 0.000606 -0.004446
# 3 -0.002715 -0.002377 0.010558 -0.003679 0.008520 0.002159
# 4 -0.000040 -0.001274 -0.003679 0.019043 -0.001995 0.004363
# 5 0.003850 0.000606 0.008520 -0.001995 0.029919 0.003546
# 6 -0.001661 -0.004446 0.002159 0.004363 0.003546 0.023362
#
#
# Mechanical properties :
#
#
# Convention : Reuss Voigt Hill
#
# Bulk Modulus (GPa) = 54.51982 99.41041 76.96512
# Shear Modulus (GPa) = 42.82623 56.64278 49.73450
#
# Velocity S-wave (km/s) = 3.99512 4.59459 4.30530
# Velocity P-wave (km/s) = 6.44983 8.07443 7.30742
#
# Compressibility (1/GPa) = 0.01834195
#
# Stress axis : x y z
#
# Youngs Moduli (GPa) = 93.91905 140.40909 94.71757
#
# Poissons Ratio (x) = -0.01398 0.25718
# Poissons Ratio (y) = -0.00935 0.22514
# Poissons Ratio (z) = 0.25501 0.33375
#
# Static dielectric constant tensor:
#      x y z
#    x 2.229960 -0.134330 0.159980 
#    y -0.134330 2.178150 -0.094190 
#    z 0.159980 -0.094190 2.186790 
# 
# From -- ./inp_files/547798.got.cif
#   From: 2010.05.17/outbox.cif.g08.bks.cpg/sg2_274_cif.got.tgz:547798.got - 2010.06.03 11:33:40.
