data_PCOD9032805
_publ_section_title
;
Structure prediction by ZEFSAII (Michael W. Deem and Ramdas Pophale) SiO2 
 PCOD9032805
Probable space group: P -1
;
_chemical_formula_sum "Si O2"
_cell_formula_units_Z 12
_cell_length_a 10.669748
_cell_length_b 14.008971
_cell_length_c 5.143147
_cell_angle_alpha 76.530137
_cell_angle_beta 55.417125
_cell_angle_gamma 56.554498
_cell_volume 524.533648
_symmetry_space_group_name_H-M "P -1"
_symmetry_group_IT_number 2
_symmetry_cell_setting 'triclinic'
loop_
_space_group_symop_operation_xyz
x,y,z
-x,-y,-z
loop_
_atom_site_type_symbol
_atom_site_label
_atom_site_fract_x
_atom_site_fract_y
_atom_site_fract_z
Si Si1 0.652249 0.388767 0.746887
Si Si2 0.891788 0.998769 0.379612
Si Si3 0.284152 0.296720 0.489159
Si Si4 0.022094 0.250957 0.639061
Si Si5 0.520467 0.229764 0.767738
Si Si6 0.901174 0.458144 0.323524
O O1 0.807717 0.308515 0.827519
O O2 0.393191 0.276793 0.638024
O O3 0.752119 0.432982 0.411169
O O4 0.500000 0.500000 0.000000
O O5 0.107469 0.119276 0.552240
O O6 0.694055 0.108866 0.561607
O O7 0.000000 0.000000 0.500000
O O8 0.000000 0.000000 0.000000
O O9 0.200937 0.432325 0.433260
O O10 0.132374 0.264160 0.732988
O O11 0.038351 0.337614 0.369715
O O12 0.418216 0.222336 0.146515
O O13 0.586881 0.315066 0.724243
O O14 0.000000 0.500000 0.000000
#
# Coordination Sequence:
#
# PCOD9032805 Si02
#       6
#     2   2   2   2   2   2
#     4  10  22  46  76 110 149 197 260 311 387 454
#     4  12  26  49  79 110 152 200 261 321 376 456
#     4  12  26  46  73 110 158 194 253 315 390 452
#     4  10  25  46  74 108 152 202 253 307 396 449
#     4  12  26  47  75 113 148 202 256 320 370 458
#     4  10  22  43  75 109 152 198 252 313 389 450
#
# _framework density 22.877465999999998
#
# number of rings (size 3 to 8) (size 9 to 14) (size 15 to 20)
#    1.000    0.000    3.333    2.500    0.000    7.333 
#    0.000    0.000    0.000    0.000    0.000    0.000 
#    0.000    0.000    0.000    0.000    0.000    0.000 
#
# Total GULP energy -67000.144998 kJ/mol
# GULP energy per Si atom -5583.345417 kJ/mol
# Density = 2.282540 g / cm^3
# Si number density = 22.877466 Si / 1000 Ang^3
#
#
#
# Elastic Constant Matrix: (Units=GPa)
#
#
# Indices 1 2 3 4 5 6 
#
# 1 195.1724 76.7209 48.1754 14.6488 0.2584 26.0709
# 2 76.7209 169.2285 35.3797 41.4757 -1.7198 11.6687
# 3 48.1754 35.3797 116.2977 22.4717 -0.0137 -16.5444
# 4 14.6488 41.4757 22.4717 37.3752 -6.3853 -0.5296
# 5 0.2584 -1.7198 -0.0137 -6.3853 34.5472 5.8068
# 6 26.0709 11.6687 -16.5444 -0.5296 5.8068 33.5949
#
#
#
# Elastic Compliance Matrix: (Units=1/GPa)
#
#
# Indices 1 2 3 4 5 6 
#
# 1 0.008064 -0.002944 -0.004021 0.002681 0.001537 -0.007439
# 2 -0.002944 0.009713 0.000019 -0.009845 -0.001140 -0.001038
# 3 -0.004021 0.000019 0.012930 -0.006564 -0.002836 0.009868
# 4 0.002681 -0.009845 -0.006564 0.041848 0.007652 -0.002556
# 5 0.001537 -0.001140 -0.002836 0.007652 0.031556 -0.007527
# 6 -0.007439 -0.001038 0.009868 -0.002556 -0.007527 0.042020
#
#
# Mechanical properties :
#
#
# Convention : Reuss Voigt Hill
#
# Bulk Modulus (GPa) = 59.46700 89.02783 74.24741
# Shear Modulus (GPa) = 30.18823 42.46498 36.32661
#
# Velocity S-wave (km/s) = 3.63652 4.31303 3.98914
# Velocity P-wave (km/s) = 6.60927 7.98765 7.33093
#
# Compressibility (1/GPa) = 0.01681605
#
# Stress axis : x y z
#
# Youngs Moduli (GPa) = 124.01206 102.95872 77.33763
#
# Poissons Ratio (x) = 0.30307 0.31097
# Poissons Ratio (y) = 0.36504 -0.00149
# Poissons Ratio (z) = 0.49865 -0.00198
#
# Static dielectric constant tensor:
#      x y z
#    x 1.980770 -0.021170 -0.029020 
#    y -0.021170 1.831300 -0.012320 
#    z -0.029020 -0.012320 1.943390 
# 
# From -- ./inp_files/74655.got.cif
#   From: 2010.05.17/outbox.cif.g08.bks.cpg/sg2_38_cif.got.tgz:74655.got - 2010.06.03 11:33:40.
