data_PCOD9032043
_publ_section_title
;
Structure prediction by ZEFSAII (Michael W. Deem and Ramdas Pophale) SiO2 
 PCOD9032043
Probable space group: P -1
;
_chemical_formula_sum "Si O2"
_cell_formula_units_Z 16
_cell_length_a 17.855275
_cell_length_b 9.822079
_cell_length_c 8.940384
_cell_angle_alpha 52.025807
_cell_angle_beta 39.048957
_cell_angle_gamma 46.272402
_cell_volume 703.106957
_symmetry_space_group_name_H-M "P -1"
_symmetry_group_IT_number 2
_symmetry_cell_setting 'triclinic'
loop_
_space_group_symop_operation_xyz
x,y,z
-x,-y,-z
loop_
_atom_site_type_symbol
_atom_site_label
_atom_site_fract_x
_atom_site_fract_y
_atom_site_fract_z
Si Si1 0.224658 0.155218 0.503729
Si Si2 0.201881 0.486599 0.762945
Si Si3 0.757240 0.146239 0.811185
Si Si4 0.936664 0.224811 0.972152
Si Si5 0.447827 0.538300 0.227483
Si Si6 0.698569 0.227209 0.177058
Si Si7 0.857077 0.776226 0.744165
Si Si8 0.853628 0.476304 0.493722
O O1 0.223110 0.150587 0.331950
O O2 0.255541 0.329778 0.394983
O O3 0.069420 0.250652 0.728881
O O4 0.295005 0.941229 0.606318
O O5 0.343714 0.459821 0.501231
O O6 0.126268 0.471547 0.742791
O O7 0.127591 0.689474 0.826702
O O8 0.204937 0.334243 0.983096
O O9 0.641268 0.234775 0.807078
O O10 0.805146 0.311107 0.652951
O O11 0.859902 0.948837 0.719308
O O12 0.715884 0.123682 0.058568
O O13 0.814948 0.287548 0.003105
O O14 0.000000 0.000000 0.000000
O O15 0.570385 0.426704 0.220968
O O16 0.500000 0.500000 0.000000
O O17 0.006264 0.632596 0.570525
#
# Coordination Sequence:
#
# PCOD9032043 Si02
#       8
#     2   2   2   2   2   2   2   2
#     4  11  24  41  63 101 141 175 214 272 337 403
#     4  11  24  41  68  98 133 178 228 272 328 400
#     4  10  23  40  68  98 125 175 234 268 326 398
#     4  10  23  37  66 102 137 168 223 270 336 398
#     4   9  22  47  69  97 125 175 232 286 320 391
#     4  10  22  43  69  89 132 180 220 277 339 382
#     4  12  24  39  63 101 144 172 218 273 331 401
#     4  11  23  40  66  95 138 179 218 270 339 396
#
# _framework density 22.756139999999998
#
# number of rings (size 3 to 8) (size 9 to 14) (size 15 to 20)
#    0.000    1.500    1.250    2.625   12.250    0.500 
#    0.000   11.875    0.000    0.000    0.000    0.000 
#    0.000    0.000    0.000    0.000    0.000    0.000 
#
# Total GULP energy -89148.298077 kJ/mol
# GULP energy per Si atom -5571.768630 kJ/mol
# Density = 2.270435 g / cm^3
# Si number density = 22.756140 Si / 1000 Ang^3
#
#
#
# Elastic Constant Matrix: (Units=GPa)
#
#
# Indices 1 2 3 4 5 6 
#
# 1 88.6015 16.6608 18.6522 -3.9470 26.9849 -20.1043
# 2 16.6608 61.3705 8.5157 -7.5566 11.1583 8.5700
# 3 18.6522 8.5157 97.8398 -10.8507 19.5196 -8.0297
# 4 -3.9470 -7.5566 -10.8507 24.8282 -9.8876 8.5816
# 5 26.9849 11.1583 19.5196 -9.8876 42.0889 0.4613
# 6 -20.1043 8.5700 -8.0297 8.5816 0.4613 46.5679
#
#
#
# Elastic Compliance Matrix: (Units=1/GPa)
#
#
# Indices 1 2 3 4 5 6 
#
# 1 0.017782 -0.004871 -0.000620 -0.006938 -0.011560 0.009859
# 2 -0.004871 0.019610 -0.000543 0.007438 0.000002 -0.007176
# 3 -0.000620 -0.000543 0.011643 0.002650 -0.004251 0.001393
# 4 -0.006938 0.007438 0.002650 0.052863 0.013817 -0.013786
# 5 -0.011560 0.000002 -0.004251 0.013817 0.036482 -0.008631
# 6 0.009859 -0.007176 0.001393 -0.013786 -0.008631 0.029917
#
#
# Mechanical properties :
#
#
# Convention : Reuss Voigt Hill
#
# Bulk Modulus (GPa) = 27.05095 37.27436 32.16265
# Shear Modulus (GPa) = 25.94913 36.29588 31.12251
#
# Velocity S-wave (km/s) = 3.38052 3.99807 3.70219
# Velocity P-wave (km/s) = 5.21060 6.14233 5.69555
#
# Compressibility (1/GPa) = 0.03696728
#
# Stress axis : x y z
#
# Youngs Moduli (GPa) = 56.23802 50.99544 85.89200
#
# Poissons Ratio (x) = 0.24838 0.05326
# Poissons Ratio (y) = 0.27391 0.04660
# Poissons Ratio (z) = 0.03487 0.02767
#
# Static dielectric constant tensor:
#      x y z
#    x 1.939600 -0.053520 -0.012480 
#    y -0.053520 1.789650 0.009960 
#    z -0.012480 0.009960 1.897470 
# 
# From -- ./inp_files/328542.got.cif
#   From: 2010.05.17/outbox.cif.g08.bks.cpg/sg2_165_cif.got.tgz:328542.got - 2010.06.03 11:33:40.
