data_PCOD9032123
_publ_section_title
;
Structure prediction by ZEFSAII (Michael W. Deem and Ramdas Pophale) SiO2 
 PCOD9032123
Probable space group: P -1
;
_chemical_formula_sum "Si O2"
_cell_formula_units_Z 14
_cell_length_a 11.632480
_cell_length_b 5.335069
_cell_length_c 13.142526
_cell_angle_alpha 93.872442
_cell_angle_beta 132.964464
_cell_angle_gamma 98.303489
_cell_volume 574.877815
_symmetry_space_group_name_H-M "P -1"
_symmetry_group_IT_number 2
_symmetry_cell_setting 'triclinic'
loop_
_space_group_symop_operation_xyz
x,y,z
-x,-y,-z
loop_
_atom_site_type_symbol
_atom_site_label
_atom_site_fract_x
_atom_site_fract_y
_atom_site_fract_z
Si Si1 0.264223 0.562234 0.781243
Si Si2 0.878368 0.972215 0.229170
Si Si3 0.013623 0.828288 0.101665
Si Si4 0.816628 0.802173 0.452845
Si Si5 0.546683 0.473127 0.412224
Si Si6 0.267184 0.661161 0.139191
Si Si7 0.542687 0.073094 0.239165
O O1 0.246705 0.311189 0.835080
O O2 0.169486 0.434742 0.617805
O O3 0.431321 0.722031 0.832007
O O4 0.193059 0.778409 0.797913
O O5 0.972447 0.962269 0.180963
O O6 0.016268 0.016245 0.401730
O O7 0.190617 0.779749 0.191793
O O8 0.880079 0.552358 0.004623
O O9 0.000000 0.000000 0.000000
O O10 0.714846 0.673107 0.487113
O O11 0.691883 0.937781 0.323007
O O12 0.500000 0.500000 0.500000
O O13 0.402794 0.531857 0.259750
O O14 0.558170 0.200407 0.364633
O O15 0.365322 0.877014 0.126352
#
# Coordination Sequence:
#
# PCOD9032123 Si02
#       7
#     2   2   2   2   2   2   2
#     4  11  24  45  67 107 144 187 230 296 354 424
#     4  12  27  41  74 103 143 187 246 280 357 427
#     4  11  27  47  71  98 140 194 237 301 343 415
#     4  10  23  39  67 105 146 183 225 295 357 419
#     4  10  23  37  68 104 141 183 233 289 362 426
#     4  10  24  46  68  97 141 183 240 290 360 409
#     4  10  22  43  69  97 145 183 224 297 362 411
#
# _framework density 24.353002
#
# number of rings (size 3 to 8) (size 9 to 14) (size 15 to 20)
#    0.000    1.429    1.429    1.714   14.000    1.143 
#    0.000    1.429    0.000    0.000    0.000    0.000 
#    0.000    0.000    0.000    0.000    0.000    0.000 
#
# Total GULP energy -78290.497244 kJ/mol
# GULP energy per Si atom -5592.178375 kJ/mol
# Density = 2.429757 g / cm^3
# Si number density = 24.353002 Si / 1000 Ang^3
#
#
#
# Elastic Constant Matrix: (Units=GPa)
#
#
# Indices 1 2 3 4 5 6 
#
# 1 142.2483 70.9956 45.7909 18.5702 -21.8203 -17.6862
# 2 70.9956 138.3905 24.6526 17.2149 2.1870 3.7427
# 3 45.7909 24.6526 54.1913 7.6884 -8.5069 1.6386
# 4 18.5702 17.2149 7.6884 14.5450 6.8377 0.5349
# 5 -21.8203 2.1870 -8.5069 6.8377 46.8526 15.7731
# 6 -17.6862 3.7427 1.6386 0.5349 15.7731 55.8858
#
#
#
# Elastic Compliance Matrix: (Units=1/GPa)
#
#
# Indices 1 2 3 4 5 6 
#
# 1 0.015110 -0.005018 -0.007832 -0.012366 0.006424 0.003653
# 2 -0.005018 0.010530 0.000040 -0.005341 -0.001422 -0.001842
# 3 -0.007832 0.000040 0.026481 -0.005470 0.003355 -0.004152
# 4 -0.012366 -0.005341 -0.005470 0.104191 -0.022354 0.001916
# 5 0.006424 -0.001422 0.003355 -0.022354 0.030407 -0.006338
# 6 0.003653 -0.001842 -0.004152 0.001916 -0.006338 0.021065
#
#
# Mechanical properties :
#
#
# Convention : Reuss Voigt Hill
#
# Bulk Modulus (GPa) = 37.73491 68.63425 53.18458
# Shear Modulus (GPa) = 20.64086 36.34941 28.49513
#
# Velocity S-wave (km/s) = 2.91446 3.86762 3.42436
# Velocity P-wave (km/s) = 5.18209 6.94182 6.12548
#
# Compressibility (1/GPa) = 0.02650066
#
# Stress axis : x y z
#
# Youngs Moduli (GPa) = 66.18236 94.96834 37.76276
#
# Poissons Ratio (x) = 0.47658 0.29577
# Poissons Ratio (y) = 0.33212 -0.00153
# Poissons Ratio (z) = 0.51835 -0.00384
#
# Static dielectric constant tensor:
#      x y z
#    x 1.970050 0.002070 0.019950 
#    y 0.002070 2.025120 -0.007470 
#    z 0.019950 -0.007470 1.943590 
# 
# From -- ./inp_files/410657.got.cif
#   From: 2010.05.17/outbox.cif.g08.bks.cpg/sg2_206_cif.got.tgz:410657.got - 2010.06.03 11:33:40.
