data_PCOD9032772
_publ_section_title
;
Structure prediction by ZEFSAII (Michael W. Deem and Ramdas Pophale) SiO2 
 PCOD9032772
Probable space group: P -1
;
_chemical_formula_sum "Si O2"
_cell_formula_units_Z 16
_cell_length_a 7.550084
_cell_length_b 8.102938
_cell_length_c 12.037175
_cell_angle_alpha 58.260390
_cell_angle_beta 101.801202
_cell_angle_gamma 71.680865
_cell_volume 528.478695
_symmetry_space_group_name_H-M "P -1"
_symmetry_group_IT_number 2
_symmetry_cell_setting 'triclinic'
loop_
_space_group_symop_operation_xyz
x,y,z
-x,-y,-z
loop_
_atom_site_type_symbol
_atom_site_label
_atom_site_fract_x
_atom_site_fract_y
_atom_site_fract_z
Si Si1 0.280220 0.181658 0.198860
Si Si2 0.789859 0.206837 0.951470
Si Si3 0.187712 0.146097 0.792190
Si Si4 0.420323 0.283520 0.593169
Si Si5 0.897085 0.641534 0.652378
Si Si6 0.263709 0.541217 0.931771
Si Si7 0.411739 0.684405 0.699884
Si Si8 0.871445 0.218698 0.549656
O O1 0.122444 0.291882 0.243826
O O2 0.483430 0.192691 0.267546
O O3 0.342290 0.922525 0.290948
O O4 0.247824 0.320314 0.032766
O O5 0.853938 0.309645 0.027194
O O6 0.607792 0.430438 0.787826
O O7 0.684301 0.071515 0.038889
O O8 0.000000 0.000000 0.000000
O O9 0.029694 0.369856 0.759519
O O10 0.040819 0.094927 0.710314
O O11 0.318629 0.211391 0.705408
O O12 0.329774 0.278241 0.461746
O O13 0.317903 0.547174 0.509542
O O14 0.998306 0.716510 0.541997
O O15 0.257998 0.635541 0.775177
O O16 0.500000 0.500000 0.000000
O O17 0.256563 0.847595 0.527195
#
# Coordination Sequence:
#
# PCOD9032772 Si02
#       8
#     2   2   2   2   2   2   2   2
#     4  10  17  32  55  77 101 141 179 211 257 316
#     4  10  18  32  54  79 104 137 177 214 255 313
#     4   9  16  33  54  72 101 146 176 199 255 329
#     4   9  17  32  54  75 103 144 178 204 255 330
#     4   9  18  32  52  76 105 141 176 210 258 320
#     4   8  17  31  49  73 104 138 170 207 257 316
#     4  10  20  36  55  80 106 135 176 223 258 300
#     4   9  20  36  54  78 108 136 173 220 261 302
#
# _framework density 30.275582
#
# number of rings (size 3 to 8) (size 9 to 14) (size 15 to 20)
#    0.000    3.000    0.000    5.625    0.000    0.000 
#    0.000   18.750    0.000    0.000    0.000    0.000 
#    0.000    0.000    0.000    0.000    0.000    0.000 
#
# Total GULP energy -89549.543206 kJ/mol
# GULP energy per Si atom -5596.846450 kJ/mol
# Density = 3.020667 g / cm^3
# Si number density = 30.275582 Si / 1000 Ang^3
#
#
#
# Elastic Constant Matrix: (Units=GPa)
#
#
# Indices 1 2 3 4 5 6 
#
# 1 94.5109 10.4943 3.0388 8.5548 -24.8597 -29.9811
# 2 10.4943 146.3547 35.1760 -21.8771 1.0618 -36.5974
# 3 3.0388 35.1760 152.3229 -12.3553 -17.7204 -1.0982
# 4 8.5548 -21.8771 -12.3553 59.8084 9.1536 2.1063
# 5 -24.8597 1.0618 -17.7204 9.1536 46.3933 7.2564
# 6 -29.9811 -36.5974 -1.0982 2.1063 7.2564 56.0683
#
#
#
# Elastic Compliance Matrix: (Units=1/GPa)
#
#
# Indices 1 2 3 4 5 6 
#
# 1 0.015283 0.000063 0.000362 -0.003553 0.007880 0.007334
# 2 0.000063 0.009441 -0.002185 0.003173 -0.002640 0.006376
# 3 0.000362 -0.002185 0.007453 0.000240 0.003281 -0.001521
# 4 -0.003553 0.003173 0.000240 0.019308 -0.005724 0.000191
# 5 0.007880 -0.002640 0.003281 -0.005724 0.028361 -0.000901
# 6 0.007334 0.006376 -0.001521 0.000191 -0.000901 0.025998
#
#
# Mechanical properties :
#
#
# Convention : Reuss Voigt Hill
#
# Bulk Modulus (GPa) = 34.89694 54.51184 44.70439
# Shear Modulus (GPa) = 42.04613 55.41928 48.73270
#
# Velocity S-wave (km/s) = 3.73068 4.28307 4.01638
# Velocity P-wave (km/s) = 5.48714 6.51950 6.02547
#
# Compressibility (1/GPa) = 0.02865581
#
# Stress axis : x y z
#
# Youngs Moduli (GPa) = 65.43238 105.91879 134.18057
#
# Poissons Ratio (x) = -0.00666 -0.04858
# Poissons Ratio (y) = -0.00411 0.29323
# Poissons Ratio (z) = -0.02369 0.23147
#
# Static dielectric constant tensor:
#      x y z
#    x 2.573230 -0.044340 0.052570 
#    y -0.044340 2.459780 0.035500 
#    z 0.052570 0.035500 2.385110 
# 
# From -- ./inp_files/477254.got.cif
#   From: 2010.05.17/outbox.cif.g08.bks.cpg/sg2_239_cif.got.tgz:477254.got - 2010.06.03 11:33:40.
