data_PCOD9032044
_publ_section_title
;
Structure prediction by ZEFSAII (Michael W. Deem and Ramdas Pophale) SiO2 
 PCOD9032044
Probable space group: P -1
;
_chemical_formula_sum "Si O2"
_cell_formula_units_Z 16
_cell_length_a 8.702666
_cell_length_b 9.315467
_cell_length_c 11.820706
_cell_angle_alpha 117.486858
_cell_angle_beta 66.048182
_cell_angle_gamma 122.226821
_cell_volume 702.653513
_symmetry_space_group_name_H-M "P -1"
_symmetry_group_IT_number 2
_symmetry_cell_setting 'triclinic'
loop_
_space_group_symop_operation_xyz
x,y,z
-x,-y,-z
loop_
_atom_site_type_symbol
_atom_site_label
_atom_site_fract_x
_atom_site_fract_y
_atom_site_fract_z
Si Si1 0.802268 0.381370 0.569800
Si Si2 0.023591 0.189386 0.017350
Si Si3 0.209988 0.981494 0.557489
Si Si4 0.833355 0.298250 0.955485
Si Si5 0.801563 0.965992 0.686039
Si Si6 0.700698 0.441688 0.853421
Si Si7 0.536611 0.565180 0.641920
Si Si8 0.671460 0.679505 0.212826
O O1 0.747331 0.180817 0.472542
O O2 0.797231 0.368776 0.703042
O O3 0.672505 0.478862 0.613756
O O4 0.000000 0.500000 0.500000
O O5 0.140583 0.237010 0.883101
O O6 0.836502 0.208782 0.044268
O O7 0.160188 0.348729 0.112914
O O8 0.000000 0.000000 0.000000
O O9 0.993726 0.942209 0.627132
O O10 0.236376 0.012353 0.426652
O O11 0.332142 0.158344 0.654323
O O12 0.693982 0.357430 0.948418
O O13 0.825519 0.138957 0.814408
O O14 0.000000 0.500000 0.000000
O O15 0.636340 0.777636 0.703982
O O16 0.495928 0.393466 0.852591
O O17 0.500000 0.500000 0.500000
O O18 0.354819 0.471825 0.741408
#
# Coordination Sequence:
#
# PCOD9032044 Si02
#       8
#     2   2   2   2   2   2   2   2
#     4  11  23  38  64  95 137 171 217 266 328 396
#     4  11  25  44  71  93 120 176 235 266 321 403
#     4  11  22  38  68  98 129 177 219 264 331 405
#     4  10  22  43  69  90 124 172 224 271 322 389
#     4  11  21  40  67  97 133 174 225 265 330 402
#     4  10  24  43  63  94 134 170 211 283 332 374
#     4  11  24  40  63 103 141 175 212 272 340 401
#     4  11  24  41  68  96 135 169 216 277 336 387
#
# _framework density 22.770824000000001
#
# number of rings (size 3 to 8) (size 9 to 14) (size 15 to 20)
#    0.000    1.250    5.000    0.375    5.250    4.000 
#    0.000    0.625    5.500    0.000    0.000    0.000 
#    0.000    0.000    0.000    0.000    0.000    0.000 
#
# Total GULP energy -89244.844445 kJ/mol
# GULP energy per Si atom -5577.802778 kJ/mol
# Density = 2.271900 g / cm^3
# Si number density = 22.770824 Si / 1000 Ang^3
#
#
#
# Elastic Constant Matrix: (Units=GPa)
#
#
# Indices 1 2 3 4 5 6 
#
# 1 78.4994 32.1625 18.3515 6.3328 24.6084 -14.8700
# 2 32.1625 154.3191 48.9833 21.2917 1.9149 -13.0861
# 3 18.3515 48.9833 87.9131 26.6476 17.2416 9.7337
# 4 6.3328 21.2917 26.6476 52.4927 6.3645 -2.9661
# 5 24.6084 1.9149 17.2416 6.3645 40.9269 2.9484
# 6 -14.8700 -13.0861 9.7337 -2.9661 2.9484 31.2626
#
#
#
# Elastic Compliance Matrix: (Units=1/GPa)
#
#
# Indices 1 2 3 4 5 6 
#
# 1 0.019875 -0.002763 -0.001901 0.001721 -0.012022 0.010185
# 2 -0.002763 0.009146 -0.005332 -0.000862 0.003342 0.003777
# 3 -0.001901 -0.005332 0.018862 -0.007125 -0.004781 -0.009234
# 4 0.001721 -0.000862 -0.007125 0.023337 -0.001988 0.005078
# 5 -0.012022 0.003342 -0.004781 -0.001988 0.034279 -0.006252
# 6 0.010185 0.003777 -0.009234 0.005078 -0.006252 0.042359
#
#
# Mechanical properties :
#
#
# Convention : Reuss Voigt Hill
#
# Bulk Modulus (GPa) = 35.85362 57.74735 46.80049
# Shear Modulus (GPa) = 28.22516 39.68539 33.95527
#
# Velocity S-wave (km/s) = 3.52452 4.17924 3.86576
# Velocity P-wave (km/s) = 5.68705 6.97878 6.36576
#
# Compressibility (1/GPa) = 0.02789119
#
# Stress axis : x y z
#
# Youngs Moduli (GPa) = 50.31533 109.33711 53.01662
#
# Poissons Ratio (x) = 0.30214 0.10078
# Poissons Ratio (y) = 0.13904 0.28266
# Poissons Ratio (z) = 0.09564 0.58293
#
# Static dielectric constant tensor:
#      x y z
#    x 1.934890 0.006880 -0.071020 
#    y 0.006880 1.845870 -0.040200 
#    z -0.071020 -0.040200 1.941110 
# 
# From -- ./inp_files/227534.got.cif
#   From: 2010.05.17/outbox.cif.g08.bks.cpg/sg2_114_cif.got.tgz:227534.got - 2010.06.03 11:33:40.
