data_PCOD9032784
_publ_section_title
;
Structure prediction by ZEFSAII (Michael W. Deem and Ramdas Pophale) SiO2 
 PCOD9032784
Probable space group: P -1
;
_chemical_formula_sum "Si O2"
_cell_formula_units_Z 15
_cell_length_a 15.889380
_cell_length_b 14.736396
_cell_length_c 5.474126
_cell_angle_alpha 74.689211
_cell_angle_beta 83.335284
_cell_angle_gamma 32.945852
_cell_volume 658.601424
_symmetry_space_group_name_H-M "P -1"
_symmetry_group_IT_number 2
_symmetry_cell_setting 'triclinic'
loop_
_space_group_symop_operation_xyz
x,y,z
-x,-y,-z
loop_
_atom_site_type_symbol
_atom_site_label
_atom_site_fract_x
_atom_site_fract_y
_atom_site_fract_z
Si Si1 0.319622 0.283356 0.933127
Si Si2 0.592398 0.978361 0.675965
Si Si3 0.892100 0.884544 0.030909
Si Si4 0.000000 0.000000 0.000000
Si Si5 0.413736 0.859753 0.798544
Si Si6 0.435160 0.634703 0.730518
Si Si7 0.063039 0.669852 0.631863
Si Si8 0.737821 0.337139 0.526360
O O1 0.165509 0.479100 0.748074
O O2 0.456452 0.140807 0.788177
O O3 0.291558 0.204605 0.102921
O O4 0.411700 0.265863 0.105308
O O5 0.500000 0.000000 0.500000
O O6 0.655361 0.004837 0.477103
O O7 0.977036 0.763533 0.332948
O O8 0.707889 0.030044 0.014907
O O9 0.959199 0.780406 0.831096
O O10 0.917049 0.973817 0.971557
O O11 0.847503 0.199281 0.804214
O O12 0.414644 0.754512 0.768974
O O13 0.564153 0.523398 0.551538
O O14 0.277137 0.734468 0.609483
O O15 0.500000 0.500000 0.000000
O O16 0.185436 0.642823 0.626125
#
# Coordination Sequence:
#
# PCOD9032784 Si02
#       8
#     2   2   2   1   2   2   2   2
#     4  10  22  43  74  97 129 172 227 283 340 415
#     4   9  21  41  72 101 126 166 227 279 350 404
#     4  11  28  43  65  99 142 184 230 275 346 397
#     4  10  24  42  62  88 140 188 228 272 332 398
#     4  11  24  40  69  96 136 175 227 284 337 407
#     4  11  23  39  65 100 133 174 236 287 339 392
#     4  11  26  44  68  99 138 184 228 280 337 407
#     4  10  24  41  64  95 134 182 234 281 337 400
#
# _framework density 22.775537
#
# number of rings (size 3 to 8) (size 9 to 14) (size 15 to 20)
#    0.000    1.600    0.000    2.400   16.800    3.200 
#    0.000    1.333    0.000    0.000    0.000    0.000 
#    0.000    0.000    0.000    0.000    0.000    0.000 
#
# Total GULP energy -83635.301962 kJ/mol
# GULP energy per Si atom -5575.686797 kJ/mol
# Density = 2.272370 g / cm^3
# Si number density = 22.775537 Si / 1000 Ang^3
#
#
#
# Elastic Constant Matrix: (Units=GPa)
#
#
# Indices 1 2 3 4 5 6 
#
# 1 57.9332 21.2662 26.4231 -2.2461 -10.8783 9.8296
# 2 21.2662 78.3556 35.8848 -8.7106 -24.3818 23.7894
# 3 26.4231 35.8848 82.6079 -1.8636 -12.4051 8.6951
# 4 -2.2461 -8.7106 -1.8636 34.2826 9.3256 -2.2291
# 5 -10.8783 -24.3818 -12.4051 9.3256 31.9793 -6.4573
# 6 9.8296 23.7894 8.6951 -2.2291 -6.4573 30.1358
#
#
#
# Elastic Compliance Matrix: (Units=1/GPa)
#
#
# Indices 1 2 3 4 5 6 
#
# 1 0.021471 -0.001049 -0.005457 -0.000422 0.003736 -0.003831
# 2 -0.001049 0.024587 -0.006949 0.001507 0.012366 -0.014301
# 3 -0.005457 -0.006949 0.016605 -0.001088 0.000092 0.002413
# 4 -0.000422 0.001507 -0.001088 0.031829 -0.008751 -0.000259
# 5 0.003736 0.012366 0.000092 -0.008751 0.044112 -0.002202
# 6 -0.003831 -0.014301 0.002413 -0.000259 -0.002202 0.044534
#
#
# Mechanical properties :
#
#
# Convention : Reuss Voigt Hill
#
# Bulk Modulus (GPa) = 27.97044 42.89386 35.43215
# Shear Modulus (GPa) = 22.52617 28.30104 25.41360
#
# Velocity S-wave (km/s) = 3.14833 3.52889 3.34403
# Velocity P-wave (km/s) = 5.05208 5.95636 5.52276
#
# Compressibility (1/GPa) = 0.03575203
#
# Stress axis : x y z
#
# Youngs Moduli (GPa) = 46.57532 40.67260 60.22460
#
# Poissons Ratio (x) = 0.04268 0.32865
# Poissons Ratio (y) = 0.04887 0.41847
# Poissons Ratio (z) = 0.25416 0.28262
#
# Static dielectric constant tensor:
#      x y z
#    x 2.721710 0.150680 0.597260 
#    y 0.150680 1.849740 0.132390 
#    z 0.597260 0.132390 2.282610 
# 
# From -- ./inp_files/44298.got.cif
#   From: 2010.05.17/outbox.cif.g08.bks.cpg/sg2_23_cif.got.tgz:44298.got - 2010.06.03 11:33:40.
