data_PCOD9032508
_publ_section_title
;
Structure prediction by ZEFSAII (Michael W. Deem and Ramdas Pophale) SiO2 
 PCOD9032508
Probable space group: P -1
;
_chemical_formula_sum "Si O2"
_cell_formula_units_Z 16
_cell_length_a 6.401242
_cell_length_b 11.346578
_cell_length_c 10.996383
_cell_angle_alpha 96.486599
_cell_angle_beta 121.793520
_cell_angle_gamma 93.469565
_cell_volume 667.655342
_symmetry_space_group_name_H-M "P -1"
_symmetry_group_IT_number 2
_symmetry_cell_setting 'triclinic'
loop_
_space_group_symop_operation_xyz
x,y,z
-x,-y,-z
loop_
_atom_site_type_symbol
_atom_site_label
_atom_site_fract_x
_atom_site_fract_y
_atom_site_fract_z
Si Si1 0.320065 0.805974 0.721916
Si Si2 0.888519 0.982860 0.245755
Si Si3 0.577025 0.878932 0.559498
Si Si4 0.899079 0.594863 0.616498
Si Si5 0.935990 0.126103 0.935363
Si Si6 0.737319 0.653628 0.837697
Si Si7 0.338602 0.449654 0.719550
Si Si8 0.405413 0.187018 0.703098
O O1 0.407165 0.838222 0.615784
O O2 0.068282 0.714339 0.633048
O O3 0.528208 0.732527 0.822719
O O4 0.308984 0.924445 0.810856
O O5 0.826936 0.912990 0.345366
O O6 0.913358 0.880366 0.144711
O O7 0.139048 0.075640 0.316037
O O8 0.555157 0.793937 0.426740
O O9 0.500000 0.000000 0.500000
O O10 0.099916 0.506009 0.703944
O O11 0.761437 0.631217 0.698369
O O12 0.724862 0.544725 0.445033
O O13 0.646445 0.132910 0.820431
O O14 0.022381 0.253316 0.042067
O O15 0.000000 0.000000 0.000000
O O16 0.610690 0.525544 0.835440
O O17 0.353944 0.315041 0.749808
#
# Coordination Sequence:
#
# PCOD9032508 Si02
#       8
#     2   2   2   2   2   2   2   2
#     4  11  22  39  69 100 132 171 214 272 335 393
#     4  12  24  42  66  97 133 172 216 271 335 395
#     4  12  23  40  64 103 136 166 210 274 337 391
#     4  10  22  43  71  98 131 170 217 275 333 392
#     4  12  27  45  65  95 132 178 224 272 327 388
#     4  11  24  45  67  94 134 177 223 272 320 389
#     4  10  24  42  68 101 127 170 222 272 333 389
#     4  12  26  42  67  99 135 175 219 271 329 394
#
# _framework density 23.964461
#
# number of rings (size 3 to 8) (size 9 to 14) (size 15 to 20)
#    0.000    0.750    2.500    5.250    1.750    7.500 
#    0.000    1.250    0.000    0.000    0.000    0.000 
#    0.000    0.000    0.000    0.000    0.000    0.000 
#
# Total GULP energy -89295.581481 kJ/mol
# GULP energy per Si atom -5580.973843 kJ/mol
# Density = 2.390992 g / cm^3
# Si number density = 23.964461 Si / 1000 Ang^3
#
#
#
# Elastic Constant Matrix: (Units=GPa)
#
#
# Indices 1 2 3 4 5 6 
#
# 1 98.6100 48.2345 20.3487 4.5574 7.4331 -2.5569
# 2 48.2345 129.9156 9.9446 4.7332 8.0373 -7.8500
# 3 20.3487 9.9446 58.2565 16.1452 14.7714 -0.8742
# 4 4.5574 4.7332 16.1452 28.4911 0.1846 2.3767
# 5 7.4331 8.0373 14.7714 0.1846 19.5521 7.8754
# 6 -2.5569 -7.8500 -0.8742 2.3767 7.8754 45.4387
#
#
#
# Elastic Compliance Matrix: (Units=1/GPa)
#
#
# Indices 1 2 3 4 5 6 
#
# 1 0.013204 -0.004641 -0.004122 0.001011 0.000075 -0.000204
# 2 -0.004641 0.009781 0.001662 -0.001990 -0.004433 0.002333
# 3 -0.004122 0.001662 0.028661 -0.016161 -0.022792 0.005402
# 4 0.001011 -0.001990 -0.016161 0.044786 0.014411 -0.005438
# 5 0.000075 -0.004433 -0.022792 0.014411 0.076124 -0.015148
# 6 -0.000204 0.002333 0.005402 -0.005438 -0.015148 0.025413
#
#
# Mechanical properties :
#
#
# Convention : Reuss Voigt Hill
#
# Bulk Modulus (GPa) = 26.70676 49.31530 38.01103
# Shear Modulus (GPa) = 22.25676 32.57998 27.41837
#
# Velocity S-wave (km/s) = 3.05083 3.69116 3.38616
# Velocity P-wave (km/s) = 4.85578 6.22811 5.58426
#
# Compressibility (1/GPa) = 0.03744370
#
# Stress axis : x y z
#
# Youngs Moduli (GPa) = 75.73568 102.24204 34.89091
#
# Poissons Ratio (x) = 0.47445 0.14383
# Poissons Ratio (y) = 0.35145 -0.05798
# Poissons Ratio (z) = 0.31219 -0.16991
#
# Static dielectric constant tensor:
#      x y z
#    x 2.060090 0.016870 0.137940 
#    y 0.016870 1.949130 0.060180 
#    z 0.137940 0.060180 2.183060 
# 
# From -- ./inp_files/364886.got.cif
#   From: 2010.05.17/outbox.cif.g08.bks.cpg/sg2_183_cif.got.tgz:364886.got - 2010.06.03 11:33:40.
