data_PCOD9032094
_publ_section_title
;
Structure prediction by ZEFSAII (Michael W. Deem and Ramdas Pophale) SiO2 
 PCOD9032094
Probable space group: P -1
;
_chemical_formula_sum "Si O2"
_cell_formula_units_Z 14
_cell_length_a 9.456176
_cell_length_b 8.857269
_cell_length_c 10.060268
_cell_angle_alpha 80.846226
_cell_angle_beta 98.423205
_cell_angle_gamma 136.732837
_cell_volume 569.583875
_symmetry_space_group_name_H-M "P -1"
_symmetry_group_IT_number 2
_symmetry_cell_setting 'triclinic'
loop_
_space_group_symop_operation_xyz
x,y,z
-x,-y,-z
loop_
_atom_site_type_symbol
_atom_site_label
_atom_site_fract_x
_atom_site_fract_y
_atom_site_fract_z
Si Si1 0.762482 0.077247 0.714643
Si Si2 0.248239 0.672740 0.500958
Si Si3 0.764787 0.745662 0.820947
Si Si4 0.455718 0.202026 0.036414
Si Si5 0.804890 0.067269 0.208948
Si Si6 0.494124 0.629240 0.371567
Si Si7 0.180154 0.565111 0.787518
O O1 0.690346 0.111637 0.570512
O O2 0.971153 0.312329 0.768661
O O3 0.794600 0.923828 0.713533
O O4 0.607855 0.966868 0.832734
O O5 0.329274 0.623994 0.405001
O O6 0.306070 0.645565 0.654598
O O7 0.000000 0.500000 0.500000
O O8 0.673238 0.746902 0.943896
O O9 0.595404 0.511845 0.757092
O O10 0.985955 0.837374 0.839208
O O11 0.697330 0.404411 0.072304
O O12 0.373519 0.075245 0.906627
O O13 0.708684 0.883196 0.335448
O O14 0.849526 0.275680 0.226820
O O15 0.500000 0.500000 0.500000
#
# Coordination Sequence:
#
# PCOD9032094 Si02
#       7
#     2   2   2   2   2   2   2
#     4   9  23  41  71  96 131 175 219 264 337 389
#     4  10  22  43  69  96 130 176 216 266 335 388
#     4  10  25  44  68  96 137 174 216 275 328 394
#     4  10  24  43  69  98 131 179 222 268 330 391
#     4  12  27  43  68 101 133 176 224 272 330 389
#     4  12  28  44  68 102 134 172 224 275 333 392
#     4  11  23  43  70  97 133 172 223 278 322 394
#
# _framework density 24.579348
#
# number of rings (size 3 to 8) (size 9 to 14) (size 15 to 20)
#    0.857    0.571    0.000    4.286    8.000    4.000 
#    0.000    0.000    0.000    0.000    0.000    0.000 
#    0.000    0.000    0.000    0.000    0.000    0.000 
#
# Total GULP energy -78279.921505 kJ/mol
# GULP energy per Si atom -5591.422965 kJ/mol
# Density = 2.452340 g / cm^3
# Si number density = 24.579348 Si / 1000 Ang^3
#
#
#
# Elastic Constant Matrix: (Units=GPa)
#
#
# Indices 1 2 3 4 5 6 
#
# 1 103.5826 33.7846 -13.9125 6.4750 -10.1550 -3.1834
# 2 33.7846 127.3106 2.0910 6.0528 -1.5117 -0.4156
# 3 -13.9125 2.0910 49.0433 10.5155 0.4155 2.8728
# 4 6.4750 6.0528 10.5155 43.2304 -2.7034 -4.5993
# 5 -10.1550 -1.5117 0.4155 -2.7034 38.6487 10.2115
# 6 -3.1834 -0.4156 2.8728 -4.5993 10.2115 36.5128
#
#
#
# Elastic Compliance Matrix: (Units=1/GPa)
#
#
# Indices 1 2 3 4 5 6 
#
# 1 0.011546 -0.002995 0.003855 -0.002112 0.002830 -0.000388
# 2 -0.002995 0.008687 -0.001102 -0.000530 -0.000469 -0.000011
# 3 0.003855 -0.001102 0.023007 -0.006230 0.000958 -0.002539
# 4 -0.002112 -0.000530 -0.006230 0.025423 0.000372 0.003398
# 5 0.002830 -0.000469 0.000958 0.000372 0.028678 -0.007807
# 6 -0.000388 -0.000011 -0.002539 0.003398 -0.007807 0.030165
#
#
# Mechanical properties :
#
#
# Convention : Reuss Voigt Hill
#
# Bulk Modulus (GPa) = 23.38778 35.98474 29.68626
# Shear Modulus (GPa) = 35.15161 40.87661 38.01411
#
# Velocity S-wave (km/s) = 3.78581 4.08247 3.93693
# Velocity P-wave (km/s) = 5.35216 6.07405 5.72450
#
# Compressibility (1/GPa) = 0.04275736
#
# Stress axis : x y z
#
# Youngs Moduli (GPa) = 86.60923 115.11222 43.46514
#
# Poissons Ratio (x) = 0.34471 -0.16754
# Poissons Ratio (y) = 0.25936 0.04788
# Poissons Ratio (z) = -0.33385 0.12680
#
# Static dielectric constant tensor:
#      x y z
#    x 1.942510 0.047540 0.070390 
#    y 0.047540 2.026330 0.015260 
#    z 0.070390 0.015260 2.021060 
# 
# From -- ./inp_files/379245.got.cif
#   From: 2010.05.17/outbox.cif.g08.bks.cpg/sg2_190_cif.got.tgz:379245.got - 2010.06.03 11:33:40.
