data_PCOD9032475
_publ_section_title
;
Structure prediction by ZEFSAII (Michael W. Deem and Ramdas Pophale) SiO2 
 PCOD9032475
Probable space group: P -1
;
_chemical_formula_sum "Si O2"
_cell_formula_units_Z 14
_cell_length_a 9.132235
_cell_length_b 9.252365
_cell_length_c 20.317974
_cell_angle_alpha 150.147580
_cell_angle_beta 48.822238
_cell_angle_gamma 119.468562
_cell_volume 628.699310
_symmetry_space_group_name_H-M "P -1"
_symmetry_group_IT_number 2
_symmetry_cell_setting 'triclinic'
loop_
_space_group_symop_operation_xyz
x,y,z
-x,-y,-z
loop_
_atom_site_type_symbol
_atom_site_label
_atom_site_fract_x
_atom_site_fract_y
_atom_site_fract_z
Si Si1 0.163553 0.749610 0.887919
Si Si2 0.522033 0.272128 0.343148
Si Si3 0.697469 0.181172 0.705948
Si Si4 0.167100 0.687051 0.542519
Si Si5 0.152604 0.107684 0.589285
Si Si6 0.960233 0.072753 0.181997
Si Si7 0.645314 0.826907 0.942521
O O1 0.196327 0.425785 0.721295
O O2 0.078577 0.758686 0.992476
O O3 0.343849 0.921503 0.907402
O O4 0.000000 0.000000 0.000000
O O5 0.500000 0.500000 0.500000
O O6 0.374364 0.464197 0.410043
O O7 0.427174 0.994660 0.281471
O O8 0.760381 0.166375 0.235106
O O9 0.596575 0.527090 0.865040
O O10 0.918352 0.153793 0.659389
O O11 0.726700 0.030220 0.565390
O O12 0.000000 0.500000 0.500000
O O13 0.194287 0.891179 0.553655
O O14 0.094924 0.878636 0.706100
O O15 0.128803 0.263396 0.190252
O O16 0.500000 0.000000 0.000000
#
# Coordination Sequence:
#
# PCOD9032475 Si02
#       7
#     2   2   2   2   2   2   2
#     4  10  22  43  71  94 137 178 226 278 348 401
#     4  10  23  42  68 101 144 178 215 284 358 390
#     4  11  23  43  73 100 139 179 233 283 341 406
#     4  11  21  40  66 107 135 174 229 283 334 403
#     4  11  23  41  73 104 133 183 235 281 334 412
#     4   9  23  45  65  92 149 174 213 287 347 396
#     4  10  23  46  71  98 133 180 228 285 339 403
#
# _framework density 22.268196
#
# number of rings (size 3 to 8) (size 9 to 14) (size 15 to 20)
#    0.857    0.857    2.857    0.857   10.000    2.857 
#    7.714    4.286    0.000    0.000    0.000    0.000 
#    0.000    0.000    0.000    0.000    0.000    0.000 
#
# Total GULP energy -78103.569777 kJ/mol
# GULP energy per Si atom -5578.826413 kJ/mol
# Density = 2.221751 g / cm^3
# Si number density = 22.268196 Si / 1000 Ang^3
#
#
#
# Elastic Constant Matrix: (Units=GPa)
#
#
# Indices 1 2 3 4 5 6 
#
# 1 127.7324 39.4211 57.8412 27.1560 2.7028 -18.7754
# 2 39.4211 116.9328 60.6068 27.4093 -6.4754 -16.4446
# 3 57.8412 60.6068 133.6193 16.2697 21.0708 -2.4414
# 4 27.1560 27.4093 16.2697 54.7092 1.1238 -3.9858
# 5 2.7028 -6.4754 21.0708 1.1238 35.4850 -0.4877
# 6 -18.7754 -16.4446 -2.4414 -3.9858 -0.4877 37.6216
#
#
#
# Elastic Compliance Matrix: (Units=1/GPa)
#
#
# Indices 1 2 3 4 5 6 
#
# 1 0.011545 0.000573 -0.005033 -0.004187 0.002419 0.005274
# 2 0.000573 0.014502 -0.007221 -0.005133 0.007132 0.005705
# 3 -0.005033 -0.007221 0.014126 0.001768 -0.009443 -0.004687
# 4 -0.004187 -0.005133 0.001768 0.022315 -0.002400 -0.001886
# 5 0.002419 0.007132 -0.009443 -0.002400 0.035035 0.003912
# 6 0.005274 0.005705 -0.004687 -0.001886 0.003912 0.031253
#
#
# Mechanical properties :
#
#
# Convention : Reuss Voigt Hill
#
# Bulk Modulus (GPa) = 59.48313 77.11362 68.29837
# Shear Modulus (GPa) = 31.69743 40.25753 35.97748
#
# Velocity S-wave (km/s) = 3.77694 4.25649 4.02387
# Velocity P-wave (km/s) = 6.76687 7.67213 7.23368
#
# Compressibility (1/GPa) = 0.01681149
#
# Stress axis : x y z
#
# Youngs Moduli (GPa) = 86.61700 68.95617 70.78990
#
# Poissons Ratio (x) = -0.03954 0.35629
# Poissons Ratio (y) = -0.04967 0.51120
# Poissons Ratio (z) = 0.43595 0.49795
#
# Static dielectric constant tensor:
#      x y z
#    x 1.842370 -0.045400 0.055290 
#    y -0.045400 2.138070 -0.243110 
#    z 0.055290 -0.243110 1.940530 
# 
# From -- ./inp_files/587661.got.cif
#   From: 2010.05.17/outbox.cif.g08.bks.cpg/sg2_294_cif.got.tgz:587661.got - 2010.06.03 11:33:40.
