data_PCOD9032451
_publ_section_title
;
Structure prediction by ZEFSAII (Michael W. Deem and Ramdas Pophale) SiO2 
 PCOD9032451
Probable space group: P -1
;
_chemical_formula_sum "Si O2"
_cell_formula_units_Z 12
_cell_length_a 10.786623
_cell_length_b 5.556322
_cell_length_c 13.548323
_cell_angle_alpha 61.291447
_cell_angle_beta 143.294056
_cell_angle_gamma 113.478887
_cell_volume 425.543845
_symmetry_space_group_name_H-M "P -1"
_symmetry_group_IT_number 2
_symmetry_cell_setting 'triclinic'
loop_
_space_group_symop_operation_xyz
x,y,z
-x,-y,-z
loop_
_atom_site_type_symbol
_atom_site_label
_atom_site_fract_x
_atom_site_fract_y
_atom_site_fract_z
Si Si1 0.702016 0.289126 0.505432
Si Si2 0.170212 0.193124 0.833350
Si Si3 0.218349 0.331338 0.344813
Si Si4 0.828603 0.170843 0.916600
Si Si5 0.510517 0.729574 0.820688
Si Si6 0.147379 0.884808 0.701008
O O1 0.663178 0.458205 0.545622
O O2 0.567777 0.396984 0.306993
O O3 0.951623 0.320452 0.639616
O O4 0.686328 0.957606 0.568600
O O5 0.265581 0.102814 0.807930
O O6 0.302721 0.359167 0.970019
O O7 0.133401 0.915178 0.929681
O O8 0.169874 0.522463 0.182154
O O9 0.021324 0.247245 0.305265
O O10 0.603155 0.025683 0.786576
O O11 0.000000 0.000000 0.000000
O O12 0.318957 0.750624 0.767681
O O13 0.000000 0.000000 0.500000
#
# Coordination Sequence:
#
# PCOD9032451 Si02
#       6
#     2   2   2   2   2   2
#     4  11  23  46  71 108 142 194 234 306 355 435
#     4   9  21  42  71  99 149 177 250 289 365 419
#     4  11  24  45  75 104 152 188 241 303 365 426
#     4  10  22  45  70 107 143 192 240 303 362 433
#     4  10  22  43  71 106 140 197 238 299 364 434
#     4  11  21  43  72 107 143 194 239 302 361 433
#
# _framework density 28.199207999999999
#
# number of rings (size 3 to 8) (size 9 to 14) (size 15 to 20)
#    1.000    0.667    5.000    0.500    0.000    4.667 
#    0.000   10.000    0.000    0.000    0.000    0.000 
#    0.000    0.000    0.000    0.000    0.000    0.000 
#
# Total GULP energy -67015.604994 kJ/mol
# GULP energy per Si atom -5584.633749 kJ/mol
# Density = 2.813503 g / cm^3
# Si number density = 28.199208 Si / 1000 Ang^3
#
#
#
# Elastic Constant Matrix: (Units=GPa)
#
#
# Indices 1 2 3 4 5 6 
#
# 1 152.5756 63.2383 61.2851 -9.6933 -20.0591 -1.0994
# 2 63.2383 125.9675 39.9535 -7.0418 -9.8690 -8.7220
# 3 61.2851 39.9535 175.9095 28.8714 -37.5924 1.9073
# 4 -9.6933 -7.0418 28.8714 40.6528 -5.3807 -19.1134
# 5 -20.0591 -9.8690 -37.5924 -5.3807 58.4165 7.3710
# 6 -1.0994 -8.7220 1.9073 -19.1134 7.3710 70.3263
#
#
#
# Elastic Compliance Matrix: (Units=1/GPa)
#
#
# Indices 1 2 3 4 5 6 
#
# 1 0.009667 -0.003475 -0.003101 0.004470 0.001033 0.000911
# 2 -0.003475 0.010582 -0.001895 0.003343 -0.000605 0.002281
# 3 -0.003101 -0.001895 0.009650 -0.008953 0.004435 -0.003443
# 4 0.004470 0.003343 -0.008953 0.037618 -0.001600 0.011119
# 5 0.001033 -0.000605 0.004435 -0.001600 0.020425 -0.002755
# 6 0.000911 0.002281 -0.003443 0.011119 -0.002755 0.017921
#
#
# Mechanical properties :
#
#
# Convention : Reuss Voigt Hill
#
# Bulk Modulus (GPa) = 77.19108 87.04516 82.11812
# Shear Modulus (GPa) = 39.33150 53.21083 46.27116
#
# Velocity S-wave (km/s) = 3.73872 4.34863 4.05516
# Velocity P-wave (km/s) = 6.78751 7.49327 7.14910
#
# Compressibility (1/GPa) = 0.01295486
#
# Stress axis : x y z
#
# Youngs Moduli (GPa) = 103.44871 94.50174 103.62485
#
# Poissons Ratio (x) = 0.32842 0.32136
# Poissons Ratio (y) = 0.35952 0.19641
# Poissons Ratio (z) = 0.32081 0.17912
#
# Static dielectric constant tensor:
#      x y z
#    x 2.031460 0.012770 0.122840 
#    y 0.012770 2.344950 0.188080 
#    z 0.122840 0.188080 2.164640 
# 
# From -- ./inp_files/509322.got.cif
#   From: 2010.05.17/outbox.cif.g08.bks.cpg/sg2_255_cif.got.tgz:509322.got - 2010.06.03 11:33:40.
