data_PCOD9032423
_publ_section_title
;
Structure prediction by ZEFSAII (Michael W. Deem and Ramdas Pophale) SiO2 
 PCOD9032423
Probable space group: P -1
;
_chemical_formula_sum "Si O2"
_cell_formula_units_Z 16
_cell_length_a 8.901940
_cell_length_b 8.486379
_cell_length_c 14.414838
_cell_angle_alpha 43.190262
_cell_angle_beta 76.992816
_cell_angle_gamma 70.052137
_cell_volume 700.127316
_symmetry_space_group_name_H-M "P -1"
_symmetry_group_IT_number 2
_symmetry_cell_setting 'triclinic'
loop_
_space_group_symop_operation_xyz
x,y,z
-x,-y,-z
loop_
_atom_site_type_symbol
_atom_site_label
_atom_site_fract_x
_atom_site_fract_y
_atom_site_fract_z
Si Si1 0.653686 0.895311 0.815358
Si Si2 0.428703 0.145495 0.596119
Si Si3 0.537422 0.311989 0.337778
Si Si4 0.948512 0.502957 0.899199
Si Si5 0.877434 0.027395 0.889885
Si Si6 0.563476 0.194982 0.963745
Si Si7 0.087947 0.357476 0.637585
Si Si8 0.887829 0.255798 0.379041
O O1 0.765369 0.659536 0.851687
O O2 0.571563 0.110953 0.665474
O O3 0.767146 0.976149 0.840860
O O4 0.507635 0.820859 0.918171
O O5 0.421076 0.334783 0.432943
O O6 0.259994 0.197561 0.648547
O O7 0.473400 0.895516 0.641915
O O8 0.512643 0.552357 0.181230
O O9 0.712111 0.236343 0.390610
O O10 0.046100 0.646177 0.763676
O O11 0.000000 0.500000 0.000000
O O12 0.007356 0.225074 0.985338
O O13 0.750997 0.131247 0.944211
O O14 0.980011 0.200669 0.765055
O O15 0.500000 0.000000 0.000000
O O16 0.113806 0.550801 0.624559
O O17 0.000000 0.500000 0.500000
O O18 0.000000 0.000000 0.500000
#
# Coordination Sequence:
#
# PCOD9032423 Si02
#       8
#     2   2   2   2   2   2   2   2
#     4  10  23  43  75 107 138 189 239 288 362 421
#     4  11  27  46  74 107 140 185 252 291 363 422
#     4  11  25  47  71 100 147 190 234 305 353 432
#     4  10  23  44  75 108 142 193 237 294 362 429
#     4  10  24  45  73 101 155 180 238 297 357 424
#     4  10  22  43  71 103 144 186 234 287 363 420
#     4  12  29  46  72 111 144 192 241 302 365 432
#     4  12  27  46  76 102 147 192 243 292 370 432
#
# _framework density 22.852986000000001
#
# number of rings (size 3 to 8) (size 9 to 14) (size 15 to 20)
#    0.000    1.250    0.000    4.500   15.750    4.500 
#    0.000    0.000    0.000    0.000    0.000    0.000 
#    0.000    0.000    0.000    0.000    0.000    0.000 
#
# Total GULP energy -89572.779386 kJ/mol
# GULP energy per Si atom -5598.298712 kJ/mol
# Density = 2.280097 g / cm^3
# Si number density = 22.852986 Si / 1000 Ang^3
#
#
#
# Elastic Constant Matrix: (Units=GPa)
#
#
# Indices 1 2 3 4 5 6 
#
# 1 100.8930 36.6936 2.5505 11.9327 -0.1785 -3.5941
# 2 36.6936 47.9893 10.3226 9.3978 -8.0592 -17.0407
# 3 2.5505 10.3226 89.8378 8.8174 -10.9813 7.8024
# 4 11.9327 9.3978 8.8174 37.9808 -10.3906 -5.8628
# 5 -0.1785 -8.0592 -10.9813 -10.3906 35.4347 6.3166
# 6 -3.5941 -17.0407 7.8024 -5.8628 6.3166 39.0825
#
#
#
# Elastic Compliance Matrix: (Units=1/GPa)
#
#
# Indices 1 2 3 4 5 6 
#
# 1 0.014872 -0.013185 0.001507 -0.003189 -0.002545 -0.004749
# 2 -0.013185 0.038364 -0.004823 -0.000666 0.004170 0.015704
# 3 0.001507 -0.004823 0.012707 -0.002191 0.003158 -0.005340
# 4 -0.003189 -0.000666 -0.002191 0.030565 0.007542 0.003220
# 5 -0.002545 0.004170 0.003158 0.007542 0.032924 -0.003236
# 6 -0.004749 0.015704 -0.005340 0.003220 -0.003236 0.034069
#
#
# Mechanical properties :
#
#
# Convention : Reuss Voigt Hill
#
# Bulk Modulus (GPa) = 30.35607 37.53929 33.94768
# Shear Modulus (GPa) = 24.09828 35.10982 29.60405
#
# Velocity S-wave (km/s) = 3.25082 3.92386 3.60309
# Velocity P-wave (km/s) = 5.23473 6.08202 5.67422
#
# Compressibility (1/GPa) = 0.03294234
#
# Stress axis : x y z
#
# Youngs Moduli (GPa) = 67.23958 26.06611 78.69452
#
# Poissons Ratio (x) = 0.34368 -0.11860
# Poissons Ratio (y) = 0.88656 0.37952
# Poissons Ratio (z) = -0.10134 0.12571
#
# Static dielectric constant tensor:
#      x y z
#    x 1.837390 0.001600 -0.003480 
#    y 0.001600 1.854430 0.014120 
#    z -0.003480 0.014120 1.810670 
# 
# From -- ./inp_files/494205.got.cif
#   From: 2010.05.17/outbox.cif.g08.bks.cpg/sg2_248_cif.got.tgz:494205.got - 2010.06.03 11:33:40.
