data_PCOD9032614
_publ_section_title
;
Structure prediction by ZEFSAII (Michael W. Deem and Ramdas Pophale) SiO2 
 PCOD9032614
Probable space group: P -1
;
_chemical_formula_sum "Si O2"
_cell_formula_units_Z 10
_cell_length_a 9.003868
_cell_length_b 9.165415
_cell_length_c 21.431108
_cell_angle_alpha 152.905786
_cell_angle_beta 150.476344
_cell_angle_gamma 38.026772
_cell_volume 396.269094
_symmetry_space_group_name_H-M "P -1"
_symmetry_group_IT_number 2
_symmetry_cell_setting 'triclinic'
loop_
_space_group_symop_operation_xyz
x,y,z
-x,-y,-z
loop_
_atom_site_type_symbol
_atom_site_label
_atom_site_fract_x
_atom_site_fract_y
_atom_site_fract_z
Si Si1 0.629781 0.900521 0.443126
Si Si2 0.716349 0.014204 0.280461
Si Si3 0.101558 0.928796 0.080381
Si Si4 0.483198 0.199135 0.133073
Si Si5 0.259362 0.345665 0.396637
O O1 0.663018 0.516373 0.308119
O O2 0.936176 0.087878 0.616579
O O3 0.500000 0.000000 0.500000
O O4 0.386436 0.013663 0.346027
O O5 0.626420 0.004576 0.171145
O O6 0.736765 0.393517 0.447725
O O7 0.462632 0.867854 0.176540
O O8 0.033559 0.233011 0.217811
O O9 0.862469 0.692959 0.931654
O O10 0.000000 0.000000 0.000000
O O11 0.500000 0.000000 0.000000
O O12 0.500000 0.500000 0.500000
#
# Coordination Sequence:
#
# PCOD9032614 Si02
#       5
#     2   2   2   2   2
#     4  12  25  41  72 105 132 182 238 276 340 412
#     4  10  22  45  69  94 139 184 226 278 339 415
#     4   9  21  41  65  96 134 181 218 275 344 403
#     4  11  23  42  70 103 143 176 221 292 350 392
#     4  10  22  43  72  95 139 181 233 275 340 411
#
# _framework density 25.235375000000001
#
# number of rings (size 3 to 8) (size 9 to 14) (size 15 to 20)
#    0.000    1.600    2.000    1.800    2.800    4.000 
#    0.000    1.000    0.000    0.000    0.000    0.000 
#    0.000    0.000    0.000    0.000    0.000    0.000 
#
# Total GULP energy -55720.561468 kJ/mol
# GULP energy per Si atom -5572.056147 kJ/mol
# Density = 2.517794 g / cm^3
# Si number density = 25.235375 Si / 1000 Ang^3
#
#
#
# Elastic Constant Matrix: (Units=GPa)
#
#
# Indices 1 2 3 4 5 6 
#
# 1 143.5671 19.7514 65.3366 -14.0552 -5.4670 4.2984
# 2 19.7514 26.4356 5.5889 -2.8449 -8.7312 5.9343
# 3 65.3366 5.5889 115.1364 -22.3380 -6.3807 -4.6843
# 4 -14.0552 -2.8449 -22.3380 18.5592 0.7029 6.7550
# 5 -5.4670 -8.7312 -6.3807 0.7029 82.6077 -13.3198
# 6 4.2984 5.9343 -4.6843 6.7550 -13.3198 28.0386
#
#
#
# Elastic Compliance Matrix: (Units=1/GPa)
#
#
# Indices 1 2 3 4 5 6 
#
# 1 0.010502 -0.006410 -0.005581 0.000913 -0.000702 -0.001739
# 2 -0.006410 0.045986 0.002934 0.008843 0.003154 -0.008892
# 3 -0.005581 0.002934 0.014386 0.013578 0.000904 -0.000204
# 4 0.000913 0.008843 0.013578 0.079536 -0.001821 -0.019770
# 5 -0.000702 0.003154 0.000904 -0.001821 0.013518 0.006451
# 6 -0.001739 -0.008892 -0.000204 -0.019770 0.006451 0.045607
#
#
# Mechanical properties :
#
#
# Convention : Reuss Voigt Hill
#
# Bulk Modulus (GPa) = 18.95355 51.83254 35.39304
# Shear Modulus (GPa) = 20.38857 38.80526 29.59692
#
# Velocity S-wave (km/s) = 2.84551 3.92565 3.42838
# Velocity P-wave (km/s) = 4.28052 6.41341 5.45228
#
# Compressibility (1/GPa) = 0.05276057
#
# Stress axis : x y z
#
# Youngs Moduli (GPa) = 95.22244 21.74570 69.51175
#
# Poissons Ratio (x) = 0.13938 0.38793
# Poissons Ratio (y) = 0.61034 -0.20393
# Poissons Ratio (z) = 0.53142 -0.06380
#
# Static dielectric constant tensor:
#      x y z
#    x 1.818990 0.221250 -0.052790 
#    y 0.221250 1.012290 0.202630 
#    z -0.052790 0.202630 2.005350 
# 
# From -- ./inp_files/15798.got.cif
#   From: 2010.05.17/outbox.cif.g08.bks.cpg/sg2_8_cif.got.tgz:15798.got - 2010.06.03 11:33:40.
