data_PCOD9032181
_publ_section_title
;
Structure prediction by ZEFSAII (Michael W. Deem and Ramdas Pophale) SiO2 
 PCOD9032181
Probable space group: P -1
;
_chemical_formula_sum "Si O2"
_cell_formula_units_Z 16
_cell_length_a 17.396608
_cell_length_b 7.872275
_cell_length_c 7.188387
_cell_angle_alpha 115.258007
_cell_angle_beta 58.508429
_cell_angle_gamma 125.918878
_cell_volume 669.450898
_symmetry_space_group_name_H-M "P -1"
_symmetry_group_IT_number 2
_symmetry_cell_setting 'triclinic'
loop_
_space_group_symop_operation_xyz
x,y,z
-x,-y,-z
loop_
_atom_site_type_symbol
_atom_site_label
_atom_site_fract_x
_atom_site_fract_y
_atom_site_fract_z
Si Si1 0.771293 0.804086 0.958968
Si Si2 0.284701 0.975645 0.160074
Si Si3 0.315302 0.561090 0.408337
Si Si4 0.459752 0.404289 0.303765
Si Si5 0.931265 0.384191 0.709467
Si Si6 0.598153 0.217338 0.932362
Si Si7 0.815469 0.615359 0.151863
Si Si8 0.997171 0.127547 0.742019
O O1 0.753117 0.631263 0.738264
O O2 0.711749 0.923088 0.000482
O O3 0.888884 0.982859 0.906758
O O4 0.751657 0.683925 0.123673
O O5 0.166799 0.848366 0.312465
O O6 0.322835 0.797947 0.032106
O O7 0.359437 0.170570 0.290762
O O8 0.418154 0.550980 0.329554
O O9 0.352827 0.764663 0.323662
O O10 0.251682 0.528225 0.659167
O O11 0.500000 0.500000 0.500000
O O12 0.554131 0.384328 0.082732
O O13 0.996959 0.339511 0.760926
O O14 0.000000 0.500000 0.500000
O O15 0.880048 0.522136 0.916711
O O16 0.500000 0.000000 0.000000
O O17 0.905986 0.820639 0.231486
O O18 0.000000 0.000000 0.500000
#
# Coordination Sequence:
#
# PCOD9032181 Si02
#       8
#     2   2   2   2   2   2   2   2
#     4  10  22  43  69  99 144 191 239 300 356 424
#     4   9  22  45  72 102 147 189 238 307 358 424
#     4  11  24  43  75 105 144 186 243 305 363 434
#     4  10  23  44  75 107 136 187 243 298 376 439
#     4  11  25  43  71 107 151 200 242 297 361 429
#     4  10  22  46  73  97 143 189 229 304 369 426
#     4  12  25  43  75 107 142 199 249 290 367 433
#     4  11  22  44  67 101 147 192 244 296 354 426
#
# _framework density 23.900182000000001
#
# number of rings (size 3 to 8) (size 9 to 14) (size 15 to 20)
#    0.000    1.500    1.250    2.625    5.250    0.000 
#    0.000    7.500    0.000    0.000    0.000    0.000 
#    0.000    0.000    0.000    0.000    0.000    0.000 
#
# Total GULP energy -89345.346636 kJ/mol
# GULP energy per Si atom -5584.084165 kJ/mol
# Density = 2.384578 g / cm^3
# Si number density = 23.900182 Si / 1000 Ang^3
#
#
#
# Elastic Constant Matrix: (Units=GPa)
#
#
# Indices 1 2 3 4 5 6 
#
# 1 151.8138 39.3415 56.6906 -7.4401 20.7851 -0.9098
# 2 39.3415 70.3325 42.5121 -24.9501 17.4880 -1.1836
# 3 56.6906 42.5121 135.0438 -21.2953 15.4274 1.0537
# 4 -7.4401 -24.9501 -21.2953 40.3089 -0.3760 6.6445
# 5 20.7851 17.4880 15.4274 -0.3760 41.9415 5.9088
# 6 -0.9098 -1.1836 1.0537 6.6445 5.9088 41.0411
#
#
#
# Elastic Compliance Matrix: (Units=1/GPa)
#
#
# Indices 1 2 3 4 5 6 
#
# 1 0.008651 -0.003475 -0.002647 -0.002101 -0.001994 0.000787
# 2 -0.003475 0.024495 -0.003442 0.012689 -0.007067 -0.000319
# 3 -0.002647 -0.003442 0.010155 0.002863 -0.000856 -0.000759
# 4 -0.002101 0.012689 0.002863 0.034525 -0.004328 -0.004721
# 5 -0.001994 -0.007067 -0.000856 -0.004328 0.028566 -0.003638
# 6 0.000787 -0.000319 -0.000759 -0.004721 -0.003638 0.025682
#
#
# Mechanical properties :
#
#
# Convention : Reuss Voigt Hill
#
# Bulk Modulus (GPa) = 41.36815 70.47538 55.92177
# Shear Modulus (GPa) = 31.39523 39.23470 35.31497
#
# Velocity S-wave (km/s) = 3.62829 4.05607 3.84813
# Velocity P-wave (km/s) = 5.90753 7.17544 6.57214
#
# Compressibility (1/GPa) = 0.02417318
#
# Stress axis : x y z
#
# Youngs Moduli (GPa) = 115.59513 40.82385 98.47451
#
# Poissons Ratio (x) = 0.14187 0.26069
# Poissons Ratio (y) = 0.40171 0.33891
# Poissons Ratio (z) = 0.30601 0.14050
#
# Static dielectric constant tensor:
#      x y z
#    x 1.786020 -0.201840 0.056100 
#    y -0.201840 1.828450 0.089330 
#    z 0.056100 0.089330 1.868830 
# 
# From -- ./inp_files/107331.got.cif
#   From: 2010.05.17/outbox.cif.g08.bks.cpg/sg2_54_cif.got.tgz:107331.got - 2010.06.03 11:33:40.
