data_PCOD9032734
_publ_section_title
;
Structure prediction by ZEFSAII (Michael W. Deem and Ramdas Pophale) SiO2 
 PCOD9032734
Probable space group: P -1
;
_chemical_formula_sum "Si O2"
_cell_formula_units_Z 15
_cell_length_a 21.252042
_cell_length_b 23.870414
_cell_length_c 12.111659
_cell_angle_alpha 151.620237
_cell_angle_beta 19.255966
_cell_angle_gamma 160.629683
_cell_volume 668.778883
_symmetry_space_group_name_H-M "P -1"
_symmetry_group_IT_number 2
_symmetry_cell_setting 'triclinic'
loop_
_space_group_symop_operation_xyz
x,y,z
-x,-y,-z
loop_
_atom_site_type_symbol
_atom_site_label
_atom_site_fract_x
_atom_site_fract_y
_atom_site_fract_z
Si Si1 0.194685 0.797946 0.845528
Si Si2 0.790233 0.131038 0.447950
Si Si3 0.723433 0.732962 0.796871
Si Si4 0.057219 0.644475 0.026033
Si Si5 0.369760 0.751219 0.900001
Si Si6 0.912149 0.587530 0.744799
Si Si7 0.942879 0.019339 0.506559
Si Si8 0.000000 0.000000 0.000000
O O1 0.981179 0.701441 0.932620
O O2 0.506935 0.950581 0.555330
O O3 0.142021 0.885301 0.161681
O O4 0.143411 0.674114 0.806335
O O5 0.967973 0.100402 0.141513
O O6 0.920930 0.280702 0.404379
O O7 0.708775 0.170428 0.760412
O O8 0.892275 0.687200 0.414228
O O9 0.798687 0.855749 0.784648
O O10 0.403611 0.561687 0.024337
O O11 0.829280 0.840275 0.918239
O O12 0.850968 0.446161 0.047279
O O13 0.329011 0.759004 0.851171
O O14 0.676778 0.847590 0.589564
O O15 0.000000 0.500000 0.500000
O O16 0.000000 0.000000 0.500000
#
# Coordination Sequence:
#
# PCOD9032734 Si02
#       8
#     2   2   2   2   2   2   2   1
#     4  10  24  42  70  96 138 177 233 282 350 409
#     4  11  25  45  70 101 137 190 228 282 345 417
#     4  11  27  44  68 102 137 182 236 284 349 409
#     4  10  22  44  71 104 131 178 228 303 342 406
#     4  10  22  43  73  99 138 176 235 286 354 402
#     4  12  27  46  69 100 145 189 230 280 341 426
#     4  10  25  40  70 103 135 176 223 296 345 409
#     4  12  26  46  68  98 144 182 230 284 336 428
#
# _framework density 22.428937999999999
#
# number of rings (size 3 to 8) (size 9 to 14) (size 15 to 20)
#    0.000    1.333    1.333    2.000   11.200    3.200 
#    4.800    0.000    0.000    0.000    0.000    0.000 
#    0.000    0.000    0.000    0.000    0.000    0.000 
#
# Total GULP energy -83504.532103 kJ/mol
# GULP energy per Si atom -5566.968807 kJ/mol
# Density = 2.237789 g / cm^3
# Si number density = 22.428938 Si / 1000 Ang^3
#
#
#
# Elastic Constant Matrix: (Units=GPa)
#
#
# Indices 1 2 3 4 5 6 
#
# 1 89.9288 28.3652 22.3185 -8.1337 -3.6177 12.3222
# 2 28.3652 100.8162 30.1248 -9.5050 -3.1922 15.5494
# 3 22.3185 30.1248 45.4122 -5.2148 -6.9434 3.9654
# 4 -8.1337 -9.5050 -5.2148 32.7494 -2.5562 -0.5330
# 5 -3.6177 -3.1922 -6.9434 -2.5562 27.7545 4.5725
# 6 12.3222 15.5494 3.9654 -0.5330 4.5725 49.6162
#
#
#
# Elastic Compliance Matrix: (Units=1/GPa)
#
#
# Indices 1 2 3 4 5 6 
#
# 1 0.013435 -0.001718 -0.004863 0.002097 0.000938 -0.002473
# 2 -0.001718 0.013325 -0.007440 0.002218 0.000170 -0.003147
# 3 -0.004863 -0.007440 0.030477 0.001981 0.006227 0.000551
# 4 0.002097 0.002218 0.001981 0.032322 0.004234 -0.001417
# 5 0.000938 0.000170 0.006227 0.004234 0.038831 -0.004317
# 6 -0.002473 -0.003147 0.000551 -0.001417 -0.004317 0.022094
#
#
# Mechanical properties :
#
#
# Convention : Reuss Voigt Hill
#
# Bulk Modulus (GPa) = 34.25134 44.19714 39.22424
# Shear Modulus (GPa) = 26.55932 32.38059 29.46995
#
# Velocity S-wave (km/s) = 3.44489 3.80372 3.62874
# Velocity P-wave (km/s) = 5.57918 6.24814 5.92311
#
# Compressibility (1/GPa) = 0.02919594
#
# Stress axis : x y z
#
# Youngs Moduli (GPa) = 74.43260 75.04512 32.81143
#
# Poissons Ratio (x) = 0.12893 0.15956
# Poissons Ratio (y) = 0.12788 0.24411
# Poissons Ratio (z) = 0.36197 0.55831
#
# Static dielectric constant tensor:
#      x y z
#    x -6.376170 4.238760 1.333600 
#    y 4.238760 -0.371810 -0.669600 
#    z 1.333600 -0.669600 1.650600 
# 
# From -- ./inp_files/379057.got.cif
#   From: 2010.05.17/outbox.cif.g08.bks.cpg/sg2_190_cif.got.tgz:379057.got - 2010.06.03 11:33:40.
