data_PCOD9032821
_publ_section_title
;
Structure prediction by ZEFSAII (Michael W. Deem and Ramdas Pophale) SiO2 
 PCOD9032821
Probable space group: P -1
;
_chemical_formula_sum "Si O2"
_cell_formula_units_Z 16
_cell_length_a 9.442550
_cell_length_b 14.641810
_cell_length_c 8.069398
_cell_angle_alpha 108.430397
_cell_angle_beta 74.076604
_cell_angle_gamma 140.272647
_cell_volume 675.577021
_symmetry_space_group_name_H-M "P -1"
_symmetry_group_IT_number 2
_symmetry_cell_setting 'triclinic'
loop_
_space_group_symop_operation_xyz
x,y,z
-x,-y,-z
loop_
_atom_site_type_symbol
_atom_site_label
_atom_site_fract_x
_atom_site_fract_y
_atom_site_fract_z
Si Si1 0.581962 0.162165 0.900166
Si Si2 0.032428 0.593755 0.895675
Si Si3 0.762772 0.846429 0.944867
Si Si4 0.919809 0.364535 0.616547
Si Si5 0.259126 0.382193 0.083000
Si Si6 0.609055 0.462466 0.532780
Si Si7 0.557412 0.089016 0.366740
Si Si8 0.743373 0.872582 0.574056
O O1 0.777206 0.253982 0.753214
O O2 0.448440 0.997484 0.822063
O O3 0.709371 0.249763 0.081288
O O4 0.424071 0.176607 0.927515
O O5 0.928239 0.483769 0.711296
O O6 0.902601 0.630164 0.978369
O O7 0.000000 0.500000 0.000000
O O8 0.781329 0.748590 0.949984
O O9 0.737249 0.842640 0.753257
O O10 0.000000 0.000000 0.000000
O O11 0.786062 0.255986 0.439509
O O12 0.181147 0.469931 0.603259
O O13 0.276334 0.439482 0.286954
O O14 0.500000 0.500000 0.000000
O O15 0.500000 0.500000 0.500000
O O16 0.424439 0.291380 0.537732
O O17 0.370583 0.079305 0.392500
O O18 0.500000 0.000000 0.500000
O O19 0.000000 0.000000 0.500000
#
# Coordination Sequence:
#
# PCOD9032821 Si02
#       8
#     2   2   2   2   2   2   2   2
#     4  10  24  45  78 106 155 200 257 320 390 453
#     4  10  22  43  76 109 148 195 254 313 383 455
#     4  12  30  50  74 115 162 203 261 315 393 477
#     4  10  23  46  77 109 152 197 256 325 379 461
#     4  12  28  47  80 113 155 206 257 322 398 458
#     4  12  28  48  80 115 156 202 266 320 391 470
#     4  10  25  45  78 109 150 206 259 312 399 457
#     4  12  30  51  79 115 162 208 258 327 395 465
#
# _framework density 23.683457000000001
#
# number of rings (size 3 to 8) (size 9 to 14) (size 15 to 20)
#    0.000    1.000    1.250    3.000   15.750    3.500 
#    0.000    0.000    0.000    0.000    0.000    0.000 
#    0.000    0.000    0.000    0.000    0.000    0.000 
#
# Total GULP energy -89383.957077 kJ/mol
# GULP energy per Si atom -5586.497317 kJ/mol
# Density = 2.362955 g / cm^3
# Si number density = 23.683457 Si / 1000 Ang^3
#
#
#
# Elastic Constant Matrix: (Units=GPa)
#
#
# Indices 1 2 3 4 5 6 
#
# 1 228.9257 78.6874 20.3646 4.7635 -24.6119 -14.3566
# 2 78.6874 189.1361 42.4236 24.5264 -15.6794 -14.5560
# 3 20.3646 42.4236 46.3469 19.3726 -11.8924 -5.1526
# 4 4.7635 24.5264 19.3726 61.9368 3.0982 -4.8933
# 5 -24.6119 -15.6794 -11.8924 3.0982 35.2162 -1.1464
# 6 -14.3566 -14.5560 -5.1526 -4.8933 -1.1464 55.3199
#
#
#
# Elastic Compliance Matrix: (Units=1/GPa)
#
#
# Indices 1 2 3 4 5 6 
#
# 1 0.005417 -0.002015 0.000240 0.000235 0.002981 0.000980
# 2 -0.002015 0.007573 -0.005429 -0.001090 0.000254 0.000873
# 3 0.000240 -0.005429 0.032529 -0.008431 0.009514 0.001115
# 4 0.000235 -0.001090 -0.008431 0.019488 -0.004863 0.000612
# 5 0.002981 0.000254 0.009514 -0.004863 0.034299 0.002007
# 6 0.000980 0.000873 0.001115 0.000612 0.002007 0.018760
#
#
# Mechanical properties :
#
#
# Convention : Reuss Voigt Hill
#
# Bulk Modulus (GPa) = 32.14206 83.03998 57.59102
# Shear Modulus (GPa) = 35.00358 52.02344 43.51351
#
# Velocity S-wave (km/s) = 3.84862 4.69189 4.29102
# Velocity P-wave (km/s) = 5.77496 8.03059 6.99430
#
# Compressibility (1/GPa) = 0.03111188
#
# Stress axis : x y z
#
# Youngs Moduli (GPa) = 184.61727 132.05124 30.74162
#
# Poissons Ratio (x) = 0.26612 -0.00739
# Poissons Ratio (y) = 0.37206 0.16688
# Poissons Ratio (z) = -0.04440 0.71684
#
# Static dielectric constant tensor:
#      x y z
#    x 1.995700 -0.021740 -0.019360 
#    y -0.021740 1.886950 0.017360 
#    z -0.019360 0.017360 1.892220 
# 
# From -- ./inp_files/208240.got.cif
#   From: 2010.05.17/outbox.cif.g08.bks.cpg/sg2_105_cif.got.tgz:208240.got - 2010.06.03 11:33:40.
