data_PCOD9032482
_publ_section_title
;
Structure prediction by ZEFSAII (Michael W. Deem and Ramdas Pophale) SiO2 
 PCOD9032482
Probable space group: P -1
;
_chemical_formula_sum "Si O2"
_cell_formula_units_Z 16
_cell_length_a 6.956815
_cell_length_b 13.634637
_cell_length_c 9.220664
_cell_angle_alpha 92.981383
_cell_angle_beta 57.172617
_cell_angle_gamma 111.440129
_cell_volume 672.038690
_symmetry_space_group_name_H-M "P -1"
_symmetry_group_IT_number 2
_symmetry_cell_setting 'triclinic'
loop_
_space_group_symop_operation_xyz
x,y,z
-x,-y,-z
loop_
_atom_site_type_symbol
_atom_site_label
_atom_site_fract_x
_atom_site_fract_y
_atom_site_fract_z
Si Si1 0.437952 0.888409 0.938114
Si Si2 0.325619 0.612894 0.361670
Si Si3 0.721448 0.806139 0.366916
Si Si4 0.036308 0.686418 0.249866
Si Si5 0.073652 0.603725 0.772570
Si Si6 0.315375 0.495223 0.842946
Si Si7 0.262914 0.841997 0.693865
Si Si8 0.989249 0.965224 0.668782
O O1 0.321286 0.894258 0.830893
O O2 0.707928 0.884823 0.809507
O O3 0.249990 0.784496 0.088992
O O4 0.500000 0.000000 0.000000
O O5 0.569637 0.725063 0.295441
O O6 0.160073 0.637815 0.312331
O O7 0.170704 0.586833 0.573733
O O8 0.429987 0.522419 0.274531
O O9 0.510671 0.829425 0.539020
O O10 0.854087 0.739546 0.391775
O O11 0.926893 0.925129 0.262426
O O12 0.872766 0.596350 0.195653
O O13 0.289554 0.599320 0.793598
O O14 0.066320 0.719974 0.780491
O O15 0.813823 0.527269 0.948462
O O16 0.174720 0.909007 0.624574
O O17 0.000000 0.000000 0.500000
#
# Coordination Sequence:
#
# PCOD9032482 Si02
#       8
#     2   2   2   2   2   2   2   2
#     4  12  26  40  63  93 136 177 218 276 329 400
#     4  10  24  41  69  98 134 175 220 278 336 401
#     4  10  23  41  65  92 130 171 214 272 327 389
#     4  11  24  44  65 101 133 170 226 273 333 394
#     4  10  22  43  71  95 132 179 224 272 340 394
#     4  10  22  46  67  97 137 173 223 282 330 400
#     4  11  25  43  66  95 130 177 223 273 332 399
#     4  12  26  40  65  95 129 169 225 272 324 400
#
# _framework density 23.808154999999999
#
# number of rings (size 3 to 8) (size 9 to 14) (size 15 to 20)
#    0.000    1.250    3.750    0.750    7.000    1.000 
#    0.000    3.750    0.000    0.000    0.000    0.000 
#    0.000    0.000    0.000    0.000    0.000    0.000 
#
# Total GULP energy -89504.701627 kJ/mol
# GULP energy per Si atom -5594.043852 kJ/mol
# Density = 2.375397 g / cm^3
# Si number density = 23.808155 Si / 1000 Ang^3
#
#
#
# Elastic Constant Matrix: (Units=GPa)
#
#
# Indices 1 2 3 4 5 6 
#
# 1 146.0486 44.2878 63.0536 -0.5645 9.4293 -34.5391
# 2 44.2878 94.7031 9.0040 -2.0943 12.6312 -23.6735
# 3 63.0536 9.0040 101.0945 6.7326 5.8710 -22.9749
# 4 -0.5645 -2.0943 6.7326 36.2783 -3.0764 -10.2711
# 5 9.4293 12.6312 5.8710 -3.0764 33.3908 -1.3485
# 6 -34.5391 -23.6735 -22.9749 -10.2711 -1.3485 44.8561
#
#
#
# Elastic Compliance Matrix: (Units=1/GPa)
#
#
# Indices 1 2 3 4 5 6 
#
# 1 0.011668 -0.003651 -0.006065 0.002323 -0.000453 0.004469
# 2 -0.003651 0.014210 0.002577 0.001686 -0.004389 0.006263
# 3 -0.006065 0.002577 0.014500 -0.001755 -0.001826 0.003660
# 4 0.002323 0.001686 -0.001755 0.030725 0.002204 0.008882
# 5 -0.000453 -0.004389 -0.001826 0.002204 0.032175 -0.002128
# 6 0.004469 0.006263 0.003660 0.008882 -0.002128 0.032884
#
#
# Mechanical properties :
#
#
# Convention : Reuss Voigt Hill
#
# Bulk Modulus (GPa) = 38.31354 63.83744 51.07549
# Shear Modulus (GPa) = 31.41929 37.93843 34.67886
#
# Velocity S-wave (km/s) = 3.63669 3.99620 3.82068
# Velocity P-wave (km/s) = 5.81047 6.94005 6.40023
#
# Compressibility (1/GPa) = 0.02610043
#
# Stress axis : x y z
#
# Youngs Moduli (GPa) = 85.70755 70.37436 68.96773
#
# Poissons Ratio (x) = 0.25692 0.41827
# Poissons Ratio (y) = 0.31289 -0.17775
# Poissons Ratio (z) = 0.51979 -0.18137
#
# Static dielectric constant tensor:
#      x y z
#    x 1.922250 0.049840 -0.040440 
#    y 0.049840 1.962620 0.009250 
#    z -0.040440 0.009250 1.905840 
# 
# From -- ./inp_files/135106.got.cif
#   From: 2010.05.17/outbox.cif.g08.bks.cpg/sg2_68_cif.got.tgz:135106.got - 2010.06.03 11:33:40.
