data_PCOD9032280
_publ_section_title
;
Structure prediction by ZEFSAII (Michael W. Deem and Ramdas Pophale) SiO2 
 PCOD9032280
Probable space group: P -1
;
_chemical_formula_sum "Si O2"
_cell_formula_units_Z 14
_cell_length_a 7.583986
_cell_length_b 17.130902
_cell_length_c 9.401151
_cell_angle_alpha 121.448277
_cell_angle_beta 62.874878
_cell_angle_gamma 146.569005
_cell_volume 573.519556
_symmetry_space_group_name_H-M "P -1"
_symmetry_group_IT_number 2
_symmetry_cell_setting 'triclinic'
loop_
_space_group_symop_operation_xyz
x,y,z
-x,-y,-z
loop_
_atom_site_type_symbol
_atom_site_label
_atom_site_fract_x
_atom_site_fract_y
_atom_site_fract_z
Si Si1 0.176149 0.752610 0.515580
Si Si2 0.292742 0.541584 0.769288
Si Si3 0.094945 0.164235 0.344478
Si Si4 0.252333 0.504380 0.076031
Si Si5 0.086341 0.758891 0.868217
Si Si6 0.162831 0.986823 0.123001
Si Si7 0.284548 0.199774 0.634504
O O1 0.054842 0.697586 0.670260
O O2 0.504736 0.816165 0.440890
O O3 0.915962 0.613830 0.374286
O O4 0.189563 0.865759 0.590581
O O5 0.605546 0.679889 0.696843
O O6 0.066758 0.548558 0.857821
O O7 0.359476 0.541370 0.908017
O O8 0.201361 0.188370 0.491606
O O9 0.034679 0.041306 0.186121
O O10 0.490271 0.641822 0.226858
O O11 0.139855 0.367666 0.051343
O O12 0.454075 0.874473 0.889338
O O13 0.051807 0.855824 0.956865
O O14 0.031203 0.920898 0.267901
#
# Coordination Sequence:
#
# PCOD9032280 Si02
#       7
#     2   2   2   2   2   2   2
#     4  11  25  44  74 107 139 182 245 286 356 411
#     4  10  22  43  70 114 138 180 241 300 347 416
#     4  12  24  45  73 104 147 185 232 300 345 430
#     4  10  22  44  77 100 145 185 237 294 352 415
#     4  11  24  48  73 104 141 194 235 287 353 429
#     4  11  26  46  73 102 147 190 235 282 362 425
#     4  11  25  48  72 107 142 189 233 293 356 419
#
# _framework density 24.410678000000001
#
# number of rings (size 3 to 8) (size 9 to 14) (size 15 to 20)
#    0.000    1.143    2.857    1.714    4.000    4.000 
#    0.000    0.000    0.000    0.000    0.000    0.000 
#    0.000    0.000    0.000    0.000    0.000    0.000 
#
# Total GULP energy -78471.709135 kJ/mol
# GULP energy per Si atom -5605.122081 kJ/mol
# Density = 2.435512 g / cm^3
# Si number density = 24.410678 Si / 1000 Ang^3
#
#
#
# Elastic Constant Matrix: (Units=GPa)
#
#
# Indices 1 2 3 4 5 6 
#
# 1 114.9103 20.6404 31.8178 16.8442 -22.6165 -22.6043
# 2 20.6404 107.7465 31.1475 2.6163 5.6405 -5.0780
# 3 31.8178 31.1475 128.5183 12.8929 1.5124 -1.0180
# 4 16.8442 2.6163 12.8929 33.0846 -1.8677 -9.7714
# 5 -22.6165 5.6405 1.5124 -1.8677 44.8072 9.0466
# 6 -22.6043 -5.0780 -1.0180 -9.7714 9.0466 27.6192
#
#
#
# Elastic Compliance Matrix: (Units=1/GPa)
#
#
# Indices 1 2 3 4 5 6 
#
# 1 0.012469 -0.001541 -0.002427 -0.002879 0.005001 0.007176
# 2 -0.001541 0.010392 -0.002218 0.001215 -0.002315 0.001756
# 3 -0.002427 -0.002218 0.009214 -0.003076 -0.000804 -0.002879
# 4 -0.002879 0.001215 -0.003076 0.035982 -0.002269 0.011227
# 5 0.005001 -0.002315 -0.000804 -0.002269 0.026228 -0.005756
# 6 0.007176 0.001756 -0.002879 0.011227 -0.005756 0.048154
#
#
# Mechanical properties :
#
#
# Convention : Reuss Voigt Hill
#
# Bulk Modulus (GPa) = 50.74962 57.59849 54.17406
# Shear Modulus (GPa) = 30.98325 38.94014 34.96170
#
# Velocity S-wave (km/s) = 3.56652 3.99834 3.78859
# Velocity P-wave (km/s) = 6.14777 6.70541 6.43264
#
# Compressibility (1/GPa) = 0.01970458
#
# Stress axis : x y z
#
# Youngs Moduli (GPa) = 80.19893 96.23001 108.52462
#
# Poissons Ratio (x) = 0.14827 0.26336
# Poissons Ratio (y) = 0.12357 0.24069
# Poissons Ratio (z) = 0.19462 0.21342
#
# Static dielectric constant tensor:
#      x y z
#    x 1.942710 -0.001270 -0.041550 
#    y -0.001270 1.891230 0.004420 
#    z -0.041550 0.004420 1.918370 
# 
# From -- ./inp_files/218205.got.cif
#   From: 2010.05.17/outbox.cif.g08.bks.cpg/sg2_110_cif.got.tgz:218205.got - 2010.06.03 11:33:40.
