data_PCOD9032418
_publ_section_title
;
Structure prediction by ZEFSAII (Michael W. Deem and Ramdas Pophale) SiO2 
 PCOD9032418
Probable space group: P -1
;
_chemical_formula_sum "Si O2"
_cell_formula_units_Z 14
_cell_length_a 14.978183
_cell_length_b 9.931833
_cell_length_c 16.299270
_cell_angle_alpha 34.830453
_cell_angle_beta 150.946814
_cell_angle_gamma 126.066933
_cell_volume 595.573258
_symmetry_space_group_name_H-M "P -1"
_symmetry_group_IT_number 2
_symmetry_cell_setting 'triclinic'
loop_
_space_group_symop_operation_xyz
x,y,z
-x,-y,-z
loop_
_atom_site_type_symbol
_atom_site_label
_atom_site_fract_x
_atom_site_fract_y
_atom_site_fract_z
Si Si1 0.302418 0.358966 0.342721
Si Si2 0.439034 0.308542 0.301897
Si Si3 0.257125 0.060910 0.833941
Si Si4 0.191313 0.912336 0.517802
Si Si5 0.753241 0.198398 0.203378
Si Si6 0.810796 0.344155 0.521661
Si Si7 0.725882 0.109792 0.891037
O O1 0.300357 0.419871 0.215201
O O2 0.543721 0.162917 0.655307
O O3 0.241474 0.627735 0.209201
O O4 0.181608 0.194084 0.348725
O O5 0.655369 0.324080 0.472886
O O6 0.500000 0.000000 0.500000
O O7 0.307221 0.505250 0.024157
O O8 0.212977 0.363233 0.646821
O O9 0.034558 0.063823 0.662116
O O10 0.340361 0.916819 0.885259
O O11 0.358161 0.924077 0.069813
O O12 0.313005 0.806135 0.753988
O O13 0.266016 0.731161 0.587478
O O14 0.000000 0.000000 0.500000
O O15 0.053347 0.137426 0.828203
#
# Coordination Sequence:
#
# PCOD9032418 Si02
#       7
#     2   2   2   2   2   2   2
#     4  11  24  43  71 104 139 186 234 285 354 422
#     4  12  26  45  69 106 141 180 233 298 349 411
#     4  10  22  44  69 101 138 183 232 286 352 411
#     4  10  22  43  71 103 132 187 233 285 341 424
#     4  10  24  45  71 102 142 186 232 284 349 426
#     4  11  25  43  71 101 143 181 231 298 348 409
#     4  10  23  43  67 103 141 182 230 288 354 418
#
# _framework density 23.506765000000001
#
# number of rings (size 3 to 8) (size 9 to 14) (size 15 to 20)
#    0.000    1.429    2.857    1.714    2.000   12.000 
#    0.000    0.000    0.000    0.000    0.000    0.000 
#    0.000    0.000    0.000    0.000    0.000    0.000 
#
# Total GULP energy -78308.180952 kJ/mol
# GULP energy per Si atom -5593.441497 kJ/mol
# Density = 2.345326 g / cm^3
# Si number density = 23.506765 Si / 1000 Ang^3
#
#
#
# Elastic Constant Matrix: (Units=GPa)
#
#
# Indices 1 2 3 4 5 6 
#
# 1 84.9681 34.7603 33.7791 -5.3362 -17.7152 15.8699
# 2 34.7603 152.3733 37.3461 -34.4830 5.4147 23.0455
# 3 33.7791 37.3461 131.1047 -14.6377 10.6208 9.0615
# 4 -5.3362 -34.4830 -14.6377 39.5134 1.0525 -6.8976
# 5 -17.7152 5.4147 10.6208 1.0525 34.6865 -1.7259
# 6 15.8699 23.0455 9.0615 -6.8976 -1.7259 30.1970
#
#
#
# Elastic Compliance Matrix: (Units=1/GPa)
#
#
# Indices 1 2 3 4 5 6 
#
# 1 0.018098 -0.003296 -0.004598 -0.003436 0.010983 -0.005773
# 2 -0.003296 0.009863 -0.000575 0.007317 -0.003476 -0.004149
# 3 -0.004598 -0.000575 0.009683 0.002649 -0.005291 0.000252
# 4 -0.003436 0.007317 0.002649 0.032796 -0.004572 0.002657
# 5 0.010983 -0.003476 -0.005291 -0.004572 0.036717 -0.000477
# 6 -0.005773 -0.004149 0.000252 0.002657 -0.000477 0.039820
#
#
# Mechanical properties :
#
#
# Convention : Reuss Voigt Hill
#
# Bulk Modulus (GPa) = 48.29851 64.46860 56.38356
# Shear Modulus (GPa) = 29.27101 38.38342 33.82722
#
# Velocity S-wave (km/s) = 3.53259 4.04526 3.79759
# Velocity P-wave (km/s) = 6.10165 7.02167 6.57777
#
# Compressibility (1/GPa) = 0.02070457
#
# Stress axis : x y z
#
# Youngs Moduli (GPa) = 55.25490 101.39197 103.27372
#
# Poissons Ratio (x) = 0.33423 0.47488
# Poissons Ratio (y) = 0.18214 0.05937
# Poissons Ratio (z) = 0.25408 0.05828
#
# Static dielectric constant tensor:
#      x y z
#    x 1.967880 -0.031900 -0.016570 
#    y -0.031900 1.880800 0.028740 
#    z -0.016570 0.028740 1.911640 
# 
# From -- ./inp_files/573566.got.cif
#   From: 2010.05.17/outbox.cif.g08.bks.cpg/sg2_287_cif.got.tgz:573566.got - 2010.06.03 11:33:40.
