data_PCOD9032572
_publ_section_title
;
Structure prediction by ZEFSAII (Michael W. Deem and Ramdas Pophale) SiO2 
 PCOD9032572
Probable space group: P -1
;
_chemical_formula_sum "Si O2"
_cell_formula_units_Z 10
_cell_length_a 7.177915
_cell_length_b 5.049055
_cell_length_c 12.339354
_cell_angle_alpha 88.356435
_cell_angle_beta 71.686779
_cell_angle_gamma 59.277320
_cell_volume 360.170173
_symmetry_space_group_name_H-M "P -1"
_symmetry_group_IT_number 2
_symmetry_cell_setting 'triclinic'
loop_
_space_group_symop_operation_xyz
x,y,z
-x,-y,-z
loop_
_atom_site_type_symbol
_atom_site_label
_atom_site_fract_x
_atom_site_fract_y
_atom_site_fract_z
Si Si1 0.344440 0.605451 0.278060
Si Si2 0.260388 0.336004 0.500724
Si Si3 0.806932 0.367290 0.139173
Si Si4 0.716118 0.657705 0.930771
Si Si5 0.822061 0.114482 0.350484
O O1 0.383772 0.387900 0.376026
O O2 0.556618 0.655601 0.221626
O O3 0.333137 0.439515 0.173566
O O4 0.095604 0.912444 0.332580
O O5 0.256559 0.544701 0.597315
O O6 0.000000 0.500000 0.500000
O O7 0.296499 0.022839 0.550893
O O8 0.820599 0.102311 0.219193
O O9 0.044314 0.349709 0.117938
O O10 0.768942 0.397285 0.016710
O O11 0.500000 0.000000 0.000000
#
# Coordination Sequence:
#
# PCOD9032572 Si02
#       5
#     2   2   2   2   2
#     4  11  24  44  71 102 143 188 234 294 353 421
#     4  10  22  43  72 103 145 189 231 289 358 422
#     4  11  25  43  71 102 139 187 239 292 357 420
#     4  11  26  46  70 103 141 186 240 297 355 422
#     4  11  24  45  71 107 145 186 236 291 355 427
#
# _framework density 27.764655999999999
#
# number of rings (size 3 to 8) (size 9 to 14) (size 15 to 20)
#    0.000    1.200    0.000    6.600    0.000    9.600 
#    0.000    0.000    0.000    1.200    0.000    0.000 
#    0.000    0.000    0.000    0.000    0.000    0.000 
#
# Total GULP energy -56016.738983 kJ/mol
# GULP energy per Si atom -5601.673898 kJ/mol
# Density = 2.770146 g / cm^3
# Si number density = 27.764656 Si / 1000 Ang^3
#
#
#
# Elastic Constant Matrix: (Units=GPa)
#
#
# Indices 1 2 3 4 5 6 
#
# 1 128.1298 28.1359 75.9750 8.7399 -3.6601 -7.8594
# 2 28.1359 128.2156 64.6156 -15.3725 23.4799 -10.3860
# 3 75.9750 64.6156 203.7517 -26.6624 3.7921 -11.1401
# 4 8.7399 -15.3725 -26.6624 70.7996 -18.2930 13.7684
# 5 -3.6601 23.4799 3.7921 -18.2930 81.0310 -0.6665
# 6 -7.8594 -10.3860 -11.1401 13.7684 -0.6665 37.2844
#
#
#
# Elastic Compliance Matrix: (Units=1/GPa)
#
#
# Indices 1 2 3 4 5 6 
#
# 1 0.010762 -0.000502 -0.004184 -0.003410 0.000075 0.002139
# 2 -0.000502 0.009988 -0.002818 0.000122 -0.002743 0.001740
# 3 -0.004184 -0.002818 0.007730 0.003167 0.000977 -0.000509
# 4 -0.003410 0.000122 0.003167 0.017934 0.003659 -0.006296
# 5 0.000075 -0.002743 0.000977 0.003659 0.013907 -0.001559
# 6 0.002139 0.001740 -0.000509 -0.006296 -0.001559 0.029901
#
#
# Mechanical properties :
#
#
# Convention : Reuss Voigt Hill
#
# Bulk Modulus (GPa) = 74.23405 88.61669 81.42537
# Shear Modulus (GPa) = 45.56998 57.24771 51.40885
#
# Velocity S-wave (km/s) = 4.05568 4.54573 4.30768
# Velocity P-wave (km/s) = 6.98043 7.71608 7.35746
#
# Compressibility (1/GPa) = 0.01347091
#
# Stress axis : x y z
#
# Youngs Moduli (GPa) = 92.92035 100.12402 129.36218
#
# Poissons Ratio (x) = 0.05029 0.54129
# Poissons Ratio (y) = 0.04667 0.36453
# Poissons Ratio (z) = 0.38881 0.28214
#
# Static dielectric constant tensor:
#      x y z
#    x 2.202930 -0.127110 -0.100670 
#    y -0.127110 2.182190 0.011640 
#    z -0.100670 0.011640 2.126440 
# 
# From -- ./inp_files/62421.got.cif
#   From: 2010.05.17/outbox.cif.g08.bks.cpg/sg2_32_cif.got.tgz:62421.got - 2010.06.03 11:33:40.
