data_PCOD9032007
_publ_section_title
;
Structure prediction by ZEFSAII (Michael W. Deem and Ramdas Pophale) SiO2 
 PCOD9032007
Probable space group: P -1
;
_chemical_formula_sum "Si O2"
_cell_formula_units_Z 16
_cell_length_a 24.686000
_cell_length_b 5.859384
_cell_length_c 12.285655
_cell_angle_alpha 117.111656
_cell_angle_beta 27.263575
_cell_angle_gamma 120.856120
_cell_volume 698.820462
_symmetry_space_group_name_H-M "P -1"
_symmetry_group_IT_number 2
_symmetry_cell_setting 'triclinic'
loop_
_space_group_symop_operation_xyz
x,y,z
-x,-y,-z
loop_
_atom_site_type_symbol
_atom_site_label
_atom_site_fract_x
_atom_site_fract_y
_atom_site_fract_z
Si Si1 0.276966 0.219416 0.582584
Si Si2 0.603068 0.954840 0.226679
Si Si3 0.312122 0.491255 0.113346
Si Si4 0.124357 0.728772 0.822785
Si Si5 0.969837 0.666904 0.484420
Si Si6 0.178270 0.689786 0.956459
Si Si7 0.492892 0.977511 0.822647
Si Si8 0.662860 0.528693 0.692485
O O1 0.247318 0.471685 0.746971
O O2 0.385242 0.127250 0.428455
O O3 0.327802 0.274326 0.381921
O O4 0.148272 0.994088 0.766936
O O5 0.732772 0.118893 0.076904
O O6 0.570139 0.039353 0.185324
O O7 0.500000 0.000000 0.500000
O O8 0.612436 0.655029 0.131756
O O9 0.174718 0.441545 0.305254
O O10 0.311914 0.371870 0.208508
O O11 0.391972 0.793931 0.040783
O O12 0.156187 0.821963 0.910754
O O13 0.223544 0.592677 0.566396
O O14 0.000000 0.500000 0.000000
O O15 0.000000 0.500000 0.500000
O O16 0.000000 0.000000 0.500000
O O17 0.050022 0.592303 0.226814
O O18 0.543394 0.280253 0.838474
#
# Coordination Sequence:
#
# PCOD9032007 Si02
#       8
#     2   2   2   2   2   2   2   2
#     4  10  23  44  73 102 145 188 232 318 362 446
#     4  12  25  42  67 102 138 187 243 297 370 444
#     4  12  26  45  73 100 144 193 240 311 370 443
#     4  10  22  43  69 104 137 184 244 302 374 440
#     4  12  28  51  73 109 153 199 251 307 374 450
#     4  11  24  44  70 103 146 188 247 298 369 448
#     4  11  24  43  69 101 141 185 248 301 374 437
#     4  10  23  44  66 105 140 182 245 297 375 440
#
# _framework density 22.895724000000001
#
# number of rings (size 3 to 8) (size 9 to 14) (size 15 to 20)
#    0.000    1.000    1.250    5.625    1.750   10.000 
#    2.250    0.000    0.000    0.000    0.000    0.000 
#    0.000    0.000    0.000    0.000    0.000    0.000 
#
# Total GULP energy -89427.905372 kJ/mol
# GULP energy per Si atom -5589.244086 kJ/mol
# Density = 2.284361 g / cm^3
# Si number density = 22.895724 Si / 1000 Ang^3
#
#
#
# Elastic Constant Matrix: (Units=GPa)
#
#
# Indices 1 2 3 4 5 6 
#
# 1 126.6312 45.7612 42.8915 -8.1502 0.5271 -0.3554
# 2 45.7612 126.7989 39.6386 -21.3286 -0.8101 1.5213
# 3 42.8915 39.6386 130.5393 -4.7648 6.8417 1.4127
# 4 -8.1502 -21.3286 -4.7648 46.2910 9.6158 -0.7874
# 5 0.5271 -0.8101 6.8417 9.6158 40.1708 -6.5319
# 6 -0.3554 1.5213 1.4127 -0.7874 -6.5319 26.9621
#
#
#
# Elastic Compliance Matrix: (Units=1/GPa)
#
#
# Indices 1 2 3 4 5 6 
#
# 1 0.009699 -0.002738 -0.002369 0.000156 0.000261 0.000474
# 2 -0.002738 0.010198 -0.002017 0.004100 -0.000478 -0.000502
# 3 -0.002369 -0.002017 0.009146 -0.000069 -0.001682 -0.000806
# 4 0.000156 0.004100 -0.000069 0.024739 -0.005984 -0.000953
# 5 0.000261 -0.000478 -0.001682 -0.005984 0.027681 0.006650
# 6 0.000474 -0.000502 -0.000806 -0.000953 0.006650 0.038749
#
#
# Mechanical properties :
#
#
# Convention : Reuss Voigt Hill
#
# Bulk Modulus (GPa) = 67.58651 71.17245 69.37948
# Shear Modulus (GPa) = 35.87100 39.72999 37.80049
#
# Velocity S-wave (km/s) = 3.96246 4.17016 4.06764
# Velocity P-wave (km/s) = 7.10761 7.37156 7.24079
#
# Compressibility (1/GPa) = 0.01479585
#
# Stress axis : x y z
#
# Youngs Moduli (GPa) = 103.10565 98.06288 109.34280
#
# Poissons Ratio (x) = 0.26845 0.25899
# Poissons Ratio (y) = 0.28225 0.22054
# Poissons Ratio (z) = 0.24421 0.19779
#
# Static dielectric constant tensor:
#      x y z
#    x 1.903520 -0.045220 -0.045310 
#    y -0.045220 1.974390 -0.012380 
#    z -0.045310 -0.012380 1.855530 
# 
# From -- ./inp_files/94612.got.cif
#   From: 2010.05.17/outbox.cif.g08.bks.cpg/sg2_48_cif.got.tgz:94612.got - 2010.06.03 11:33:40.
