data_PCOD9032282
_publ_section_title
;
Structure prediction by ZEFSAII (Michael W. Deem and Ramdas Pophale) SiO2 
 PCOD9032282
Probable space group: P -1
;
_chemical_formula_sum "Si O2"
_cell_formula_units_Z 16
_cell_length_a 8.927444
_cell_length_b 21.929904
_cell_length_c 8.965508
_cell_angle_alpha 29.893576
_cell_angle_beta 70.445716
_cell_angle_gamma 72.408192
_cell_volume 824.073284
_symmetry_space_group_name_H-M "P -1"
_symmetry_group_IT_number 2
_symmetry_cell_setting 'triclinic'
loop_
_space_group_symop_operation_xyz
x,y,z
-x,-y,-z
loop_
_atom_site_type_symbol
_atom_site_label
_atom_site_fract_x
_atom_site_fract_y
_atom_site_fract_z
Si Si1 0.599535 0.602566 0.670887
Si Si2 0.592137 0.159343 0.751476
Si Si3 0.129569 0.237333 0.716197
Si Si4 0.762075 0.794127 0.763740
Si Si5 0.035955 0.855957 0.312690
Si Si6 0.140647 0.405294 0.622668
Si Si7 0.814565 0.972903 0.641698
Si Si8 0.516817 0.101933 0.558721
O O1 0.487832 0.717677 0.413878
O O2 0.733571 0.671961 0.576608
O O3 0.707718 0.546524 0.620936
O O4 0.500000 0.500000 0.000000
O O5 0.781152 0.167653 0.662085
O O6 0.530334 0.145857 0.631233
O O7 0.551010 0.036241 0.115853
O O8 0.071050 0.304308 0.744763
O O9 0.007103 0.210323 0.686574
O O10 0.199537 0.108685 0.029562
O O11 0.760212 0.894080 0.685544
O O12 0.605249 0.816283 0.670262
O O13 0.915535 0.813756 0.568535
O O14 0.789526 0.664523 0.109567
O O15 0.000000 0.000000 0.000000
O O16 0.000000 0.500000 0.500000
O O17 0.692868 0.086644 0.462506
O O18 0.000000 0.000000 0.500000
#
# Coordination Sequence:
#
# PCOD9032282 Si02
#       8
#     2   2   2   2   2   2   2   2
#     4  10  22  43  70  89 126 178 233 274 334 388
#     4  11  22  37  63  96 132 172 223 278 331 391
#     4   9  21  41  62  95 134 166 230 271 324 402
#     4  11  22  36  63  95 133 169 217 278 340 398
#     4  12  22  36  65 102 135 175 221 264 335 421
#     4   9  22  45  69  90 130 174 220 286 342 388
#     4  11  21  37  57  93 135 178 207 268 351 407
#     4  11  21  38  62  93 138 170 217 280 337 399
#
# _framework density 19.415749999999999
#
# number of rings (size 3 to 8) (size 9 to 14) (size 15 to 20)
#    0.750    0.750    2.500    3.375    1.750    0.000 
#    0.000    3.750    0.000    3.750    0.000    0.000 
#    0.000    0.000    0.000    0.000    0.000    0.000 
#
# Total GULP energy -89252.826715 kJ/mol
# GULP energy per Si atom -5578.301670 kJ/mol
# Density = 1.937156 g / cm^3
# Si number density = 19.415750 Si / 1000 Ang^3
#
#
#
# Elastic Constant Matrix: (Units=GPa)
#
#
# Indices 1 2 3 4 5 6 
#
# 1 120.6240 42.8051 62.5465 2.7511 7.6214 -19.6505
# 2 42.8051 73.6897 36.9447 -2.9274 18.8742 -25.0644
# 3 62.5465 36.9447 110.4802 5.5693 6.4231 -12.0734
# 4 2.7511 -2.9274 5.5693 30.0222 -5.7955 6.9475
# 5 7.6214 18.8742 6.4231 -5.7955 31.6677 0.7143
# 6 -19.6505 -25.0644 -12.0734 6.9475 0.7143 43.7460
#
#
#
# Elastic Compliance Matrix: (Units=1/GPa)
#
#
# Indices 1 2 3 4 5 6 
#
# 1 0.013085 -0.004095 -0.005776 -0.000963 0.000240 0.002086
# 2 -0.004095 0.025695 -0.004006 -0.001959 -0.014153 0.012319
# 3 -0.005776 -0.004006 0.013640 -0.002080 0.000649 -0.000806
# 4 -0.000963 -0.001959 -0.002080 0.037185 0.008811 -0.008179
# 5 0.000240 -0.014153 0.000649 0.008811 0.041660 -0.009902
# 6 0.002086 0.012319 -0.000806 -0.008179 -0.009902 0.032093
#
#
# Mechanical properties :
#
#
# Convention : Reuss Voigt Hill
#
# Bulk Modulus (GPa) = 40.54205 65.48738 53.01471
# Shear Modulus (GPa) = 25.08347 31.92036 28.50191
#
# Velocity S-wave (km/s) = 3.59822 4.05908 3.83558
# Velocity P-wave (km/s) = 6.17974 7.46796 6.85418
#
# Compressibility (1/GPa) = 0.02466575
#
# Stress axis : x y z
#
# Youngs Moduli (GPa) = 76.42290 38.91802 73.31340
#
# Poissons Ratio (x) = 0.15938 0.42345
# Poissons Ratio (y) = 0.31296 0.29371
# Poissons Ratio (z) = 0.44141 0.15591
#
# Static dielectric constant tensor:
#      x y z
#    x 1.683160 -0.011490 -0.011160 
#    y -0.011490 1.705620 0.002540 
#    z -0.011160 0.002540 1.663500 
# 
# From -- ./inp_files/225842.got.cif
#   From: 2010.05.17/outbox.cif.g08.bks.cpg/sg2_113_cif.got.tgz:225842.got - 2010.06.03 11:33:40.
