data_PCOD9032830
_publ_section_title
;
Structure prediction by ZEFSAII (Michael W. Deem and Ramdas Pophale) SiO2 
 PCOD9032830
Probable space group: P -1
;
_chemical_formula_sum "Si O2"
_cell_formula_units_Z 16
_cell_length_a 18.869322
_cell_length_b 5.495905
_cell_length_c 18.789460
_cell_angle_alpha 70.532121
_cell_angle_beta 23.299616
_cell_angle_gamma 79.051143
_cell_volume 690.507308
_symmetry_space_group_name_H-M "P -1"
_symmetry_group_IT_number 2
_symmetry_cell_setting 'triclinic'
loop_
_space_group_symop_operation_xyz
x,y,z
-x,-y,-z
loop_
_atom_site_type_symbol
_atom_site_label
_atom_site_fract_x
_atom_site_fract_y
_atom_site_fract_z
Si Si1 0.458249 0.126421 0.136521
Si Si2 0.035570 0.283204 0.705195
Si Si3 0.970249 0.479674 0.114278
Si Si4 0.633651 0.724239 0.950445
Si Si5 0.667811 0.755737 0.346741
Si Si6 0.269194 0.859052 0.882565
Si Si7 0.041672 0.892183 0.606197
Si Si8 0.669077 0.914842 0.482257
O O1 0.449281 0.221497 0.053887
O O2 0.245230 0.016358 0.371033
O O3 0.571818 0.398291 0.048059
O O4 0.552880 0.886326 0.068086
O O5 0.028556 0.587381 0.672004
O O6 0.235228 0.297504 0.555288
O O7 0.025489 0.100607 0.662408
O O8 0.863563 0.131375 0.930619
O O9 0.848551 0.684102 0.216834
O O10 0.835795 0.197259 0.295376
O O11 0.000000 0.500000 0.000000
O O12 0.164583 0.570601 0.969063
O O13 0.859056 0.848720 0.729403
O O14 0.500000 0.500000 0.500000
O O15 0.598069 0.867825 0.470865
O O16 0.732899 0.937675 0.199718
O O17 0.486478 0.911802 0.695669
#
# Coordination Sequence:
#
# PCOD9032830 Si02
#       8
#     2   2   2   2   2   2   2   2
#     4  10  22  43  76 113 147 183 231 294 340 395
#     4  12  29  46  69 100 139 198 238 278 340 434
#     4  12  22  41  69  95 129 160 217 293 363 441
#     4  10  22  43  76 115 144 182 237 286 345 397
#     4  12  23  41  69  97 121 162 223 297 374 414
#     4  12  25  47  67  97 129 177 228 298 361 422
#     4  12  26  48  70 102 148 194 236 276 345 405
#     4  12  26  47  65  95 131 171 231 293 359 420
#
# _framework density 23.171368999999999
#
# number of rings (size 3 to 8) (size 9 to 14) (size 15 to 20)
#    0.000    0.500    3.750    4.875    0.000    4.000 
#    0.000    7.500    0.000    0.000    0.000    0.000 
#    0.000    0.000    0.000    0.000    0.000    0.000 
#
# Total GULP energy -89511.336473 kJ/mol
# GULP energy per Si atom -5594.458530 kJ/mol
# Density = 2.311863 g / cm^3
# Si number density = 23.171369 Si / 1000 Ang^3
#
#
#
# Elastic Constant Matrix: (Units=GPa)
#
#
# Indices 1 2 3 4 5 6 
#
# 1 4.3196 17.3979 -20.4869 -4.7004 -11.9283 13.0184
# 2 17.3979 99.6596 33.6803 -10.1275 14.7540 28.2895
# 3 -20.4869 33.6803 131.1698 -6.4974 -8.9559 28.5153
# 4 -4.7004 -10.1275 -6.4974 40.2484 8.5242 -6.6303
# 5 -11.9283 14.7540 -8.9559 8.5242 28.4590 3.4364
# 6 13.0184 28.2895 28.5153 -6.6303 3.4364 21.8846
#
#
#
# Elastic Compliance Matrix: (Units=1/GPa)
#
#
# Indices 1 2 3 4 5 6 
#
# 1 -0.028299 0.003755 -0.014868 0.006677 -0.024991 0.037300
# 2 0.003755 0.016610 0.001425 0.001710 -0.004156 -0.024391
# 3 -0.014868 0.001425 0.003800 0.001189 -0.006546 0.003440
# 4 0.006677 0.001710 0.001189 0.027852 -0.006260 0.001690
# 5 -0.024991 -0.004156 -0.006546 -0.006260 0.023840 0.023127
# 6 0.037300 -0.024391 0.003440 0.001690 0.023127 0.047434
#
#
# Mechanical properties :
#
#
# Convention : Reuss Voigt Hill
#
# Bulk Modulus (GPa) = -36.67668 32.92574 -1.87547
# Shear Modulus (GPa) = 49.24940 31.75558 40.50249
#
# Velocity S-wave (km/s) = 4.61525 3.70600 4.18539
# Velocity P-wave (km/s) = 3.54089 5.70553 4.74821
#
# Compressibility (1/GPa) = -0.02726528
#
# Stress axis : x y z
#
# Youngs Moduli (GPa) = -35.33747 60.20634 263.17557
#
# Poissons Ratio (x) = -0.22609 3.91298
# Poissons Ratio (y) = 0.13270 -0.37504
# Poissons Ratio (z) = -0.52541 -0.08580
#
# Static dielectric constant tensor:
#      x y z
#    x 1.894690 0.018920 -0.037310 
#    y 0.018920 1.964590 0.006840 
#    z -0.037310 0.006840 1.912180 
# 
# From -- ./inp_files/600757.got.cif
#   From: 2010.05.17/outbox.cif.g08.bks.cpg/sg2_301_cif.got.tgz:600757.got - 2010.06.03 11:33:40.
