data_PCOD9032464
_publ_section_title
;
Structure prediction by ZEFSAII (Michael W. Deem and Ramdas Pophale) SiO2 
 PCOD9032464
Probable space group: P -1
;
_chemical_formula_sum "Si O2"
_cell_formula_units_Z 13
_cell_length_a 11.960299
_cell_length_b 9.737655
_cell_length_c 7.920154
_cell_angle_alpha 81.809197
_cell_angle_beta 35.412109
_cell_angle_gamma 70.348323
_cell_volume 488.508520
_symmetry_space_group_name_H-M "P -1"
_symmetry_group_IT_number 2
_symmetry_cell_setting 'triclinic'
loop_
_space_group_symop_operation_xyz
x,y,z
-x,-y,-z
loop_
_atom_site_type_symbol
_atom_site_label
_atom_site_fract_x
_atom_site_fract_y
_atom_site_fract_z
Si Si1 0.100492 0.943237 0.063564
Si Si2 0.000000 0.500000 0.000000
Si Si3 0.020073 0.634602 0.550715
Si Si4 0.360118 0.935074 0.296479
Si Si5 0.302915 0.181535 0.849752
Si Si6 0.251409 0.620576 0.939574
Si Si7 0.611241 0.399160 0.720860
O O1 0.887067 0.962970 0.425873
O O2 0.198492 0.059233 0.983084
O O3 0.265518 0.776317 0.850367
O O4 0.000000 0.000000 0.000000
O O5 0.207144 0.321065 0.811871
O O6 0.104191 0.574939 0.003244
O O7 0.149863 0.676583 0.242244
O O8 0.158568 0.592348 0.561913
O O9 0.000000 0.500000 0.500000
O O10 0.794607 0.738117 0.866406
O O11 0.368646 0.770350 0.260012
O O12 0.459535 0.913571 0.367115
O O13 0.500000 0.000000 0.000000
O O14 0.467801 0.481553 0.727764
O O15 0.500000 0.500000 0.000000
#
# Coordination Sequence:
#
# PCOD9032464 Si02
#       7
#     2   1   2   2   2   2   2
#     4  12  28  49  70 109 158 200 245 317 393 456
#     4  12  22  46  72 104 148 202 244 312 384 460
#     4  11  21  42  75 107 141 193 261 324 365 445
#     4  12  27  48  77 113 150 203 258 321 382 452
#     4  12  25  47  73 105 155 197 258 313 385 457
#     4  11  24  44  71 104 149 196 254 309 380 455
#     4  10  22  43  71 110 144 192 262 312 381 446
#
# _framework density 26.611615
#
# number of rings (size 3 to 8) (size 9 to 14) (size 15 to 20)
#    0.000    0.615    6.154    1.846    4.308    1.846 
#    2.769    2.308    0.000    0.000    0.000    0.000 
#    0.000    0.000    0.000    0.000    0.000    0.000 
#
# Total GULP energy -72393.438095 kJ/mol
# GULP energy per Si atom -5568.726007 kJ/mol
# Density = 2.655105 g / cm^3
# Si number density = 26.611615 Si / 1000 Ang^3
#
#
#
# Elastic Constant Matrix: (Units=GPa)
#
#
# Indices 1 2 3 4 5 6 
#
# 1 174.4891 59.7248 20.8519 4.3248 -32.3664 0.4337
# 2 59.7248 193.9480 28.0780 9.2237 -39.9605 -0.3888
# 3 20.8519 28.0780 80.7391 3.3406 -18.0857 -2.1628
# 4 4.3248 9.2237 3.3406 37.5602 -3.2030 -4.8284
# 5 -32.3664 -39.9605 -18.0857 -3.2030 42.6977 -5.1971
# 6 0.4337 -0.3888 -2.1628 -4.8284 -5.1971 54.7520
#
#
#
# Elastic Compliance Matrix: (Units=1/GPa)
#
#
# Indices 1 2 3 4 5 6 
#
# 1 0.006946 -0.001260 -0.000468 -0.000078 0.003916 0.000282
# 2 -0.001260 0.006737 -0.000854 -0.000957 0.004967 0.000411
# 3 -0.000468 -0.000854 0.013930 -0.000439 0.004831 0.000968
# 4 -0.000078 -0.000957 -0.000439 0.027332 0.001214 0.002502
# 5 0.003916 0.004967 0.004831 0.001214 0.033600 0.003491
# 6 0.000282 0.000411 0.000968 0.002502 0.003491 0.018855
#
#
# Mechanical properties :
#
#
# Convention : Reuss Voigt Hill
#
# Bulk Modulus (GPa) = 44.54559 74.05396 59.29977
# Shear Modulus (GPa) = 41.65029 49.70342 45.67685
#
# Velocity S-wave (km/s) = 3.96045 4.32642 4.14747
# Velocity P-wave (km/s) = 6.13914 7.26948 6.72809
#
# Compressibility (1/GPa) = 0.02244891
#
# Stress axis : x y z
#
# Youngs Moduli (GPa) = 143.97012 148.42551 71.78902
#
# Poissons Ratio (x) = 0.18702 0.03357
# Poissons Ratio (y) = 0.18140 0.06134
# Poissons Ratio (z) = 0.06732 0.12682
#
# Static dielectric constant tensor:
#      x y z
#    x -12.387430 11.583250 -8.117750 
#    y 11.583250 -7.371200 6.407180 
#    z -8.117750 6.407180 -2.255360 
# 
# From -- ./inp_files/238113.got.cif
#   From: 2010.05.17/outbox.cif.g08.bks.cpg/sg2_120_cif.got.tgz:238113.got - 2010.06.03 11:33:40.
