data_PCOD9032036
_publ_section_title
;
Structure prediction by ZEFSAII (Michael W. Deem and Ramdas Pophale) SiO2 
 PCOD9032036
Probable space group: P -1
;
_chemical_formula_sum "Si O2"
_cell_formula_units_Z 16
_cell_length_a 15.841959
_cell_length_b 21.834014
_cell_length_c 5.573676
_cell_angle_alpha 81.930398
_cell_angle_beta 70.387819
_cell_angle_gamma 22.155666
_cell_volume 600.848964
_symmetry_space_group_name_H-M "P -1"
_symmetry_group_IT_number 2
_symmetry_cell_setting 'triclinic'
loop_
_space_group_symop_operation_xyz
x,y,z
-x,-y,-z
loop_
_atom_site_type_symbol
_atom_site_label
_atom_site_fract_x
_atom_site_fract_y
_atom_site_fract_z
Si Si1 0.292591 0.841545 0.784220
Si Si2 0.711620 0.962083 0.022811
Si Si3 0.366267 0.684826 0.482339
Si Si4 0.060194 0.089022 0.529735
Si Si5 0.223207 0.444095 0.218044
Si Si6 0.777508 0.337607 0.026962
Si Si7 0.251622 0.188165 0.792908
Si Si8 0.810514 0.667764 0.848934
O O1 0.441634 0.697281 0.543311
O O2 0.230110 0.946275 0.653153
O O3 0.476192 0.730949 0.904401
O O4 0.000000 0.000000 0.000000
O O5 0.917295 0.842891 0.102224
O O6 0.779773 0.968039 0.753882
O O7 0.772330 0.851509 0.965245
O O8 0.400285 0.176379 0.246296
O O9 0.597949 0.511151 0.181614
O O10 0.309887 0.665729 0.735004
O O11 0.086616 0.869108 0.504147
O O12 0.808402 0.293886 0.753008
O O13 0.209911 0.392848 0.084066
O O14 0.019152 0.626913 0.204261
O O15 0.094391 0.503885 0.559938
O O16 0.500000 0.000000 0.500000
O O17 0.281310 0.231807 0.892692
#
# Coordination Sequence:
#
# PCOD9032036 Si02
#       8
#     2   2   2   2   2   2   2   2
#     4  12  26  49  78 113 155 208 264 316 386 461
#     4  11  26  44  78 112 157 201 256 317 397 466
#     4  10  23  44  71 107 151 200 261 317 376 457
#     4  11  24  45  75 106 158 208 250 321 386 464
#     4  11  28  51  81 113 160 207 261 330 390 470
#     4  10  22  43  69 110 150 202 251 310 394 456
#     4  12  27  49  81 117 155 204 262 331 389 473
#     4  11  26  51  77 115 158 202 262 320 405 469
#
# _framework density 26.628990000000002
#
# number of rings (size 3 to 8) (size 9 to 14) (size 15 to 20)
#    0.000    1.000    2.500    2.250    5.250    4.000 
#    4.500    0.000    0.000    0.000    0.000    0.000 
#    0.000    0.000    0.000    0.000    0.000    0.000 
#
# Total GULP energy -89603.150134 kJ/mol
# GULP energy per Si atom -5600.196883 kJ/mol
# Density = 2.656838 g / cm^3
# Si number density = 26.628990 Si / 1000 Ang^3
#
#
#
# Elastic Constant Matrix: (Units=GPa)
#
#
# Indices 1 2 3 4 5 6 
#
# 1 148.1834 56.4704 41.8720 15.9663 16.9018 4.3749
# 2 56.4704 156.5957 12.8243 11.4194 -6.4040 7.6548
# 3 41.8720 12.8243 82.8808 23.2516 14.0495 2.6480
# 4 15.9663 11.4194 23.2516 33.0838 8.5526 2.4826
# 5 16.9018 -6.4040 14.0495 8.5526 41.7262 10.0981
# 6 4.3749 7.6548 2.6480 2.4826 10.0981 50.0118
#
#
#
# Elastic Compliance Matrix: (Units=1/GPa)
#
#
# Indices 1 2 3 4 5 6 
#
# 1 0.009376 -0.003230 -0.003711 -0.000023 -0.003163 0.000510
# 2 -0.003230 0.007870 0.000560 -0.002254 0.003147 -0.001475
# 3 -0.003711 0.000560 0.016958 -0.009777 -0.002181 0.000267
# 4 -0.000023 -0.002254 -0.009777 0.039200 -0.005066 -0.000058
# 5 -0.003163 0.003147 -0.002181 -0.005066 0.028874 -0.005668
# 6 0.000510 -0.001475 0.000267 -0.000058 -0.005668 0.021310
#
#
# Mechanical properties :
#
#
# Convention : Reuss Voigt Hill
#
# Bulk Modulus (GPa) = 46.63675 67.77704 57.20690
# Shear Modulus (GPa) = 34.84412 43.39722 39.12067
#
# Velocity S-wave (km/s) = 3.62125 4.04133 3.83704
# Velocity P-wave (km/s) = 5.91913 6.87634 6.41561
#
# Compressibility (1/GPa) = 0.02144232
#
# Stress axis : x y z
#
# Youngs Moduli (GPa) = 106.65593 127.06662 58.97076
#
# Poissons Ratio (x) = 0.41041 0.21883
# Poissons Ratio (y) = 0.34448 -0.03303
# Poissons Ratio (z) = 0.39578 -0.07117
#
# Static dielectric constant tensor:
#      x y z
#    x 2.126870 -0.024100 -0.042810 
#    y -0.024100 2.092180 0.014080 
#    z -0.042810 0.014080 2.136330 
# 
# From -- ./inp_files/112856.got.cif
#   From: 2010.05.17/outbox.cif.g08.bks.cpg/sg2_57_cif.got.tgz:112856.got - 2010.06.03 11:33:40.
