data_PCOD9032198
_publ_section_title
;
Structure prediction by ZEFSAII (Michael W. Deem and Ramdas Pophale) SiO2 
 PCOD9032198
Probable space group: P -1
;
_chemical_formula_sum "Si O2"
_cell_formula_units_Z 12
_cell_length_a 5.222396
_cell_length_b 7.823111
_cell_length_c 13.759615
_cell_angle_alpha 124.611665
_cell_angle_beta 90.496972
_cell_angle_gamma 94.315156
_cell_volume 460.446991
_symmetry_space_group_name_H-M "P -1"
_symmetry_group_IT_number 2
_symmetry_cell_setting 'triclinic'
loop_
_space_group_symop_operation_xyz
x,y,z
-x,-y,-z
loop_
_atom_site_type_symbol
_atom_site_label
_atom_site_fract_x
_atom_site_fract_y
_atom_site_fract_z
Si Si1 0.964396 0.130606 0.443982
Si Si2 0.214958 0.918321 0.218669
Si Si3 0.276344 0.079341 0.910771
Si Si4 0.557218 0.768360 0.310576
Si Si5 0.447488 0.673714 0.838531
Si Si6 0.368710 0.541777 0.412012
O O1 0.713528 0.985653 0.356321
O O2 0.156958 0.115336 0.349688
O O3 0.901709 0.363618 0.542410
O O4 0.000000 0.000000 0.500000
O O5 0.465097 0.917197 0.152054
O O6 0.280887 0.761921 0.255370
O O7 0.969400 0.868330 0.133299
O O8 0.246220 0.841432 0.873146
O O9 0.356230 0.231003 0.049121
O O10 0.673710 0.558138 0.208971
O O11 0.523861 0.736157 0.415488
O O12 0.600464 0.632194 0.725777
O O13 0.500000 0.500000 0.500000
#
# Coordination Sequence:
#
# PCOD9032198 Si02
#       6
#     2   2   2   2   2   2
#     4  12  23  44  70 105 147 185 232 302 352 425
#     4  12  25  45  78 102 143 195 233 293 363 416
#     4  11  25  51  73 103 146 190 241 292 352 426
#     4  10  24  45  68 110 143 183 243 287 363 421
#     4   9  24  47  72 108 142 189 241 297 349 426
#     4  10  22  43  70 100 140 187 233 292 355 422
#
# _framework density 26.061629
#
# number of rings (size 3 to 8) (size 9 to 14) (size 15 to 20)
#    1.000    0.333    3.333    1.500    0.000    4.000 
#   12.000    1.667    0.000    0.000    0.000    0.000 
#    0.000    0.000    0.000    0.000    0.000    0.000 
#
# Total GULP energy -67048.919915 kJ/mol
# GULP energy per Si atom -5587.409993 kJ/mol
# Density = 2.600231 g / cm^3
# Si number density = 26.061629 Si / 1000 Ang^3
#
#
#
# Elastic Constant Matrix: (Units=GPa)
#
#
# Indices 1 2 3 4 5 6 
#
# 1 122.2387 30.3376 50.0990 -21.4185 6.3539 -13.1705
# 2 30.3376 75.1116 43.3470 -16.0103 18.1844 -22.2699
# 3 50.0990 43.3470 197.0783 -17.3965 5.4065 -15.1232
# 4 -21.4185 -16.0103 -17.3965 54.6165 -10.2225 12.0015
# 5 6.3539 18.1844 5.4065 -10.2225 26.0332 -10.1980
# 6 -13.1705 -22.2699 -15.1232 12.0015 -10.1980 32.6062
#
#
#
# Elastic Compliance Matrix: (Units=1/GPa)
#
#
# Indices 1 2 3 4 5 6 
#
# 1 0.010008 -0.002461 -0.001728 0.002646 0.001030 0.000908
# 2 -0.002461 0.021171 -0.003043 0.000486 -0.009929 0.008770
# 3 -0.001728 -0.003043 0.006224 0.000637 0.001659 0.000395
# 4 0.002646 0.000486 0.000637 0.021747 0.005642 -0.004544
# 5 0.001030 -0.009929 0.001659 0.005642 0.050100 0.007997
# 6 0.000908 0.008770 0.000395 -0.004544 0.007997 0.041383
#
#
# Mechanical properties :
#
#
# Convention : Reuss Voigt Hill
#
# Bulk Modulus (GPa) = 43.59296 71.33287 57.46291
# Shear Modulus (GPa) = 28.94500 40.69418 34.81959
#
# Velocity S-wave (km/s) = 3.33624 3.95582 3.65916
# Velocity P-wave (km/s) = 5.62173 6.94945 6.32055
#
# Compressibility (1/GPa) = 0.02293949
#
# Stress axis : x y z
#
# Youngs Moduli (GPa) = 99.92453 47.23398 160.68013
#
# Poissons Ratio (x) = 0.11625 0.27760
# Poissons Ratio (y) = 0.24592 0.48889
# Poissons Ratio (z) = 0.17264 0.14372
#
# Static dielectric constant tensor:
#      x y z
#    x 2.236370 0.018510 -0.008010 
#    y 0.018510 2.130390 -0.004200 
#    z -0.008010 -0.004200 2.047400 
# 
# From -- ./inp_files/479401.got.cif
#   From: 2010.05.17/outbox.cif.g08.bks.cpg/sg2_240_cif.got.tgz:479401.got - 2010.06.03 11:33:40.
