data_PCOD9032958
_publ_section_title
;
Structure prediction by ZEFSAII (Michael W. Deem and Ramdas Pophale) SiO2 
 PCOD9032958
Probable space group: P -1
;
_chemical_formula_sum "Si O2"
_cell_formula_units_Z 14
_cell_length_a 7.028250
_cell_length_b 15.868289
_cell_length_c 9.023111
_cell_angle_alpha 38.294744
_cell_angle_beta 78.690950
_cell_angle_gamma 68.491557
_cell_volume 572.816158
_symmetry_space_group_name_H-M "P -1"
_symmetry_group_IT_number 2
_symmetry_cell_setting 'triclinic'
loop_
_space_group_symop_operation_xyz
x,y,z
-x,-y,-z
loop_
_atom_site_type_symbol
_atom_site_label
_atom_site_fract_x
_atom_site_fract_y
_atom_site_fract_z
Si Si1 0.837525 0.619472 0.253578
Si Si2 0.077340 0.183502 0.265137
Si Si3 0.680140 0.607888 0.760032
Si Si4 0.981026 0.762604 0.457749
Si Si5 0.267515 0.077251 0.981378
Si Si6 0.702089 0.100664 0.502899
Si Si7 0.371223 0.520948 0.743955
O O1 0.934457 0.676860 0.019111
O O2 0.223091 0.684003 0.507021
O O3 0.750011 0.769004 0.153963
O O4 0.661940 0.569361 0.267451
O O5 0.076229 0.198403 0.419032
O O6 0.863494 0.153493 0.314562
O O7 0.282554 0.047125 0.380172
O O8 0.872853 0.641595 0.619661
O O9 0.503092 0.763672 0.617952
O O10 0.586494 0.529013 0.759566
O O11 0.717623 0.522925 0.027899
O O12 0.879469 0.886863 0.186320
O O13 0.000000 0.500000 0.500000
O O14 0.500000 0.000000 0.000000
O O15 0.211526 0.974236 0.249278
#
# Coordination Sequence:
#
# PCOD9032958 Si02
#       7
#     2   2   2   2   2   2   2
#     4  11  23  43  71 101 140 186 231 286 358 415
#     4  10  23  41  71 100 134 183 232 287 350 410
#     4  11  23  40  69 101 137 177 241 282 339 425
#     4  12  22  41  70  99 136 187 230 286 351 408
#     4  11  24  42  70 101 142 181 232 289 345 421
#     4  10  22  44  64 103 138 177 234 288 345 416
#     4  11  24  41  67 101 138 185 229 291 344 414
#
# _framework density 24.440650999999999
#
# number of rings (size 3 to 8) (size 9 to 14) (size 15 to 20)
#    0.000    1.143    5.714    0.429    0.000    2.286 
#    0.000    0.714    0.000    0.000    0.000    0.000 
#    0.000    0.000    0.000    0.000    0.000    0.000 
#
# Total GULP energy -78246.430112 kJ/mol
# GULP energy per Si atom -5589.030722 kJ/mol
# Density = 2.438502 g / cm^3
# Si number density = 24.440651 Si / 1000 Ang^3
#
#
#
# Elastic Constant Matrix: (Units=GPa)
#
#
# Indices 1 2 3 4 5 6 
#
# 1 77.8562 18.0810 15.7841 -8.1186 10.0902 9.9950
# 2 18.0810 125.8697 34.9480 -12.1691 19.4264 9.8040
# 3 15.7841 34.9480 108.2011 -9.9643 19.4187 -3.7956
# 4 -8.1186 -12.1691 -9.9643 37.9085 -0.2336 4.6848
# 5 10.0902 19.4264 19.4187 -0.2336 43.1365 -5.6140
# 6 9.9950 9.8040 -3.7956 4.6848 -5.6140 30.0231
#
#
#
# Elastic Compliance Matrix: (Units=1/GPa)
#
#
# Indices 1 2 3 4 5 6 
#
# 1 0.014801 -0.000420 -0.001300 0.003430 -0.003468 -0.006138
# 2 -0.000420 0.009900 -0.002320 0.003021 -0.003896 -0.004586
# 3 -0.001300 -0.002320 0.010996 0.001637 -0.003372 0.001695
# 4 0.003430 0.003021 0.001637 0.029380 -0.003677 -0.007194
# 5 -0.003468 -0.003896 -0.003372 -0.003677 0.028269 0.007860
# 6 -0.006138 -0.004586 0.001695 -0.007194 0.007860 0.039655
#
#
# Mechanical properties :
#
#
# Convention : Reuss Voigt Hill
#
# Bulk Modulus (GPa) = 36.21061 49.95036 43.08049
# Shear Modulus (GPa) = 33.26967 38.42121 35.84544
#
# Velocity S-wave (km/s) = 3.69351 3.96917 3.83382
# Velocity P-wave (km/s) = 5.74780 6.44108 6.10429
#
# Compressibility (1/GPa) = 0.02761621
#
# Stress axis : x y z
#
# Youngs Moduli (GPa) = 67.56525 101.01258 90.93930
#
# Poissons Ratio (x) = 0.04243 0.11826
# Poissons Ratio (y) = 0.02838 0.21095
# Poissons Ratio (z) = 0.08787 0.23432
#
# Static dielectric constant tensor:
#      x y z
#    x 1.996500 0.078170 -0.031480 
#    y 0.078170 2.031730 -0.030660 
#    z -0.031480 -0.030660 1.914560 
# 
# From -- ./inp_files/191513.got.cif
#   From: 2010.05.17/outbox.cif.g08.bks.cpg/sg2_96_cif.got.tgz:191513.got - 2010.06.03 11:33:40.
