data_PCOD9032697
_publ_section_title
;
Structure prediction by ZEFSAII (Michael W. Deem and Ramdas Pophale) SiO2 
 PCOD9032697
Probable space group: P -1
;
_chemical_formula_sum "Si O2"
_cell_formula_units_Z 16
_cell_length_a 15.186524
_cell_length_b 15.832215
_cell_length_c 8.894374
_cell_angle_alpha 43.161052
_cell_angle_beta 58.287573
_cell_angle_gamma 29.168448
_cell_volume 672.082157
_symmetry_space_group_name_H-M "P -1"
_symmetry_group_IT_number 2
_symmetry_cell_setting 'triclinic'
loop_
_space_group_symop_operation_xyz
x,y,z
-x,-y,-z
loop_
_atom_site_type_symbol
_atom_site_label
_atom_site_fract_x
_atom_site_fract_y
_atom_site_fract_z
Si Si1 0.037694 0.606940 0.437394
Si Si2 0.477898 0.169925 0.479311
Si Si3 0.116107 0.779806 0.274909
Si Si4 0.011418 0.417133 0.942212
Si Si5 0.189172 0.823270 0.463989
Si Si6 0.737783 0.977940 0.967693
Si Si7 0.605088 0.762514 0.881357
Si Si8 0.476326 0.611178 0.733765
O O1 0.256762 0.380932 0.467924
O O2 0.021756 0.742667 0.380552
O O3 0.985138 0.543296 0.669178
O O4 0.118565 0.218267 0.779456
O O5 0.473020 0.186955 0.280528
O O6 0.578490 0.193314 0.422062
O O7 0.575891 0.937906 0.716724
O O8 0.318200 0.574763 0.279308
O O9 0.161839 0.757968 0.435666
O O10 0.000000 0.000000 0.000000
O O11 0.829854 0.508244 0.996362
O O12 0.205092 0.153308 0.063626
O O13 0.000000 0.500000 0.000000
O O14 0.000000 0.000000 0.500000
O O15 0.211854 0.931623 0.220801
O O16 0.521422 0.179056 0.956645
O O17 0.645416 0.337984 0.349590
O O18 0.500000 0.500000 0.000000
#
# Coordination Sequence:
#
# PCOD9032697 Si02
#       8
#     2   2   2   2   2   2   2   2
#     4  11  22  47  73 103 147 191 246 297 358 445
#     4  10  22  43  73 107 138 189 245 298 361 431
#     4  11  24  47  75 107 140 192 245 303 372 429
#     4  12  28  44  71 110 148 192 239 301 364 432
#     4  12  29  48  72 105 149 191 244 310 373 435
#     4  12  26  48  74 106 148 188 247 301 361 445
#     4  11  24  42  75 103 143 190 240 297 365 431
#     4  11  27  46  75 104 144 191 247 303 364 447
#
# _framework density 23.806615000000001
#
# number of rings (size 3 to 8) (size 9 to 14) (size 15 to 20)
#    0.000    0.750    3.750    3.000    7.000    4.500 
#    0.000    0.000    0.000    0.000    0.000    0.000 
#    0.000    0.000    0.000    0.000    0.000    0.000 
#
# Total GULP energy -89547.340049 kJ/mol
# GULP energy per Si atom -5596.708753 kJ/mol
# Density = 2.375243 g / cm^3
# Si number density = 23.806615 Si / 1000 Ang^3
#
#
#
# Elastic Constant Matrix: (Units=GPa)
#
#
# Indices 1 2 3 4 5 6 
#
# 1 125.6954 31.6976 37.9962 0.6160 1.4924 33.7176
# 2 31.6976 128.1110 38.8037 29.5825 -9.7886 13.1519
# 3 37.9962 38.8037 95.9681 16.1607 -1.7516 8.2720
# 4 0.6160 29.5825 16.1607 33.8444 -1.9460 -10.6495
# 5 1.4924 -9.7886 -1.7516 -1.9460 36.5825 0.8286
# 6 33.7176 13.1519 8.2720 -10.6495 0.8286 50.7230
#
#
#
# Elastic Compliance Matrix: (Units=1/GPa)
#
#
# Indices 1 2 3 4 5 6 
#
# 1 0.010996 -0.001196 -0.003411 0.000435 -0.000765 -0.006339
# 2 -0.001196 0.011776 -0.002131 -0.010404 0.002638 -0.004139
# 3 -0.003411 -0.002131 0.013435 -0.004597 -0.000025 -0.000336
# 4 0.000435 -0.010404 -0.004597 0.044729 -0.000927 0.012565
# 5 -0.000765 0.002638 -0.000025 -0.000927 0.028041 -0.000824
# 6 -0.006339 -0.004139 -0.000336 0.012565 -0.000824 0.027708
#
#
# Mechanical properties :
#
#
# Convention : Reuss Voigt Hill
#
# Bulk Modulus (GPa) = 43.99199 62.97440 53.48319
# Shear Modulus (GPa) = 31.69841 40.31512 36.00676
#
# Velocity S-wave (km/s) = 3.65293 4.11961 3.89327
# Velocity P-wave (km/s) = 6.02585 7.00986 6.53640
#
# Compressibility (1/GPa) = 0.02273141
#
# Stress axis : x y z
#
# Youngs Moduli (GPa) = 90.94418 84.91878 74.43245
#
# Poissons Ratio (x) = 0.10152 0.25388
# Poissons Ratio (y) = 0.10873 0.15863
# Poissons Ratio (z) = 0.31020 0.18098
#
# Static dielectric constant tensor:
#      x y z
#    x 1.941050 0.025010 -0.011150 
#    y 0.025010 1.916060 -0.061780 
#    z -0.011150 -0.061780 1.879210 
# 
# From -- ./inp_files/472047.got.cif
#   From: 2010.05.17/outbox.cif.g08.bks.cpg/sg2_237_cif.got.tgz:472047.got - 2010.06.03 11:33:40.
