data_PCOD9032185
_publ_section_title
;
Structure prediction by ZEFSAII (Michael W. Deem and Ramdas Pophale) SiO2 
 PCOD9032185
Probable space group: P -1
;
_chemical_formula_sum "Si O2"
_cell_formula_units_Z 16
_cell_length_a 21.199188
_cell_length_b 11.703717
_cell_length_c 8.952501
_cell_angle_alpha 49.200613
_cell_angle_beta 149.700019
_cell_angle_gamma 141.658889
_cell_volume 693.180790
_symmetry_space_group_name_H-M "P -1"
_symmetry_group_IT_number 2
_symmetry_cell_setting 'triclinic'
loop_
_space_group_symop_operation_xyz
x,y,z
-x,-y,-z
loop_
_atom_site_type_symbol
_atom_site_label
_atom_site_fract_x
_atom_site_fract_y
_atom_site_fract_z
Si Si1 0.172366 0.567401 0.801252
Si Si2 0.359678 0.291848 0.360354
Si Si3 0.522981 0.090980 0.812564
Si Si4 0.010685 0.169143 0.299150
Si Si5 0.743910 0.544501 0.223944
Si Si6 0.682426 0.079056 0.730751
Si Si7 0.761722 0.659928 0.652270
Si Si8 0.424514 0.683497 0.646688
O O1 0.232953 0.564679 0.762746
O O2 0.000000 0.500000 0.500000
O O3 0.295399 0.766795 0.952248
O O4 0.181152 0.425479 0.041546
O O5 0.500000 0.500000 0.500000
O O6 0.437291 0.191553 0.559799
O O7 0.278222 0.231958 0.407483
O O8 0.272835 0.311480 0.028120
O O9 0.431157 0.953676 0.608464
O O10 0.500000 0.000000 0.000000
O O11 0.110305 0.341360 0.467883
O O12 0.106841 0.215846 0.304438
O O13 0.000000 0.000000 0.500000
O O14 0.846543 0.132424 0.973291
O O15 0.607884 0.409085 0.176772
O O16 0.687445 0.248963 0.670597
O O17 0.591419 0.875559 0.797157
O O18 0.624765 0.482300 0.429990
#
# Coordination Sequence:
#
# PCOD9032185 Si02
#       8
#     2   2   2   2   2   2   2   2
#     4  11  24  43  69 100 134 175 228 275 341 409
#     4  11  21  45  72  98 134 176 237 280 326 412
#     4  12  25  45  71 102 139 179 230 289 342 397
#     4  11  26  45  64  99 141 180 225 281 350 405
#     4  10  23  43  71  99 131 181 229 275 338 412
#     4  11  24  42  69 101 144 174 228 288 341 409
#     4  10  23  44  69  97 134 183 228 278 338 406
#     4  10  22  43  70 100 132 181 228 280 343 402
#
# _framework density 23.082001999999999
#
# number of rings (size 3 to 8) (size 9 to 14) (size 15 to 20)
#    0.000    1.250    3.750    1.500    5.250    2.000 
#    4.500    5.000    0.000    0.000    0.000    0.000 
#    0.000    0.000    0.000    0.000    0.000    0.000 
#
# Total GULP energy -89403.734903 kJ/mol
# GULP energy per Si atom -5587.733431 kJ/mol
# Density = 2.302947 g / cm^3
# Si number density = 23.082002 Si / 1000 Ang^3
#
#
#
# Elastic Constant Matrix: (Units=GPa)
#
#
# Indices 1 2 3 4 5 6 
#
# 1 135.0760 30.1127 43.0451 7.7593 -22.0410 27.4195
# 2 30.1127 65.2836 21.1775 4.2376 -2.1024 18.2040
# 3 43.0451 21.1775 101.9774 24.8969 1.0658 11.3631
# 4 7.7593 4.2376 24.8969 26.1701 3.0956 0.1750
# 5 -22.0410 -2.1024 1.0658 3.0956 44.0333 -3.8180
# 6 27.4195 18.2040 11.3631 0.1750 -3.8180 41.6395
#
#
#
# Elastic Compliance Matrix: (Units=1/GPa)
#
#
# Indices 1 2 3 4 5 6 
#
# 1 0.010847 -0.002368 -0.003636 0.000067 0.004996 -0.004657
# 2 -0.002368 0.018814 -0.002182 -0.000138 -0.000757 -0.006139
# 3 -0.003636 -0.002182 0.014989 -0.012650 -0.001469 -0.000824
# 4 0.000067 -0.000138 -0.012650 0.050579 -0.002964 0.002984
# 5 0.004996 -0.000757 -0.001469 -0.002964 0.025400 -0.000216
# 6 -0.004657 -0.006139 -0.000824 0.002984 -0.000216 0.029959
#
#
# Mechanical properties :
#
#
# Convention : Reuss Voigt Hill
#
# Bulk Modulus (GPa) = 35.36353 54.55642 44.95997
# Shear Modulus (GPa) = 28.34681 36.23534 32.29108
#
# Velocity S-wave (km/s) = 3.50822 3.96643 3.74434
# Velocity P-wave (km/s) = 5.63597 6.68312 6.18176
#
# Compressibility (1/GPa) = 0.02827772
#
# Stress axis : x y z
#
# Youngs Moduli (GPa) = 92.19406 53.15063 66.71340
#
# Poissons Ratio (x) = 0.12589 0.24259
# Poissons Ratio (y) = 0.21836 0.14555
# Poissons Ratio (z) = 0.33524 0.11596
#
# Static dielectric constant tensor:
#      x y z
#    x 1.678390 0.151280 -0.215030 
#    y 0.151280 1.796900 0.119100 
#    z -0.215030 0.119100 1.756220 
# 
# From -- ./inp_files/345999.got.cif
#   From: 2010.05.17/outbox.cif.g08.bks.cpg/sg2_173_cif.got.tgz:345999.got - 2010.06.03 11:33:40.
