data_PCOD9032990
_publ_section_title
;
Structure prediction by ZEFSAII (Michael W. Deem and Ramdas Pophale) SiO2 
 PCOD9032990
Probable space group: P -1
;
_chemical_formula_sum "Si O2"
_cell_formula_units_Z 16
_cell_length_a 15.765622
_cell_length_b 8.253024
_cell_length_c 13.719600
_cell_angle_alpha 49.004074
_cell_angle_beta 143.670886
_cell_angle_gamma 133.451514
_cell_volume 745.849439
_symmetry_space_group_name_H-M "P -1"
_symmetry_group_IT_number 2
_symmetry_cell_setting 'triclinic'
loop_
_space_group_symop_operation_xyz
x,y,z
-x,-y,-z
loop_
_atom_site_type_symbol
_atom_site_label
_atom_site_fract_x
_atom_site_fract_y
_atom_site_fract_z
Si Si1 0.941480 0.179612 0.816037
Si Si2 0.357489 0.275049 0.922282
Si Si3 0.509208 0.260523 0.327089
Si Si4 0.433084 0.664336 0.067978
Si Si5 0.741800 0.127108 0.473166
Si Si6 0.832304 0.471177 0.262475
Si Si7 0.307144 0.722139 0.337617
Si Si8 0.429571 0.836293 0.212305
O O1 0.820604 0.054117 0.666911
O O2 0.857252 0.295914 0.767738
O O3 0.057542 0.388135 0.777121
O O4 0.000000 0.000000 0.000000
O O5 0.397162 0.245337 0.857917
O O6 0.212916 0.337689 0.794459
O O7 0.500000 0.500000 0.000000
O O8 0.370643 0.052018 0.073390
O O9 0.396884 0.392752 0.146291
O O10 0.646779 0.275352 0.374917
O O11 0.598505 0.376581 0.462115
O O12 0.406443 0.993931 0.338247
O O13 0.417725 0.752382 0.124628
O O14 0.317579 0.697303 0.868627
O O15 0.856819 0.295643 0.434573
O O16 0.605861 0.921947 0.377727
O O17 0.327038 0.666276 0.266698
#
# Coordination Sequence:
#
# PCOD9032990 Si02
#       8
#     2   2   2   2   2   2   2   2
#     4  11  22  36  57  82 108 147 193 232 267 326
#     4  10  17  32  55  80 110 136 180 226 272 317
#     4   9  17  34  56  81 107 141 185 235 271 317
#     4  11  20  31  56  88 116 137 176 228 287 332
#     4  10  19  36  58  83 110 140 189 234 279 319
#     4  11  20  35  58  84 111 147 186 227 273 329
#     4   9  19  35  55  77 109 145 189 226 268 324
#     4  11  20  33  56  88 114 142 173 230 287 328
#
# _framework density 21.452051000000001
#
# number of rings (size 3 to 8) (size 9 to 14) (size 15 to 20)
#    0.000    1.750    3.750    5.250    0.000    0.500 
#    0.000    0.625    0.000    5.250    0.000    0.000 
#    0.000    0.000    0.000    0.000    0.000    0.000 
#
# Total GULP energy -89106.618807 kJ/mol
# GULP energy per Si atom -5569.163675 kJ/mol
# Density = 2.140323 g / cm^3
# Si number density = 21.452051 Si / 1000 Ang^3
#
#
#
# Elastic Constant Matrix: (Units=GPa)
#
#
# Indices 1 2 3 4 5 6 
#
# 1 159.7291 13.5203 26.5054 7.8410 -26.2532 10.2756
# 2 13.5203 21.3597 4.0938 -0.9953 -2.5577 -2.9432
# 3 26.5054 4.0938 101.8153 -8.9829 -22.0822 -8.0253
# 4 7.8410 -0.9953 -8.9829 18.0190 -0.9645 -8.9128
# 5 -26.2532 -2.5577 -22.0822 -0.9645 34.9949 7.0752
# 6 10.2756 -2.9432 -8.0253 -8.9128 7.0752 31.9274
#
#
#
# Elastic Compliance Matrix: (Units=1/GPa)
#
#
# Indices 1 2 3 4 5 6 
#
# 1 0.009150 -0.006129 -0.002169 -0.009012 0.006415 -0.007993
# 2 -0.006129 0.052257 0.000857 0.011094 -0.002067 0.010561
# 3 -0.002169 0.000857 0.012990 0.010608 0.005767 0.005726
# 4 -0.009012 0.011094 0.010608 0.079762 -0.003027 0.029527
# 5 0.006415 -0.002067 0.005767 -0.003027 0.038868 -0.010264
# 6 -0.007993 0.010561 0.005726 0.029527 -0.010264 0.046823
#
#
# Mechanical properties :
#
#
# Convention : Reuss Voigt Hill
#
# Bulk Modulus (GPa) = 16.80254 41.23811 29.02032
# Shear Modulus (GPa) = 18.21014 32.90722 25.55868
#
# Velocity S-wave (km/s) = 2.91671 3.92087 3.45546
# Velocity P-wave (km/s) = 4.38093 6.30577 5.42933
#
# Compressibility (1/GPa) = 0.05951483
#
# Stress axis : x y z
#
# Youngs Moduli (GPa) = 109.28480 19.13611 76.98264
#
# Poissons Ratio (x) = 0.11729 0.16700
# Poissons Ratio (y) = 0.66984 -0.06600
# Poissons Ratio (z) = 0.23708 -0.01641
#
# Static dielectric constant tensor:
#      x y z
#    x 1.879160 0.057140 -0.045960 
#    y 0.057140 1.819100 -0.017240 
#    z -0.045960 -0.017240 1.907950 
# 
# From -- ./inp_files/256254.got.cif
#   From: 2010.05.17/outbox.cif.g08.bks.cpg/sg2_129_cif.got.tgz:256254.got - 2010.06.03 11:33:40.
