data_PCOD9032848
_publ_section_title
;
Structure prediction by ZEFSAII (Michael W. Deem and Ramdas Pophale) SiO2 
 PCOD9032848
Probable space group: P -1
;
_chemical_formula_sum "Si O2"
_cell_formula_units_Z 15
_cell_length_a 11.568816
_cell_length_b 11.817413
_cell_length_c 9.387953
_cell_angle_alpha 65.494575
_cell_angle_beta 127.234564
_cell_angle_gamma 143.191954
_cell_volume 605.658270
_symmetry_space_group_name_H-M "P -1"
_symmetry_group_IT_number 2
_symmetry_cell_setting 'triclinic'
loop_
_space_group_symop_operation_xyz
x,y,z
-x,-y,-z
loop_
_atom_site_type_symbol
_atom_site_label
_atom_site_fract_x
_atom_site_fract_y
_atom_site_fract_z
Si Si1 0.730487 0.667857 0.398225
Si Si2 0.633517 0.935905 0.449741
Si Si3 0.105967 0.537668 0.908232
Si Si4 0.372356 0.121195 0.850405
Si Si5 0.962985 0.349280 0.467140
Si Si6 0.772132 0.752770 0.712363
Si Si7 0.156853 0.879550 0.086815
Si Si8 0.500000 0.000000 0.500000
O O1 0.745439 0.819139 0.272753
O O2 0.866138 0.655153 0.413116
O O3 0.814329 0.725214 0.597059
O O4 0.470460 0.460123 0.316795
O O5 0.642342 0.943565 0.284401
O O6 0.742370 0.879710 0.602839
O O7 0.406915 0.817602 0.421063
O O8 0.736371 0.137755 0.472213
O O9 0.071496 0.629057 0.729575
O O10 0.994901 0.337912 0.881897
O O11 0.368349 0.685544 0.034476
O O12 0.000000 0.500000 0.000000
O O13 0.283925 0.970006 0.982227
O O14 0.000000 0.500000 0.500000
O O15 0.960943 0.851778 0.918786
O O16 0.349369 0.008645 0.280052
#
# Coordination Sequence:
#
# PCOD9032848 Si02
#       8
#     2   2   2   2   2   2   2   1
#     4  10  22  44  75 114 141 188 250 318 365 437
#     4  11  25  45  72 108 143 196 241 309 370 441
#     4  12  25  42  71 106 146 193 243 309 366 438
#     4  11  24  47  79 110 139 184 265 314 365 428
#     4  12  27  44  68 106 153 195 239 298 374 451
#     4  10  22  43  79 106 144 189 257 309 367 426
#     4  12  25  46  72 107 144 199 244 308 368 441
#     4  12  28  44  68 102 156 196 240 286 380 448
#
# _framework density 24.766442999999999
#
# number of rings (size 3 to 8) (size 9 to 14) (size 15 to 20)
#    0.000    0.800    1.333    5.600    7.467    4.267 
#    0.000    2.000    0.000    0.000    0.000    0.000 
#    0.000    0.000    0.000    0.000    0.000    0.000 
#
# Total GULP energy -83749.536023 kJ/mol
# GULP energy per Si atom -5583.302402 kJ/mol
# Density = 2.471007 g / cm^3
# Si number density = 24.766443 Si / 1000 Ang^3
#
#
#
# Elastic Constant Matrix: (Units=GPa)
#
#
# Indices 1 2 3 4 5 6 
#
# 1 143.9999 38.2744 35.4676 11.2501 7.2571 -6.0301
# 2 38.2744 118.1748 37.1175 -3.9228 9.3011 0.0944
# 3 35.4676 37.1175 144.4962 -8.6699 -0.3678 8.9481
# 4 11.2501 -3.9228 -8.6699 26.7271 7.5798 0.6089
# 5 7.2571 9.3011 -0.3678 7.5798 29.6117 0.0688
# 6 -6.0301 0.0944 8.9481 0.6089 0.0688 44.9841
#
#
#
# Elastic Compliance Matrix: (Units=1/GPa)
#
#
# Indices 1 2 3 4 5 6 
#
# 1 0.008431 -0.002280 -0.001848 -0.004451 -0.000237 0.001563
# 2 -0.002280 0.010152 -0.001890 0.002792 -0.003368 0.000016
# 3 -0.001848 -0.001890 0.008164 0.003090 0.000362 -0.001910
# 4 -0.004451 0.002792 0.003090 0.043852 -0.010969 -0.001794
# 5 -0.000237 -0.003368 0.000362 -0.010969 0.037699 -0.000006
# 6 0.001563 0.000016 -0.001910 -0.001794 -0.000006 0.022844
#
#
# Mechanical properties :
#
#
# Convention : Reuss Voigt Hill
#
# Bulk Modulus (GPa) = 67.98156 69.82111 68.90133
# Shear Modulus (GPa) = 33.76482 39.98534 36.87508
#
# Velocity S-wave (km/s) = 3.69634 4.02244 3.86283
# Velocity P-wave (km/s) = 6.76209 7.05878 6.91203
#
# Compressibility (1/GPa) = 0.01470987
#
# Stress axis : x y z
#
# Youngs Moduli (GPa) = 118.61037 98.50222 122.48346
#
# Poissons Ratio (x) = 0.22463 0.22636
# Poissons Ratio (y) = 0.27049 0.23151
# Poissons Ratio (z) = 0.21921 0.18618
#
# Static dielectric constant tensor:
#      x y z
#    x 2.050130 0.035910 -0.006840 
#    y 0.035910 2.022070 0.045520 
#    z -0.006840 0.045520 1.949710 
# 
# From -- ./inp_files/262216.got.cif
#   From: 2010.05.17/outbox.cif.g08.bks.cpg/sg2_132_cif.got.tgz:262216.got - 2010.06.03 11:33:40.
