data_PCOD9032407
_publ_section_title
;
Structure prediction by ZEFSAII (Michael W. Deem and Ramdas Pophale) SiO2 
 PCOD9032407
Probable space group: P -1
;
_chemical_formula_sum "Si O2"
_cell_formula_units_Z 13
_cell_length_a 5.548988
_cell_length_b 16.792015
_cell_length_c 10.556855
_cell_angle_alpha 147.137310
_cell_angle_beta 102.972775
_cell_angle_gamma 86.811888
_cell_volume 503.435996
_symmetry_space_group_name_H-M "P -1"
_symmetry_group_IT_number 2
_symmetry_cell_setting 'triclinic'
loop_
_space_group_symop_operation_xyz
x,y,z
-x,-y,-z
loop_
_atom_site_type_symbol
_atom_site_label
_atom_site_fract_x
_atom_site_fract_y
_atom_site_fract_z
Si Si1 0.395105 0.799003 0.342913
Si Si2 0.482357 0.374106 0.452345
Si Si3 0.795733 0.836776 0.640400
Si Si4 0.000000 0.500000 0.500000
Si Si5 0.721092 0.124556 0.126508
Si Si6 0.072496 0.368908 0.083391
Si Si7 0.735010 0.909948 0.286966
O O1 0.615482 0.762624 0.405930
O O2 0.525259 0.843435 0.280297
O O3 0.354571 0.954701 0.609642
O O4 0.122405 0.685251 0.129044
O O5 0.329106 0.246172 0.358323
O O6 0.654722 0.275449 0.264360
O O7 0.676987 0.495205 0.724243
O O8 0.268333 0.437469 0.441777
O O9 0.078195 0.815052 0.656433
O O10 0.829210 0.019854 0.900323
O O11 0.079140 0.571072 0.744423
O O12 0.500000 0.000000 0.000000
O O13 0.179378 0.226204 0.949621
O O14 0.000000 0.000000 0.500000
#
# Coordination Sequence:
#
# PCOD9032407 Si02
#       7
#     2   2   2   1   2   2   2
#     4  10  22  43  71 102 137 177 227 281 342 415
#     4  11  24  44  67  99 138 180 228 282 345 402
#     4  10  22  43  71 102 137 177 227 281 342 415
#     4  12  26  44  66  94 136 184 232 274 332 414
#     4   9  21  42  63  99 137 177 225 272 340 399
#     4  11  24  44  67  99 138 180 228 282 345 402
#     4   9  21  42  63  99 137 177 225 272 340 399
#
# _framework density 25.822547
#
# number of rings (size 3 to 8) (size 9 to 14) (size 15 to 20)
#    0.000    1.846    0.000    2.308    2.154    5.538 
#   33.231    5.385    0.000    0.000    0.000    0.000 
#    0.000    0.000    0.000    0.000    0.000    0.000 
#
# Total GULP energy -72400.801921 kJ/mol
# GULP energy per Si atom -5569.292455 kJ/mol
# Density = 2.576377 g / cm^3
# Si number density = 25.822547 Si / 1000 Ang^3
#
#
#
# Elastic Constant Matrix: (Units=GPa)
#
#
# Indices 1 2 3 4 5 6 
#
# 1 103.2174 24.4609 48.5601 -1.3721 17.6658 -41.0768
# 2 24.4609 73.4151 28.5772 -4.3248 20.5688 -40.4388
# 3 48.5601 28.5772 138.1923 13.3289 13.0566 -29.8989
# 4 -1.3721 -4.3248 13.3289 33.7085 -12.2115 7.9641
# 5 17.6658 20.5688 13.0566 -12.2115 62.9175 -12.6493
# 6 -41.0768 -40.4388 -29.8989 7.9641 -12.6493 44.3806
#
#
#
# Elastic Compliance Matrix: (Units=1/GPa)
#
#
# Indices 1 2 3 4 5 6 
#
# 1 0.018373 0.007755 -0.002627 -0.003657 -0.003440 0.021977
# 2 0.007755 0.032261 -0.000508 -0.006137 -0.006687 0.035426
# 3 -0.002627 -0.000508 0.009881 -0.005605 -0.001354 0.004383
# 4 -0.003657 -0.006137 -0.005605 0.037955 0.008093 -0.017257
# 5 -0.003440 -0.006687 -0.001354 0.008093 0.019685 -0.006031
# 6 0.021977 0.035426 0.004383 -0.017257 -0.006031 0.079483
#
#
# Mechanical properties :
#
#
# Convention : Reuss Voigt Hill
#
# Bulk Modulus (GPa) = 14.33601 57.55789 35.94695
# Shear Modulus (GPa) = 23.62393 42.41644 33.02018
#
# Velocity S-wave (km/s) = 3.02794 4.05731 3.57982
# Velocity P-wave (km/s) = 4.21763 6.65486 5.57116
#
# Compressibility (1/GPa) = 0.06975440
#
# Stress axis : x y z
#
# Youngs Moduli (GPa) = 54.42877 30.99751 101.20223
#
# Poissons Ratio (x) = -0.24038 0.26587
# Poissons Ratio (y) = -0.42209 0.05140
# Poissons Ratio (z) = 0.14299 0.01574
#
# Static dielectric constant tensor:
#      x y z
#    x 2.066980 -0.009960 -0.078330 
#    y -0.009960 1.960590 0.022390 
#    z -0.078330 0.022390 2.020120 
# 
# From -- ./inp_files/368515.got.cif
#   From: 2010.05.17/outbox.cif.g08.bks.cpg/sg2_185_cif.got.tgz:368515.got - 2010.06.03 11:33:40.
