data_PCOD9032357
_publ_section_title
;
Structure prediction by ZEFSAII (Michael W. Deem and Ramdas Pophale) SiO2 
 PCOD9032357
Probable space group: P -1
;
_chemical_formula_sum "Si O2"
_cell_formula_units_Z 16
_cell_length_a 8.625339
_cell_length_b 8.090246
_cell_length_c 16.260545
_cell_angle_alpha 74.245489
_cell_angle_beta 42.824931
_cell_angle_gamma 70.267993
_cell_volume 725.513852
_symmetry_space_group_name_H-M "P -1"
_symmetry_group_IT_number 2
_symmetry_cell_setting 'triclinic'
loop_
_space_group_symop_operation_xyz
x,y,z
-x,-y,-z
loop_
_atom_site_type_symbol
_atom_site_label
_atom_site_fract_x
_atom_site_fract_y
_atom_site_fract_z
Si Si1 0.174044 0.875526 0.887395
Si Si2 0.273759 0.628382 0.034083
Si Si3 0.908779 0.438846 0.128187
Si Si4 0.450337 0.311593 0.521997
Si Si5 0.942264 0.730366 0.564554
Si Si6 0.388257 0.461298 0.361658
Si Si7 0.092348 0.964832 0.596997
Si Si8 0.914352 0.872480 0.245583
O O1 0.066564 0.766567 0.873913
O O2 0.250562 0.015794 0.776641
O O3 0.307032 0.726692 0.920284
O O4 0.000000 0.000000 0.000000
O O5 0.075489 0.511001 0.116355
O O6 0.158209 0.783424 0.120450
O O7 0.500000 0.500000 0.000000
O O8 0.632071 0.514112 0.239527
O O9 0.000000 0.500000 0.000000
O O10 0.500000 0.500000 0.500000
O O11 0.455764 0.305361 0.422307
O O12 0.650432 0.153650 0.494691
O O13 0.209879 0.280929 0.654268
O O14 0.192659 0.603716 0.465135
O O15 0.933792 0.838289 0.637490
O O16 0.747208 0.614322 0.648027
O O17 0.924104 0.870378 0.478872
O O18 0.050777 0.023540 0.699110
#
# Coordination Sequence:
#
# PCOD9032357 Si02
#       8
#     2   2   2   2   2   2   2   2
#     4   9  21  44  68  97 135 179 233 283 347 422
#     4  10  23  46  73 103 136 180 241 293 347 416
#     4  10  22  43  70  99 132 190 236 276 349 427
#     4  12  23  40  66  99 137 191 232 279 360 440
#     4  10  24  42  64 103 144 180 232 294 364 406
#     4  11  22  44  68  96 146 185 232 289 352 433
#     4  11  23  41  63 104 143 177 233 290 361 423
#     4  11  23  41  70  99 138 186 230 289 359 428
#
# _framework density 22.053334
#
# number of rings (size 3 to 8) (size 9 to 14) (size 15 to 20)
#    0.000    1.500    2.500    1.875    1.750    2.000 
#    0.000    3.750    0.000    0.000    0.000    0.000 
#    0.000    0.000    0.000    0.000    0.000    0.000 
#
# Total GULP energy -89173.216249 kJ/mol
# GULP energy per Si atom -5573.326016 kJ/mol
# Density = 2.200314 g / cm^3
# Si number density = 22.053334 Si / 1000 Ang^3
#
#
#
# Elastic Constant Matrix: (Units=GPa)
#
#
# Indices 1 2 3 4 5 6 
#
# 1 135.1837 55.1028 58.6791 14.6696 -1.4987 8.8398
# 2 55.1028 89.1710 31.4824 6.9997 0.2726 3.3014
# 3 58.6791 31.4824 119.8658 -1.3887 0.0776 2.7637
# 4 14.6696 6.9997 -1.3887 28.4189 1.6053 10.9325
# 5 -1.4987 0.2726 0.0776 1.6053 38.0922 2.2948
# 6 8.8398 3.3014 2.7637 10.9325 2.2948 53.4310
#
#
#
# Elastic Compliance Matrix: (Units=1/GPa)
#
#
# Indices 1 2 3 4 5 6 
#
# 1 0.012223 -0.005526 -0.004581 -0.005045 0.000769 -0.000445
# 2 -0.005526 0.015158 -0.001294 -0.001031 -0.000296 0.000268
# 3 -0.004581 -0.001294 0.010974 0.003395 -0.000312 -0.000411
# 4 -0.005045 -0.001031 0.003395 0.041239 -0.001475 -0.007652
# 5 0.000769 -0.000296 -0.000312 -0.001475 0.026403 -0.000925
# 6 -0.000445 0.000268 -0.000411 -0.007652 -0.000925 0.020399
#
#
# Mechanical properties :
#
#
# Convention : Reuss Voigt Hill
#
# Bulk Modulus (GPa) = 64.29455 70.52767 67.41111
# Shear Modulus (GPa) = 32.38706 37.25216 34.81961
#
# Velocity S-wave (km/s) = 3.83636 4.11443 3.97783
# Velocity P-wave (km/s) = 6.98863 7.39062 7.19244
#
# Compressibility (1/GPa) = 0.01555342
#
# Stress axis : x y z
#
# Youngs Moduli (GPa) = 81.81081 65.97269 91.12289
#
# Poissons Ratio (x) = 0.36455 0.41745
# Poissons Ratio (y) = 0.45207 0.11791
# Poissons Ratio (z) = 0.37479 0.08537
#
# Static dielectric constant tensor:
#      x y z
#    x 1.912690 0.016920 0.000740 
#    y 0.016920 1.920460 -0.069690 
#    z 0.000740 -0.069690 1.850950 
# 
# From -- ./inp_files/557077.got.cif
#   From: 2010.05.17/outbox.cif.g08.bks.cpg/sg2_279_cif.got.tgz:557077.got - 2010.06.03 11:33:40.
