data_PCOD9032901
_publ_section_title
;
Structure prediction by ZEFSAII (Michael W. Deem and Ramdas Pophale) SiO2 
 PCOD9032901
Probable space group: P -1
;
_chemical_formula_sum "Si O2"
_cell_formula_units_Z 16
_cell_length_a 6.696363
_cell_length_b 21.556128
_cell_length_c 9.328630
_cell_angle_alpha 124.134862
_cell_angle_beta 133.700921
_cell_angle_gamma 48.996602
_cell_volume 720.182494
_symmetry_space_group_name_H-M "P -1"
_symmetry_group_IT_number 2
_symmetry_cell_setting 'triclinic'
loop_
_space_group_symop_operation_xyz
x,y,z
-x,-y,-z
loop_
_atom_site_type_symbol
_atom_site_label
_atom_site_fract_x
_atom_site_fract_y
_atom_site_fract_z
Si Si1 0.363650 0.085441 0.950192
Si Si2 0.659833 0.701541 0.125692
Si Si3 0.318176 0.352165 0.608912
Si Si4 0.648468 0.883048 0.335316
Si Si5 0.372353 0.569469 0.307511
Si Si6 0.396681 0.606866 0.692498
Si Si7 0.620930 0.184407 0.383463
Si Si8 0.775614 0.080669 0.584168
O O1 0.453365 0.073120 0.812023
O O2 0.996707 0.116663 0.808812
O O3 0.463428 0.154057 0.145302
O O4 0.500000 0.000000 0.000000
O O5 0.587354 0.682686 0.227913
O O6 0.630727 0.794298 0.214633
O O7 0.019063 0.636278 0.192672
O O8 0.452949 0.681326 0.883482
O O9 0.412049 0.424333 0.703217
O O10 0.495166 0.280570 0.485050
O O11 0.957236 0.377230 0.450440
O O12 0.414903 0.936153 0.411087
O O13 0.008984 0.858214 0.507674
O O14 0.474095 0.590181 0.540799
O O15 0.402922 0.476934 0.226097
O O16 0.552616 0.145659 0.444062
O O17 0.000000 0.000000 0.500000
#
# Coordination Sequence:
#
# PCOD9032901 Si02
#       8
#     2   2   2   2   2   2   2   2
#     4  11  26  45  67 100 127 170 220 265 330 396
#     4  11  23  41  64  99 129 175 221 266 326 385
#     4  11  23  39  66  93 134 169 220 270 322 379
#     4  11  26  42  69  96 132 173 218 270 328 388
#     4  10  22  44  62  94 136 174 217 270 326 381
#     4  10  24  39  66  97 131 173 222 268 322 388
#     4  11  24  44  65  95 132 169 214 274 325 387
#     4  11  24  48  67  96 133 164 215 271 325 397
#
# _framework density 22.216591999999999
#
# number of rings (size 3 to 8) (size 9 to 14) (size 15 to 20)
#    0.000    1.250    3.750    0.750    3.500    5.000 
#    0.000    0.000    0.000    0.000    0.000    0.000 
#    0.000    0.000    0.000    0.000    0.000    0.000 
#
# Total GULP energy -89460.502570 kJ/mol
# GULP energy per Si atom -5591.281411 kJ/mol
# Density = 2.216603 g / cm^3
# Si number density = 22.216592 Si / 1000 Ang^3
#
#
#
# Elastic Constant Matrix: (Units=GPa)
#
#
# Indices 1 2 3 4 5 6 
#
# 1 136.4746 16.4739 33.4591 -3.7255 -4.3316 21.3130
# 2 16.4739 56.7325 -11.8374 -0.4304 -3.9490 11.4876
# 3 33.4591 -11.8374 89.6953 12.2884 2.8032 2.2788
# 4 -3.7255 -0.4304 12.2884 29.1235 6.0939 0.7421
# 5 -4.3316 -3.9490 2.8032 6.0939 16.5792 2.8723
# 6 21.3130 11.4876 2.2788 0.7421 2.8723 40.0588
#
#
#
# Elastic Compliance Matrix: (Units=1/GPa)
#
#
# Indices 1 2 3 4 5 6 
#
# 1 0.009480 -0.002575 -0.004192 0.002556 0.002375 -0.004285
# 2 -0.002575 0.020604 0.004013 -0.002727 0.005443 -0.005106
# 3 -0.004192 0.004013 0.014115 -0.006391 -0.000248 0.000413
# 4 0.002556 -0.002727 -0.006391 0.040180 -0.013674 0.000022
# 5 0.002375 0.005443 -0.000248 -0.013674 0.068597 -0.007476
# 6 -0.004285 -0.005106 0.000413 0.000022 -0.007476 0.029219
#
#
# Mechanical properties :
#
#
# Convention : Reuss Voigt Hill
#
# Bulk Modulus (GPa) = 25.84567 39.89930 32.87248
# Shear Modulus (GPa) = 24.92520 33.47275 29.19898
#
# Velocity S-wave (km/s) = 3.35314 3.88578 3.62924
# Velocity P-wave (km/s) = 5.16238 6.17500 5.69125
#
# Compressibility (1/GPa) = 0.03869121
#
# Stress axis : x y z
#
# Youngs Moduli (GPa) = 105.48342 48.53459 70.84668
#
# Poissons Ratio (x) = 0.12498 0.29697
# Poissons Ratio (y) = 0.27164 -0.28431
# Poissons Ratio (z) = 0.44216 -0.19477
#
# Static dielectric constant tensor:
#      x y z
#    x 1.816600 0.003820 -0.011810 
#    y 0.003820 1.858310 0.029270 
#    z -0.011810 0.029270 1.818920 
# 
# From -- ./inp_files/141547.got.cif
#   From: 2010.05.17/outbox.cif.g08.bks.cpg/sg2_71_cif.got.tgz:141547.got - 2010.06.03 11:33:40.
