data_PCOD9032070
_publ_section_title
;
Structure prediction by ZEFSAII (Michael W. Deem and Ramdas Pophale) SiO2 
 PCOD9032070
Probable space group: P -1
;
_chemical_formula_sum "Si O2"
_cell_formula_units_Z 16
_cell_length_a 8.242667
_cell_length_b 13.910825
_cell_length_c 17.512058
_cell_angle_alpha 28.018823
_cell_angle_beta 65.232610
_cell_angle_gamma 84.494954
_cell_volume 656.593806
_symmetry_space_group_name_H-M "P -1"
_symmetry_group_IT_number 2
_symmetry_cell_setting 'triclinic'
loop_
_space_group_symop_operation_xyz
x,y,z
-x,-y,-z
loop_
_atom_site_type_symbol
_atom_site_label
_atom_site_fract_x
_atom_site_fract_y
_atom_site_fract_z
Si Si1 0.039394 0.917506 0.927463
Si Si2 0.498909 0.015726 0.785418
Si Si3 0.321885 0.902438 0.672170
Si Si4 0.657811 0.257998 0.841219
Si Si5 0.870069 0.084861 0.557917
Si Si6 0.848788 0.610457 0.324349
Si Si7 0.122255 0.368524 0.156617
Si Si8 0.187314 0.200270 0.556077
O O1 0.247799 0.909067 0.884533
O O2 0.136874 0.178649 0.774870
O O3 0.996783 0.968709 0.815248
O O4 0.848033 0.678325 0.187894
O O5 0.665265 0.057604 0.657372
O O6 0.633627 0.305039 0.594715
O O7 0.458514 0.823311 0.995200
O O8 0.073058 0.757963 0.781962
O O9 0.500000 0.000000 0.500000
O O10 0.360617 0.143380 0.540080
O O11 0.296341 0.680206 0.883984
O O12 0.692620 0.516128 0.627581
O O13 0.911434 0.337730 0.743552
O O14 0.500000 0.000000 0.000000
O O15 0.989955 0.284580 0.322599
O O16 0.062106 0.191508 0.511266
O O17 0.786654 0.797494 0.749424
#
# Coordination Sequence:
#
# PCOD9032070 Si02
#       8
#     2   2   2   2   2   2   2   2
#     4  10  24  40  64  95 127 170 223 269 325 396
#     4  11  23  40  66  92 128 175 222 262 325 398
#     4  10  23  42  69  97 133 167 212 274 325 394
#     4  11  25  41  64  98 133 173 224 275 326 388
#     4  10  22  43  69  94 134 174 209 276 325 390
#     4  10  22  45  65  88 134 173 217 276 334 373
#     4   9  22  45  65  97 134 167 213 263 339 387
#     4  11  24  42  64 100 131 169 226 265 329 388
#
# _framework density 24.368186000000001
#
# number of rings (size 3 to 8) (size 9 to 14) (size 15 to 20)
#    0.000    1.750    1.250    1.125    7.000    3.000 
#    0.000    1.875    0.000    0.000    0.000    0.000 
#    0.000    0.000    0.000    0.000    0.000    0.000 
#
# Total GULP energy -89572.903327 kJ/mol
# GULP energy per Si atom -5598.306458 kJ/mol
# Density = 2.431272 g / cm^3
# Si number density = 24.368186 Si / 1000 Ang^3
#
#
#
# Elastic Constant Matrix: (Units=GPa)
#
#
# Indices 1 2 3 4 5 6 
#
# 1 56.1981 25.0775 31.9475 -5.4249 15.0100 -8.1863
# 2 25.0775 113.5481 35.7593 6.3340 13.7854 -26.7890
# 3 31.9475 35.7593 117.5525 3.6914 39.8855 -8.3899
# 4 -5.4249 6.3340 3.6914 46.9021 9.5266 0.8928
# 5 15.0100 13.7854 39.8855 9.5266 31.0700 2.1109
# 6 -8.1863 -26.7890 -8.3899 0.8928 2.1109 48.0873
#
#
#
# Elastic Compliance Matrix: (Units=1/GPa)
#
#
# Indices 1 2 3 4 5 6 
#
# 1 0.023743 -0.003185 -0.002675 0.005035 -0.008307 0.002072
# 2 -0.003185 0.011671 -0.001826 -0.001672 -0.001172 0.005724
# 3 -0.002675 -0.001826 0.016818 0.002729 -0.020480 0.002310
# 4 0.005035 -0.001672 0.002729 0.024492 -0.012738 0.000506
# 5 -0.008307 -0.001172 -0.020480 -0.012738 0.067484 -0.008366
# 6 0.002072 0.005724 0.002310 0.000506 -0.008366 0.025098
#
#
# Mechanical properties :
#
#
# Convention : Reuss Voigt Hill
#
# Bulk Modulus (GPa) = 27.13054 52.54080 39.83567
# Shear Modulus (GPa) = 25.38535 38.17950 31.78243
#
# Velocity S-wave (km/s) = 3.23110 3.96255 3.61537
# Velocity P-wave (km/s) = 5.00777 6.52256 5.81470
#
# Compressibility (1/GPa) = 0.03685883
#
# Stress axis : x y z
#
# Youngs Moduli (GPa) = 42.11796 85.68126 59.46154
#
# Poissons Ratio (x) = 0.27285 0.15909
# Poissons Ratio (y) = 0.13413 0.10860
# Poissons Ratio (z) = 0.11269 0.15649
#
# Static dielectric constant tensor:
#      x y z
#    x 1.934630 0.028340 0.020620 
#    y 0.028340 1.964080 -0.022110 
#    z 0.020620 -0.022110 1.895100 
# 
# From -- ./inp_files/561120.got.cif
#   From: 2010.05.17/outbox.cif.g08.bks.cpg/sg2_281_cif.got.tgz:561120.got - 2010.06.03 11:33:40.
