data_PCOD9032485
_publ_section_title
;
Structure prediction by ZEFSAII (Michael W. Deem and Ramdas Pophale) SiO2 
 PCOD9032485
Probable space group: P -1
;
_chemical_formula_sum "Si O2"
_cell_formula_units_Z 10
_cell_length_a 12.033092
_cell_length_b 5.303188
_cell_length_c 8.038597
_cell_angle_alpha 88.962167
_cell_angle_beta 51.058912
_cell_angle_gamma 101.246107
_cell_volume 384.613023
_symmetry_space_group_name_H-M "P -1"
_symmetry_group_IT_number 2
_symmetry_cell_setting 'triclinic'
loop_
_space_group_symop_operation_xyz
x,y,z
-x,-y,-z
loop_
_atom_site_type_symbol
_atom_site_label
_atom_site_fract_x
_atom_site_fract_y
_atom_site_fract_z
Si Si1 0.323768 0.545689 0.009099
Si Si2 0.101485 0.969819 0.749031
Si Si3 0.557623 0.771899 0.540150
Si Si4 0.153273 0.632875 0.451023
Si Si5 0.175506 0.969314 0.150628
O O1 0.280796 0.524902 0.246576
O O2 0.219873 0.722903 0.030438
O O3 0.272934 0.249508 0.998014
O O4 0.481718 0.707437 0.794230
O O5 0.265808 0.145402 0.616531
O O6 0.995292 0.045492 0.710242
O O7 0.123098 0.688987 0.668818
O O8 0.000000 0.000000 0.000000
O O9 0.500000 0.500000 0.500000
O O10 0.500000 0.000000 0.500000
O O11 0.206862 0.921676 0.313613
O O12 0.000000 0.500000 0.500000
#
# Coordination Sequence:
#
# PCOD9032485 Si02
#       5
#     2   2   2   2   2
#     4  10  22  43  71  95 143 177 226 278 352 399
#     4  12  24  43  74 105 135 185 237 284 351 414
#     4  12  28  48  66 101 149 184 227 293 350 408
#     4  10  23  42  77 101 142 175 237 287 349 409
#     4  10  22  44  72 104 134 178 233 285 343 415
#
# _framework density 26.000160000000001
#
# number of rings (size 3 to 8) (size 9 to 14) (size 15 to 20)
#    1.200    0.000    2.000    4.200    0.000    4.000 
#    0.000    8.000    0.000    0.000    0.000    0.000 
#    0.000    0.000    0.000    0.000    0.000    0.000 
#
# Total GULP energy -55749.080927 kJ/mol
# GULP energy per Si atom -5574.908093 kJ/mol
# Density = 2.594098 g / cm^3
# Si number density = 26.000160 Si / 1000 Ang^3
#
#
#
# Elastic Constant Matrix: (Units=GPa)
#
#
# Indices 1 2 3 4 5 6 
#
# 1 74.3362 42.9561 30.7937 -16.9938 -29.9853 2.3746
# 2 42.9561 168.1972 44.1086 -14.9765 -5.8485 -4.3886
# 3 30.7937 44.1086 191.0489 -11.0146 -20.3437 24.5881
# 4 -16.9938 -14.9765 -11.0146 37.9968 22.7063 1.9993
# 5 -29.9853 -5.8485 -20.3437 22.7063 41.5519 -2.5890
# 6 2.3746 -4.3886 24.5881 1.9993 -2.5890 49.6153
#
#
#
# Elastic Compliance Matrix: (Units=1/GPa)
#
#
# Indices 1 2 3 4 5 6 
#
# 1 0.023087 -0.005277 -0.000822 -0.001847 0.016510 -0.000228
# 2 -0.005277 0.007830 -0.001480 0.003315 -0.005163 0.001276
# 3 -0.000822 -0.001480 0.006332 -0.000313 0.002276 -0.003098
# 4 -0.001847 0.003315 -0.000313 0.040875 -0.023501 -0.002337
# 5 0.016510 -0.005163 0.002276 -0.023501 0.049282 0.001144
# 6 -0.000228 0.001276 -0.003098 -0.002337 0.001144 0.021968
#
#
# Mechanical properties :
#
#
# Convention : Reuss Voigt Hill
#
# Bulk Modulus (GPa) = 45.26734 74.36657 59.81695
# Shear Modulus (GPa) = 29.08735 46.88106 37.98421
#
# Velocity S-wave (km/s) = 3.34838 4.25091 3.82635
# Velocity P-wave (km/s) = 5.69184 7.26347 6.52515
#
# Compressibility (1/GPa) = 0.02209098
#
# Stress axis : x y z
#
# Youngs Moduli (GPa) = 43.31398 127.71065 157.94031
#
# Poissons Ratio (x) = 0.67394 0.12981
# Poissons Ratio (y) = 0.22857 0.23376
# Poissons Ratio (z) = 0.03560 0.18902
#
# Static dielectric constant tensor:
#      x y z
#    x 2.295380 -0.097940 0.310790 
#    y -0.097940 2.137010 0.013780 
#    z 0.310790 0.013780 2.407340 
# 
# From -- ./inp_files/228290.got.cif
#   From: 2010.05.17/outbox.cif.g08.bks.cpg/sg2_115_cif.got.tgz:228290.got - 2010.06.03 11:33:40.
