data_PCOD9032488
_publ_section_title
;
Structure prediction by ZEFSAII (Michael W. Deem and Ramdas Pophale) SiO2 
 PCOD9032488
Probable space group: P -1
;
_chemical_formula_sum "Si O2"
_cell_formula_units_Z 16
_cell_length_a 9.117582
_cell_length_b 11.085181
_cell_length_c 16.141253
_cell_angle_alpha 73.590556
_cell_angle_beta 64.256055
_cell_angle_gamma 127.081812
_cell_volume 765.210458
_symmetry_space_group_name_H-M "P -1"
_symmetry_group_IT_number 2
_symmetry_cell_setting 'triclinic'
loop_
_space_group_symop_operation_xyz
x,y,z
-x,-y,-z
loop_
_atom_site_type_symbol
_atom_site_label
_atom_site_fract_x
_atom_site_fract_y
_atom_site_fract_z
Si Si1 0.551233 0.604430 0.881603
Si Si2 0.645043 0.260350 0.140401
Si Si3 0.841751 0.111636 0.381087
Si Si4 0.794886 0.746250 0.119124
Si Si5 0.177260 0.458054 0.385448
Si Si6 0.857337 0.228985 0.859609
Si Si7 0.183409 0.762220 0.315438
Si Si8 0.699857 0.274694 0.309037
O O1 0.490317 0.712559 0.882707
O O2 0.332521 0.403693 0.903711
O O3 0.892541 0.803085 0.731223
O O4 0.500000 0.500000 0.000000
O O5 0.566847 0.226530 0.262904
O O6 0.506291 0.037650 0.192686
O O7 0.000000 0.500000 0.000000
O O8 0.761397 0.165980 0.322830
O O9 0.967531 0.267622 0.400597
O O10 0.538472 0.848866 0.536645
O O11 0.498746 0.600716 0.268980
O O12 0.987235 0.773478 0.120527
O O13 0.000000 0.000000 0.000000
O O14 0.210489 0.629322 0.330995
O O15 0.020351 0.336720 0.536201
O O16 0.939006 0.266058 0.735907
O O17 0.993929 0.451997 0.808055
O O18 0.500000 0.000000 0.000000
#
# Coordination Sequence:
#
# PCOD9032488 Si02
#       8
#     2   2   2   2   2   2   2   2
#     4  11  26  46  66 100 131 171 220 278 331 384
#     4  12  25  41  66  98 130 171 223 274 322 391
#     4  10  22  43  71  96 134 168 218 276 328 391
#     4  11  26  44  69  95 133 176 218 271 335 388
#     4  10  22  44  68  98 133 171 216 273 330 388
#     4  12  25  43  66  97 135 177 220 267 323 396
#     4  11  24  42  68  95 135 174 217 268 325 391
#     4  11  22  43  66 100 126 177 220 262 338 383
#
# _framework density 20.909279999999999
#
# number of rings (size 3 to 8) (size 9 to 14) (size 15 to 20)
#    0.000    1.000    3.750    2.250    5.250    2.000 
#    2.250    0.000    0.000    0.000    0.000    0.000 
#    0.000    0.000    0.000    0.000    0.000    0.000 
#
# Total GULP energy -89506.576800 kJ/mol
# GULP energy per Si atom -5594.161050 kJ/mol
# Density = 2.086169 g / cm^3
# Si number density = 20.909280 Si / 1000 Ang^3
#
#
#
# Elastic Constant Matrix: (Units=GPa)
#
#
# Indices 1 2 3 4 5 6 
#
# 1 123.8126 14.7348 72.0812 6.1988 2.9484 19.0766
# 2 14.7348 57.6706 36.5147 -6.0144 4.0504 5.0134
# 3 72.0812 36.5147 110.5365 -13.4230 2.8985 -0.8960
# 4 6.1988 -6.0144 -13.4230 39.2490 5.9342 4.0166
# 5 2.9484 4.0504 2.8985 5.9342 41.4310 3.8776
# 6 19.0766 5.0134 -0.8960 4.0166 3.8776 28.0147
#
#
#
# Elastic Compliance Matrix: (Units=1/GPa)
#
#
# Indices 1 2 3 4 5 6 
#
# 1 0.018010 0.004799 -0.014176 -0.005830 0.001285 -0.012918
# 2 0.004799 0.023866 -0.011033 0.000098 -0.001192 -0.007741
# 3 -0.014176 -0.011033 0.022982 0.007481 -0.001670 0.011521
# 4 -0.005830 0.000098 0.007481 0.029582 -0.004408 0.000560
# 5 0.001285 -0.001192 -0.001670 -0.004408 0.025245 -0.003577
# 6 -0.012918 -0.007741 0.011521 0.000560 -0.003577 0.046661
#
#
# Mechanical properties :
#
#
# Convention : Reuss Voigt Hill
#
# Bulk Modulus (GPa) = 41.60130 59.85348 50.72739
# Shear Modulus (GPa) = 23.23649 32.98487 28.11068
#
# Velocity S-wave (km/s) = 3.33723 3.97611 3.67060
# Velocity P-wave (km/s) = 5.89820 7.05456 6.50214
#
# Compressibility (1/GPa) = 0.02403771
#
# Stress axis : x y z
#
# Youngs Moduli (GPa) = 55.52324 41.90015 43.51319
#
# Poissons Ratio (x) = -0.20108 0.61686
# Poissons Ratio (y) = -0.26646 0.48008
# Poissons Ratio (z) = 0.78712 0.46228
#
# Static dielectric constant tensor:
#      x y z
#    x 1.711400 0.004410 0.006530 
#    y 0.004410 1.784370 0.017330 
#    z 0.006530 0.017330 1.749860 
# 
# From -- ./inp_files/208278.got.cif
#   From: 2010.05.17/outbox.cif.g08.bks.cpg/sg2_105_cif.got.tgz:208278.got - 2010.06.03 11:33:40.
