data_PCOD9032416
_publ_section_title
;
Structure prediction by ZEFSAII (Michael W. Deem and Ramdas Pophale) SiO2 
 PCOD9032416
Probable space group: P -1
;
_chemical_formula_sum "Si O2"
_cell_formula_units_Z 16
_cell_length_a 5.215103
_cell_length_b 29.606137
_cell_length_c 12.022369
_cell_angle_alpha 20.908185
_cell_angle_beta 79.324798
_cell_angle_gamma 79.040003
_cell_volume 650.202616
_symmetry_space_group_name_H-M "P -1"
_symmetry_group_IT_number 2
_symmetry_cell_setting 'triclinic'
loop_
_space_group_symop_operation_xyz
x,y,z
-x,-y,-z
loop_
_atom_site_type_symbol
_atom_site_label
_atom_site_fract_x
_atom_site_fract_y
_atom_site_fract_z
Si Si1 0.933023 0.142521 0.716716
Si Si2 0.333026 0.217936 0.329039
Si Si3 0.203379 0.888845 0.769421
Si Si4 0.073502 0.503488 0.825368
Si Si5 0.513086 0.020352 0.264423
Si Si6 0.774500 0.547923 0.324167
Si Si7 0.012959 0.204371 0.826311
Si Si8 0.428599 0.655482 0.795119
O O1 0.111815 0.215448 0.446655
O O2 0.996033 0.153394 0.814934
O O3 0.644465 0.211908 0.567232
O O4 0.000000 0.000000 0.000000
O O5 0.564342 0.292022 0.198238
O O6 0.410847 0.073197 0.625049
O O7 0.242363 0.298398 0.043740
O O8 0.258818 0.903452 0.866985
O O9 0.434029 0.918843 0.600903
O O10 0.000000 0.000000 0.500000
O O11 0.058601 0.766837 0.089203
O O12 0.171733 0.493566 0.712006
O O13 0.036349 0.646574 0.539799
O O14 0.300863 0.425669 0.055081
O O15 0.797867 0.437907 0.998664
O O16 0.287762 0.124307 0.018519
O O17 0.500000 0.500000 0.500000
O O18 0.000000 0.500000 0.500000
#
# Coordination Sequence:
#
# PCOD9032416 Si02
#       8
#     2   2   2   2   2   2   2   2
#     4  12  26  48  77 108 149 197 254 309 372 447
#     4  11  25  46  74 107 150 190 250 313 372 437
#     4   9  21  42  61 104 143 188 239 303 375 438
#     4  11  26  49  74 105 152 188 254 303 377 446
#     4  10  22  43  71 102 147 188 245 312 376 438
#     4  11  24  43  73 105 141 193 243 300 370 440
#     4  11  26  43  71 108 141 199 249 304 372 447
#     4  11  24  52  71 106 147 194 244 311 368 441
#
# _framework density 24.607716
#
# number of rings (size 3 to 8) (size 9 to 14) (size 15 to 20)
#    0.000    1.250    2.500    3.000    3.500    8.000 
#    0.000    0.000    0.000    0.000    0.000    0.000 
#    0.000    0.000    0.000    0.000    0.000    0.000 
#
# Total GULP energy -89069.916559 kJ/mol
# GULP energy per Si atom -5566.869785 kJ/mol
# Density = 2.455171 g / cm^3
# Si number density = 24.607716 Si / 1000 Ang^3
#
#
#
# Elastic Constant Matrix: (Units=GPa)
#
#
# Indices 1 2 3 4 5 6 
#
# 1 148.8826 45.8933 69.7233 13.8045 25.4177 6.8085
# 2 45.8933 113.0407 43.0260 -0.5883 8.0355 -9.7667
# 3 69.7233 43.0260 150.6595 -9.1105 27.8867 -13.1159
# 4 13.8045 -0.5883 -9.1105 66.3424 -8.2025 2.1119
# 5 25.4177 8.0355 27.8867 -8.2025 39.1837 19.7018
# 6 6.8085 -9.7667 -13.1159 2.1119 19.7018 28.8199
#
#
#
# Elastic Compliance Matrix: (Units=1/GPa)
#
#
# Indices 1 2 3 4 5 6 
#
# 1 0.010254 -0.002811 -0.004096 -0.002832 -0.001863 -0.003758
# 2 -0.002811 0.011012 -0.000781 0.000025 -0.002902 0.006022
# 3 -0.004096 -0.000781 0.012936 0.000278 -0.014680 0.016605
# 4 -0.002832 0.000025 0.000278 0.016910 0.008217 -0.006052
# 5 -0.001863 -0.002902 -0.014680 0.008217 0.066173 -0.053063
# 6 -0.003758 0.006022 0.016605 -0.006052 -0.053063 0.081903
#
#
# Mechanical properties :
#
#
# Convention : Reuss Voigt Hill
#
# Bulk Modulus (GPa) = 53.12020 81.09643 67.10831
# Shear Modulus (GPa) = 22.64104 43.79854 33.21979
#
# Velocity S-wave (km/s) = 3.03657 4.22343 3.67819
# Velocity P-wave (km/s) = 5.82478 7.53726 6.73567
#
# Compressibility (1/GPa) = 0.01882523
#
# Stress axis : x y z
#
# Youngs Moduli (GPa) = 97.52339 90.81387 77.30429
#
# Poissons Ratio (x) = 0.25527 0.31665
# Poissons Ratio (y) = 0.27413 0.06038
# Poissons Ratio (z) = 0.39947 0.07093
#
# Static dielectric constant tensor:
#      x y z
#    x 1.919860 -0.115950 -0.045480 
#    y -0.115950 1.916230 0.063750 
#    z -0.045480 0.063750 2.001310 
# 
# From -- ./inp_files/371585.got.cif
#   From: 2010.05.17/outbox.cif.g08.bks.cpg/sg2_186_cif.got.tgz:371585.got - 2010.06.03 11:33:40.
