data_PCOD9032758
_publ_section_title
;
Structure prediction by ZEFSAII (Michael W. Deem and Ramdas Pophale) SiO2 
 PCOD9032758
Probable space group: P -1
;
_chemical_formula_sum "Si O2"
_cell_formula_units_Z 11
_cell_length_a 9.999114
_cell_length_b 7.038644
_cell_length_c 10.118358
_cell_angle_alpha 41.952937
_cell_angle_beta 99.556990
_cell_angle_gamma 85.814577
_cell_volume 448.136129
_symmetry_space_group_name_H-M "P -1"
_symmetry_group_IT_number 2
_symmetry_cell_setting 'triclinic'
loop_
_space_group_symop_operation_xyz
x,y,z
-x,-y,-z
loop_
_atom_site_type_symbol
_atom_site_label
_atom_site_fract_x
_atom_site_fract_y
_atom_site_fract_z
Si Si1 0.868617 0.883609 0.882752
Si Si2 0.607603 0.837345 0.718985
Si Si3 0.307899 0.632272 0.229687
Si Si4 0.341591 0.059818 0.710665
Si Si5 0.500000 0.000000 0.000000
Si Si6 0.090015 0.807557 0.732281
O O1 0.654974 0.901135 0.152908
O O2 0.884008 0.544506 0.102835
O O3 0.998961 0.888023 0.810206
O O4 0.829736 0.110926 0.879148
O O5 0.690920 0.521453 0.833149
O O6 0.500000 0.000000 0.500000
O O7 0.503623 0.844271 0.822057
O O8 0.727137 0.976331 0.717210
O O9 0.319591 0.365140 0.472735
O O10 0.449567 0.734629 0.201780
O O11 0.232370 0.902127 0.717978
O O12 0.000000 0.000000 0.500000
#
# Coordination Sequence:
#
# PCOD9032758 Si02
#       6
#     2   2   2   2   1   2
#     4  11  25  48  71 107 146 185 249 295 367 436
#     4  10  22  43  74 105 146 182 237 304 357 422
#     4  11  25  43  73 108 144 187 241 302 357 431
#     4  11  25  46  73 111 145 190 243 297 368 427
#     4  12  24  40  72 108 144 184 236 296 360 424
#     4  11  26  49  74 102 148 198 238 303 365 432
#
# _framework density 24.546115
#
# number of rings (size 3 to 8) (size 9 to 14) (size 15 to 20)
#    0.000    1.091    1.818    3.818    5.091    5.091 
#    0.000   12.727    0.000    0.000    0.000    0.000 
#    0.000    0.000    0.000    0.000    0.000    0.000 
#
# Total GULP energy -61330.701148 kJ/mol
# GULP energy per Si atom -5575.518286 kJ/mol
# Density = 2.449025 g / cm^3
# Si number density = 24.546115 Si / 1000 Ang^3
#
#
#
# Elastic Constant Matrix: (Units=GPa)
#
#
# Indices 1 2 3 4 5 6 
#
# 1 89.7822 30.8207 9.7446 -2.8835 -6.0850 -11.0352
# 2 30.8207 107.0033 21.6627 -26.2719 -10.5237 -24.2387
# 3 9.7446 21.6627 133.0206 -14.1721 -2.8961 7.7493
# 4 -2.8835 -26.2719 -14.1721 20.3804 9.9012 10.0641
# 5 -6.0850 -10.5237 -2.8961 9.9012 42.4885 4.9919
# 6 -11.0352 -24.2387 7.7493 10.0641 4.9919 40.3309
#
#
#
# Elastic Compliance Matrix: (Units=1/GPa)
#
#
# Indices 1 2 3 4 5 6 
#
# 1 0.013006 -0.004437 -0.001066 -0.006850 0.001987 0.002560
# 2 -0.004437 0.016031 -0.000614 0.018260 -0.001451 0.004162
# 3 -0.001066 -0.000614 0.008729 0.007654 -0.001009 -0.004123
# 4 -0.006850 0.018260 0.007654 0.091037 -0.015605 -0.013156
# 5 0.001987 -0.001451 -0.001009 -0.015605 0.026979 0.000420
# 6 0.002560 0.004162 -0.004123 -0.013156 0.000420 0.032020
#
#
# Mechanical properties :
#
#
# Convention : Reuss Voigt Hill
#
# Bulk Modulus (GPa) = 39.16552 50.47356 44.81954
# Shear Modulus (GPa) = 23.97527 38.47851 31.22689
#
# Velocity S-wave (km/s) = 3.12868 3.96359 3.57062
# Velocity P-wave (km/s) = 5.38907 6.44625 5.94122
#
# Compressibility (1/GPa) = 0.02553266
#
# Stress axis : x y z
#
# Youngs Moduli (GPa) = 76.88626 62.37813 114.55497
#
# Poissons Ratio (x) = 0.27677 0.12211
# Poissons Ratio (y) = 0.34114 0.07036
# Poissons Ratio (z) = 0.08196 0.03832
#
# Static dielectric constant tensor:
#      x y z
#    x 2.077120 -0.150340 -0.104960 
#    y -0.150340 2.314020 0.161350 
#    z -0.104960 0.161350 2.090270 
# 
# From -- ./inp_files/228824.got.cif
#   From: 2010.05.17/outbox.cif.g08.bks.cpg/sg2_115_cif.got.tgz:228824.got - 2010.06.03 11:33:40.
