data_PCOD9032268
_publ_section_title
;
Structure prediction by ZEFSAII (Michael W. Deem and Ramdas Pophale) SiO2 
 PCOD9032268
Probable space group: P -1
;
_chemical_formula_sum "Si O2"
_cell_formula_units_Z 14
_cell_length_a 11.005987
_cell_length_b 5.569052
_cell_length_c 12.418704
_cell_angle_alpha 49.545485
_cell_angle_beta 107.364044
_cell_angle_gamma 92.963813
_cell_volume 542.141304
_symmetry_space_group_name_H-M "P -1"
_symmetry_group_IT_number 2
_symmetry_cell_setting 'triclinic'
loop_
_space_group_symop_operation_xyz
x,y,z
-x,-y,-z
loop_
_atom_site_type_symbol
_atom_site_label
_atom_site_fract_x
_atom_site_fract_y
_atom_site_fract_z
Si Si1 0.374935 0.883573 0.957080
Si Si2 0.232333 0.180082 0.641403
Si Si3 0.409969 0.234758 0.257794
Si Si4 0.136402 0.802565 0.557303
Si Si5 0.087681 0.875219 0.957261
Si Si6 0.847327 0.886316 0.753987
Si Si7 0.612447 0.647991 0.541488
O O1 0.409324 0.497967 0.089883
O O2 0.228486 0.970118 0.947264
O O3 0.500000 0.000000 0.000000
O O4 0.352969 0.051624 0.786974
O O5 0.142402 0.446182 0.616058
O O6 0.261163 0.397138 0.485813
O O7 0.207247 0.853683 0.673432
O O8 0.298922 0.029282 0.259448
O O9 0.367886 0.413432 0.309459
O O10 0.547002 0.026120 0.391766
O O11 0.173827 0.004445 0.406931
O O12 0.000000 0.000000 0.500000
O O13 0.981684 0.977949 0.803865
O O14 0.121762 0.492680 0.097770
O O15 0.000000 0.000000 0.000000
O O16 0.500000 0.500000 0.500000
#
# Coordination Sequence:
#
# PCOD9032268 Si02
#       7
#     2   2   2   2   2   2   2
#     4  11  26  47  71 110 154 203 248 319 392 457
#     4  12  28  47  73 111 151 197 259 311 384 466
#     4  10  23  45  71 108 148 199 251 314 386 452
#     4  12  27  47  76 104 151 199 251 320 388 454
#     4  10  24  43  73 103 145 192 260 312 377 469
#     4  10  22  43  70 106 138 194 254 313 380 449
#     4  11  23  42  74 106 146 194 260 310 377 472
#
# _framework density 25.823526000000001
#
# number of rings (size 3 to 8) (size 9 to 14) (size 15 to 20)
#    0.000    1.143    1.429    3.000    8.000    4.000 
#    2.571    0.000    0.000    0.000    0.000    0.000 
#    0.000    0.000    0.000    0.000    0.000    0.000 
#
# Total GULP energy -78032.503750 kJ/mol
# GULP energy per Si atom -5573.750268 kJ/mol
# Density = 2.576475 g / cm^3
# Si number density = 25.823526 Si / 1000 Ang^3
#
#
#
# Elastic Constant Matrix: (Units=GPa)
#
#
# Indices 1 2 3 4 5 6 
#
# 1 124.4894 46.7386 0.4173 4.9811 17.8071 14.4623
# 2 46.7386 94.2030 26.2394 24.6472 -2.2569 -2.3489
# 3 0.4173 26.2394 108.4815 9.6851 19.1602 11.2093
# 4 4.9811 24.6472 9.6851 38.9281 15.6228 4.1798
# 5 17.8071 -2.2569 19.1602 15.6228 52.3053 1.3753
# 6 14.4623 -2.3489 11.2093 4.1798 1.3753 47.3411
#
#
#
# Elastic Compliance Matrix: (Units=1/GPa)
#
#
# Indices 1 2 3 4 5 6 
#
# 1 0.013436 -0.010140 0.003836 0.007838 -0.008602 -0.005958
# 2 -0.010140 0.022276 -0.006634 -0.016554 0.011607 0.006898
# 3 0.003836 -0.006634 0.012177 0.004031 -0.007138 -0.004533
# 4 0.007838 -0.016554 0.004031 0.041843 -0.017164 -0.007366
# 5 -0.008602 0.011607 -0.007138 -0.017164 0.030143 0.005533
# 6 -0.005958 0.006898 -0.004533 -0.007366 0.005533 0.024849
#
#
# Mechanical properties :
#
#
# Convention : Reuss Voigt Hill
#
# Bulk Modulus (GPa) = 45.42794 52.66270 49.04532
# Shear Modulus (GPa) = 28.09985 44.63347 36.36666
#
# Velocity S-wave (km/s) = 3.30229 4.16192 3.75677
# Velocity P-wave (km/s) = 5.67186 6.59795 6.15236
#
# Compressibility (1/GPa) = 0.02201289
#
# Stress axis : x y z
#
# Youngs Moduli (GPa) = 74.42735 44.89233 82.12104
#
# Poissons Ratio (x) = 0.45522 -0.31502
# Poissons Ratio (y) = 0.75471 0.54477
# Poissons Ratio (z) = -0.28551 0.29781
#
# Static dielectric constant tensor:
#      x y z
#    x 1.359290 -0.000040 0.218230 
#    y -0.000040 2.285450 -0.035880 
#    z 0.218230 -0.035880 1.966700 
# 
# From -- ./inp_files/409769.got.cif
#   From: 2010.05.17/outbox.cif.g08.bks.cpg/sg2_205_cif.got.tgz:409769.got - 2010.06.03 11:33:40.
