data_PCOD9032088
_publ_section_title
;
Structure prediction by ZEFSAII (Michael W. Deem and Ramdas Pophale) SiO2 
 PCOD9032088
Probable space group: P -1
;
_chemical_formula_sum "Si O2"
_cell_formula_units_Z 14
_cell_length_a 13.533872
_cell_length_b 7.378270
_cell_length_c 11.009296
_cell_angle_alpha 91.292577
_cell_angle_beta 130.192211
_cell_angle_gamma 55.806038
_cell_volume 585.379734
_symmetry_space_group_name_H-M "P -1"
_symmetry_group_IT_number 2
_symmetry_cell_setting 'triclinic'
loop_
_space_group_symop_operation_xyz
x,y,z
-x,-y,-z
loop_
_atom_site_type_symbol
_atom_site_label
_atom_site_fract_x
_atom_site_fract_y
_atom_site_fract_z
Si Si1 0.973404 0.743195 0.981079
Si Si2 0.351507 0.801636 0.420620
Si Si3 0.147497 0.477090 0.886035
Si Si4 0.873491 0.554894 0.508216
Si Si5 0.501669 0.127099 0.259836
Si Si6 0.048017 0.862737 0.292257
Si Si7 0.348003 0.570896 0.968490
O O1 0.092972 0.670281 0.953991
O O2 0.050418 0.761402 0.161224
O O3 0.767826 0.013179 0.786543
O O4 0.000000 0.500000 0.000000
O O5 0.500000 0.500000 0.500000
O O6 0.457203 0.862235 0.569276
O O7 0.197845 0.874184 0.394504
O O8 0.317813 0.200226 0.077742
O O9 0.235469 0.498909 0.843321
O O10 0.973055 0.543185 0.705935
O O11 0.000000 0.500000 0.500000
O O12 0.880342 0.337403 0.544864
O O13 0.673701 0.843883 0.342278
O O14 0.461939 0.362615 0.167106
O O15 0.829207 0.121291 0.147359
O O16 0.500000 0.500000 0.000000
#
# Coordination Sequence:
#
# PCOD9032088 Si02
#       7
#     2   2   2   2   2   2   2
#     4  12  22  43  70  96 143 177 217 281 348 407
#     4  12  23  41  68 106 136 172 228 285 337 415
#     4  10  23  45  68  95 141 178 222 282 347 397
#     4  12  25  45  68  99 138 184 232 278 336 414
#     4  10  22  44  65  93 136 175 227 271 341 399
#     4  12  24  42  70 106 136 180 226 288 345 396
#     4  10  22  43  69  95 135 181 230 276 341 396
#
# _framework density 23.916097000000001
#
# number of rings (size 3 to 8) (size 9 to 14) (size 15 to 20)
#    0.857    0.000    4.286    3.000    0.000    2.857 
#    2.571    5.714    0.000    0.000    0.000    0.000 
#    0.000    0.000    0.000    0.000    0.000    0.000 
#
# Total GULP energy -78063.526877 kJ/mol
# GULP energy per Si atom -5575.966205 kJ/mol
# Density = 2.386166 g / cm^3
# Si number density = 23.916097 Si / 1000 Ang^3
#
#
#
# Elastic Constant Matrix: (Units=GPa)
#
#
# Indices 1 2 3 4 5 6 
#
# 1 101.9819 7.8213 21.7998 -25.4390 -9.4585 -5.8409
# 2 7.8213 58.7270 30.2029 -31.7451 5.9804 -10.4013
# 3 21.7998 30.2029 135.1232 -42.0190 4.0086 -9.5414
# 4 -25.4390 -31.7451 -42.0190 51.9646 -7.8142 10.3560
# 5 -9.4585 5.9804 4.0086 -7.8142 35.7891 -6.8411
# 6 -5.8409 -10.4013 -9.5414 10.3560 -6.8411 34.0442
#
#
#
# Elastic Compliance Matrix: (Units=1/GPa)
#
#
# Indices 1 2 3 4 5 6 
#
# 1 0.012095 0.002385 -0.000129 0.007715 0.004760 0.001377
# 2 0.002385 0.026369 -0.001161 0.015717 0.000445 0.003449
# 3 -0.000129 -0.001161 0.009960 0.007322 0.000706 0.000329
# 4 0.007715 0.015717 0.007322 0.040099 0.006842 -0.002645
# 5 0.004760 0.000445 0.000706 0.006842 0.031575 0.005414
# 6 0.001377 0.003449 0.000329 -0.002645 0.005414 0.032648
#
#
# Mechanical properties :
#
#
# Convention : Reuss Voigt Hill
#
# Bulk Modulus (GPa) = 19.75722 46.16446 32.96084
# Shear Modulus (GPa) = 29.86355 40.09345 34.97850
#
# Velocity S-wave (km/s) = 3.53750 4.09885 3.82848
# Velocity P-wave (km/s) = 4.99642 6.46107 5.77536
#
# Compressibility (1/GPa) = 0.05061441
#
# Stress axis : x y z
#
# Youngs Moduli (GPa) = 82.67693 37.92346 100.39970
#
# Poissons Ratio (x) = -0.09046 0.01299
# Poissons Ratio (y) = -0.19721 0.11656
# Poissons Ratio (z) = 0.01069 0.04403
#
# Static dielectric constant tensor:
#      x y z
#    x 2.039140 0.025910 -0.027590 
#    y 0.025910 1.986620 -0.003690 
#    z -0.027590 -0.003690 1.982150 
# 
# From -- ./inp_files/445889.got.cif
#   From: 2010.05.17/outbox.cif.g08.bks.cpg/sg2_223_cif.got.tgz:445889.got - 2010.06.03 11:33:40.
