data_PCOD9032110
_publ_section_title
;
Structure prediction by ZEFSAII (Michael W. Deem and Ramdas Pophale) SiO2 
 PCOD9032110
Probable space group: P -1
;
_chemical_formula_sum "Si O2"
_cell_formula_units_Z 14
_cell_length_a 9.436281
_cell_length_b 15.092272
_cell_length_c 15.822836
_cell_angle_alpha 27.125590
_cell_angle_beta 49.189268
_cell_angle_gamma 68.812505
_cell_volume 598.638863
_symmetry_space_group_name_H-M "P -1"
_symmetry_group_IT_number 2
_symmetry_cell_setting 'triclinic'
loop_
_space_group_symop_operation_xyz
x,y,z
-x,-y,-z
loop_
_atom_site_type_symbol
_atom_site_label
_atom_site_fract_x
_atom_site_fract_y
_atom_site_fract_z
Si Si1 0.123108 0.014097 0.173217
Si Si2 0.604756 0.779778 0.595807
Si Si3 0.728575 0.307727 0.058302
Si Si4 0.451364 0.488891 0.319838
Si Si5 0.274119 0.733172 0.427601
Si Si6 0.840083 0.713551 0.236867
Si Si7 0.677818 0.211084 0.972749
O O1 0.231529 0.870643 0.256781
O O2 0.297713 0.265969 0.947134
O O3 0.101726 0.090572 0.023595
O O4 0.854493 0.831614 0.472825
O O5 0.407091 0.649621 0.856974
O O6 0.509286 0.630052 0.671872
O O7 0.689986 0.058559 0.312802
O O8 0.610393 0.238724 0.069808
O O9 0.015887 0.535377 0.743617
O O10 0.293829 0.297234 0.619708
O O11 0.305164 0.581957 0.264736
O O12 0.327586 0.564907 0.504627
O O13 0.473563 0.946026 0.232871
O O14 0.076861 0.748099 0.143749
#
# Coordination Sequence:
#
# PCOD9032110 Si02
#       7
#     2   2   2   2   2   2   2
#     4  11  24  42  66 101 129 172 217 259 325 382
#     4  11  23  43  68  94 129 167 222 267 320 387
#     4  10  23  44  67  94 127 172 213 273 326 373
#     4  11  26  41  66 102 129 171 220 263 318 386
#     4  10  23  43  66  99 134 164 215 268 316 388
#     4  11  23  45  65  97 136 174 211 260 325 379
#     4  10  22  43  69  97 129 174 213 263 328 377
#
# _framework density 23.386388
#
# number of rings (size 3 to 8) (size 9 to 14) (size 15 to 20)
#    0.000    1.429    2.857    2.571    2.000    7.429 
#    2.571    5.714    0.000    0.000    0.000    0.000 
#    0.000    0.000    0.000    0.000    0.000    0.000 
#
# Total GULP energy -78482.536713 kJ/mol
# GULP energy per Si atom -5605.895479 kJ/mol
# Density = 2.333316 g / cm^3
# Si number density = 23.386388 Si / 1000 Ang^3
#
#
#
# Elastic Constant Matrix: (Units=GPa)
#
#
# Indices 1 2 3 4 5 6 
#
# 1 117.5758 41.5710 31.5211 -3.1833 6.6560 6.7538
# 2 41.5710 170.5656 53.0794 3.8419 -3.8713 10.2675
# 3 31.5211 53.0794 73.7682 -9.6809 -0.4383 0.9091
# 4 -3.1833 3.8419 -9.6809 36.8496 2.8635 -2.1123
# 5 6.6560 -3.8713 -0.4383 2.8635 37.2916 -10.0682
# 6 6.7538 10.2675 0.9091 -2.1123 -10.0682 31.2211
#
#
#
# Elastic Compliance Matrix: (Units=1/GPa)
#
#
# Indices 1 2 3 4 5 6 
#
# 1 0.010181 -0.001360 -0.003329 0.000212 -0.002692 -0.002512
# 2 -0.001360 0.008138 -0.005586 -0.002608 0.000630 -0.002193
# 3 -0.003329 -0.005586 0.019701 0.005576 0.000498 0.002521
# 4 0.000212 -0.002608 0.005576 0.029158 -0.001943 0.001996
# 5 -0.002692 0.000630 0.000498 -0.001943 0.030209 0.009971
# 6 -0.002512 -0.002193 0.002521 0.001996 0.009971 0.036571
#
#
# Mechanical properties :
#
#
# Convention : Reuss Voigt Hill
#
# Bulk Modulus (GPa) = 57.23948 68.25028 62.74488
# Shear Modulus (GPa) = 31.18567 36.78834 33.98700
#
# Velocity S-wave (km/s) = 3.65567 3.97049 3.81633
# Velocity P-wave (km/s) = 6.50748 7.08991 6.80493
#
# Compressibility (1/GPa) = 0.01747046
#
# Stress axis : x y z
#
# Youngs Moduli (GPa) = 98.22329 122.88622 50.75813
#
# Poissons Ratio (x) = 0.16713 0.16897
# Poissons Ratio (y) = 0.13359 0.28352
# Poissons Ratio (z) = 0.32698 0.68641
#
# Static dielectric constant tensor:
#      x y z
#    x 1.918100 -0.025040 0.013980 
#    y -0.025040 1.872830 -0.026150 
#    z 0.013980 -0.026150 1.899560 
# 
# From -- ./inp_files/503565.got.cif
#   From: 2010.05.17/outbox.cif.g08.bks.cpg/sg2_252_cif.got.tgz:503565.got - 2010.06.03 11:33:40.
