data_PCOD9032029
_publ_section_title
;
Structure prediction by ZEFSAII (Michael W. Deem and Ramdas Pophale) SiO2 
 PCOD9032029
Probable space group: P -1
;
_chemical_formula_sum "Si O2"
_cell_formula_units_Z 14
_cell_length_a 11.595043
_cell_length_b 16.181295
_cell_length_c 9.037378
_cell_angle_alpha 129.478565
_cell_angle_beta 41.950973
_cell_angle_gamma 148.141443
_cell_volume 598.254071
_symmetry_space_group_name_H-M "P -1"
_symmetry_group_IT_number 2
_symmetry_cell_setting 'triclinic'
loop_
_space_group_symop_operation_xyz
x,y,z
-x,-y,-z
loop_
_atom_site_type_symbol
_atom_site_label
_atom_site_fract_x
_atom_site_fract_y
_atom_site_fract_z
Si Si1 0.925623 0.559563 0.848341
Si Si2 0.266857 0.144096 0.833847
Si Si3 0.758474 0.842593 0.469943
Si Si4 0.746526 0.314374 0.068449
Si Si5 0.432335 0.463666 0.692555
Si Si6 0.852330 0.671315 0.760206
Si Si7 0.727603 0.244061 0.679143
O O1 0.888484 0.611667 0.797860
O O2 0.922250 0.431809 0.677890
O O3 0.157227 0.699651 0.889511
O O4 0.677246 0.472290 0.082278
O O5 0.271725 0.126998 0.633433
O O6 0.482422 0.173534 0.744617
O O7 0.275919 0.276836 0.003591
O O8 0.000000 0.000000 0.000000
O O9 0.509704 0.746942 0.699678
O O10 0.775822 0.722204 0.300069
O O11 0.000000 0.000000 0.500000
O O12 0.692650 0.224887 0.867881
O O13 0.000000 0.500000 0.000000
O O14 0.500000 0.500000 0.500000
O O15 0.666614 0.544288 0.665554
O O16 0.131045 0.797122 0.563253
#
# Coordination Sequence:
#
# PCOD9032029 Si02
#       7
#     2   2   2   2   2   2   2
#     4  11  20  40  68 101 143 175 240 310 353 430
#     4  12  27  47  72 103 152 198 247 310 375 446
#     4  12  26  46  71 105 151 198 245 304 378 443
#     4  10  22  43  69 107 144 192 245 302 363 441
#     4  12  23  40  71 107 142 188 247 300 363 443
#     4  12  24  43  72 107 141 188 251 305 371 432
#     4  11  22  42  70 103 142 186 239 305 369 437
#
# _framework density 23.401429
#
# number of rings (size 3 to 8) (size 9 to 14) (size 15 to 20)
#    0.000    0.571    2.857    7.714    2.000    0.571 
#    0.000    0.714    0.000    0.000    0.000    0.000 
#    0.000    0.000    0.000    0.000    0.000    0.000 
#
# Total GULP energy -78227.858156 kJ/mol
# GULP energy per Si atom -5587.704154 kJ/mol
# Density = 2.334817 g / cm^3
# Si number density = 23.401429 Si / 1000 Ang^3
#
#
#
# Elastic Constant Matrix: (Units=GPa)
#
#
# Indices 1 2 3 4 5 6 
#
# 1 151.6988 58.0757 43.9823 5.6326 19.3283 47.5321
# 2 58.0757 75.5472 29.5684 -4.5457 10.3591 24.1776
# 3 43.9823 29.5684 154.4555 -16.9712 9.9521 27.4444
# 4 5.6326 -4.5457 -16.9712 27.2966 4.0236 3.0977
# 5 19.3283 10.3591 9.9521 4.0236 57.2473 -2.7935
# 6 47.5321 24.1776 27.4444 3.0977 -2.7935 35.6758
#
#
#
# Elastic Compliance Matrix: (Units=1/GPa)
#
#
# Indices 1 2 3 4 5 6 
#
# 1 0.014076 -0.005388 -0.000165 -0.001535 -0.004382 -0.015185
# 2 -0.005388 0.020469 -0.000357 0.005480 -0.002554 -0.007095
# 3 -0.000165 -0.000357 0.008676 0.006479 -0.002182 -0.006946
# 4 -0.001535 0.005480 0.006479 0.043895 -0.005215 -0.010872
# 5 -0.004382 -0.002554 -0.002182 -0.005215 0.020708 0.011322
# 6 -0.015185 -0.007095 -0.006946 -0.010872 0.011322 0.060245
#
#
# Mechanical properties :
#
#
# Convention : Reuss Voigt Hill
#
# Bulk Modulus (GPa) = 31.84526 71.66159 51.75343
# Shear Modulus (GPa) = 26.26676 40.71562 33.49119
#
# Velocity S-wave (km/s) = 3.35392 4.17571 3.78717
# Velocity P-wave (km/s) = 5.35128 7.34425 6.42550
#
# Compressibility (1/GPa) = 0.03140184
#
# Stress axis : x y z
#
# Youngs Moduli (GPa) = 71.04392 48.85517 115.25482
#
# Poissons Ratio (x) = 0.26322 0.01900
# Poissons Ratio (y) = 0.38276 0.04114
# Poissons Ratio (z) = 0.01171 0.01744
#
# Static dielectric constant tensor:
#      x y z
#    x 1.921170 -0.025560 0.004300 
#    y -0.025560 1.924330 0.025870 
#    z 0.004300 0.025870 1.938550 
# 
# From -- ./inp_files/262862.got.cif
#   From: 2010.05.17/outbox.cif.g08.bks.cpg/sg2_132_cif.got.tgz:262862.got - 2010.06.03 11:33:40.
