data_PCOD9032799
_publ_section_title
;
Structure prediction by ZEFSAII (Michael W. Deem and Ramdas Pophale) SiO2 
 PCOD9032799
Probable space group: P -1
;
_chemical_formula_sum "Si O2"
_cell_formula_units_Z 12
_cell_length_a 7.522943
_cell_length_b 11.532383
_cell_length_c 14.799317
_cell_angle_alpha 28.537338
_cell_angle_beta 64.317039
_cell_angle_gamma 52.661049
_cell_volume 470.665081
_symmetry_space_group_name_H-M "P -1"
_symmetry_group_IT_number 2
_symmetry_cell_setting 'triclinic'
loop_
_space_group_symop_operation_xyz
x,y,z
-x,-y,-z
loop_
_atom_site_type_symbol
_atom_site_label
_atom_site_fract_x
_atom_site_fract_y
_atom_site_fract_z
Si Si1 0.906283 0.793925 0.370039
Si Si2 0.536889 0.368314 0.983725
Si Si3 0.672030 0.163559 0.703854
Si Si4 0.711933 0.638645 0.115416
Si Si5 0.741621 0.112983 0.518190
Si Si6 0.198435 0.331019 0.321005
O O1 0.857223 0.754250 0.512130
O O2 0.000000 0.500000 0.500000
O O3 0.098830 0.878483 0.271744
O O4 0.691072 0.033279 0.197091
O O5 0.500000 0.500000 0.000000
O O6 0.307286 0.451906 0.921351
O O7 0.678609 0.489840 0.819388
O O8 0.500000 0.500000 0.500000
O O9 0.741959 0.037507 0.673307
O O10 0.587425 0.979124 0.901662
O O11 0.616895 0.457290 0.309325
O O12 0.960143 0.524564 0.184264
O O13 0.660404 0.951722 0.579707
O O14 0.000000 0.000000 0.500000
#
# Coordination Sequence:
#
# PCOD9032799 Si02
#       6
#     2   2   2   2   2   2
#     4  12  27  50  70 106 156 196 246 316 377 438
#     4  12  27  44  76 115 148 191 251 309 372 445
#     4  12  25  45  74 108 148 195 246 303 367 445
#     4  11  24  45  74 106 142 196 244 296 373 433
#     4  10  22  43  75 105 140 193 245 298 367 439
#     4  11  25  49  76 104 150 193 249 306 365 446
#
# _framework density 25.495837999999999
#
# number of rings (size 3 to 8) (size 9 to 14) (size 15 to 20)
#    0.000    0.667    5.000    3.000    2.333   10.000 
#    3.000    0.000    0.000    0.000    0.000    0.000 
#    0.000    0.000    0.000    0.000    0.000    0.000 
#
# Total GULP energy -67153.547626 kJ/mol
# GULP energy per Si atom -5596.128969 kJ/mol
# Density = 2.543781 g / cm^3
# Si number density = 25.495838 Si / 1000 Ang^3
#
#
#
# Elastic Constant Matrix: (Units=GPa)
#
#
# Indices 1 2 3 4 5 6 
#
# 1 139.5558 26.3343 45.6417 11.6932 11.5847 20.4780
# 2 26.3343 91.4869 40.8132 0.3643 -1.2903 23.7057
# 3 45.6417 40.8132 192.9562 -18.7704 -3.3704 11.4149
# 4 11.6932 0.3643 -18.7704 44.1970 1.6430 1.5644
# 5 11.5847 -1.2903 -3.3704 1.6430 46.5049 -6.4116
# 6 20.4780 23.7057 11.4149 1.5644 -6.4116 31.5683
#
#
#
# Elastic Compliance Matrix: (Units=1/GPa)
#
#
# Indices 1 2 3 4 5 6 
#
# 1 0.009243 -0.000320 -0.002146 -0.003045 -0.003112 -0.005460
# 2 -0.000320 0.014772 -0.002537 -0.000715 -0.001068 -0.010150
# 3 -0.002146 -0.002537 0.006505 0.003281 0.000954 0.000976
# 4 -0.003045 -0.000715 0.003281 0.024823 0.000116 0.000120
# 5 -0.003112 -0.001068 0.000954 0.000116 0.023307 0.007204
# 6 -0.005460 -0.010150 0.000976 0.000120 0.007204 0.043945
#
#
# Mechanical properties :
#
#
# Convention : Reuss Voigt Hill
#
# Bulk Modulus (GPa) = 48.74734 72.17524 60.46129
# Shear Modulus (GPa) = 35.85837 45.20137 40.52987
#
# Velocity S-wave (km/s) = 3.75432 4.21514 3.99139
# Velocity P-wave (km/s) = 6.16072 7.21526 6.70874
#
# Compressibility (1/GPa) = 0.02051394
#
# Stress axis : x y z
#
# Youngs Moduli (GPa) = 108.19481 67.69600 153.73205
#
# Poissons Ratio (x) = 0.02166 0.32993
# Poissons Ratio (y) = 0.03461 0.38996
# Poissons Ratio (z) = 0.23220 0.17172
#
# Static dielectric constant tensor:
#      x y z
#    x 2.032630 -0.051420 0.021620 
#    y -0.051420 2.053030 -0.045070 
#    z 0.021620 -0.045070 2.084700 
# 
# From -- ./inp_files/497292.got.cif
#   From: 2010.05.17/outbox.cif.g08.bks.cpg/sg2_249_cif.got.tgz:497292.got - 2010.06.03 11:33:40.
