data_PCOD9032634
_publ_section_title
;
Structure prediction by ZEFSAII (Michael W. Deem and Ramdas Pophale) SiO2 
 PCOD9032634
Probable space group: P -1
;
_chemical_formula_sum "Si O2"
_cell_formula_units_Z 14
_cell_length_a 9.416412
_cell_length_b 12.961259
_cell_length_c 9.143558
_cell_angle_alpha 138.645151
_cell_angle_beta 118.261697
_cell_angle_gamma 53.539085
_cell_volume 592.222081
_symmetry_space_group_name_H-M "P -1"
_symmetry_group_IT_number 2
_symmetry_cell_setting 'triclinic'
loop_
_space_group_symop_operation_xyz
x,y,z
-x,-y,-z
loop_
_atom_site_type_symbol
_atom_site_label
_atom_site_fract_x
_atom_site_fract_y
_atom_site_fract_z
Si Si1 0.181675 0.316694 0.140771
Si Si2 0.168746 0.825384 0.416830
Si Si3 0.960677 0.698817 0.390220
Si Si4 0.600743 0.853390 0.225731
Si Si5 0.500420 0.137140 0.267692
Si Si6 0.362109 0.674948 0.050083
Si Si7 0.959001 0.328921 0.280447
O O1 0.019259 0.494815 0.212819
O O2 0.339993 0.310246 0.319859
O O3 0.092471 0.222623 0.102528
O O4 0.279755 0.238789 0.955954
O O5 0.090421 0.709074 0.338754
O O6 0.318931 0.840839 0.608411
O O7 0.250160 0.770923 0.238853
O O8 0.000000 0.000000 0.500000
O O9 0.003794 0.752594 0.627776
O O10 0.757421 0.812878 0.375706
O O11 0.468209 0.772651 0.127894
O O12 0.494298 0.048370 0.325491
O O13 0.500000 0.000000 0.000000
O O14 0.500000 0.500000 0.000000
O O15 0.233238 0.639995 0.836516
O O16 0.000000 0.500000 0.500000
#
# Coordination Sequence:
#
# PCOD9032634 Si02
#       7
#     2   2   2   2   2   2   2
#     4  10  22  43  72  97 141 187 236 295 351 423
#     4  12  27  48  71 104 149 194 236 290 362 435
#     4  11  23  42  73 100 141 187 243 288 365 412
#     4  11  23  45  69 103 141 188 233 295 362 422
#     4  10  25  43  71  99 144 182 245 287 357 416
#     4  12  27  45  74 109 144 186 245 297 352 425
#     4  10  24  43  68 105 142 177 235 299 357 414
#
# _framework density 23.639780999999999
#
# number of rings (size 3 to 8) (size 9 to 14) (size 15 to 20)
#    0.000    1.143    1.429    3.857   12.000    2.286 
#    0.000    1.429    0.000    0.000    0.000    0.000 
#    0.000    0.000    0.000    0.000    0.000    0.000 
#
# Total GULP energy -78191.753958 kJ/mol
# GULP energy per Si atom -5585.125283 kJ/mol
# Density = 2.358598 g / cm^3
# Si number density = 23.639781 Si / 1000 Ang^3
#
#
#
# Elastic Constant Matrix: (Units=GPa)
#
#
# Indices 1 2 3 4 5 6 
#
# 1 142.1474 21.2092 60.8234 -24.3747 -4.6161 13.7575
# 2 21.2092 106.2978 37.2639 -43.8161 8.0074 -2.2265
# 3 60.8234 37.2639 110.5379 -40.2665 8.8249 -9.4577
# 4 -24.3747 -43.8161 -40.2665 42.9370 -13.9285 10.2440
# 5 -4.6161 8.0074 8.8249 -13.9285 62.6772 -8.5848
# 6 13.7575 -2.2265 -9.4577 10.2440 -8.5848 42.6238
#
#
#
# Elastic Compliance Matrix: (Units=1/GPa)
#
#
# Indices 1 2 3 4 5 6 
#
# 1 0.010277 0.001109 -0.005205 0.003768 0.001498 -0.005018
# 2 0.001109 0.017013 0.000425 0.019861 0.001742 -0.003797
# 3 -0.005205 0.000425 0.016494 0.012479 0.000346 0.002433
# 4 0.003768 0.019861 0.012479 0.062709 0.008442 -0.010781
# 5 0.001498 0.001742 0.000346 0.008442 0.017841 0.001249
# 6 -0.005018 -0.003797 0.002433 -0.010781 0.001249 0.028265
#
#
# Mechanical properties :
#
#
# Convention : Reuss Voigt Hill
#
# Bulk Modulus (GPa) = 27.44068 66.39733 46.91900
# Shear Modulus (GPa) = 29.05485 45.62671 37.34078
#
# Velocity S-wave (km/s) = 3.50961 4.39804 3.97870
# Velocity P-wave (km/s) = 5.29681 7.34428 6.40291
#
# Compressibility (1/GPa) = 0.03644225
#
# Stress axis : x y z
#
# Youngs Moduli (GPa) = 97.30322 58.77827 60.62876
#
# Poissons Ratio (x) = -0.06521 0.31560
# Poissons Ratio (y) = -0.10795 -0.02577
# Poissons Ratio (z) = 0.50650 -0.02499
#
# Static dielectric constant tensor:
#      x y z
#    x 1.907430 0.002160 -0.063600 
#    y 0.002160 2.109570 0.072850 
#    z -0.063600 0.072850 2.007750 
# 
# From -- ./inp_files/190963.got.cif
#   From: 2010.05.17/outbox.cif.g08.bks.cpg/sg2_96_cif.got.tgz:190963.got - 2010.06.03 11:33:40.
