data_PCOD9032109
_publ_section_title
;
Structure prediction by ZEFSAII (Michael W. Deem and Ramdas Pophale) SiO2 
 PCOD9032109
Probable space group: P -1
;
_chemical_formula_sum "Si O2"
_cell_formula_units_Z 16
_cell_length_a 11.774169
_cell_length_b 9.046393
_cell_length_c 15.624650
_cell_angle_alpha 66.178611
_cell_angle_beta 50.915673
_cell_angle_gamma 36.784397
_cell_volume 755.044765
_symmetry_space_group_name_H-M "P -1"
_symmetry_group_IT_number 2
_symmetry_cell_setting 'triclinic'
loop_
_space_group_symop_operation_xyz
x,y,z
-x,-y,-z
loop_
_atom_site_type_symbol
_atom_site_label
_atom_site_fract_x
_atom_site_fract_y
_atom_site_fract_z
Si Si1 0.771043 0.619397 0.963514
Si Si2 0.627780 0.251906 0.945640
Si Si3 0.903133 0.234594 0.436617
Si Si4 0.493029 0.195927 0.427474
Si Si5 0.840950 0.508195 0.623689
Si Si6 0.945864 0.992018 0.313626
Si Si7 0.751721 0.844098 0.093590
Si Si8 0.265358 0.199789 0.244508
O O1 0.736094 0.762917 0.864265
O O2 0.029571 0.332699 0.908156
O O3 0.564292 0.667381 0.043501
O O4 0.774419 0.714470 0.027856
O O5 0.854583 0.111435 0.819144
O O6 0.500000 0.500000 0.000000
O O7 0.698692 0.062824 0.028049
O O8 0.695176 0.526557 0.500591
O O9 0.117216 0.172121 0.341713
O O10 0.853434 0.206733 0.371889
O O11 0.000000 0.000000 0.500000
O O12 0.405037 0.270982 0.354589
O O13 0.500000 0.000000 0.500000
O O14 0.735190 0.078603 0.349412
O O15 0.838490 0.559537 0.711811
O O16 0.000000 0.500000 0.500000
O O17 0.934842 0.249649 0.630721
O O18 0.521022 0.967805 0.213685
#
# Coordination Sequence:
#
# PCOD9032109 Si02
#       8
#     2   2   2   2   2   2   2   2
#     4  10  22  44  67  98 129 173 227 275 334 407
#     4  11  24  42  67  99 142 174 217 287 347 405
#     4  12  24  45  67 102 145 180 223 294 342 397
#     4  12  26  45  70  96 138 187 236 277 334 418
#     4  12  23  45  64  93 135 182 228 279 328 408
#     4  12  24  43  69 100 138 181 231 284 353 400
#     4  10  22  43  69  97 129 171 229 276 328 416
#     4  11  22  41  70  95 131 181 224 270 341 401
#
# _framework density 21.190795999999999
#
# number of rings (size 3 to 8) (size 9 to 14) (size 15 to 20)
#    0.000    0.750    3.750    4.875    0.000    4.500 
#    6.750    0.000    0.000    0.000    0.000    0.000 
#    0.000    0.000    0.000    0.000    0.000    0.000 
#
# Total GULP energy -89315.696933 kJ/mol
# GULP energy per Si atom -5582.231058 kJ/mol
# Density = 2.114256 g / cm^3
# Si number density = 21.190796 Si / 1000 Ang^3
#
#
#
# Elastic Constant Matrix: (Units=GPa)
#
#
# Indices 1 2 3 4 5 6 
#
# 1 139.6388 56.9730 56.2370 5.3245 -25.1136 -10.4611
# 2 56.9730 95.3139 15.3110 6.5826 -23.7544 -4.8981
# 3 56.2370 15.3110 79.8334 14.1130 -31.2575 0.0296
# 4 5.3245 6.5826 14.1130 22.2454 5.6613 1.1647
# 5 -25.1136 -23.7544 -31.2575 5.6613 47.1186 14.5651
# 6 -10.4611 -4.8981 0.0296 1.1647 14.5651 49.8903
#
#
#
# Elastic Compliance Matrix: (Units=1/GPa)
#
#
# Indices 1 2 3 4 5 6 
#
# 1 0.014928 -0.009251 -0.013758 0.009794 -0.008387 0.004450
# 2 -0.009251 0.018690 0.011263 -0.014045 0.014931 -0.004143
# 3 -0.013758 0.011263 0.037062 -0.030580 0.029614 -0.009733
# 4 0.009794 -0.014045 -0.030580 0.074305 -0.033802 0.008827
# 5 -0.008387 0.014931 0.029614 -0.033802 0.052585 -0.014873
# 6 0.004450 -0.004143 -0.009733 0.008827 -0.014873 0.024712
#
#
# Mechanical properties :
#
#
# Convention : Reuss Voigt Hill
#
# Bulk Modulus (GPa) = 21.19215 63.53645 42.36430
# Shear Modulus (GPa) = 19.12003 36.26853 27.69428
#
# Velocity S-wave (km/s) = 3.00706 4.14154 3.61903
# Velocity P-wave (km/s) = 4.69882 7.27447 6.12360
#
# Compressibility (1/GPa) = 0.04718727
#
# Stress axis : x y z
#
# Youngs Moduli (GPa) = 66.98661 53.50320 26.98160
#
# Poissons Ratio (x) = 0.49496 0.37123
# Poissons Ratio (y) = 0.61970 -0.30388
# Poissons Ratio (z) = 0.92163 -0.60259
#
# Static dielectric constant tensor:
#      x y z
#    x 1.784990 0.032640 0.035520 
#    y 0.032640 1.816410 0.069780 
#    z 0.035520 0.069780 1.800810 
# 
# From -- ./inp_files/515322.got.cif
#   From: 2010.05.17/outbox.cif.g08.bks.cpg/sg2_258_cif.got.tgz:515322.got - 2010.06.03 11:33:40.
