data_PCOD9032970
_publ_section_title
;
Structure prediction by ZEFSAII (Michael W. Deem and Ramdas Pophale) SiO2 
 PCOD9032970
Probable space group: P -1
;
_chemical_formula_sum "Si O2"
_cell_formula_units_Z 16
_cell_length_a 9.552731
_cell_length_b 13.541541
_cell_length_c 9.268896
_cell_angle_alpha 91.837444
_cell_angle_beta 46.878618
_cell_angle_gamma 62.541040
_cell_volume 655.519387
_symmetry_space_group_name_H-M "P -1"
_symmetry_group_IT_number 2
_symmetry_cell_setting 'triclinic'
loop_
_space_group_symop_operation_xyz
x,y,z
-x,-y,-z
loop_
_atom_site_type_symbol
_atom_site_label
_atom_site_fract_x
_atom_site_fract_y
_atom_site_fract_z
Si Si1 0.778130 0.748302 0.486641
Si Si2 0.860961 0.929095 0.282295
Si Si3 0.772340 0.852847 0.050007
Si Si4 0.744316 0.650483 0.213172
Si Si5 0.671884 0.368876 0.477573
Si Si6 0.701527 0.480795 0.749065
Si Si7 0.433989 0.775474 0.939803
Si Si8 0.301515 0.913130 0.325581
O O1 0.842420 0.834183 0.383285
O O2 0.699962 0.704741 0.408209
O O3 0.574315 0.815627 0.761064
O O4 0.033793 0.612248 0.360161
O O5 0.754917 0.935542 0.200414
O O6 0.726112 0.059458 0.479852
O O7 0.157421 0.856199 0.066635
O O8 0.781136 0.736783 0.098417
O O9 0.506137 0.933706 0.152500
O O10 0.055979 0.765904 0.778515
O O11 0.509357 0.658792 0.347026
O O12 0.000000 0.500000 0.000000
O O13 0.500000 0.500000 0.500000
O O14 0.734084 0.409987 0.576563
O O15 0.598913 0.622661 0.789406
O O16 0.500000 0.500000 0.000000
O O17 0.413278 0.796067 0.127313
O O18 0.000000 0.000000 0.500000
#
# Coordination Sequence:
#
# PCOD9032970 Si02
#       8
#     2   2   2   2   2   2   2   2
#     4  11  23  39  63  95 128 170 211 269 326 392
#     4  10  22  44  64  91 125 166 220 271 322 377
#     4  11  23  41  67  94 130 171 215 267 332 381
#     4  11  23  37  63  95 135 170 210 259 324 400
#     4  12  24  40  63  99 137 174 211 262 326 402
#     4  12  24  39  63  95 137 170 212 263 330 396
#     4  11  23  40  62  91 129 168 212 267 323 384
#     4  10  24  43  68  91 123 177 224 275 318 379
#
# _framework density 24.408125999999999
#
# number of rings (size 3 to 8) (size 9 to 14) (size 15 to 20)
#    0.000    1.000    2.500    4.500    3.500    0.500 
#    0.000    2.500    0.000    9.000    0.000    0.000 
#    0.000    0.000    0.000    0.000    0.000    0.000 
#
# Total GULP energy -89391.328027 kJ/mol
# GULP energy per Si atom -5586.958002 kJ/mol
# Density = 2.435257 g / cm^3
# Si number density = 24.408126 Si / 1000 Ang^3
#
#
#
# Elastic Constant Matrix: (Units=GPa)
#
#
# Indices 1 2 3 4 5 6 
#
# 1 16.1180 -102.1489 11.7498 -1.0690 -41.5601 19.6060
# 2 -102.1489 -31.3654 -6.5048 -14.3348 -37.2621 23.9914
# 3 11.7498 -6.5048 145.7719 1.6233 -30.5541 9.2312
# 4 -1.0690 -14.3348 1.6233 32.0495 0.4043 6.5218
# 5 -41.5601 -37.2621 -30.5541 0.4043 50.6328 13.9876
# 6 19.6060 23.9914 9.2312 6.5218 13.9876 30.1586
#
#
#
# Elastic Compliance Matrix: (Units=1/GPa)
#
#
# Indices 1 2 3 4 5 6 
#
# 1 0.005094 -0.006870 -0.001666 -0.003791 -0.003226 0.004979
# 2 -0.006870 0.002373 -0.000971 -0.000209 -0.006061 0.005732
# 3 -0.001666 -0.000971 0.007718 -0.000550 0.003081 -0.001816
# 4 -0.003791 -0.000209 -0.000550 0.031573 -0.003139 -0.002573
# 5 -0.003226 -0.006061 0.003081 -0.003139 0.014553 -0.000095
# 6 0.004979 0.005732 -0.001816 -0.002573 -0.000095 0.026517
#
#
# Mechanical properties :
#
#
# Convention : Reuss Voigt Hill
#
# Bulk Modulus (GPa) = -261.02715 -7.03149 -134.02932
# Shear Modulus (GPa) = 47.36406 37.73007 42.54706
#
# Velocity S-wave (km/s) = 4.40989 3.93593 4.17964
# Velocity P-wave (km/s) = 9.01362 4.21525 5.63369
#
# Compressibility (1/GPa) = -0.00383102
#
# Stress axis : x y z
#
# Youngs Moduli (GPa) = 196.32185 421.48209 129.56940
#
# Poissons Ratio (x) = 2.89550 0.21591
# Poissons Ratio (y) = 1.34869 0.12587
# Poissons Ratio (z) = 0.32714 0.40944
#
# Static dielectric constant tensor:
#      x y z
#    x 1.923590 -0.061560 -0.036790 
#    y -0.061560 2.017290 -0.018730 
#    z -0.036790 -0.018730 1.956470 
# 
# From -- ./inp_files/206526.got.cif
#   From: 2010.05.17/outbox.cif.g08.bks.cpg/sg2_104_cif.got.tgz:206526.got - 2010.06.03 11:33:40.
