data_PCOD9032433
_publ_section_title
;
Structure prediction by ZEFSAII (Michael W. Deem and Ramdas Pophale) SiO2 
 PCOD9032433
Probable space group: P -1
;
_chemical_formula_sum "Si O2"
_cell_formula_units_Z 13
_cell_length_a 4.842193
_cell_length_b 7.635568
_cell_length_c 14.236709
_cell_angle_alpha 76.058084
_cell_angle_beta 112.705070
_cell_angle_gamma 112.520469
_cell_volume 445.866532
_symmetry_space_group_name_H-M "P -1"
_symmetry_group_IT_number 2
_symmetry_cell_setting 'triclinic'
loop_
_space_group_symop_operation_xyz
x,y,z
-x,-y,-z
loop_
_atom_site_type_symbol
_atom_site_label
_atom_site_fract_x
_atom_site_fract_y
_atom_site_fract_z
Si Si1 0.189289 0.657515 0.883989
Si Si2 0.507392 0.700248 0.432152
Si Si3 0.475889 0.790401 0.622129
Si Si4 0.764976 0.898013 0.828864
Si Si5 0.000000 0.000000 0.500000
Si Si6 0.825805 0.599208 0.264163
Si Si7 0.615635 0.826357 0.075579
O O1 0.416694 0.838165 0.832005
O O2 0.127128 0.494718 0.818887
O O3 0.898451 0.719079 0.875959
O O4 0.408345 0.659521 0.002237
O O5 0.500000 0.500000 0.500000
O O6 0.585878 0.832946 0.522742
O O7 0.178331 0.674278 0.343429
O O8 0.824808 0.831931 0.410950
O O9 0.731289 0.913710 0.711723
O O10 0.378536 0.570389 0.671008
O O11 0.168209 0.849292 0.584072
O O12 0.002809 0.074108 0.891610
O O13 0.616356 0.732224 0.190022
O O14 0.500000 0.000000 0.000000
#
# Coordination Sequence:
#
# PCOD9032433 Si02
#       7
#     2   2   2   2   1   2   2
#     4  10  22  44  72 100 146 187 250 306 374 437
#     4  12  25  47  72 110 151 193 252 304 382 450
#     4  11  25  46  71 106 149 195 250 309 377 453
#     4  10  22  43  71 104 140 194 243 306 373 445
#     4  12  26  44  74  98 152 196 244 306 368 448
#     4  11  23  45  71 106 144 198 246 306 380 442
#     4  10  22  44  71 106 144 191 250 314 372 445
#
# _framework density 29.15671
#
# number of rings (size 3 to 8) (size 9 to 14) (size 15 to 20)
#    0.000    1.231    1.538    3.692    2.154    0.000 
#    5.538   30.000    0.000    0.000    0.000    0.000 
#    0.000    0.000    0.000    0.000    0.000    0.000 
#
# Total GULP energy -72527.267865 kJ/mol
# GULP energy per Si atom -5579.020605 kJ/mol
# Density = 2.909035 g / cm^3
# Si number density = 29.156710 Si / 1000 Ang^3
#
#
#
# Elastic Constant Matrix: (Units=GPa)
#
#
# Indices 1 2 3 4 5 6 
#
# 1 87.0443 33.5743 59.9838 0.2240 11.9262 4.0026
# 2 33.5743 145.8502 63.2698 -26.4886 13.2130 12.7729
# 3 59.9838 63.2698 273.9977 16.1786 25.4807 5.3137
# 4 0.2240 -26.4886 16.1786 73.5619 4.9299 7.3111
# 5 11.9262 13.2130 25.4807 4.9299 50.5849 1.0044
# 6 4.0026 12.7729 5.3137 7.3111 1.0044 43.8133
#
#
#
# Elastic Compliance Matrix: (Units=1/GPa)
#
#
# Indices 1 2 3 4 5 6 
#
# 1 0.014217 -0.002040 -0.002485 -0.000093 -0.001551 -0.000352
# 2 -0.002040 0.009203 -0.001734 0.004086 -0.001390 -0.002936
# 3 -0.002485 -0.001734 0.004796 -0.001634 -0.001227 0.000452
# 4 -0.000093 0.004086 -0.001634 0.015897 -0.001700 -0.003598
# 5 -0.001551 -0.001390 -0.001227 -0.001700 0.021271 0.000492
# 6 -0.000352 -0.002936 0.000452 -0.003598 0.000492 0.024247
#
#
# Mechanical properties :
#
#
# Convention : Reuss Voigt Hill
#
# Bulk Modulus (GPa) = 63.70028 91.17200 77.43614
# Shear Modulus (GPa) = 46.56354 56.92964 51.74659
#
# Velocity S-wave (km/s) = 4.00060 4.42355 4.21738
# Velocity P-wave (km/s) = 6.57531 7.57812 7.09445
#
# Compressibility (1/GPa) = 0.01569852
#
# Stress axis : x y z
#
# Youngs Moduli (GPa) = 70.34075 108.65713 208.51868
#
# Poissons Ratio (x) = 0.22169 0.51809
# Poissons Ratio (y) = 0.14351 0.36149
# Poissons Ratio (z) = 0.17477 0.18837
#
# Static dielectric constant tensor:
#      x y z
#    x 443.408780 183.677370 -38.755710 
#    y 183.677370 79.002170 -15.980810 
#    z -38.755710 -15.980810 5.653810 
# 
# From -- ./inp_files/479773.got.cif
#   From: 2010.05.17/outbox.cif.g08.bks.cpg/sg2_240_cif.got.tgz:479773.got - 2010.06.03 11:33:40.
