data_PCOD9032669
_publ_section_title
;
Structure prediction by ZEFSAII (Michael W. Deem and Ramdas Pophale) SiO2 
 PCOD9032669
Probable space group: P -1
;
_chemical_formula_sum "Si O2"
_cell_formula_units_Z 14
_cell_length_a 14.017210
_cell_length_b 5.356968
_cell_length_c 9.477507
_cell_angle_alpha 72.619773
_cell_angle_beta 101.601339
_cell_angle_gamma 67.660631
_cell_volume 586.936997
_symmetry_space_group_name_H-M "P -1"
_symmetry_group_IT_number 2
_symmetry_cell_setting 'triclinic'
loop_
_space_group_symop_operation_xyz
x,y,z
-x,-y,-z
loop_
_atom_site_type_symbol
_atom_site_label
_atom_site_fract_x
_atom_site_fract_y
_atom_site_fract_z
Si Si1 0.405666 0.805361 0.634693
Si Si2 0.448702 0.816280 0.087835
Si Si3 0.821348 0.315688 0.929003
Si Si4 0.021535 0.408783 0.685447
Si Si5 0.257851 0.929588 0.817749
Si Si6 0.035613 0.126849 0.166580
Si Si7 0.379911 0.096875 0.291742
O O1 0.463009 0.464850 0.754815
O O2 0.291672 0.948488 0.663949
O O3 0.501563 0.901190 0.679689
O O4 0.383901 0.877684 0.451832
O O5 0.361769 0.000843 0.149808
O O6 0.378872 0.780787 0.949211
O O7 0.500000 0.000000 0.000000
O O8 0.721686 0.579491 0.773733
O O9 0.782616 0.280983 0.080594
O O10 0.931897 0.332098 0.000360
O O11 0.862684 0.031371 0.885351
O O12 0.964736 0.687260 0.728157
O O13 0.000000 0.500000 0.500000
O O14 0.155412 0.247153 0.771317
O O15 0.983729 0.154686 0.743643
#
# Coordination Sequence:
#
# PCOD9032669 Si02
#       7
#     2   2   2   2   2   2   2
#     4  11  24  42  60  99 138 174 228 288 351 418
#     4  12  22  40  69  96 136 185 235 286 341 426
#     4  10  22  43  73 101 135 189 234 297 352 429
#     4  11  25  46  70 106 143 186 232 305 364 428
#     4  11  23  43  68  98 135 181 236 286 357 426
#     4  10  24  45  73 103 142 182 247 292 358 433
#     4  11  23  41  65  95 138 179 225 290 351 418
#
# _framework density 23.852647000000001
#
# number of rings (size 3 to 8) (size 9 to 14) (size 15 to 20)
#    0.000    1.143    2.857    3.000    2.000    7.429 
#    0.000    0.000    0.000    0.000    0.000    0.000 
#    0.000    0.000    0.000    0.000    0.000    0.000 
#
# Total GULP energy -78117.218639 kJ/mol
# GULP energy per Si atom -5579.801331 kJ/mol
# Density = 2.379836 g / cm^3
# Si number density = 23.852647 Si / 1000 Ang^3
#
#
#
# Elastic Constant Matrix: (Units=GPa)
#
#
# Indices 1 2 3 4 5 6 
#
# 1 94.8912 33.1942 37.0354 -1.6124 -30.3784 -13.9052
# 2 33.1942 123.9214 49.9590 12.3426 -12.4210 -7.0897
# 3 37.0354 49.9590 166.2417 1.5368 -35.6501 0.2313
# 4 -1.6124 12.3426 1.5368 31.6765 -2.4608 -2.6091
# 5 -30.3784 -12.4210 -35.6501 -2.4608 41.8967 -2.7145
# 6 -13.9052 -7.0897 0.2313 -2.6091 -2.7145 31.1670
#
#
#
# Elastic Compliance Matrix: (Units=1/GPa)
#
#
# Indices 1 2 3 4 5 6 
#
# 1 0.016729 -0.003071 -0.000348 0.003637 0.011660 0.008087
# 2 -0.003071 0.010258 -0.002730 -0.004114 -0.001718 0.000489
# 3 -0.000348 -0.002730 0.008179 0.001092 0.005947 -0.000228
# 4 0.003637 -0.004114 0.001092 0.033985 0.004597 0.003924
# 5 0.011660 -0.001718 0.005947 0.004597 0.037690 0.008435
# 6 0.008087 0.000489 -0.000228 0.003924 0.008435 0.036870
#
#
# Mechanical properties :
#
#
# Convention : Reuss Voigt Hill
#
# Bulk Modulus (GPa) = 43.73099 69.49239 56.61169
# Shear Modulus (GPa) = 30.55645 38.60574 34.58109
#
# Velocity S-wave (km/s) = 3.58306 4.02743 3.81173
# Velocity P-wave (km/s) = 5.95746 7.12911 6.56946
#
# Compressibility (1/GPa) = 0.02286708
#
# Stress axis : x y z
#
# Youngs Moduli (GPa) = 59.77801 97.48101 122.26736
#
# Poissons Ratio (x) = 0.29941 0.04256
# Poissons Ratio (y) = 0.18361 0.33376
# Poissons Ratio (z) = 0.02081 0.26610
#
# Static dielectric constant tensor:
#      x y z
#    x 1.830860 0.045350 0.065960 
#    y 0.045350 2.007040 -0.017540 
#    z 0.065960 -0.017540 1.813090 
# 
# From -- ./inp_files/36843.got.cif
#   From: 2010.05.17/outbox.cif.g08.bks.cpg/sg2_19_cif.got.tgz:36843.got - 2010.06.03 11:33:40.
