data_PCOD9032062
_publ_section_title
;
Structure prediction by ZEFSAII (Michael W. Deem and Ramdas Pophale) SiO2 
 PCOD9032062
Probable space group: P -1
;
_chemical_formula_sum "Si O2"
_cell_formula_units_Z 16
_cell_length_a 20.987815
_cell_length_b 19.771373
_cell_length_c 8.769549
_cell_angle_alpha 49.511487
_cell_angle_beta 40.012689
_cell_angle_gamma 20.122126
_cell_volume 763.718516
_symmetry_space_group_name_H-M "P -1"
_symmetry_group_IT_number 2
_symmetry_cell_setting 'triclinic'
loop_
_space_group_symop_operation_xyz
x,y,z
-x,-y,-z
loop_
_atom_site_type_symbol
_atom_site_label
_atom_site_fract_x
_atom_site_fract_y
_atom_site_fract_z
Si Si1 0.497909 0.262883 0.358550
Si Si2 0.022333 0.890483 0.023067
Si Si3 0.882749 0.061405 0.473378
Si Si4 0.491506 0.766596 0.980138
Si Si5 0.262113 0.280334 0.901762
Si Si6 0.882129 0.535483 0.793761
Si Si7 0.733315 0.369691 0.765516
Si Si8 0.315894 0.105875 0.799529
O O1 0.469732 0.279835 0.202619
O O2 0.408226 0.245980 0.625001
O O3 0.341406 0.473524 0.387172
O O4 0.766311 0.063708 0.198323
O O5 0.168234 0.706359 0.130677
O O6 0.148175 0.826138 0.738094
O O7 0.000000 0.000000 0.000000
O O8 0.651657 0.196820 0.737536
O O9 0.000000 0.000000 0.500000
O O10 0.065486 0.844019 0.381744
O O11 0.715744 0.604511 0.906738
O O12 0.349697 0.973865 0.943610
O O13 0.346719 0.126127 0.878797
O O14 0.245880 0.300083 0.085051
O O15 0.000000 0.500000 0.000000
O O16 0.000000 0.500000 0.500000
O O17 0.071968 0.328262 0.845741
O O18 0.500000 0.500000 0.000000
O O19 0.500000 0.000000 0.500000
#
# Coordination Sequence:
#
# PCOD9032062 Si02
#       8
#     2   2   2   2   2   2   2   2
#     4  12  23  45  68  97 137 178 224 279 343 405
#     4  10  22  43  69  93 135 173 222 272 340 402
#     4  11  23  45  67  98 138 176 222 281 340 405
#     4  12  25  43  67 100 138 175 225 285 334 405
#     4  10  24  43  69  97 136 181 224 280 337 407
#     4  11  24  44  67  97 136 176 226 282 335 402
#     4  11  23  42  70  95 131 178 225 280 336 402
#     4  11  22  47  68  95 136 182 223 278 342 398
#
# _framework density 20.950126999999998
#
# number of rings (size 3 to 8) (size 9 to 14) (size 15 to 20)
#    0.000    1.000    6.250    0.750    7.000    1.500 
#    0.000    1.250    0.000    0.000    0.000    0.000 
#    0.000    0.000    0.000    0.000    0.000    0.000 
#
# Total GULP energy -89398.616344 kJ/mol
# GULP energy per Si atom -5587.413522 kJ/mol
# Density = 2.090244 g / cm^3
# Si number density = 20.950127 Si / 1000 Ang^3
#
#
#
# Elastic Constant Matrix: (Units=GPa)
#
#
# Indices 1 2 3 4 5 6 
#
# 1 124.0822 27.1043 52.4519 14.3424 -0.4433 -24.6315
# 2 27.1043 93.6656 14.6479 -3.9287 -8.2918 -19.4679
# 3 52.4519 14.6479 131.8095 7.3579 -5.2552 -20.7209
# 4 14.3424 -3.9287 7.3579 24.9074 -0.9734 -5.7780
# 5 -0.4433 -8.2918 -5.2552 -0.9734 42.7179 6.4044
# 6 -24.6315 -19.4679 -20.7209 -5.7780 6.4044 42.3858
#
#
#
# Elastic Compliance Matrix: (Units=1/GPa)
#
#
# Indices 1 2 3 4 5 6 
#
# 1 0.011290 -0.002380 -0.003482 -0.005143 -0.001381 0.003273
# 2 -0.002380 0.012708 0.000118 0.004538 0.001832 0.004853
# 3 -0.003482 0.000118 0.009388 -0.000144 0.000766 0.002485
# 4 -0.005143 0.004538 -0.000144 0.045072 0.001086 0.005005
# 5 -0.001381 0.001832 0.000766 0.001086 0.024337 -0.003116
# 6 0.003273 0.004853 0.002485 0.005005 -0.003116 0.030092
#
#
# Mechanical properties :
#
#
# Convention : Reuss Voigt Hill
#
# Bulk Modulus (GPa) = 45.66692 59.77393 52.72042
# Shear Modulus (GPa) = 32.96529 39.02576 35.99553
#
# Velocity S-wave (km/s) = 3.97106 4.32069 4.14956
# Velocity P-wave (km/s) = 6.54759 7.31332 6.94102
#
# Compressibility (1/GPa) = 0.02189769
#
# Stress axis : x y z
#
# Youngs Moduli (GPa) = 88.57263 78.69180 106.51512
#
# Poissons Ratio (x) = 0.18730 0.37085
# Poissons Ratio (y) = 0.21082 -0.01252
# Poissons Ratio (z) = 0.30838 -0.00925
#
# Static dielectric constant tensor:
#      x y z
#    x 1.730060 0.006270 0.041280 
#    y 0.006270 1.770550 0.008810 
#    z 0.041280 0.008810 1.728250 
# 
# From -- ./inp_files/328155.got.cif
#   From: 2010.05.17/outbox.cif.g08.bks.cpg/sg2_165_cif.got.tgz:328155.got - 2010.06.03 11:33:40.
