data_PCOD9032802
_publ_section_title
;
Structure prediction by ZEFSAII (Michael W. Deem and Ramdas Pophale) SiO2 
 PCOD9032802
Probable space group: P -1
;
_chemical_formula_sum "Si O2"
_cell_formula_units_Z 16
_cell_length_a 17.047985
_cell_length_b 9.452087
_cell_length_c 6.764080
_cell_angle_alpha 45.336289
_cell_angle_beta 81.186635
_cell_angle_gamma 92.187302
_cell_volume 749.393087
_symmetry_space_group_name_H-M "P -1"
_symmetry_group_IT_number 2
_symmetry_cell_setting 'triclinic'
loop_
_space_group_symop_operation_xyz
x,y,z
-x,-y,-z
loop_
_atom_site_type_symbol
_atom_site_label
_atom_site_fract_x
_atom_site_fract_y
_atom_site_fract_z
Si Si1 0.437214 0.282447 0.226810
Si Si2 0.782730 0.317052 0.952549
Si Si3 0.513011 0.074140 0.701068
Si Si4 0.906138 0.495321 0.032046
Si Si5 0.336329 0.563459 0.813636
Si Si6 0.971545 0.885038 0.421872
Si Si7 0.200268 0.403473 0.697699
Si Si8 0.125302 0.955109 0.044861
O O1 0.438003 0.162642 0.551147
O O2 0.468741 0.121890 0.230313
O O3 0.500000 0.500000 0.000000
O O4 0.359941 0.361578 0.098075
O O5 0.787269 0.504833 0.615376
O O6 0.851379 0.325422 0.087617
O O7 0.704338 0.320717 0.113639
O O8 0.803521 0.149864 0.958500
O O9 0.587982 0.266829 0.459631
O O10 0.500000 0.000000 0.000000
O O11 0.870934 0.516954 0.238722
O O12 0.904620 0.693856 0.705748
O O13 0.000000 0.500000 0.000000
O O14 0.276370 0.483807 0.733253
O O15 0.927834 0.000156 0.166164
O O16 0.000000 0.000000 0.500000
O O17 0.053588 0.841457 0.330547
O O18 0.169049 0.162855 0.929013
#
# Coordination Sequence:
#
# PCOD9032802 Si02
#       8
#     2   2   2   2   2   2   2   2
#     4   9  21  43  70 100 135 169 210 264 319 385
#     4  11  25  42  59  90 131 170 220 269 332 398
#     4  10  22  43  75 107 130 168 224 264 316 390
#     4  11  22  39  62  86 123 167 218 285 331 386
#     4  10  25  44  64  96 140 179 209 268 337 391
#     4  11  21  38  63  88 121 158 227 286 333 376
#     4  11  24  42  60  91 129 172 221 265 336 396
#     4  11  24  39  63  91 119 173 223 275 329 392
#
# _framework density 21.350612000000002
#
# number of rings (size 3 to 8) (size 9 to 14) (size 15 to 20)
#    0.000    1.500    2.500    1.500    1.750   10.000 
#    0.000    0.000    0.000    0.000    0.000    0.000 
#    0.000    0.000    0.000    0.000    0.000    0.000 
#
# Total GULP energy -89187.494121 kJ/mol
# GULP energy per Si atom -5574.218383 kJ/mol
# Density = 2.130202 g / cm^3
# Si number density = 21.350612 Si / 1000 Ang^3
#
#
#
# Elastic Constant Matrix: (Units=GPa)
#
#
# Indices 1 2 3 4 5 6 
#
# 1 86.1761 28.1857 31.8586 1.4897 13.2259 -8.1392
# 2 28.1857 101.2905 25.2759 -0.3668 6.1437 -2.9177
# 3 31.8586 25.2759 112.7556 21.2779 3.6964 -10.5366
# 4 1.4897 -0.3668 21.2779 35.9718 -4.8539 2.2070
# 5 13.2259 6.1437 3.6964 -4.8539 26.9759 -4.3006
# 6 -8.1392 -2.9177 -10.5366 2.2070 -4.3006 24.9578
#
#
#
# Elastic Compliance Matrix: (Units=1/GPa)
#
#
# Indices 1 2 3 4 5 6 
#
# 1 0.014823 -0.002911 -0.003216 0.000351 -0.005764 0.002112
# 2 -0.002911 0.011207 -0.001990 0.001359 -0.000724 -0.000724
# 3 -0.003216 -0.001990 0.012019 -0.007297 -0.000229 0.004399
# 4 0.000351 0.001359 -0.007297 0.033180 0.005731 -0.004754
# 5 -0.005764 -0.000724 -0.000229 0.005731 0.041864 0.004646
# 6 0.002112 -0.000724 0.004399 -0.004754 0.004646 0.043750
#
#
# Mechanical properties :
#
#
# Convention : Reuss Voigt Hill
#
# Bulk Modulus (GPa) = 45.83764 52.31808 49.07786
# Shear Modulus (GPa) = 27.72414 31.90791 29.81603
#
# Velocity S-wave (km/s) = 3.60740 3.87004 3.74103
# Velocity P-wave (km/s) = 6.23432 6.67286 6.45731
#
# Compressibility (1/GPa) = 0.02181613
#
# Stress axis : x y z
#
# Youngs Moduli (GPa) = 67.46295 89.22919 83.20116
#
# Poissons Ratio (x) = 0.25971 0.26755
# Poissons Ratio (y) = 0.19635 0.16559
# Poissons Ratio (z) = 0.21694 0.17759
#
# Static dielectric constant tensor:
#      x y z
#    x 1.838040 0.058310 -0.010280 
#    y 0.058310 1.069680 0.656550 
#    z -0.010280 0.656550 1.148080 
# 
# From -- ./inp_files/106083.got.cif
#   From: 2010.05.17/outbox.cif.g08.bks.cpg/sg2_54_cif.got.tgz:106083.got - 2010.06.03 11:33:40.
