data_PCOD9032393
_publ_section_title
;
Structure prediction by ZEFSAII (Michael W. Deem and Ramdas Pophale) SiO2 
 PCOD9032393
Probable space group: P -1
;
_chemical_formula_sum "Si O2"
_cell_formula_units_Z 13
_cell_length_a 9.489148
_cell_length_b 9.136385
_cell_length_c 9.202354
_cell_angle_alpha 67.883715
_cell_angle_beta 49.130152
_cell_angle_gamma 93.571912
_cell_volume 501.743732
_symmetry_space_group_name_H-M "P -1"
_symmetry_group_IT_number 2
_symmetry_cell_setting 'triclinic'
loop_
_space_group_symop_operation_xyz
x,y,z
-x,-y,-z
loop_
_atom_site_type_symbol
_atom_site_label
_atom_site_fract_x
_atom_site_fract_y
_atom_site_fract_z
Si Si1 0.394458 0.648849 0.366433
Si Si2 0.952147 0.868323 0.438024
Si Si3 0.533595 0.011055 0.234263
Si Si4 0.000000 0.500000 0.500000
Si Si5 0.240158 0.469392 0.841286
Si Si6 0.145586 0.897112 0.762465
Si Si7 0.476074 0.654709 0.877311
O O1 0.488689 0.856696 0.212018
O O2 0.295900 0.586679 0.616303
O O3 0.585160 0.601074 0.243315
O O4 0.211839 0.541017 0.421082
O O5 0.028019 0.714582 0.447579
O O6 0.704492 0.760529 0.622119
O O7 0.994200 0.002760 0.224785
O O8 0.000000 0.000000 0.500000
O O9 0.328186 0.940463 0.503310
O O10 0.726587 0.043026 0.196987
O O11 0.565061 0.194441 0.073262
O O12 0.984595 0.692128 0.950088
O O13 0.291262 0.578736 0.914597
O O14 0.500000 0.500000 0.000000
#
# Coordination Sequence:
#
# PCOD9032393 Si02
#       7
#     2   2   2   1   2   2   2
#     4  11  25  45  68 103 143 184 234 294 358 430
#     4  11  23  43  69  98 144 189 237 297 361 423
#     4  10  23  43  72  99 137 185 238 291 356 435
#     4  12  24  44  72 102 138 196 234 292 366 426
#     4  11  24  44  71 102 145 184 230 299 361 425
#     4  10  22  43  71 101 135 186 238 292 356 429
#     4  11  23  43  68 103 139 179 238 298 353 429
#
# _framework density 25.909641000000001
#
# number of rings (size 3 to 8) (size 9 to 14) (size 15 to 20)
#    0.000    1.231    1.538    5.538    2.154    4.308 
#    2.769    1.538    0.000    0.000    0.000    0.000 
#    0.000    0.000    0.000    0.000    0.000    0.000 
#
# Total GULP energy -72438.947994 kJ/mol
# GULP energy per Si atom -5572.226769 kJ/mol
# Density = 2.585067 g / cm^3
# Si number density = 25.909641 Si / 1000 Ang^3
#
#
#
# Elastic Constant Matrix: (Units=GPa)
#
#
# Indices 1 2 3 4 5 6 
#
# 1 189.8560 73.3856 50.3713 -13.6107 -8.5976 21.5076
# 2 73.3856 198.9266 54.3941 -46.4210 17.0150 4.0871
# 3 50.3713 54.3941 72.2048 -20.1996 3.8137 2.1990
# 4 -13.6107 -46.4210 -20.1996 38.4805 -6.5654 -7.8700
# 5 -8.5976 17.0150 3.8137 -6.5654 28.6894 -14.4622
# 6 21.5076 4.0871 2.1990 -7.8700 -14.4622 49.0349
#
#
#
# Elastic Compliance Matrix: (Units=1/GPa)
#
#
# Indices 1 2 3 4 5 6 
#
# 1 0.007519 -0.002356 -0.004225 -0.002549 0.002296 -0.002644
# 2 -0.002356 0.008713 -0.002552 0.007904 -0.003375 0.000695
# 3 -0.004225 -0.002552 0.020512 0.006695 0.000202 0.002280
# 4 -0.002549 0.007904 0.006695 0.041294 0.007670 0.009049
# 5 0.002296 -0.003375 0.000202 0.007670 0.046427 0.014189
# 6 -0.002644 0.000695 0.002280 0.009049 0.014189 0.027031
#
#
# Mechanical properties :
#
#
# Convention : Reuss Voigt Hill
#
# Bulk Modulus (GPa) = 54.11422 90.80995 72.46209
# Shear Modulus (GPa) = 28.42190 42.09672 35.25931
#
# Velocity S-wave (km/s) = 3.31564 4.03519 3.69298
# Velocity P-wave (km/s) = 5.96565 7.53891 6.79795
#
# Compressibility (1/GPa) = 0.01847943
#
# Stress axis : x y z
#
# Youngs Moduli (GPa) = 132.98999 114.77620 48.75131
#
# Poissons Ratio (x) = 0.27036 0.20597
# Poissons Ratio (y) = 0.31326 0.12441
# Poissons Ratio (z) = 0.56187 0.29290
#
# Static dielectric constant tensor:
#      x y z
#    x 1.904640 -0.088550 0.082800 
#    y -0.088550 2.097230 0.090530 
#    z 0.082800 0.090530 1.909170 
# 
# From -- ./inp_files/373556.got.cif
#   From: 2010.05.17/outbox.cif.g08.bks.cpg/sg2_187_cif.got.tgz:373556.got - 2010.06.03 11:33:40.
