data_PCOD9032453
_publ_section_title
;
Structure prediction by ZEFSAII (Michael W. Deem and Ramdas Pophale) SiO2 
 PCOD9032453
Probable space group: P -1
;
_chemical_formula_sum "Si O2"
_cell_formula_units_Z 13
_cell_length_a 12.123740
_cell_length_b 5.696640
_cell_length_c 9.610769
_cell_angle_alpha 57.306532
_cell_angle_beta 89.764531
_cell_angle_gamma 108.787642
_cell_volume 515.464455
_symmetry_space_group_name_H-M "P -1"
_symmetry_group_IT_number 2
_symmetry_cell_setting 'triclinic'
loop_
_space_group_symop_operation_xyz
x,y,z
-x,-y,-z
loop_
_atom_site_type_symbol
_atom_site_label
_atom_site_fract_x
_atom_site_fract_y
_atom_site_fract_z
Si Si1 0.632345 0.428427 0.148162
Si Si2 0.539596 0.221243 0.621259
Si Si3 0.000000 0.500000 0.000000
Si Si4 0.244362 0.909445 0.448629
Si Si5 0.871464 0.622047 0.212144
Si Si6 0.973977 0.002597 0.664308
Si Si7 0.596238 0.422755 0.842062
O O1 0.752431 0.654439 0.146304
O O2 0.528504 0.551304 0.128652
O O3 0.569460 0.088645 0.318546
O O4 0.655452 0.396147 0.995061
O O5 0.500000 0.500000 0.500000
O O6 0.664405 0.245264 0.546878
O O7 0.563852 0.181877 0.797030
O O8 0.034226 0.321521 0.928043
O O9 0.945000 0.673155 0.832341
O O10 0.181048 0.741278 0.642482
O O11 0.134359 0.881881 0.357325
O O12 0.321152 0.265617 0.333934
O O13 0.918961 0.784202 0.305611
O O14 0.000000 0.000000 0.500000
#
# Coordination Sequence:
#
# PCOD9032453 Si02
#       7
#     2   2   1   2   2   2   2
#     4  10  23  44  68 108 151 191 251 316 379 466
#     4  11  23  41  75 110 148 200 250 310 392 464
#     4  12  28  48  78 112 146 204 258 318 384 460
#     4  11  25  44  73 107 146 197 254 317 378 457
#     4  12  26  47  75 111 155 199 259 323 381 463
#     4  12  28  52  77 108 155 205 265 317 387 454
#     4  10  22  43  71 106 147 196 249 312 389 461
#
# _framework density 25.219971000000001
#
# number of rings (size 3 to 8) (size 9 to 14) (size 15 to 20)
#    0.000    0.923    1.538    4.154    2.154    6.154 
#    0.000    3.077    0.000    0.000    0.000    0.000 
#    0.000    0.000    0.000    0.000    0.000    0.000 
#
# Total GULP energy -72425.263622 kJ/mol
# GULP energy per Si atom -5571.174125 kJ/mol
# Density = 2.516257 g / cm^3
# Si number density = 25.219971 Si / 1000 Ang^3
#
#
#
# Elastic Constant Matrix: (Units=GPa)
#
#
# Indices 1 2 3 4 5 6 
#
# 1 111.0119 62.7944 17.7476 10.7286 21.0885 13.8238
# 2 62.7944 95.5980 35.4373 32.1764 -7.0397 17.9326
# 3 17.7476 35.4373 110.1363 28.3932 16.6222 -11.5220
# 4 10.7286 32.1764 28.3932 56.9988 -6.2768 18.1263
# 5 21.0885 -7.0397 16.6222 -6.2768 33.0134 6.1404
# 6 13.8238 17.9326 -11.5220 18.1263 6.1404 42.1826
#
#
#
# Elastic Compliance Matrix: (Units=1/GPa)
#
#
# Indices 1 2 3 4 5 6 
#
# 1 0.024168 -0.021868 0.008516 -0.002019 -0.026336 0.008404
# 2 -0.021868 0.035680 -0.014535 0.000031 0.031997 -0.016643
# 3 0.008516 -0.014535 0.021326 -0.012594 -0.025071 0.018274
# 4 -0.002019 0.000031 -0.012594 0.032172 0.017314 -0.019136
# 5 -0.026336 0.031997 -0.025071 0.017314 0.075478 -0.030247
# 6 0.008404 -0.016643 0.018274 -0.019136 -0.030247 0.045645
#
#
# Mechanical properties :
#
#
# Convention : Reuss Voigt Hill
#
# Bulk Modulus (GPa) = 39.36771 60.96720 50.16745
# Shear Modulus (GPa) = 16.73863 39.82342 28.28102
#
# Velocity S-wave (km/s) = 2.57904 3.97803 3.35233
# Velocity P-wave (km/s) = 4.95098 6.73248 5.90925
#
# Compressibility (1/GPa) = 0.02540153
#
# Stress axis : x y z
#
# Youngs Moduli (GPa) = 41.37719 28.02659 46.89064
#
# Poissons Ratio (x) = 0.61288 -0.39933
# Poissons Ratio (y) = 0.90483 0.68155
# Poissons Ratio (z) = -0.35238 0.40736
#
# Static dielectric constant tensor:
#      x y z
#    x 2.027280 0.018630 -0.013320 
#    y 0.018630 2.016720 -0.043390 
#    z -0.013320 -0.043390 2.079750 
# 
# From -- ./inp_files/28042.got.cif
#   From: 2010.05.17/outbox.cif.g08.bks.cpg/sg2_15_cif.got.tgz:28042.got - 2010.06.03 11:33:40.
