data_PCOD9032754
_publ_section_title
;
Structure prediction by ZEFSAII (Michael W. Deem and Ramdas Pophale) SiO2 
 PCOD9032754
Probable space group: P -1
;
_chemical_formula_sum "Si O2"
_cell_formula_units_Z 16
_cell_length_a 14.571162
_cell_length_b 9.516091
_cell_length_c 5.312462
_cell_angle_alpha 89.618761
_cell_angle_beta 62.366820
_cell_angle_gamma 107.455104
_cell_volume 613.223048
_symmetry_space_group_name_H-M "P -1"
_symmetry_group_IT_number 2
_symmetry_cell_setting 'triclinic'
loop_
_space_group_symop_operation_xyz
x,y,z
-x,-y,-z
loop_
_atom_site_type_symbol
_atom_site_label
_atom_site_fract_x
_atom_site_fract_y
_atom_site_fract_z
Si Si1 0.437304 0.156855 0.728787
Si Si2 0.033383 0.778291 0.878157
Si Si3 0.363664 0.618774 0.439591
Si Si4 0.658825 0.129910 0.899888
Si Si5 0.115321 0.674421 0.261472
Si Si6 0.814558 0.577973 0.997259
Si Si7 0.762063 0.943153 0.399668
Si Si8 0.339578 0.339289 0.186012
O O1 0.549760 0.273189 0.473430
O O2 0.325839 0.116679 0.711797
O O3 0.419842 0.257825 0.979685
O O4 0.438695 0.998211 0.831490
O O5 0.083124 0.720149 0.572772
O O6 0.114298 0.948223 0.813261
O O7 0.041636 0.692248 0.123742
O O8 0.905336 0.731311 0.968949
O O9 0.361224 0.736132 0.225398
O O10 0.242255 0.536292 0.705654
O O11 0.391838 0.476068 0.306131
O O12 0.761650 0.207764 0.951378
O O13 0.705782 0.037611 0.642660
O O14 0.126203 0.512177 0.246954
O O15 0.715403 0.601401 0.971472
O O16 0.756842 0.794767 0.557585
#
# Coordination Sequence:
#
# PCOD9032754 Si02
#       8
#     2   2   2   2   2   2   2   2
#     4  11  24  47  72  99 142 197 238 300 367 431
#     4  11  25  44  79 106 149 192 241 301 371 434
#     4  12  26  44  70 108 144 184 248 303 363 434
#     4  10  22  43  74 104 140 180 241 306 360 431
#     4  11  22  45  74 109 148 189 237 305 372 432
#     4  12  26  42  69 107 146 187 239 301 362 436
#     4  10  23  46  70 101 141 192 242 291 367 435
#     4  11  26  45  68  99 148 191 243 298 359 439
#
# _framework density 26.091646999999998
#
# number of rings (size 3 to 8) (size 9 to 14) (size 15 to 20)
#    0.000    1.000    2.500    3.750    1.750    5.000 
#    0.000    2.500    0.000    0.000    0.000    0.000 
#    0.000    0.000    0.000    0.000    0.000    0.000 
#
# Total GULP energy -89600.707320 kJ/mol
# GULP energy per Si atom -5600.044208 kJ/mol
# Density = 2.603226 g / cm^3
# Si number density = 26.091647 Si / 1000 Ang^3
#
#
#
# Elastic Constant Matrix: (Units=GPa)
#
#
# Indices 1 2 3 4 5 6 
#
# 1 63.7774 29.3269 14.2298 -17.2884 0.5378 39.2301
# 2 29.3269 171.1485 39.1053 -16.1713 -8.8500 29.5953
# 3 14.2298 39.1053 89.6310 -13.7063 1.8329 8.2257
# 4 -17.2884 -16.1713 -13.7063 51.8351 2.3899 -8.5912
# 5 0.5378 -8.8500 1.8329 2.3899 38.1089 -11.3190
# 6 39.2301 29.5953 8.2257 -8.5912 -11.3190 57.3415
#
#
#
# Elastic Compliance Matrix: (Units=1/GPa)
#
#
# Indices 1 2 3 4 5 6 
#
# 1 0.031352 -0.001165 -0.001377 0.006568 -0.007330 -0.021113
# 2 -0.001165 0.007151 -0.002646 0.000729 0.001109 -0.002186
# 3 -0.001377 -0.002646 0.012848 0.002261 -0.001186 0.000570
# 4 0.006568 0.000729 0.002261 0.022022 -0.002099 -0.002309
# 5 -0.007330 0.001109 -0.001186 -0.002099 0.029815 0.010183
# 6 -0.021113 -0.002186 0.000570 -0.002309 0.010183 0.034595
#
#
# Mechanical properties :
#
#
# Convention : Reuss Voigt Hill
#
# Bulk Modulus (GPa) = 24.40537 54.43119 39.41828
# Shear Modulus (GPa) = 30.89931 45.58342 38.24137
#
# Velocity S-wave (km/s) = 3.44504 4.18431 3.83254
# Velocity P-wave (km/s) = 5.01980 6.65217 5.89279
#
# Compressibility (1/GPa) = 0.04097459
#
# Stress axis : x y z
#
# Youngs Moduli (GPa) = 31.89636 139.83435 77.83569
#
# Poissons Ratio (x) = 0.16291 0.10720
# Poissons Ratio (y) = 0.03716 0.20592
# Poissons Ratio (z) = 0.04393 0.36995
#
# Static dielectric constant tensor:
#      x y z
#    x 2.111340 0.041240 -0.089650 
#    y 0.041240 2.016370 0.005940 
#    z -0.089650 0.005940 2.136740 
# 
# From -- ./inp_files/90079.got.cif
#   From: 2010.05.17/outbox.cif.g08.bks.cpg/sg2_46_cif.got.tgz:90079.got - 2010.06.03 11:33:40.
