data_PCOD9032883
_publ_section_title
;
Structure prediction by ZEFSAII (Michael W. Deem and Ramdas Pophale) SiO2 
 PCOD9032883
Probable space group: P -1
;
_chemical_formula_sum "Si O2"
_cell_formula_units_Z 16
_cell_length_a 11.919587
_cell_length_b 11.817762
_cell_length_c 8.842115
_cell_angle_alpha 64.384551
_cell_angle_beta 50.975688
_cell_angle_gamma 53.542371
_cell_volume 774.875126
_symmetry_space_group_name_H-M "P -1"
_symmetry_group_IT_number 2
_symmetry_cell_setting 'triclinic'
loop_
_space_group_symop_operation_xyz
x,y,z
-x,-y,-z
loop_
_atom_site_type_symbol
_atom_site_label
_atom_site_fract_x
_atom_site_fract_y
_atom_site_fract_z
Si Si1 0.685914 0.793589 0.521448
Si Si2 0.611635 0.555136 0.214238
Si Si3 0.064360 0.208576 0.266346
Si Si4 0.703282 0.759823 0.170744
Si Si5 0.022078 0.634585 0.449925
Si Si6 0.630975 0.021026 0.673012
Si Si7 0.353445 0.460645 0.147783
Si Si8 0.287797 0.734639 0.551795
O O1 0.678127 0.795616 0.347305
O O2 0.637896 0.672267 0.688024
O O3 0.872921 0.756810 0.420483
O O4 0.599278 0.927814 0.626951
O O5 0.697998 0.613877 0.225293
O O6 0.418529 0.650225 0.355547
O O7 0.666990 0.391211 0.293608
O O8 0.664103 0.572946 0.992316
O O9 0.006254 0.332726 0.368582
O O10 0.900152 0.198580 0.375290
O O11 0.216316 0.076321 0.293762
O O12 0.138180 0.242798 0.035135
O O13 0.541849 0.881538 0.156863
O O14 0.198929 0.597747 0.263727
O O15 0.000000 0.500000 0.500000
O O16 0.674961 0.139842 0.497683
O O17 0.500000 0.500000 0.000000
#
# Coordination Sequence:
#
# PCOD9032883 Si02
#       8
#     2   2   2   2   2   2   2   2
#     4  10  23  41  63  90 124 165 205 251 307 370
#     4  10  23  40  63  95 127 159 202 257 313 365
#     4  11  22  39  65  93 119 168 208 254 309 363
#     4  11  23  39  67  92 125 162 209 254 308 364
#     4   9  20  37  58  88 128 156 200 247 302 368
#     4  10  22  44  62  85 130 164 208 254 303 369
#     4  11  23  39  65  92 126 162 202 251 316 368
#     4  10  23  39  66  92 128 157 209 259 306 358
#
# _framework density 20.648489999999999
#
# number of rings (size 3 to 8) (size 9 to 14) (size 15 to 20)
#    0.000    1.750    0.000    4.125   10.500    1.500 
#    0.000    3.125    0.000    0.000    0.000    0.000 
#    0.000    0.000    0.000    0.000    0.000    0.000 
#
# Total GULP energy -89221.561953 kJ/mol
# GULP energy per Si atom -5576.347622 kJ/mol
# Density = 2.060149 g / cm^3
# Si number density = 20.648490 Si / 1000 Ang^3
#
#
#
# Elastic Constant Matrix: (Units=GPa)
#
#
# Indices 1 2 3 4 5 6 
#
# 1 74.4732 14.9998 34.9157 -2.5892 -14.4957 4.3731
# 2 14.9998 68.4164 39.3766 -1.7060 -10.7614 5.2160
# 3 34.9157 39.3766 112.3250 1.1211 -9.4730 -15.5523
# 4 -2.5892 -1.7060 1.1211 24.4217 -5.6699 -8.7451
# 5 -14.4957 -10.7614 -9.4730 -5.6699 31.1080 -4.3076
# 6 4.3731 5.2160 -15.5523 -8.7451 -4.3076 19.7669
#
#
#
# Elastic Compliance Matrix: (Units=1/GPa)
#
#
# Indices 1 2 3 4 5 6 
#
# 1 0.017913 0.001487 -0.006712 0.000805 0.005856 -0.008004
# 2 0.001487 0.021233 -0.009561 -0.002218 0.002808 -0.013823
# 3 -0.006712 -0.009561 0.017433 0.006012 0.002879 0.021011
# 4 0.000805 -0.002218 0.006012 0.056475 0.016398 0.033696
# 5 0.005856 0.002808 0.002879 0.016398 0.042016 0.016639
# 6 -0.008004 -0.013823 0.021011 0.033696 0.016639 0.091072
#
#
# Mechanical properties :
#
#
# Convention : Reuss Voigt Hill
#
# Bulk Modulus (GPa) = 37.02674 48.19986 42.61330
# Shear Modulus (GPa) = 17.56144 26.12082 21.84113
#
# Velocity S-wave (km/s) = 2.91949 3.56058 3.25585
# Velocity P-wave (km/s) = 5.41622 6.34802 5.90054
#
# Compressibility (1/GPa) = 0.02700751
#
# Stress axis : x y z
#
# Youngs Moduli (GPa) = 55.82661 47.09586 57.36402
#
# Poissons Ratio (x) = -0.07003 0.38501
# Poissons Ratio (y) = -0.08302 0.54844
# Poissons Ratio (z) = 0.37469 0.45027
#
# Static dielectric constant tensor:
#      x y z
#    x 1.794690 -0.051910 -0.013500 
#    y -0.051910 1.832840 0.031400 
#    z -0.013500 0.031400 1.748070 
# 
# From -- ./inp_files/261941.got.cif
#   From: 2010.05.17/outbox.cif.g08.bks.cpg/sg2_131_cif.got.tgz:261941.got - 2010.06.03 11:33:40.
