data_PCOD9032103
_publ_section_title
;
Structure prediction by ZEFSAII (Michael W. Deem and Ramdas Pophale) SiO2 
 PCOD9032103
Probable space group: P -1
;
_chemical_formula_sum "Si O2"
_cell_formula_units_Z 13
_cell_length_a 11.111558
_cell_length_b 13.311862
_cell_length_c 5.020418
_cell_angle_alpha 93.998937
_cell_angle_beta 97.229995
_cell_angle_gamma 136.104695
_cell_volume 496.693462
_symmetry_space_group_name_H-M "P -1"
_symmetry_group_IT_number 2
_symmetry_cell_setting 'triclinic'
loop_
_space_group_symop_operation_xyz
x,y,z
-x,-y,-z
loop_
_atom_site_type_symbol
_atom_site_label
_atom_site_fract_x
_atom_site_fract_y
_atom_site_fract_z
Si Si1 0.005439 0.412049 0.186851
Si Si2 0.006835 0.794315 0.133962
Si Si3 0.665020 0.386930 0.325168
Si Si4 0.194496 0.171135 0.641134
Si Si5 0.233251 0.889836 0.746761
Si Si6 0.502444 0.805130 0.257245
Si Si7 0.500000 0.500000 0.500000
O O1 0.078713 0.359662 0.033048
O O2 0.867449 0.500859 0.507788
O O3 0.813553 0.251650 0.200960
O O4 0.000000 0.500000 0.000000
O O5 0.104500 0.833229 0.447920
O O6 0.858086 0.787750 0.123262
O O7 0.159410 0.909378 0.980354
O O8 0.560815 0.248748 0.471765
O O9 0.589462 0.453051 0.374275
O O10 0.631813 0.329489 0.008822
O O11 0.321781 0.155476 0.724717
O O12 0.319165 0.319602 0.515176
O O13 0.000000 0.000000 0.500000
O O14 0.433082 0.043202 0.759143
#
# Coordination Sequence:
#
# PCOD9032103 Si02
#       7
#     2   2   2   2   2   2   1
#     4  10  26  47  73  98 133 188 242 293 347 415
#     4  10  23  40  72 100 135 179 243 281 346 425
#     4  11  26  43  67 100 145 177 229 296 354 416
#     4  11  23  42  72 107 147 197 231 290 364 435
#     4  10  22  43  69  96 136 178 237 284 342 432
#     4  11  25  42  66 103 144 179 227 284 365 424
#     4  10  26  40  66 108 146 184 234 288 356 434
#
# _framework density 26.173085
#
# number of rings (size 3 to 8) (size 9 to 14) (size 15 to 20)
#    0.923    0.615    1.538    1.846    8.615    3.692 
#    0.000    1.538    0.000    0.000    0.000    0.000 
#    0.000    0.000    0.000    0.000    0.000    0.000 
#
# Total GULP energy -72463.522106 kJ/mol
# GULP energy per Si atom -5574.117085 kJ/mol
# Density = 2.611351 g / cm^3
# Si number density = 26.173085 Si / 1000 Ang^3
#
#
#
# Elastic Constant Matrix: (Units=GPa)
#
#
# Indices 1 2 3 4 5 6 
#
# 1 88.8749 17.4493 2.7827 8.3630 -7.4697 9.3626
# 2 17.4493 226.0999 10.7782 -10.4256 14.5841 -17.0434
# 3 2.7827 10.7782 74.6038 2.4460 0.6420 1.8221
# 4 8.3630 -10.4256 2.4460 40.6672 9.7548 6.9631
# 5 -7.4697 14.5841 0.6420 9.7548 20.7456 6.5871
# 6 9.3626 -17.0434 1.8221 6.9631 6.5871 30.2937
#
#
#
# Elastic Compliance Matrix: (Units=1/GPa)
#
#
# Indices 1 2 3 4 5 6 
#
# 1 0.013949 -0.002592 0.000095 -0.005077 0.011485 -0.007105
# 2 -0.002592 0.005707 -0.000885 0.003094 -0.007989 0.005091
# 3 0.000095 -0.000885 0.013588 -0.001118 0.001189 -0.001346
# 4 -0.005077 0.003094 -0.001118 0.030901 -0.018599 0.000318
# 5 0.011485 -0.007989 0.001189 -0.018599 0.072917 -0.019696
# 6 -0.007105 0.005091 -0.001346 0.000318 -0.019696 0.042361
#
#
# Mechanical properties :
#
#
# Convention : Reuss Voigt Hill
#
# Bulk Modulus (GPa) = 37.76247 50.17767 43.97007
# Shear Modulus (GPa) = 25.63953 42.24585 33.94269
#
# Velocity S-wave (km/s) = 3.13327 4.02194 3.60509
# Velocity P-wave (km/s) = 5.24873 6.38601 5.84509
#
# Compressibility (1/GPa) = 0.02648132
#
# Stress axis : x y z
#
# Youngs Moduli (GPa) = 71.68929 175.23291 73.59574
#
# Poissons Ratio (x) = 0.45412 -0.00701
# Poissons Ratio (y) = 0.18579 0.06512
# Poissons Ratio (z) = -0.00683 0.15505
#
# Static dielectric constant tensor:
#      x y z
#    x 2.051590 0.023370 -0.002500 
#    y 0.023370 2.189890 0.029420 
#    z -0.002500 0.029420 2.035800 
# 
# From -- ./inp_files/74394.got.cif
#   From: 2010.05.17/outbox.cif.g08.bks.cpg/sg2_38_cif.got.tgz:74394.got - 2010.06.03 11:33:40.
