data_PCOD9032125
_publ_section_title
;
Structure prediction by ZEFSAII (Michael W. Deem and Ramdas Pophale) SiO2 
 PCOD9032125
Probable space group: P -1
;
_chemical_formula_sum "Si O2"
_cell_formula_units_Z 15
_cell_length_a 7.904407
_cell_length_b 12.707005
_cell_length_c 10.752767
_cell_angle_alpha 113.914388
_cell_angle_beta 135.621846
_cell_angle_gamma 86.271788
_cell_volume 646.457161
_symmetry_space_group_name_H-M "P -1"
_symmetry_group_IT_number 2
_symmetry_cell_setting 'triclinic'
loop_
_space_group_symop_operation_xyz
x,y,z
-x,-y,-z
loop_
_atom_site_type_symbol
_atom_site_label
_atom_site_fract_x
_atom_site_fract_y
_atom_site_fract_z
Si Si1 0.762086 0.028250 0.070266
Si Si2 0.833653 0.942587 0.506543
Si Si3 0.070089 0.555920 0.892495
Si Si4 0.545187 0.709111 0.376104
Si Si5 0.500000 0.500000 0.500000
Si Si6 0.482434 0.897582 0.635076
Si Si7 0.022803 0.679850 0.684929
Si Si8 0.161983 0.662100 0.470382
O O1 0.869373 0.174010 0.172608
O O2 0.975310 0.001402 0.252027
O O3 0.500000 0.000000 0.000000
O O4 0.708658 0.953588 0.879191
O O5 0.721939 0.794991 0.400445
O O6 0.597708 0.991697 0.403139
O O7 0.000000 0.000000 0.500000
O O8 0.140017 0.624465 0.828802
O O9 0.779822 0.555079 0.755684
O O10 0.046355 0.417578 0.777710
O O11 0.278488 0.622059 0.136775
O O12 0.518402 0.810563 0.505047
O O13 0.706179 0.637828 0.503615
O O14 0.391412 0.608042 0.547381
O O15 0.253949 0.804209 0.553184
O O16 0.078139 0.643605 0.559799
#
# Coordination Sequence:
#
# PCOD9032125 Si02
#       8
#     2   2   2   2   1   2   2   2
#     4  11  22  41  69  98 133 175 218 268 338 395
#     4  11  23  41  66  99 135 174 224 270 330 409
#     4  10  23  45  65  95 133 176 223 277 329 391
#     4  11  26  41  66 101 137 177 224 271 336 402
#     4   8  22  42  66  94 130 166 232 264 332 394
#     4  12  23  42  65  99 137 175 222 276 333 397
#     4  11  22  43  69  98 135 171 224 279 330 409
#     4  10  22  43  69  98 131 174 229 274 333 400
#
# _framework density 23.203395
#
# number of rings (size 3 to 8) (size 9 to 14) (size 15 to 20)
#    0.800    0.533    2.667    3.200    0.000    5.333 
#    0.000    0.000    0.000    0.000    0.000    0.000 
#    0.000    0.000    0.000    0.000    0.000    0.000 
#
# Total GULP energy -83614.103005 kJ/mol
# GULP energy per Si atom -5574.273534 kJ/mol
# Density = 2.315058 g / cm^3
# Si number density = 23.203395 Si / 1000 Ang^3
#
#
#
# Elastic Constant Matrix: (Units=GPa)
#
#
# Indices 1 2 3 4 5 6 
#
# 1 76.6811 -16.5742 29.9214 0.0054 -13.2358 -0.6740
# 2 -16.5742 72.4621 30.3002 -7.7976 -9.0543 5.1760
# 3 29.9214 30.3002 209.4235 1.5941 -14.1448 2.1545
# 4 0.0054 -7.7976 1.5941 39.1774 -0.4244 -1.3001
# 5 -13.2358 -9.0543 -14.1448 -0.4244 34.4286 2.7971
# 6 -0.6740 5.1760 2.1545 -1.3001 2.7971 25.5117
#
#
#
# Elastic Compliance Matrix: (Units=1/GPa)
#
#
# Indices 1 2 3 4 5 6 
#
# 1 0.016630 0.006072 -0.002782 0.001353 0.006966 -0.001252
# 2 0.006072 0.017877 -0.003029 0.003624 0.006137 -0.003699
# 3 -0.002782 -0.003029 0.005647 -0.000828 0.000446 -0.000027
# 4 0.001353 0.003624 -0.000828 0.026314 0.001412 0.000557
# 5 0.006966 0.006137 0.000446 0.001412 0.033924 -0.004746
# 6 -0.001252 -0.003699 -0.000027 0.000557 -0.004746 0.040466
#
#
# Mechanical properties :
#
#
# Convention : Reuss Voigt Hill
#
# Bulk Modulus (GPa) = 24.58334 49.54016 37.06175
# Shear Modulus (GPa) = 32.48997 40.81818 36.65407
#
# Velocity S-wave (km/s) = 3.74602 4.19877 3.97884
# Velocity P-wave (km/s) = 5.41553 6.70097 6.09224
#
# Compressibility (1/GPa) = 0.04067796
#
# Stress axis : x y z
#
# Youngs Moduli (GPa) = 60.13158 55.93819 177.07209
#
# Poissons Ratio (x) = -0.33968 0.49253
# Poissons Ratio (y) = -0.36514 0.53638
# Poissons Ratio (z) = 0.16726 0.16945
#
# Static dielectric constant tensor:
#      x y z
#    x 1.888020 0.029670 0.017400 
#    y 0.029670 1.863190 -0.001280 
#    z 0.017400 -0.001280 1.852030 
# 
# From -- ./inp_files/396281.got.cif
#   From: 2010.05.17/outbox.cif.g08.bks.cpg/sg2_199_cif.got.tgz:396281.got - 2010.06.03 11:33:40.
