data_PCOD9032854
_publ_section_title
;
Structure prediction by ZEFSAII (Michael W. Deem and Ramdas Pophale) SiO2 
 PCOD9032854
Probable space group: P -1
;
_chemical_formula_sum "Si O2"
_cell_formula_units_Z 15
_cell_length_a 6.391186
_cell_length_b 6.759449
_cell_length_c 15.487676
_cell_angle_alpha 70.914262
_cell_angle_beta 87.324003
_cell_angle_gamma 69.143386
_cell_volume 589.025563
_symmetry_space_group_name_H-M "P -1"
_symmetry_group_IT_number 2
_symmetry_cell_setting 'triclinic'
loop_
_space_group_symop_operation_xyz
x,y,z
-x,-y,-z
loop_
_atom_site_type_symbol
_atom_site_label
_atom_site_fract_x
_atom_site_fract_y
_atom_site_fract_z
Si Si1 0.685192 0.456372 0.575219
Si Si2 0.290561 0.856128 0.818858
Si Si3 0.500000 0.000000 0.500000
Si Si4 0.053370 0.754982 0.143853
Si Si5 0.939167 0.766344 0.529492
Si Si6 0.315625 0.896709 0.000705
Si Si7 0.059995 0.657977 0.724958
Si Si8 0.593233 0.065375 0.687522
O O1 0.500000 0.500000 0.500000
O O2 0.704525 0.698214 0.560579
O O3 0.380478 0.694457 0.333036
O O4 0.929477 0.321276 0.548576
O O5 0.257311 0.692950 0.770718
O O6 0.457952 0.980939 0.771691
O O7 0.349619 0.764810 0.927955
O O8 0.049427 0.055893 0.809074
O O9 0.225883 0.977055 0.506824
O O10 0.475003 0.059728 0.598868
O O11 0.286488 0.751957 0.102304
O O12 0.016400 0.535170 0.206782
O O13 0.895928 0.870190 0.048154
O O14 0.089707 0.634148 0.624787
O O15 0.500000 0.000000 0.000000
O O16 0.841404 0.882938 0.701967
#
# Coordination Sequence:
#
# PCOD9032854 Si02
#       8
#     2   2   1   2   2   2   2   2
#     4  11  24  41  66  91 128 181 234 280 334 396
#     4  10  25  42  67  99 131 171 220 272 331 402
#     4  10  22  44  56  96 128 174 230 270 336 382
#     4   9  23  45  68  97 130 173 213 265 338 402
#     4  10  25  42  66  94 130 184 228 284 336 393
#     4   9  21  44  75  96 131 170 213 270 331 404
#     4  11  26  41  65  98 137 172 220 278 328 398
#     4  11  26  40  64  96 133 177 223 281 329 389
#
# _framework density 25.465786000000001
#
# number of rings (size 3 to 8) (size 9 to 14) (size 15 to 20)
#    0.800    1.067    1.333    0.000    9.333    2.667 
#    0.000    1.333    0.000    0.000    0.000    0.000 
#    0.000    0.000    0.000    0.000    0.000    0.000 
#
# Total GULP energy -83589.172970 kJ/mol
# GULP energy per Si atom -5572.611531 kJ/mol
# Density = 2.540782 g / cm^3
# Si number density = 25.465786 Si / 1000 Ang^3
#
#
#
# Elastic Constant Matrix: (Units=GPa)
#
#
# Indices 1 2 3 4 5 6 
#
# 1 59.3457 15.6099 31.7663 3.1718 -7.0998 2.3819
# 2 15.6099 76.8747 32.0907 -8.0041 -5.8214 12.6438
# 3 31.7663 32.0907 97.5437 -18.3207 -36.9515 15.4624
# 4 3.1718 -8.0041 -18.3207 40.7688 4.0233 -9.4076
# 5 -7.0998 -5.8214 -36.9515 4.0233 50.9656 -6.0605
# 6 2.3819 12.6438 15.4624 -9.4076 -6.0605 50.3898
#
#
#
# Elastic Compliance Matrix: (Units=1/GPa)
#
#
# Indices 1 2 3 4 5 6 
#
# 1 0.021973 -0.001662 -0.008939 -0.005585 -0.003085 0.000708
# 2 -0.001662 0.015745 -0.005052 0.000614 -0.002442 -0.002501
# 3 -0.008939 -0.005052 0.021447 0.007626 0.012897 -0.001916
# 4 -0.005585 0.000614 0.007626 0.029038 0.002951 0.003546
# 5 -0.003085 -0.002442 0.012897 0.002951 0.028118 0.000734
# 6 0.000708 -0.002501 -0.001916 0.003546 0.000734 0.021778
#
#
# Mechanical properties :
#
#
# Convention : Reuss Voigt Hill
#
# Bulk Modulus (GPa) = 35.89393 43.63311 39.76352
# Shear Modulus (GPa) = 27.98147 38.71132 33.34639
#
# Velocity S-wave (km/s) = 3.31839 3.90311 3.62257
# Velocity P-wave (km/s) = 5.36729 6.12239 5.75723
#
# Compressibility (1/GPa) = 0.02785987
#
# Stress axis : x y z
#
# Youngs Moduli (GPa) = 45.50969 63.51284 46.62715
#
# Poissons Ratio (x) = 0.10555 0.41679
# Poissons Ratio (y) = 0.07563 0.23555
# Poissons Ratio (z) = 0.40680 0.32086
#
# Static dielectric constant tensor:
#      x y z
#    x 2.662090 0.026220 -0.094720 
#    y 0.026220 2.272140 -0.013830 
#    z -0.094720 -0.013830 2.077930 
# 
# From -- ./inp_files/546480.got.cif
#   From: 2010.05.17/outbox.cif.g08.bks.cpg/sg2_274_cif.got.tgz:546480.got - 2010.06.03 11:33:40.
