data_PCOD9032060
_publ_section_title
;
Structure prediction by ZEFSAII (Michael W. Deem and Ramdas Pophale) SiO2 
 PCOD9032060
Probable space group: P -1
;
_chemical_formula_sum "Si O2"
_cell_formula_units_Z 16
_cell_length_a 7.216549
_cell_length_b 7.730281
_cell_length_c 15.362250
_cell_angle_alpha 117.652887
_cell_angle_beta 119.233875
_cell_angle_gamma 81.852528
_cell_volume 658.410941
_symmetry_space_group_name_H-M "P -1"
_symmetry_group_IT_number 2
_symmetry_cell_setting 'triclinic'
loop_
_space_group_symop_operation_xyz
x,y,z
-x,-y,-z
loop_
_atom_site_type_symbol
_atom_site_label
_atom_site_fract_x
_atom_site_fract_y
_atom_site_fract_z
Si Si1 0.789447 0.149384 0.047139
Si Si2 0.884578 0.470638 0.818457
Si Si3 0.980543 0.109647 0.844052
Si Si4 0.675308 0.765281 0.613760
Si Si5 0.524097 0.410931 0.307773
Si Si6 0.379515 0.961385 0.835155
Si Si7 0.223052 0.804947 0.440638
Si Si8 0.114556 0.252515 0.506650
O O1 0.656313 0.156773 0.109045
O O2 0.928361 0.355146 0.112963
O O3 0.933111 0.974496 0.066046
O O4 0.609257 0.086978 0.920205
O O5 0.667936 0.573376 0.799692
O O6 0.846169 0.323189 0.691108
O O7 0.924507 0.328545 0.874054
O O8 0.181067 0.088604 0.819470
O O9 0.783761 0.956402 0.733179
O O10 0.410568 0.394864 0.372334
O O11 0.473503 0.813341 0.521976
O O12 0.862090 0.700079 0.579649
O O13 0.623700 0.206680 0.275541
O O14 0.695024 0.596080 0.376557
O O15 0.090799 0.728232 0.477871
O O16 0.162772 0.026394 0.467486
#
# Coordination Sequence:
#
# PCOD9032060 Si02
#       8
#     2   2   2   2   2   2   2   2
#     4   9  21  45  71  92 132 176 219 285 338 396
#     4  12  22  41  69  97 133 177 222 273 341 394
#     4  10  22  43  69  93 132 175 220 277 331 403
#     4  12  23  41  62  97 138 175 220 277 328 393
#     4  12  24  39  68  99 133 182 223 277 336 404
#     4   9  22  45  66  97 134 168 227 282 335 400
#     4  11  25  40  64  96 140 178 227 278 324 403
#     4  11  24  41  62  96 134 184 227 271 332 400
#
# _framework density 24.300934999999999
#
# number of rings (size 3 to 8) (size 9 to 14) (size 15 to 20)
#    0.750    0.500    3.750    2.250    1.750    1.500 
#    0.000    1.875    0.000    0.000    0.000    0.000 
#    0.000    0.000    0.000    0.000    0.000    0.000 
#
# Total GULP energy -89496.145456 kJ/mol
# GULP energy per Si atom -5593.509091 kJ/mol
# Density = 2.424563 g / cm^3
# Si number density = 24.300935 Si / 1000 Ang^3
#
#
#
# Elastic Constant Matrix: (Units=GPa)
#
#
# Indices 1 2 3 4 5 6 
#
# 1 110.0036 5.1320 32.1089 -7.3940 11.8103 11.5369
# 2 5.1320 107.6409 32.8721 -9.2632 10.9201 12.9231
# 3 32.1089 32.8721 122.1980 15.6950 29.8765 7.9481
# 4 -7.3940 -9.2632 15.6950 23.6188 5.3509 9.0579
# 5 11.8103 10.9201 29.8765 5.3509 44.3651 6.2053
# 6 11.5369 12.9231 7.9481 9.0579 6.2053 27.9037
#
#
#
# Elastic Compliance Matrix: (Units=1/GPa)
#
#
# Indices 1 2 3 4 5 6 
#
# 1 0.012099 0.002976 -0.004661 0.011573 -0.001010 -0.008585
# 2 0.002976 0.013218 -0.005252 0.013656 -0.000740 -0.010124
# 3 -0.004661 -0.005252 0.013595 -0.013608 -0.005848 0.006205
# 4 0.011573 0.013656 -0.013608 0.072396 -0.001766 -0.030341
# 5 -0.001010 -0.000740 -0.005848 -0.001766 0.027581 -0.003134
# 6 -0.008585 -0.010124 0.006205 -0.030341 -0.003134 0.052855
#
#
# Mechanical properties :
#
#
# Convention : Reuss Voigt Hill
#
# Bulk Modulus (GPa) = 39.94082 53.34097 46.64089
# Shear Modulus (GPa) = 23.36841 37.15949 30.26395
#
# Velocity S-wave (km/s) = 3.10437 3.91466 3.53283
# Velocity P-wave (km/s) = 5.41490 6.51388 5.98965
#
# Compressibility (1/GPa) = 0.02503704
#
# Stress axis : x y z
#
# Youngs Moduli (GPa) = 82.65247 75.65480 73.55641
#
# Poissons Ratio (x) = -0.22511 0.34283
# Poissons Ratio (y) = -0.24593 0.38633
# Poissons Ratio (z) = 0.38522 0.39735
#
# Static dielectric constant tensor:
#      x y z
#    x 1.959250 -0.008740 -0.052560 
#    y -0.008740 1.914440 -0.008610 
#    z -0.052560 -0.008610 1.970280 
# 
# From -- ./inp_files/587567.got.cif
#   From: 2010.05.17/outbox.cif.g08.bks.cpg/sg2_294_cif.got.tgz:587567.got - 2010.06.03 11:33:40.
