data_PCOD9032896
_publ_section_title
;
Structure prediction by ZEFSAII (Michael W. Deem and Ramdas Pophale) SiO2 
 PCOD9032896
Probable space group: P -1
;
_chemical_formula_sum "Si O2"
_cell_formula_units_Z 16
_cell_length_a 19.306986
_cell_length_b 23.371575
_cell_length_c 13.419290
_cell_angle_alpha 21.614790
_cell_angle_beta 153.484478
_cell_angle_gamma 163.791859
_cell_volume 622.477103
_symmetry_space_group_name_H-M "P -1"
_symmetry_group_IT_number 2
_symmetry_cell_setting 'triclinic'
loop_
_space_group_symop_operation_xyz
x,y,z
-x,-y,-z
loop_
_atom_site_type_symbol
_atom_site_label
_atom_site_fract_x
_atom_site_fract_y
_atom_site_fract_z
Si Si1 0.218915 0.043955 0.692392
Si Si2 0.406491 0.002582 0.644371
Si Si3 0.341875 0.438774 0.488727
Si Si4 0.179499 0.706827 0.642550
Si Si5 0.947851 0.991449 0.833665
Si Si6 0.060556 0.405273 0.808399
Si Si7 0.202488 0.420079 0.771959
Si Si8 0.125079 0.735099 0.900088
O O1 0.214384 0.949878 0.734513
O O2 0.467201 0.331763 0.563085
O O3 0.000000 0.000000 0.500000
O O4 0.168471 0.866140 0.996966
O O5 0.398337 0.918774 0.659048
O O6 0.170941 0.932882 0.444712
O O7 0.320312 0.845199 0.887376
O O8 0.625443 0.293919 0.480813
O O9 0.500000 0.500000 0.500000
O O10 0.182869 0.181977 0.754563
O O11 0.143751 0.412520 0.241770
O O12 0.222461 0.598353 0.795636
O O13 0.060725 0.743943 0.357273
O O14 0.948592 0.469198 0.797645
O O15 0.000000 0.000000 0.000000
O O16 0.750022 0.710343 0.000056
O O17 0.187572 0.387467 0.924773
O O18 0.000000 0.500000 0.500000
#
# Coordination Sequence:
#
# PCOD9032896 Si02
#       8
#     2   2   2   2   2   2   2   2
#     4  11  22  40  67  97 128 169 225 270 328 397
#     4  11  24  40  66  93 129 178 216 270 334 400
#     4  11  23  42  68  92 133 178 216 278 338 389
#     4  10  22  44  62  93 132 168 226 270 328 399
#     4  11  24  43  64  98 135 171 225 278 333 401
#     4   9  22  42  65  95 135 170 216 283 326 402
#     4  11  23  42  66  92 134 172 219 273 338 390
#     4  10  24  40  62  98 129 165 226 270 325 404
#
# _framework density 25.703757
#
# number of rings (size 3 to 8) (size 9 to 14) (size 15 to 20)
#    0.000    1.500    2.500    1.500    3.500    5.000 
#    0.000    0.000    0.000    0.000    0.000    0.000 
#    0.000    0.000    0.000    0.000    0.000    0.000 
#
# Total GULP energy -89435.340340 kJ/mol
# GULP energy per Si atom -5589.708771 kJ/mol
# Density = 2.564525 g / cm^3
# Si number density = 25.703757 Si / 1000 Ang^3
#
#
#
# Elastic Constant Matrix: (Units=GPa)
#
#
# Indices 1 2 3 4 5 6 
#
# 1 134.3678 49.0488 28.6968 -17.9802 -9.9878 -36.3215
# 2 49.0488 138.1800 27.4149 -26.8934 -1.6126 -32.6697
# 3 28.6968 27.4149 92.4557 -20.2958 -13.1741 -8.8111
# 4 -17.9802 -26.8934 -20.2958 31.4398 -4.9622 8.4480
# 5 -9.9878 -1.6126 -13.1741 -4.9622 42.7698 -16.1133
# 6 -36.3215 -32.6697 -8.8111 8.4480 -16.1133 51.7013
#
#
#
# Elastic Compliance Matrix: (Units=1/GPa)
#
#
# Indices 1 2 3 4 5 6 
#
# 1 0.011154 -0.001073 -0.000700 0.003718 0.005895 0.008269
# 2 -0.001073 0.010392 -0.000236 0.007105 0.002980 0.005540
# 3 -0.000700 -0.000236 0.014121 0.008876 0.006034 0.002196
# 4 0.003718 0.007105 0.008876 0.046266 0.010917 0.004457
# 5 0.005895 0.002980 0.006034 0.010917 0.033969 0.015856
# 6 0.008269 0.005540 0.002196 0.004457 0.015856 0.033240
#
#
# Mechanical properties :
#
#
# Convention : Reuss Voigt Hill
#
# Bulk Modulus (GPa) = 31.59620 63.92494 47.76057
# Shear Modulus (GPa) = 30.54193 42.50505 36.52349
#
# Velocity S-wave (km/s) = 3.45081 4.07092 3.77362
# Velocity P-wave (km/s) = 5.31004 6.85714 6.13258
#
# Compressibility (1/GPa) = 0.03164937
#
# Stress axis : x y z
#
# Youngs Moduli (GPa) = 89.65157 96.22578 70.81798
#
# Poissons Ratio (x) = 0.10327 0.04955
# Poissons Ratio (y) = 0.09621 0.01672
# Poissons Ratio (z) = 0.06273 0.02272
#
# Static dielectric constant tensor:
#      x y z
#    x 2.169080 0.059050 -0.027740 
#    y 0.059050 2.042500 0.009930 
#    z -0.027740 0.009930 2.024280 
# 
# From -- ./inp_files/467055.got.cif
#   From: 2010.05.17/outbox.cif.g08.bks.cpg/sg2_234_cif.got.tgz:467055.got - 2010.06.03 11:33:40.
