data_PCOD9032852
_publ_section_title
;
Structure prediction by ZEFSAII (Michael W. Deem and Ramdas Pophale) SiO2 
 PCOD9032852
Probable space group: P -1
;
_chemical_formula_sum "Si O2"
_cell_formula_units_Z 13
_cell_length_a 9.836033
_cell_length_b 8.263159
_cell_length_c 8.123041
_cell_angle_alpha 89.544044
_cell_angle_beta 136.904827
_cell_angle_gamma 93.967876
_cell_volume 449.106480
_symmetry_space_group_name_H-M "P -1"
_symmetry_group_IT_number 2
_symmetry_cell_setting 'triclinic'
loop_
_space_group_symop_operation_xyz
x,y,z
-x,-y,-z
loop_
_atom_site_type_symbol
_atom_site_label
_atom_site_fract_x
_atom_site_fract_y
_atom_site_fract_z
Si Si1 0.648359 0.685597 0.990159
Si Si2 0.587796 0.650522 0.299706
Si Si3 0.926070 0.968804 0.158528
Si Si4 0.294061 0.889325 0.333543
Si Si5 0.701687 0.186858 0.149426
Si Si6 0.834784 0.467737 0.717441
Si Si7 0.000000 0.500000 0.500000
O O1 0.558455 0.515427 0.841171
O O2 0.460523 0.792269 0.851619
O O3 0.071005 0.561843 0.375898
O O4 0.812161 0.791237 0.033629
O O5 0.717927 0.626471 0.573101
O O6 0.721169 0.645469 0.244696
O O7 0.450958 0.792693 0.140699
O O8 0.822818 0.033421 0.229699
O O9 0.854803 0.082884 0.950962
O O10 0.160018 0.955064 0.363001
O O11 0.304333 0.696384 0.360392
O O12 0.500000 0.000000 0.500000
O O13 0.861607 0.340484 0.296914
O O14 0.000000 0.500000 0.000000
#
# Coordination Sequence:
#
# PCOD9032852 Si02
#       7
#     2   2   2   2   2   2   1
#     4   9  18  41  80 121 155 209 266 346 408 499
#     4   9  20  42  75 122 157 207 265 339 418 482
#     4  11  24  49  76 112 162 214 281 325 421 508
#     4  11  28  51  76 108 167 227 269 345 417 500
#     4  10  22  43  80 122 159 208 270 346 418 497
#     4  12  26  49  84 120 162 219 285 350 411 497
#     4  12  24  46  82 122 162 210 282 342 420 488
#
# _framework density 28.946366000000001
#
# number of rings (size 3 to 8) (size 9 to 14) (size 15 to 20)
#    0.923    0.615    1.538    2.308    4.308    0.000 
#    8.308    2.308    0.000    0.000    0.000    0.000 
#    0.000    0.000    0.000    0.000    0.000    0.000 
#
# Total GULP energy -72731.689826 kJ/mol
# GULP energy per Si atom -5594.745371 kJ/mol
# Density = 2.888048 g / cm^3
# Si number density = 28.946366 Si / 1000 Ang^3
#
#
#
# Elastic Constant Matrix: (Units=GPa)
#
#
# Indices 1 2 3 4 5 6 
#
# 1 101.1349 28.6712 41.6025 6.7910 19.5587 4.1644
# 2 28.6712 87.6416 36.9918 6.8715 15.8348 8.8343
# 3 41.6025 36.9918 187.9437 -2.8355 -9.9370 5.5286
# 4 6.7910 6.8715 -2.8355 53.5378 17.3491 18.3791
# 5 19.5587 15.8348 -9.9370 17.3491 70.1346 0.0010
# 6 4.1644 8.8343 5.5286 18.3791 0.0010 58.0241
#
#
#
# Elastic Compliance Matrix: (Units=1/GPa)
#
#
# Indices 1 2 3 4 5 6 
#
# 1 0.012175 -0.002365 -0.002394 -0.000287 -0.003130 -0.000195
# 2 -0.002365 0.013830 -0.002297 -0.000128 -0.002757 -0.001677
# 3 -0.002394 -0.002297 0.006420 0.000358 0.002007 -0.000204
# 4 -0.000287 -0.000128 0.000358 0.023051 -0.005542 -0.007295
# 5 -0.003130 -0.002757 0.002007 -0.005542 0.017409 0.002208
# 6 -0.000195 -0.001677 -0.000204 -0.007295 0.002208 0.019834
#
#
# Mechanical properties :
#
#
# Convention : Reuss Voigt Hill
#
# Bulk Modulus (GPa) = 54.60168 65.69459 60.14813
# Shear Modulus (GPa) = 44.27298 54.30297 49.28797
#
# Velocity S-wave (km/s) = 3.91510 4.33596 4.13090
# Velocity P-wave (km/s) = 6.27227 6.91462 6.60126
#
# Compressibility (1/GPa) = 0.01831446
#
# Stress axis : x y z
#
# Youngs Moduli (GPa) = 82.13239 72.30398 155.75822
#
# Poissons Ratio (x) = 0.17102 0.37283
# Poissons Ratio (y) = 0.19426 0.35777
# Poissons Ratio (z) = 0.19660 0.16608
#
# Static dielectric constant tensor:
#      x y z
#    x 2.400930 -0.035480 -0.092230 
#    y -0.035480 2.115030 0.055460 
#    z -0.092230 0.055460 2.055480 
# 
# From -- ./inp_files/415067.got.cif
#   From: 2010.05.17/outbox.cif.g08.bks.cpg/sg2_208_cif.got.tgz:415067.got - 2010.06.03 11:33:40.
