data_PCOD9032213
_publ_section_title
;
Structure prediction by ZEFSAII (Michael W. Deem and Ramdas Pophale) SiO2 
 PCOD9032213
Probable space group: P -1
;
_chemical_formula_sum "Si O2"
_cell_formula_units_Z 16
_cell_length_a 19.299714
_cell_length_b 6.573457
_cell_length_c 15.486765
_cell_angle_alpha 77.330922
_cell_angle_beta 157.848011
_cell_angle_gamma 106.841747
_cell_volume 702.487007
_symmetry_space_group_name_H-M "P -1"
_symmetry_group_IT_number 2
_symmetry_cell_setting 'triclinic'
loop_
_space_group_symop_operation_xyz
x,y,z
-x,-y,-z
loop_
_atom_site_type_symbol
_atom_site_label
_atom_site_fract_x
_atom_site_fract_y
_atom_site_fract_z
Si Si1 0.460565 0.999054 0.838161
Si Si2 0.166351 0.984556 0.260848
Si Si3 0.034208 0.843019 0.314816
Si Si4 0.548533 0.372828 0.666299
Si Si5 0.984882 0.414676 0.391874
Si Si6 0.740088 0.090346 0.029400
Si Si7 0.378965 0.301773 0.828002
Si Si8 0.584581 0.238923 0.536568
O O1 0.456879 0.246985 0.830647
O O2 0.237185 0.895329 0.593025
O O3 0.537886 0.948491 0.839106
O O4 0.584786 0.895228 0.056160
O O5 0.336947 0.205907 0.441247
O O6 0.079642 0.911827 0.261587
O O7 0.260845 0.801287 0.347195
O O8 0.000000 0.000000 0.000000
O O9 0.957569 0.598113 0.277332
O O10 0.888235 0.973264 0.170927
O O11 0.635384 0.377317 0.669488
O O12 0.544009 0.613764 0.667645
O O13 0.685309 0.262425 0.888130
O O14 0.821707 0.207347 0.201477
O O15 0.000000 0.500000 0.500000
O O16 0.171718 0.338170 0.587346
O O17 0.500000 0.500000 0.000000
O O18 0.500000 0.000000 0.500000
#
# Coordination Sequence:
#
# PCOD9032213 Si02
#       8
#     2   2   2   2   2   2   2   2
#     4  11  24  43  70  95 137 184 232 294 352 413
#     4  11  24  43  70 104 142 183 235 287 350 424
#     4  12  26  46  69 104 142 186 238 289 352 423
#     4  10  22  43  70 101 138 187 228 287 358 413
#     4  12  27  44  68 106 141 186 242 292 355 419
#     4  12  26  44  68 100 142 180 235 292 348 417
#     4  11  22  42  68  95 133 179 231 292 350 413
#     4   9  21  42  70  98 138 177 230 283 354 418
#
# _framework density 22.776223999999999
#
# number of rings (size 3 to 8) (size 9 to 14) (size 15 to 20)
#    0.000    1.000    3.750    2.250    1.750    8.500 
#    2.250    0.000    0.000    0.000    0.000    0.000 
#    0.000    0.000    0.000    0.000    0.000    0.000 
#
# Total GULP energy -89217.222137 kJ/mol
# GULP energy per Si atom -5576.076384 kJ/mol
# Density = 2.272438 g / cm^3
# Si number density = 22.776224 Si / 1000 Ang^3
#
#
#
# Elastic Constant Matrix: (Units=GPa)
#
#
# Indices 1 2 3 4 5 6 
#
# 1 125.6612 47.8914 40.6605 -21.6267 30.4328 -12.3306
# 2 47.8914 124.8129 53.6747 -34.0220 17.7097 -6.9834
# 3 40.6605 53.6747 121.7852 -34.0089 15.2703 -11.8625
# 4 -21.6267 -34.0220 -34.0089 51.2760 -9.5880 2.8097
# 5 30.4328 17.7097 15.2703 -9.5880 45.2943 -12.9187
# 6 -12.3306 -6.9834 -11.8625 2.8097 -12.9187 34.4706
#
#
#
# Elastic Compliance Matrix: (Units=1/GPa)
#
#
# Indices 1 2 3 4 5 6 
#
# 1 0.010956 -0.002474 -0.001563 0.000879 -0.005464 0.000761
# 2 -0.002474 0.011576 -0.002912 0.004534 -0.001004 -0.000288
# 3 -0.001563 -0.002912 0.011651 0.005006 0.000022 0.002461
# 4 0.000879 0.004534 0.005006 0.026490 0.001997 0.001545
# 5 -0.005464 -0.001004 0.000022 0.001997 0.028997 0.008554
# 6 0.000761 -0.000288 0.002461 0.001545 0.008554 0.033151
#
#
# Mechanical properties :
#
#
# Convention : Reuss Voigt Hill
#
# Bulk Modulus (GPa) = 49.29681 72.96807 61.13244
# Shear Modulus (GPa) = 34.84823 41.54367 38.19595
#
# Velocity S-wave (km/s) = 3.91580 4.27546 4.09957
# Velocity P-wave (km/s) = 6.49119 7.51526 7.02192
#
# Compressibility (1/GPa) = 0.02028529
#
# Stress axis : x y z
#
# Youngs Moduli (GPa) = 91.27691 86.38695 85.82939
#
# Poissons Ratio (x) = 0.21375 0.13411
# Poissons Ratio (y) = 0.22585 0.24992
# Poissons Ratio (z) = 0.14262 0.25154
#
# Static dielectric constant tensor:
#      x y z
#    x 2.087210 -0.008110 0.098010 
#    y -0.008110 1.902750 0.030510 
#    z 0.098010 0.030510 2.314220 
# 
# From -- ./inp_files/576777.got.cif
#   From: 2010.05.17/outbox.cif.g08.bks.cpg/sg2_289_cif.got.tgz:576777.got - 2010.06.03 11:33:40.
