data_PCOD9032456
_publ_section_title
;
Structure prediction by ZEFSAII (Michael W. Deem and Ramdas Pophale) SiO2 
 PCOD9032456
Probable space group: P -1
;
_chemical_formula_sum "Si O2"
_cell_formula_units_Z 14
_cell_length_a 10.426261
_cell_length_b 9.691268
_cell_length_c 7.235142
_cell_angle_alpha 72.361812
_cell_angle_beta 102.795416
_cell_angle_gamma 135.601295
_cell_volume 487.428709
_symmetry_space_group_name_H-M "P -1"
_symmetry_group_IT_number 2
_symmetry_cell_setting 'triclinic'
loop_
_space_group_symop_operation_xyz
x,y,z
-x,-y,-z
loop_
_atom_site_type_symbol
_atom_site_label
_atom_site_fract_x
_atom_site_fract_y
_atom_site_fract_z
Si Si1 0.791324 0.059986 0.181310
Si Si2 0.239111 0.469680 0.404046
Si Si3 0.963897 0.399914 0.790750
Si Si4 0.689293 0.682125 0.180252
Si Si5 0.614983 0.318573 0.278014
Si Si6 0.174931 0.208514 0.217498
Si Si7 0.738713 0.054873 0.576315
O O1 0.853743 0.226783 0.983039
O O2 0.721082 0.070804 0.346822
O O3 0.979438 0.117570 0.257660
O O4 0.660199 0.829348 0.158410
O O5 0.362023 0.663864 0.497713
O O6 0.307738 0.427957 0.270500
O O7 0.099216 0.482061 0.276104
O O8 0.185152 0.551680 0.800626
O O9 0.892549 0.271941 0.630380
O O10 0.560768 0.445220 0.174268
O O11 0.821908 0.785827 0.003905
O O12 0.785310 0.678967 0.391287
O O13 0.443283 0.082375 0.298413
O O14 0.207694 0.072028 0.346240
#
# Coordination Sequence:
#
# PCOD9032456 Si02
#       7
#     2   2   2   2   2   2   2
#     4  12  23  43  74 115 143 186 260 297 359 454
#     4  10  25  44  71 105 149 192 240 304 370 435
#     4  12  25  50  74 106 152 194 238 310 369 433
#     4  10  22  43  71 107 144 186 252 297 356 450
#     4  10  24  48  70 108 150 188 249 298 364 449
#     4  12  22  42  75 107 140 196 242 301 370 423
#     4  12  26  44  78 109 147 193 242 310 369 424
#
# _framework density 28.722151
#
# number of rings (size 3 to 8) (size 9 to 14) (size 15 to 20)
#    0.857    0.000    4.286    3.000    0.000    5.143 
#    2.571    0.714    0.000    0.000    0.000    0.000 
#    0.000    0.000    0.000    0.000    0.000    0.000 
#
# Total GULP energy -78296.082200 kJ/mol
# GULP energy per Si atom -5592.577300 kJ/mol
# Density = 2.865678 g / cm^3
# Si number density = 28.722151 Si / 1000 Ang^3
#
#
#
# Elastic Constant Matrix: (Units=GPa)
#
#
# Indices 1 2 3 4 5 6 
#
# 1 112.6801 22.0862 50.7943 -31.9549 7.5236 -35.5087
# 2 22.0862 159.7400 45.8573 -34.3689 -5.8072 -5.4046
# 3 50.7943 45.8573 183.9131 -25.3238 -15.3277 -18.3953
# 4 -31.9549 -34.3689 -25.3238 47.0138 -11.0678 -1.5471
# 5 7.5236 -5.8072 -15.3277 -11.0678 32.6042 -17.7845
# 6 -35.5087 -5.4046 -18.3953 -1.5471 -17.7845 51.8464
#
#
#
# Elastic Compliance Matrix: (Units=1/GPa)
#
#
# Indices 1 2 3 4 5 6 
#
# 1 0.017785 0.002160 -0.000755 0.016197 0.010221 0.016127
# 2 0.002160 0.008429 -0.000452 0.009048 0.006407 0.004665
# 3 -0.000755 -0.000452 0.007746 0.005494 0.008465 0.005251
# 4 0.016197 0.009048 0.005494 0.050241 0.031933 0.026439
# 5 0.010221 0.006407 0.008465 0.031933 0.062264 0.032982
# 6 0.016127 0.004665 0.005251 0.026439 0.032982 0.044785
#
#
# Mechanical properties :
#
#
# Convention : Reuss Voigt Hill
#
# Bulk Modulus (GPa) = 27.88222 77.08988 52.48605
# Shear Modulus (GPa) = 24.83876 48.79924 36.81900
#
# Velocity S-wave (km/s) = 2.94393 4.12638 3.58425
# Velocity P-wave (km/s) = 4.61349 7.04278 5.95336
#
# Compressibility (1/GPa) = 0.03586515
#
# Stress axis : x y z
#
# Youngs Moduli (GPa) = 56.22796 118.64121 129.10130
#
# Poissons Ratio (x) = -0.25626 0.09752
# Poissons Ratio (y) = -0.12145 0.05831
# Poissons Ratio (z) = 0.04247 0.05359
#
# Static dielectric constant tensor:
#      x y z
#    x 2.222960 0.101070 0.060590 
#    y 0.101070 2.422730 0.095080 
#    z 0.060590 0.095080 2.210000 
# 
# From -- ./inp_files/243595.got.cif
#   From: 2010.05.17/outbox.cif.g08.bks.cpg/sg2_122_cif.got.tgz:243595.got - 2010.06.03 11:33:40.
