data_PCOD9032000
_publ_section_title
;
Structure prediction by ZEFSAII (Michael W. Deem and Ramdas Pophale) SiO2 
 PCOD9032000
Probable space group: P -1
;
_chemical_formula_sum "Si O2"
_cell_formula_units_Z 16
_cell_length_a 18.106966
_cell_length_b 12.750390
_cell_length_c 20.560011
_cell_angle_alpha 30.005512
_cell_angle_beta 28.725037
_cell_angle_gamma 18.622965
_cell_volume 709.359870
_symmetry_space_group_name_H-M "P -1"
_symmetry_group_IT_number 2
_symmetry_cell_setting 'triclinic'
loop_
_space_group_symop_operation_xyz
x,y,z
-x,-y,-z
loop_
_atom_site_type_symbol
_atom_site_label
_atom_site_fract_x
_atom_site_fract_y
_atom_site_fract_z
Si Si1 0.843665 0.290131 0.612706
Si Si2 0.710877 0.301060 0.575166
Si Si3 0.621767 0.929858 0.813238
Si Si4 0.794923 0.895154 0.930120
Si Si5 0.361245 0.305280 0.318035
Si Si6 0.245072 0.813349 0.066435
Si Si7 0.623110 0.079712 0.590898
Si Si8 0.927604 0.850851 0.106873
O O1 0.685186 0.451281 0.582427
O O2 0.721481 0.571207 0.610441
O O3 0.861851 0.026101 0.764572
O O4 0.118454 0.087039 0.500982
O O5 0.565119 0.555204 0.491126
O O6 0.640912 0.133458 0.723031
O O7 0.000000 0.000000 0.500000
O O8 0.880559 0.533622 0.816454
O O9 0.527567 0.073749 0.734412
O O10 0.449963 0.970968 0.969360
O O11 0.715695 0.084545 0.957480
O O12 0.000000 0.500000 0.000000
O O13 0.179459 0.658921 0.229166
O O14 0.343232 0.117725 0.389237
O O15 0.647658 0.078311 0.216790
O O16 0.500000 0.500000 0.000000
O O17 0.062401 0.118713 0.994324
O O18 0.000000 0.000000 0.000000
#
# Coordination Sequence:
#
# PCOD9032000 Si02
#       8
#     2   2   2   2   2   2   2   2
#     4  11  26  48  68 103 147 178 232 295 355 412
#     4  12  27  46  70 101 141 188 240 282 342 431
#     4  12  25  44  74 103 137 188 237 281 350 425
#     4  11  25  44  69 102 139 180 230 296 357 410
#     4  10  22  43  69 103 137 181 234 293 350 408
#     4   9  19  40  65  96 138 178 222 279 345 417
#     4  12  25  48  74  98 139 191 237 284 348 421
#     4  11  21  40  69 106 139 181 230 287 345 425
#
# _framework density 22.555547000000001
#
# number of rings (size 3 to 8) (size 9 to 14) (size 15 to 20)
#    0.000    1.000    1.250    6.750    3.500    1.000 
#   13.500    0.000    0.000    0.000    0.000    0.000 
#    0.000    0.000    0.000    0.000    0.000    0.000 
#
# Total GULP energy -89373.232620 kJ/mol
# GULP energy per Si atom -5585.827039 kJ/mol
# Density = 2.250421 g / cm^3
# Si number density = 22.555547 Si / 1000 Ang^3
#
#
#
# Elastic Constant Matrix: (Units=GPa)
#
#
# Indices 1 2 3 4 5 6 
#
# 1 101.4823 10.9239 20.7933 -9.7609 -0.9437 4.5954
# 2 10.9239 65.4349 10.2536 -9.6919 -6.4356 -2.2259
# 3 20.7933 10.2536 87.0045 -1.6132 -21.7630 -8.9837
# 4 -9.7609 -9.6919 -1.6132 27.6880 5.5884 0.8260
# 5 -0.9437 -6.4356 -21.7630 5.5884 31.9382 -4.9675
# 6 4.5954 -2.2259 -8.9837 0.8260 -4.9675 41.5158
#
#
#
# Elastic Compliance Matrix: (Units=1/GPa)
#
#
# Indices 1 2 3 4 5 6 
#
# 1 0.011193 -0.001123 -0.003600 0.004120 -0.003470 -0.002575
# 2 -0.001123 0.016579 -0.001027 0.004940 0.001886 0.000918
# 3 -0.003600 -0.001027 0.015950 -0.003269 0.011950 0.005290
# 4 0.004120 0.004940 -0.003269 0.040947 -0.008704 -0.002755
# 5 -0.003470 0.001886 0.011950 -0.008704 0.042550 0.008335
# 6 -0.002575 0.000918 0.005290 -0.002755 0.008335 0.026618
#
#
# Mechanical properties :
#
#
# Convention : Reuss Voigt Hill
#
# Bulk Modulus (GPa) = 31.03590 37.54040 34.28815
# Shear Modulus (GPa) = 28.39637 34.35847 31.37742
#
# Velocity S-wave (km/s) = 3.55202 3.90716 3.73382
# Velocity P-wave (km/s) = 5.53282 6.08557 5.81577
#
# Compressibility (1/GPa) = 0.03222075
#
# Stress axis : x y z
#
# Youngs Moduli (GPa) = 89.34012 60.31661 62.69662
#
# Poissons Ratio (x) = 0.06774 0.22573
# Poissons Ratio (y) = 0.10034 0.06441
# Poissons Ratio (z) = 0.32165 0.06196
#
# Static dielectric constant tensor:
#      x y z
#    x 2.744830 0.276600 0.765520 
#    y 0.276600 1.922320 0.214570 
#    z 0.765520 0.214570 2.512890 
# 
# From -- ./inp_files/600022.got.cif
#   From: 2010.05.17/outbox.cif.g08.bks.cpg/sg2_301_cif.got.tgz:600022.got - 2010.06.03 11:33:40.
