data_PCOD9032145
_publ_section_title
;
Structure prediction by ZEFSAII (Michael W. Deem and Ramdas Pophale) SiO2 
 PCOD9032145
Probable space group: P -1
;
_chemical_formula_sum "Si O2"
_cell_formula_units_Z 16
_cell_length_a 11.797776
_cell_length_b 19.359976
_cell_length_c 9.009403
_cell_angle_alpha 39.570824
_cell_angle_beta 78.307749
_cell_angle_gamma 48.105157
_cell_volume 734.656929
_symmetry_space_group_name_H-M "P -1"
_symmetry_group_IT_number 2
_symmetry_cell_setting 'triclinic'
loop_
_space_group_symop_operation_xyz
x,y,z
-x,-y,-z
loop_
_atom_site_type_symbol
_atom_site_label
_atom_site_fract_x
_atom_site_fract_y
_atom_site_fract_z
Si Si1 0.202660 0.799698 0.354425
Si Si2 0.777380 0.864128 0.061408
Si Si3 0.771952 0.889187 0.672759
Si Si4 0.687723 0.713983 0.486148
Si Si5 0.911315 0.166636 0.341701
Si Si6 0.290047 0.290319 0.163505
Si Si7 0.180846 0.597731 0.529224
Si Si8 0.640105 0.535497 0.624785
O O1 0.172196 0.814385 0.513663
O O2 0.247412 0.644799 0.536978
O O3 0.399196 0.718558 0.399127
O O4 0.000000 0.000000 0.000000
O O5 0.783766 0.735981 0.328410
O O6 0.947705 0.795999 0.218828
O O7 0.818922 0.838312 0.918713
O O8 0.553953 0.079592 0.793553
O O9 0.795259 0.757127 0.800231
O O10 0.915267 0.876081 0.601282
O O11 0.532630 0.102159 0.378022
O O12 0.745509 0.676836 0.704949
O O13 0.726512 0.570785 0.634922
O O14 0.737900 0.356660 0.975193
O O15 0.000000 0.000000 0.500000
O O16 0.205001 0.463370 0.823687
O O17 0.298933 0.506310 0.493660
#
# Coordination Sequence:
#
# PCOD9032145 Si02
#       8
#     2   2   2   2   2   2   2   2
#     4  12  29  47  70 102 137 179 235 287 340 400
#     4  10  22  43  69  98 141 177 223 269 352 403
#     4  10  23  45  67  99 137 180 222 270 350 403
#     4  10  23  42  71 101 139 180 223 278 340 415
#     4  12  28  46  75  97 135 185 230 281 342 413
#     4  10  24  40  70 103 140 171 221 287 335 407
#     4  12  25  43  72 103 138 176 228 287 336 407
#     4  12  26  46  71  99 138 185 230 278 343 406
#
# _framework density 21.778873000000001
#
# number of rings (size 3 to 8) (size 9 to 14) (size 15 to 20)
#    0.000    1.000    1.250    3.750   10.500    2.500 
#    0.000    0.000    0.000    0.000    0.000    0.000 
#    0.000    0.000    0.000    0.000    0.000    0.000 
#
# Total GULP energy -89634.657079 kJ/mol
# GULP energy per Si atom -5602.166067 kJ/mol
# Density = 2.172930 g / cm^3
# Si number density = 21.778873 Si / 1000 Ang^3
#
#
#
# Elastic Constant Matrix: (Units=GPa)
#
#
# Indices 1 2 3 4 5 6 
#
# 1 65.9930 -7.0010 -2.5774 -13.2570 3.1503 9.5759
# 2 -7.0010 61.6878 10.2037 0.8297 -14.7140 14.9570
# 3 -2.5774 10.2037 96.6439 5.2055 -6.8346 6.8604
# 4 -13.2570 0.8297 5.2055 28.5755 2.4464 -4.1731
# 5 3.1503 -14.7140 -6.8346 2.4464 31.7482 -8.7555
# 6 9.5759 14.9570 6.8604 -4.1731 -8.7555 46.1033
#
#
#
# Elastic Compliance Matrix: (Units=1/GPa)
#
#
# Indices 1 2 3 4 5 6 
#
# 1 0.017678 0.002348 -0.000068 0.007743 -0.002431 -0.004184
# 2 0.002348 0.019701 -0.001085 -0.000693 0.007226 -0.005408
# 3 -0.000068 -0.001085 0.010782 -0.002273 0.001690 -0.001123
# 4 0.007743 -0.000693 -0.002273 0.039633 -0.004149 0.001754
# 5 -0.002431 0.007226 0.001690 -0.004149 0.037031 0.004566
# 6 -0.004184 -0.005408 -0.001123 0.001754 0.004566 0.025507
#
#
# Mechanical properties :
#
#
# Convention : Reuss Voigt Hill
#
# Bulk Modulus (GPa) = 19.78246 25.06393 22.42319
# Shear Modulus (GPa) = 30.34126 36.19870 33.26998
#
# Velocity S-wave (km/s) = 3.73654 4.08131 3.91273
# Velocity P-wave (km/s) = 5.26486 5.80886 5.54353
#
# Compressibility (1/GPa) = 0.05054983
#
# Stress axis : x y z
#
# Youngs Moduli (GPa) = 56.56690 50.75942 92.74987
#
# Poissons Ratio (x) = -0.11919 0.00634
# Poissons Ratio (y) = -0.13283 0.10065
# Poissons Ratio (z) = 0.00387 0.05508
#
# Static dielectric constant tensor:
#      x y z
#    x 1.781030 -0.009000 0.016000 
#    y -0.009000 1.732240 -0.034350 
#    z 0.016000 -0.034350 1.787130 
# 
# From -- ./inp_files/186978.got.cif
#   From: 2010.05.17/outbox.cif.g08.bks.cpg/sg2_94_cif.got.tgz:186978.got - 2010.06.03 11:33:40.
