data_PCOD9032981
_publ_section_title
;
Structure prediction by ZEFSAII (Michael W. Deem and Ramdas Pophale) SiO2 
 PCOD9032981
Probable space group: P -1
;
_chemical_formula_sum "Si O2"
_cell_formula_units_Z 14
_cell_length_a 8.804026
_cell_length_b 12.629201
_cell_length_c 22.090125
_cell_angle_alpha 31.046514
_cell_angle_beta 40.121883
_cell_angle_gamma 62.098399
_cell_volume 674.517204
_symmetry_space_group_name_H-M "P -1"
_symmetry_group_IT_number 2
_symmetry_cell_setting 'triclinic'
loop_
_space_group_symop_operation_xyz
x,y,z
-x,-y,-z
loop_
_atom_site_type_symbol
_atom_site_label
_atom_site_fract_x
_atom_site_fract_y
_atom_site_fract_z
Si Si1 0.948299 0.532518 0.690282
Si Si2 0.608582 0.367275 0.316489
Si Si3 0.814872 0.329188 0.582893
Si Si4 0.063082 0.052473 0.285230
Si Si5 0.765512 0.711082 0.213925
Si Si6 0.824513 0.076788 0.462374
Si Si7 0.611342 0.502887 0.116812
O O1 0.613894 0.419941 0.849606
O O2 0.017083 0.581135 0.575091
O O3 0.098658 0.397729 0.732084
O O4 0.071553 0.759555 0.589374
O O5 0.712375 0.580969 0.229128
O O6 0.709254 0.196129 0.393767
O O7 0.717965 0.497089 0.154341
O O8 0.265173 0.177217 0.513173
O O9 0.535186 0.330815 0.658287
O O10 0.000000 0.500000 0.500000
O O11 0.755410 0.055594 0.739014
O O12 0.066126 0.095190 0.335847
O O13 0.156371 0.299838 0.097976
O O14 0.000000 0.000000 0.000000
O O15 0.579844 0.793530 0.693272
#
# Coordination Sequence:
#
# PCOD9032981 Si02
#       7
#     2   2   2   2   2   2   2
#     4  11  23  43  66  93 134 174 211 277 332 377
#     4  10  22  44  64  92 137 170 213 277 320 388
#     4  12  23  44  70  91 131 179 217 265 326 390
#     4  11  22  39  69  95 127 170 224 262 325 385
#     4  11  24  44  64  98 133 170 223 270 322 388
#     4  10  23  42  64  94 136 168 215 278 326 380
#     4  11  21  39  67  99 125 174 219 261 330 394
#
# _framework density 20.755585
#
# number of rings (size 3 to 8) (size 9 to 14) (size 15 to 20)
#    0.000    1.143    4.286    3.429    0.000    4.000 
#   10.286    2.857    0.000    0.000    0.000    0.000 
#    0.000    0.000    0.000    0.000    0.000    0.000 
#
# Total GULP energy -78067.835522 kJ/mol
# GULP energy per Si atom -5576.273966 kJ/mol
# Density = 2.070834 g / cm^3
# Si number density = 20.755585 Si / 1000 Ang^3
#
#
#
# Elastic Constant Matrix: (Units=GPa)
#
#
# Indices 1 2 3 4 5 6 
#
# 1 125.8504 54.9649 47.6075 4.4730 25.2737 -0.9440
# 2 54.9649 126.7946 50.5734 -13.1600 10.2436 2.4797
# 3 47.6075 50.5734 128.8429 -10.7250 31.5930 22.9257
# 4 4.4730 -13.1600 -10.7250 20.3033 -6.3667 4.2744
# 5 25.2737 10.2436 31.5930 -6.3667 29.5045 6.4784
# 6 -0.9440 2.4797 22.9257 4.2744 6.4784 42.7717
#
#
#
# Elastic Compliance Matrix: (Units=1/GPa)
#
#
# Indices 1 2 3 4 5 6 
#
# 1 0.014005 -0.005744 -0.001937 -0.012473 -0.011651 0.004691
# 2 -0.005744 0.012178 -0.003261 0.009695 0.006504 -0.001039
# 3 -0.001937 -0.003261 0.013465 0.003707 -0.009510 -0.006001
# 4 -0.012473 0.009695 0.003707 0.069637 0.021229 -0.012999
# 5 -0.011651 0.006504 -0.009510 0.021229 0.057787 -0.006411
# 6 0.004691 -0.001039 -0.006001 -0.012999 -0.006411 0.029030
#
#
# Mechanical properties :
#
#
# Convention : Reuss Voigt Hill
#
# Bulk Modulus (GPa) = 56.28585 76.41995 66.35290
# Shear Modulus (GPa) = 22.33065 33.73870 28.03468
#
# Velocity S-wave (km/s) = 3.28363 4.03615 3.67918
# Velocity P-wave (km/s) = 6.44621 7.65634 7.07719
#
# Compressibility (1/GPa) = 0.01776645
#
# Stress axis : x y z
#
# Youngs Moduli (GPa) = 71.40126 82.11244 74.26613
#
# Poissons Ratio (x) = 0.47164 0.14382
# Poissons Ratio (y) = 0.41012 0.24217
# Poissons Ratio (z) = 0.13827 0.26775
#
# Static dielectric constant tensor:
#      x y z
#    x 1.819010 -0.078220 0.008230 
#    y -0.078220 1.811810 0.011860 
#    z 0.008230 0.011860 1.752490 
# 
# From -- ./inp_files/241602.got.cif
#   From: 2010.05.17/outbox.cif.g08.bks.cpg/sg2_121_cif.got.tgz:241602.got - 2010.06.03 11:33:40.
