data_PCOD9032613
_publ_section_title
;
Structure prediction by ZEFSAII (Michael W. Deem and Ramdas Pophale) SiO2 
 PCOD9032613
Probable space group: P -1
;
_chemical_formula_sum "Si O2"
_cell_formula_units_Z 15
_cell_length_a 9.456680
_cell_length_b 12.665759
_cell_length_c 7.917851
_cell_angle_alpha 79.048126
_cell_angle_beta 101.823084
_cell_angle_gamma 138.359195
_cell_volume 615.791410
_symmetry_space_group_name_H-M "P -1"
_symmetry_group_IT_number 2
_symmetry_cell_setting 'triclinic'
loop_
_space_group_symop_operation_xyz
x,y,z
-x,-y,-z
loop_
_atom_site_type_symbol
_atom_site_label
_atom_site_fract_x
_atom_site_fract_y
_atom_site_fract_z
Si Si1 0.205594 0.176251 0.060906
Si Si2 0.265645 0.841028 0.770432
Si Si3 0.474395 0.728420 0.337141
Si Si4 0.402784 0.701686 0.718906
Si Si5 0.745317 0.184539 0.831866
Si Si6 0.500000 0.500000 0.500000
Si Si7 0.930572 0.055225 0.340923
Si Si8 0.823539 0.651519 0.255686
O O1 0.400934 0.203537 0.133067
O O2 0.128098 0.177071 0.224285
O O3 0.249381 0.299645 0.912732
O O4 0.000000 0.000000 0.000000
O O5 0.249725 0.715199 0.725358
O O6 0.140598 0.866800 0.638817
O O7 0.517776 0.008084 0.781976
O O8 0.200799 0.808425 0.961550
O O9 0.489955 0.763844 0.531287
O O10 0.293646 0.708951 0.229068
O O11 0.429644 0.577835 0.370448
O O12 0.702760 0.885668 0.262499
O O13 0.289014 0.524350 0.752407
O O14 0.927508 0.233678 0.745972
O O15 0.729927 0.634699 0.416883
O O16 0.000000 0.000000 0.500000
#
# Coordination Sequence:
#
# PCOD9032613 Si02
#       8
#     2   2   2   2   2   1   2   2
#     4  12  24  43  72  98 133 186 232 286 346 405
#     4  10  23  43  68 103 134 185 228 285 342 409
#     4  10  23  44  64 102 139 177 229 284 343 412
#     4  11  25  42  64 101 143 178 227 288 342 410
#     4  10  22  43  72  95 139 179 237 278 338 422
#     4  10  24  42  66  96 136 182 224 280 348 410
#     4  11  22  44  67 100 135 171 234 285 340 400
#     4  11  24  46  67 104 139 181 233 284 348 410
#
# _framework density 24.358899000000001
#
# number of rings (size 3 to 8) (size 9 to 14) (size 15 to 20)
#    0.000    1.333    2.667    2.000    5.600    4.800 
#    7.200    0.000    0.000    0.000    0.000    0.000 
#    0.000    0.000    0.000    0.000    0.000    0.000 
#
# Total GULP energy -83714.049134 kJ/mol
# GULP energy per Si atom -5580.936609 kJ/mol
# Density = 2.430346 g / cm^3
# Si number density = 24.358899 Si / 1000 Ang^3
#
#
#
# Elastic Constant Matrix: (Units=GPa)
#
#
# Indices 1 2 3 4 5 6 
#
# 1 157.6972 12.6938 62.8664 -18.4168 19.8963 4.0596
# 2 12.6938 36.6478 31.7726 -11.5089 9.2522 -14.0226
# 3 62.8664 31.7726 110.9875 -30.3773 6.4526 11.6074
# 4 -18.4168 -11.5089 -30.3773 38.8208 -1.3116 3.6710
# 5 19.8963 9.2522 6.4526 -1.3116 50.0120 -20.4117
# 6 4.0596 -14.0226 11.6074 3.6710 -20.4117 38.4653
#
#
#
# Elastic Compliance Matrix: (Units=1/GPa)
#
#
# Indices 1 2 3 4 5 6 
#
# 1 0.008746 0.002478 -0.005250 0.000689 -0.003358 -0.000283
# 2 0.002478 0.052499 -0.019587 -0.000981 0.002500 0.026208
# 3 -0.005250 -0.019587 0.022411 0.010655 -0.003527 -0.016238
# 4 0.000689 -0.000981 0.010655 0.034863 -0.004339 -0.009275
# 5 -0.003358 0.002500 -0.003527 -0.004339 0.028503 0.017869
# 6 -0.000283 0.026208 -0.016238 -0.009275 0.017869 0.050849
#
#
# Mechanical properties :
#
#
# Convention : Reuss Voigt Hill
#
# Bulk Modulus (GPa) = 25.68269 57.77757 41.73013
# Shear Modulus (GPa) = 19.56423 38.65959 29.11191
#
# Velocity S-wave (km/s) = 2.83709 3.98814 3.46081
# Velocity P-wave (km/s) = 4.61503 6.70655 5.75657
#
# Compressibility (1/GPa) = 0.03893673
#
# Stress axis : x y z
#
# Youngs Moduli (GPa) = 114.33576 19.04810 44.62177
#
# Poissons Ratio (x) = -0.04720 0.23426
# Poissons Ratio (y) = -0.28332 0.87402
# Poissons Ratio (z) = 0.60026 0.37310
#
# Static dielectric constant tensor:
#      x y z
#    x 1.916650 -0.028490 -0.046670 
#    y -0.028490 1.959690 0.052600 
#    z -0.046670 0.052600 1.978470 
# 
# From -- ./inp_files/176548.got.cif
#   From: 2010.05.17/outbox.cif.g08.bks.cpg/sg2_89_cif.got.tgz:176548.got - 2010.06.03 11:33:40.
