data_PCOD9032447
_publ_section_title
;
Structure prediction by ZEFSAII (Michael W. Deem and Ramdas Pophale) SiO2 
 PCOD9032447
Probable space group: P -1
;
_chemical_formula_sum "Si O2"
_cell_formula_units_Z 12
_cell_length_a 16.569656
_cell_length_b 12.138373
_cell_length_c 5.053914
_cell_angle_alpha 89.799599
_cell_angle_beta 83.201121
_cell_angle_gamma 153.636368
_cell_volume 434.155330
_symmetry_space_group_name_H-M "P -1"
_symmetry_group_IT_number 2
_symmetry_cell_setting 'triclinic'
loop_
_space_group_symop_operation_xyz
x,y,z
-x,-y,-z
loop_
_atom_site_type_symbol
_atom_site_label
_atom_site_fract_x
_atom_site_fract_y
_atom_site_fract_z
Si Si1 0.004198 0.764734 0.020551
Si Si2 0.305473 0.833565 0.342890
Si Si3 0.363493 0.676228 0.165595
Si Si4 0.644510 0.901100 0.390027
Si Si5 0.440808 0.497450 0.776375
Si Si6 0.000000 0.000000 0.000000
Si Si7 0.000000 0.500000 0.000000
O O1 0.840262 0.593846 0.873793
O O2 0.013608 0.892785 0.166494
O O3 0.979089 0.608401 0.127919
O O4 0.201591 0.989416 0.790931
O O5 0.342005 0.750366 0.381227
O O6 0.144062 0.645826 0.187481
O O7 0.261218 0.861683 0.606857
O O8 0.496324 0.108401 0.118956
O O9 0.463085 0.699719 0.281561
O O10 0.575583 0.768953 0.693290
O O11 0.500000 0.500000 0.500000
O O12 0.500000 0.500000 0.000000
O O13 0.224510 0.267265 0.856420
#
# Coordination Sequence:
#
# PCOD9032447 Si02
#       7
#     2   2   2   2   2   1   1
#     4  11  25  46  76 113 156 210 271 333 409 490
#     4  10  22  43  71 105 154 198 259 328 399 487
#     4  10  23  45  69 110 149 199 264 322 405 485
#     4  12  25  47  76 108 157 208 267 340 412 486
#     4  12  31  54  84 119 165 218 283 347 417 498
#     4  12  28  52  84 114 166 218 276 344 414 500
#     4  10  22  44  74 110 152 206 262 330 412 484
#
# _framework density 27.639876999999998
#
# number of rings (size 3 to 8) (size 9 to 14) (size 15 to 20)
#    0.000    1.000    3.333    1.500    7.000    4.667 
#   12.000    0.000    0.000    0.000    0.000    0.000 
#    0.000    0.000    0.000    0.000    0.000    0.000 
#
# Total GULP energy -66801.920083 kJ/mol
# GULP energy per Si atom -5566.826674 kJ/mol
# Density = 2.757697 g / cm^3
# Si number density = 27.639877 Si / 1000 Ang^3
#
#
#
# Elastic Constant Matrix: (Units=GPa)
#
#
# Indices 1 2 3 4 5 6 
#
# 1 232.2333 48.4514 48.1067 -14.3367 -14.2214 18.6490
# 2 48.4514 82.4484 25.5663 -20.2401 -2.4896 47.1251
# 3 48.1067 25.5663 74.5387 -4.0303 3.3470 20.7182
# 4 -14.3367 -20.2401 -4.0303 40.4469 -4.3329 -6.9676
# 5 -14.2214 -2.4896 3.3470 -4.3329 54.5278 -3.5118
# 6 18.6490 47.1251 20.7182 -6.9676 -3.5118 82.0842
#
#
#
# Elastic Compliance Matrix: (Units=1/GPa)
#
#
# Indices 1 2 3 4 5 6 
#
# 1 0.005560 -0.002848 -0.002999 0.000638 0.001636 0.001253
# 2 -0.002848 0.023080 -0.002519 0.008397 0.000409 -0.011237
# 3 -0.002999 -0.002519 0.016895 -0.001277 -0.002186 -0.002338
# 4 0.000638 0.008397 -0.001277 0.028969 0.002797 -0.002065
# 5 0.001636 0.000409 -0.002186 0.002797 0.019206 0.001004
# 6 0.001253 -0.011237 -0.002338 -0.002065 0.001004 0.018807
#
#
# Mechanical properties :
#
#
# Convention : Reuss Voigt Hill
#
# Bulk Modulus (GPa) = 34.71858 70.38548 52.55203
# Shear Modulus (GPa) = 36.01016 53.21818 44.61417
#
# Velocity S-wave (km/s) = 3.61339 4.39271 4.02197
# Velocity P-wave (km/s) = 5.47696 7.15880 6.37360
#
# Compressibility (1/GPa) = 0.02880302
#
# Stress axis : x y z
#
# Youngs Moduli (GPa) = 179.84630 43.32739 59.19049
#
# Poissons Ratio (x) = 0.12338 0.17751
# Poissons Ratio (y) = 0.51211 0.14913
# Poissons Ratio (z) = 0.53936 0.10916
#
# Static dielectric constant tensor:
#      x y z
#    x 2.116020 -0.243010 0.158700 
#    y -0.243010 2.069020 0.220720 
#    z 0.158700 0.220720 1.492710 
# 
# From -- ./inp_files/74237.got.cif
#   From: 2010.05.17/outbox.cif.g08.bks.cpg/sg2_38_cif.got.tgz:74237.got - 2010.06.03 11:33:40.
