data_PCOD9032740
_publ_section_title
;
Structure prediction by ZEFSAII (Michael W. Deem and Ramdas Pophale) SiO2 
 PCOD9032740
Probable space group: P -1
;
_chemical_formula_sum "Si O2"
_cell_formula_units_Z 14
_cell_length_a 9.379835
_cell_length_b 16.952763
_cell_length_c 6.757017
_cell_angle_alpha 103.428318
_cell_angle_beta 135.085681
_cell_angle_gamma 60.524340
_cell_volume 648.515168
_symmetry_space_group_name_H-M "P -1"
_symmetry_group_IT_number 2
_symmetry_cell_setting 'triclinic'
loop_
_space_group_symop_operation_xyz
x,y,z
-x,-y,-z
loop_
_atom_site_type_symbol
_atom_site_label
_atom_site_fract_x
_atom_site_fract_y
_atom_site_fract_z
Si Si1 0.285620 0.991049 0.712065
Si Si2 0.166126 0.468803 0.330992
Si Si3 0.288701 0.592276 0.755099
Si Si4 0.636824 0.341045 0.532145
Si Si5 0.957281 0.688951 0.817763
Si Si6 0.896517 0.070640 0.123067
Si Si7 0.449023 0.819628 0.471700
O O1 0.187175 0.972294 0.808017
O O2 0.365806 0.905593 0.589303
O O3 0.099447 0.076860 0.447326
O O4 0.500000 0.000000 0.000000
O O5 0.128720 0.553305 0.478993
O O6 0.427962 0.425523 0.487790
O O7 0.122388 0.389101 0.332681
O O8 0.000000 0.500000 0.000000
O O9 0.379595 0.634443 0.699567
O O10 0.135027 0.670776 0.805118
O O11 0.500000 0.500000 0.000000
O O12 0.598820 0.254914 0.502524
O O13 0.881746 0.325972 0.842486
O O14 0.717299 0.780839 0.661627
O O15 0.692437 0.155708 0.859636
O O16 0.000000 0.000000 0.000000
#
# Coordination Sequence:
#
# PCOD9032740 Si02
#       7
#     2   2   2   2   2   2   2
#     4  10  22  43  74 101 125 172 216 256 321 391
#     4  11  21  42  66  87 125 170 225 275 317 386
#     4  12  23  41  70  91 124 181 230 270 320 385
#     4  11  24  42  60  93 134 171 214 275 336 367
#     4  11  24  40  62  96 128 175 214 274 334 367
#     4   9  21  43  68  98 127 165 211 258 315 389
#     4  10  25  43  64  95 141 168 211 269 323 394
#
# _framework density 21.587774
#
# number of rings (size 3 to 8) (size 9 to 14) (size 15 to 20)
#    0.000    1.429    2.857    1.714    0.000    9.143 
#    0.000    0.000    0.000    0.000    0.000    0.000 
#    0.000    0.000    0.000    0.000    0.000    0.000 
#
# Total GULP energy -78133.614515 kJ/mol
# GULP energy per Si atom -5580.972465 kJ/mol
# Density = 2.153864 g / cm^3
# Si number density = 21.587774 Si / 1000 Ang^3
#
#
#
# Elastic Constant Matrix: (Units=GPa)
#
#
# Indices 1 2 3 4 5 6 
#
# 1 124.1362 28.3091 57.7777 -18.8142 -16.8050 -17.0089
# 2 28.3091 45.8999 33.6317 -8.7130 -7.7076 -9.9464
# 3 57.7777 33.6317 172.9950 -19.9146 0.2567 -3.8815
# 4 -18.8142 -8.7130 -19.9146 34.6150 -0.2130 5.0466
# 5 -16.8050 -7.7076 0.2567 -0.2130 43.0030 1.0769
# 6 -17.0089 -9.9464 -3.8815 5.0466 1.0769 30.0254
#
#
#
# Elastic Compliance Matrix: (Units=1/GPa)
#
#
# Indices 1 2 3 4 5 6 
#
# 1 0.011722 -0.002804 -0.002886 0.003355 0.003996 0.004631
# 2 -0.002804 0.029348 -0.004345 0.002363 0.004026 0.007030
# 3 -0.002886 -0.004345 0.007786 0.002150 -0.001883 -0.002361
# 4 0.003355 0.002363 0.002150 0.032942 0.001951 -0.002646
# 5 0.003996 0.004026 -0.001883 0.001951 0.025505 0.002111
# 6 0.004631 0.007030 -0.002361 -0.002646 0.002111 0.038321
#
#
# Mechanical properties :
#
#
# Convention : Reuss Voigt Hill
#
# Bulk Modulus (GPa) = 34.73830 64.71871 49.72851
# Shear Modulus (GPa) = 28.52408 36.41619 32.47013
#
# Velocity S-wave (km/s) = 3.63892 4.11163 3.88248
# Velocity P-wave (km/s) = 5.81225 7.25156 6.57143
#
# Compressibility (1/GPa) = 0.02878667
#
# Stress axis : x y z
#
# Youngs Moduli (GPa) = 85.30773 34.07423 128.42915
#
# Poissons Ratio (x) = 0.09554 0.37062
# Poissons Ratio (y) = 0.23919 0.55805
# Poissons Ratio (z) = 0.24618 0.14806
#
# Static dielectric constant tensor:
#      x y z
#    x 1.842330 -0.024640 0.014770 
#    y -0.024640 1.832850 -0.029230 
#    z 0.014770 -0.029230 1.813910 
# 
# From -- ./inp_files/10773.got.cif
#   From: 2010.05.17/outbox.cif.g08.bks.cpg/sg2_6_cif.got.tgz:10773.got - 2010.06.03 11:33:40.
