data_PCOD9032527
_publ_section_title
;
Structure prediction by ZEFSAII (Michael W. Deem and Ramdas Pophale) SiO2 
 PCOD9032527
Probable space group: P -1
;
_chemical_formula_sum "Si O2"
_cell_formula_units_Z 16
_cell_length_a 8.389020
_cell_length_b 7.768663
_cell_length_c 13.234995
_cell_angle_alpha 99.596937
_cell_angle_beta 80.580601
_cell_angle_gamma 68.942247
_cell_volume 769.895388
_symmetry_space_group_name_H-M "P -1"
_symmetry_group_IT_number 2
_symmetry_cell_setting 'triclinic'
loop_
_space_group_symop_operation_xyz
x,y,z
-x,-y,-z
loop_
_atom_site_type_symbol
_atom_site_label
_atom_site_fract_x
_atom_site_fract_y
_atom_site_fract_z
Si Si1 0.112410 0.338754 0.050892
Si Si2 0.133397 0.515454 0.734845
Si Si3 0.018817 0.642244 0.429543
Si Si4 0.700568 0.354662 0.457654
Si Si5 0.676584 0.021888 0.514682
Si Si6 0.403891 0.983694 0.905645
Si Si7 0.494620 0.772731 0.245748
Si Si8 0.567312 0.556515 0.893741
O O1 0.260057 0.405318 0.090059
O O2 0.981996 0.339249 0.154634
O O3 0.206906 0.139178 0.962768
O O4 0.000000 0.500000 0.000000
O O5 0.007909 0.426439 0.684692
O O6 0.205524 0.601407 0.643748
O O7 0.306143 0.353931 0.749872
O O8 0.000000 0.500000 0.500000
O O9 0.201154 0.644852 0.447006
O O10 0.853388 0.837073 0.485074
O O11 0.500000 0.500000 0.500000
O O12 0.706023 0.145864 0.433975
O O13 0.626428 0.122048 0.637879
O O14 0.500000 0.000000 0.500000
O O15 0.486900 0.071023 0.817961
O O16 0.439869 0.759661 0.875404
O O17 0.500000 0.000000 0.000000
O O18 0.421327 0.622349 0.192912
O O19 0.500000 0.500000 0.000000
#
# Coordination Sequence:
#
# PCOD9032527 Si02
#       8
#     2   2   2   2   2   2   2   2
#     4  11  22  42  72 100 143 182 226 299 355 420
#     4  11  23  43  68 101 141 183 230 293 362 408
#     4  10  23  44  65  97 139 178 230 295 343 418
#     4  11  23  44  69  98 137 183 236 290 351 424
#     4  12  24  44  71 102 143 185 236 298 357 423
#     4  10  22  43  71  99 139 181 228 290 358 416
#     4  12  23  44  74 103 139 190 238 287 363 425
#     4  11  23  45  72 101 141 185 241 290 349 432
#
# _framework density 20.782043999999999
#
# number of rings (size 3 to 8) (size 9 to 14) (size 15 to 20)
#    0.000    1.000    6.250    1.125    1.750    5.000 
#    2.250    2.500    0.000    0.000    0.000    0.000 
#    0.000    0.000    0.000    0.000    0.000    0.000 
#
# Total GULP energy -89253.615296 kJ/mol
# GULP energy per Si atom -5578.350956 kJ/mol
# Density = 2.073474 g / cm^3
# Si number density = 20.782044 Si / 1000 Ang^3
#
#
#
# Elastic Constant Matrix: (Units=GPa)
#
#
# Indices 1 2 3 4 5 6 
#
# 1 91.6549 43.6675 25.1998 -9.2548 -1.0871 -9.6968
# 2 43.6675 163.8038 49.6295 -3.2221 -13.8004 -2.2786
# 3 25.1998 49.6295 119.0872 1.6387 -17.9826 11.0393
# 4 -9.2548 -3.2221 1.6387 38.8747 3.2080 -5.8152
# 5 -1.0871 -13.8004 -17.9826 3.2080 38.5234 -3.2256
# 6 -9.6968 -2.2786 11.0393 -5.8152 -3.2256 41.0901
#
#
#
# Elastic Compliance Matrix: (Units=1/GPa)
#
#
# Indices 1 2 3 4 5 6 
#
# 1 0.013793 -0.002968 -0.002386 0.003904 -0.001766 0.004145
# 2 -0.002968 0.007770 -0.002412 -0.000019 0.001617 0.000503
# 3 -0.002386 -0.002412 0.010877 -0.002097 0.004019 -0.003600
# 4 0.003904 -0.000019 -0.002097 0.027744 -0.002751 0.005194
# 5 -0.001766 0.001617 0.004019 -0.002751 0.028631 0.000451
# 6 0.004145 0.000503 -0.003600 0.005194 0.000451 0.027081
#
#
# Mechanical properties :
#
#
# Convention : Reuss Voigt Hill
#
# Bulk Modulus (GPa) = 59.15006 67.94882 63.54944
# Shear Modulus (GPa) = 36.47958 40.76760 38.62359
#
# Velocity S-wave (km/s) = 4.19422 4.43388 4.31572
# Velocity P-wave (km/s) = 7.20966 7.67980 7.44844
#
# Compressibility (1/GPa) = 0.01690615
#
# Stress axis : x y z
#
# Youngs Moduli (GPa) = 72.50294 128.70291 91.93812
#
# Poissons Ratio (x) = 0.38202 0.21939
# Poissons Ratio (y) = 0.21520 0.22176
# Poissons Ratio (z) = 0.17301 0.31044
#
# Static dielectric constant tensor:
#      x y z
#    x 1.581880 -0.065060 0.123740 
#    y -0.065060 1.706470 0.069750 
#    z 0.123740 0.069750 1.701800 
# 
# From -- ./inp_files/493185.got.cif
#   From: 2010.05.17/outbox.cif.g08.bks.cpg/sg2_247_cif.got.tgz:493185.got - 2010.06.03 11:33:40.
