data_PCOD9032663
_publ_section_title
;
Structure prediction by ZEFSAII (Michael W. Deem and Ramdas Pophale) SiO2 
 PCOD9032663
Probable space group: P -1
;
_chemical_formula_sum "Si O2"
_cell_formula_units_Z 16
_cell_length_a 8.791230
_cell_length_b 13.750060
_cell_length_c 17.459728
_cell_angle_alpha 148.195733
_cell_angle_beta 142.919780
_cell_angle_gamma 43.809244
_cell_volume 664.280556
_symmetry_space_group_name_H-M "P -1"
_symmetry_group_IT_number 2
_symmetry_cell_setting 'triclinic'
loop_
_space_group_symop_operation_xyz
x,y,z
-x,-y,-z
loop_
_atom_site_type_symbol
_atom_site_label
_atom_site_fract_x
_atom_site_fract_y
_atom_site_fract_z
Si Si1 0.384661 0.832723 0.060114
Si Si2 0.020721 0.438369 0.291555
Si Si3 0.525526 0.212729 0.314298
Si Si4 0.465024 0.435939 0.181043
Si Si5 0.873025 0.278118 0.358535
Si Si6 0.193912 0.716675 0.368051
Si Si7 0.333565 0.326795 0.810272
Si Si8 0.448293 0.154625 0.517320
O O1 0.444452 0.830043 0.173394
O O2 0.404055 0.028170 0.161396
O O3 0.130886 0.737757 0.883712
O O4 0.585837 0.687188 0.993953
O O5 0.842609 0.603512 0.286527
O O6 0.094053 0.519438 0.456686
O O7 0.285418 0.370596 0.309849
O O8 0.668096 0.261912 0.481639
O O9 0.682869 0.138980 0.540980
O O10 0.691248 0.315750 0.238377
O O11 0.265009 0.516638 0.219718
O O12 0.533844 0.631431 0.306778
O O13 0.719916 0.189714 0.305921
O O14 0.153576 0.169887 0.382971
O O15 0.896063 0.736482 0.273694
O O16 0.500000 0.500000 0.000000
O O17 0.500000 0.000000 0.500000
#
# Coordination Sequence:
#
# PCOD9032663 Si02
#       8
#     2   2   2   2   2   2   2   2
#     4  11  26  42  64 100 151 184 219 289 359 413
#     4  11  20  45  68 103 133 184 237 288 347 408
#     4  12  25  40  75 109 133 179 244 295 336 411
#     4  10  23  44  70  97 141 186 228 280 361 409
#     4  12  22  42  77 100 137 184 239 290 346 414
#     4  10  22  43  73 101 131 182 245 282 334 420
#     4  10  23  42  67 100 137 184 228 290 355 412
#     4  10  24  42  68 103 134 180 234 290 339 412
#
# _framework density 24.086207000000002
#
# number of rings (size 3 to 8) (size 9 to 14) (size 15 to 20)
#    0.750    0.500    3.750    1.875    3.500    2.500 
#    2.250    0.000    0.000    0.000    0.000    0.000 
#    0.000    0.000    0.000    0.000    0.000    0.000 
#
# Total GULP energy -89116.033678 kJ/mol
# GULP energy per Si atom -5569.752105 kJ/mol
# Density = 2.403139 g / cm^3
# Si number density = 24.086207 Si / 1000 Ang^3
#
#
#
# Elastic Constant Matrix: (Units=GPa)
#
#
# Indices 1 2 3 4 5 6 
#
# 1 124.4052 39.8030 38.3874 -0.5187 38.1697 4.3620
# 2 39.8030 85.9152 27.3584 -1.9127 3.9179 15.3065
# 3 38.3874 27.3584 85.7633 -7.4743 12.3535 9.6694
# 4 -0.5187 -1.9127 -7.4743 36.9203 3.6548 5.7273
# 5 38.1697 3.9179 12.3535 3.6548 38.9716 5.0991
# 6 4.3620 15.3065 9.6694 5.7273 5.0991 43.3171
#
#
#
# Elastic Compliance Matrix: (Units=1/GPa)
#
#
# Indices 1 2 3 4 5 6 
#
# 1 0.014863 -0.005755 -0.003197 0.000150 -0.013346 0.002802
# 2 -0.005755 0.015821 -0.002647 0.000453 0.005514 -0.005129
# 3 -0.003197 -0.002647 0.014660 0.003267 -0.001255 -0.002299
# 4 0.000150 0.000453 0.003267 0.028774 -0.003362 -0.004313
# 5 -0.013346 0.005514 -0.001255 -0.003362 0.039482 -0.004527
# 6 0.002802 -0.005129 -0.002299 -0.004313 -0.004527 0.026232
#
#
# Mechanical properties :
#
#
# Convention : Reuss Voigt Hill
#
# Bulk Modulus (GPa) = 45.15697 56.35348 50.75522
# Shear Modulus (GPa) = 29.34018 36.54412 32.94215
#
# Velocity S-wave (km/s) = 3.49396 3.89938 3.70222
# Velocity P-wave (km/s) = 5.92164 6.61218 6.27641
#
# Compressibility (1/GPa) = 0.02214498
#
# Stress axis : x y z
#
# Youngs Moduli (GPa) = 67.27963 63.20715 68.21102
#
# Poissons Ratio (x) = 0.36376 0.21810
# Poissons Ratio (y) = 0.38719 0.18059
# Poissons Ratio (z) = 0.21512 0.16734
#
# Static dielectric constant tensor:
#      x y z
#    x 2.024690 -0.023920 -0.032120 
#    y -0.023920 1.917920 0.034130 
#    z -0.032120 0.034130 1.906330 
# 
# From -- ./inp_files/610802.got.cif
#   From: 2010.05.17/outbox.cif.g08.bks.cpg/sg2_306_cif.got.tgz:610802.got - 2010.06.03 11:33:40.
