data_PCOD9032940
_publ_section_title
;
Structure prediction by ZEFSAII (Michael W. Deem and Ramdas Pophale) SiO2 
 PCOD9032940
Probable space group: P -1
;
_chemical_formula_sum "Si O2"
_cell_formula_units_Z 12
_cell_length_a 5.052152
_cell_length_b 9.854233
_cell_length_c 11.881620
_cell_angle_alpha 123.997935
_cell_angle_beta 70.010719
_cell_angle_gamma 114.370359
_cell_volume 441.851572
_symmetry_space_group_name_H-M "P -1"
_symmetry_group_IT_number 2
_symmetry_cell_setting 'triclinic'
loop_
_space_group_symop_operation_xyz
x,y,z
-x,-y,-z
loop_
_atom_site_type_symbol
_atom_site_label
_atom_site_fract_x
_atom_site_fract_y
_atom_site_fract_z
Si Si1 0.249780 0.831930 0.577598
Si Si2 0.941085 0.384963 0.288963
Si Si3 0.006222 0.744059 0.121423
Si Si4 0.837566 0.734099 0.399783
Si Si5 0.415157 0.315509 0.043145
Si Si6 0.450884 0.975040 0.841835
O O1 0.050474 0.682451 0.617033
O O2 0.525277 0.770235 0.468677
O O3 0.379249 0.977780 0.719226
O O4 0.067654 0.860422 0.510100
O O5 0.829872 0.548308 0.363336
O O6 0.701357 0.219014 0.192927
O O7 0.252483 0.408083 0.194269
O O8 0.237885 0.643922 0.999981
O O9 0.944211 0.735179 0.257665
O O10 0.720781 0.681038 0.058545
O O11 0.200598 0.941221 0.160921
O O12 0.325290 0.111398 0.987812
#
# Coordination Sequence:
#
# PCOD9032940 Si02
#       6
#     2   2   2   2   2   2
#     4  10  25  40  67  89 129 161 212 249 308 368
#     4  10  23  43  68  89 128 163 206 266 296 373
#     4  10  24  40  65  93 128 160 205 256 310 369
#     4  12  24  44  61  96 125 168 205 249 313 370
#     4  10  22  44  63  97 120 161 214 249 318 357
#     4   8  23  41  64  95 119 165 205 259 306 360
#
# _framework density 27.158442000000001
#
# number of rings (size 3 to 8) (size 9 to 14) (size 15 to 20)
#    2.000    0.000    0.000    2.500    2.333    6.000 
#    3.000    0.000    0.000    0.000    0.000    0.000 
#    0.000    0.000    0.000    0.000    0.000    0.000 
#
# Total GULP energy -67224.404070 kJ/mol
# GULP energy per Si atom -5602.033673 kJ/mol
# Density = 2.709663 g / cm^3
# Si number density = 27.158442 Si / 1000 Ang^3
#
#
#
# Elastic Constant Matrix: (Units=GPa)
#
#
# Indices 1 2 3 4 5 6 
#
# 1 129.2969 14.0989 67.9009 -12.1261 5.3598 5.3076
# 2 14.0989 85.3472 28.3375 -2.7602 5.0411 1.7769
# 3 67.9009 28.3375 107.4208 -35.3034 9.0478 1.4607
# 4 -12.1261 -2.7602 -35.3034 56.8938 -7.1427 9.0368
# 5 5.3598 5.0411 9.0478 -7.1427 52.1418 -0.8311
# 6 5.3076 1.7769 1.4607 9.0368 -0.8311 27.1080
#
#
#
# Elastic Compliance Matrix: (Units=1/GPa)
#
#
# Indices 1 2 3 4 5 6 
#
# 1 0.011975 0.000831 -0.008615 -0.002607 -0.000191 -0.001072
# 2 0.000831 0.013093 -0.004611 -0.002141 -0.000846 -0.000085
# 3 -0.008615 -0.004611 0.019457 0.010330 -0.000670 -0.002524
# 4 -0.002607 -0.002141 0.010330 0.024865 0.001959 -0.008135
# 5 -0.000191 -0.000846 -0.000670 0.001959 0.019666 0.000079
# 6 -0.001072 -0.000085 -0.002524 -0.008135 0.000079 0.039955
#
#
# Mechanical properties :
#
#
# Convention : Reuss Voigt Hill
#
# Bulk Modulus (GPa) = 50.66848 60.30440 55.48644
# Shear Modulus (GPa) = 31.17645 41.34389 36.26017
#
# Velocity S-wave (km/s) = 3.39181 3.90593 3.65791
# Velocity P-wave (km/s) = 5.83406 6.52645 6.18995
#
# Compressibility (1/GPa) = 0.01973614
#
# Stress axis : x y z
#
# Youngs Moduli (GPa) = 83.50721 76.37745 51.39652
#
# Poissons Ratio (x) = -0.06350 0.44277
# Poissons Ratio (y) = -0.06943 0.23698
# Poissons Ratio (z) = 0.71940 0.35216
#
# Static dielectric constant tensor:
#      x y z
#    x 2.100440 -0.013860 0.060540 
#    y -0.013860 2.221220 0.061300 
#    z 0.060540 0.061300 2.084570 
# 
# From -- ./inp_files/24156.got.cif
#   From: 2010.05.17/outbox.cif.g08.bks.cpg/sg2_13_cif.got.tgz:24156.got - 2010.06.03 11:33:40.
