data_PCOD9032353
_publ_section_title
;
Structure prediction by ZEFSAII (Michael W. Deem and Ramdas Pophale) SiO2 
 PCOD9032353
Probable space group: P -1
;
_chemical_formula_sum "Si O2"
_cell_formula_units_Z 14
_cell_length_a 12.680493
_cell_length_b 13.024736
_cell_length_c 8.474988
_cell_angle_alpha 122.525577
_cell_angle_beta 37.121540
_cell_angle_gamma 137.716332
_cell_volume 563.626597
_symmetry_space_group_name_H-M "P -1"
_symmetry_group_IT_number 2
_symmetry_cell_setting 'triclinic'
loop_
_space_group_symop_operation_xyz
x,y,z
-x,-y,-z
loop_
_atom_site_type_symbol
_atom_site_label
_atom_site_fract_x
_atom_site_fract_y
_atom_site_fract_z
Si Si1 0.176990 0.712826 0.413945
Si Si2 0.872189 0.798191 0.889947
Si Si3 0.364177 0.370990 0.421564
Si Si4 0.040765 0.643011 0.160570
Si Si5 0.429791 0.607518 0.121028
Si Si6 0.538300 0.056745 0.182697
Si Si7 0.808430 0.895479 0.369233
O O1 0.146750 0.670691 0.229553
O O2 0.231058 0.618748 0.378932
O O3 0.955007 0.693683 0.709045
O O4 0.393265 0.895507 0.318817
O O5 0.637039 0.752923 0.085869
O O6 0.900560 0.856275 0.081911
O O7 0.028868 0.920880 0.668807
O O8 0.500000 0.500000 0.500000
O O9 0.224302 0.202949 0.525082
O O10 0.195626 0.393934 0.564216
O O11 0.523920 0.382197 0.111707
O O12 0.201638 0.802839 0.001498
O O13 0.000000 0.500000 0.000000
O O14 0.500000 0.500000 0.000000
O O15 0.424919 0.139562 0.414055
O O16 0.500000 0.000000 0.000000
#
# Coordination Sequence:
#
# PCOD9032353 Si02
#       7
#     2   2   2   2   2   2   2
#     4  10  22  45  68  98 138 182 235 283 348 426
#     4  10  23  46  67 104 137 185 226 284 357 412
#     4  12  24  42  67 101 137 180 234 285 346 413
#     4  11  22  39  66 104 140 178 228 290 353 412
#     4  12  26  44  71  98 138 181 233 292 357 411
#     4   9  19  39  67 100 135 176 228 285 339 414
#     4  10  22  43  70  98 145 174 232 289 339 424
#
# _framework density 24.839138999999999
#
# number of rings (size 3 to 8) (size 9 to 14) (size 15 to 20)
#    0.000    1.429    1.429    4.286    2.000    1.143 
#    5.143    2.143    0.000    0.000    0.000    0.000 
#    0.000    0.000    0.000    0.000    0.000    0.000 
#
# Total GULP energy -78133.076899 kJ/mol
# GULP energy per Si atom -5580.934064 kJ/mol
# Density = 2.478260 g / cm^3
# Si number density = 24.839139 Si / 1000 Ang^3
#
#
#
# Elastic Constant Matrix: (Units=GPa)
#
#
# Indices 1 2 3 4 5 6 
#
# 1 93.5268 32.5103 31.0873 8.5594 -37.2515 -14.4721
# 2 32.5103 73.9702 16.7564 17.8974 -3.7837 -18.8732
# 3 31.0873 16.7564 100.3458 24.9329 -22.3838 -12.2149
# 4 8.5594 17.8974 24.9329 29.9362 -2.8912 -2.0415
# 5 -37.2515 -3.7837 -22.3838 -2.8912 55.8388 0.4093
# 6 -14.4721 -18.8732 -12.2149 -2.0415 0.4093 41.0349
#
#
#
# Elastic Compliance Matrix: (Units=1/GPa)
#
#
# Indices 1 2 3 4 5 6 
#
# 1 0.018437 -0.006811 -0.002275 0.001941 0.011007 0.002679
# 2 -0.006811 0.020561 0.001718 -0.011598 -0.003113 0.007020
# 3 -0.002275 0.001718 0.014664 -0.011966 0.003830 0.003719
# 4 0.001941 -0.011598 -0.011966 0.049194 -0.001699 -0.005748
# 5 0.011007 -0.003113 0.003830 -0.001699 0.026464 0.003241
# 6 0.002679 0.007020 0.003719 -0.005748 0.003241 0.029332
#
#
# Mechanical properties :
#
#
# Convention : Reuss Voigt Hill
#
# Bulk Modulus (GPa) = 25.68929 47.61675 36.65302
# Shear Modulus (GPa) = 26.82935 37.86123 32.34529
#
# Velocity S-wave (km/s) = 3.29009 3.90841 3.61250
# Velocity P-wave (km/s) = 4.97972 6.29120 5.67348
#
# Compressibility (1/GPa) = 0.03892672
#
# Stress axis : x y z
#
# Youngs Moduli (GPa) = 54.23924 48.63523 68.19495
#
# Poissons Ratio (x) = 0.33124 0.15517
# Poissons Ratio (y) = 0.36941 -0.11719
# Poissons Ratio (z) = 0.12341 -0.08358
#
# Static dielectric constant tensor:
#      x y z
#    x 1.892630 -0.012790 0.092660 
#    y -0.012790 2.231990 0.008490 
#    z 0.092660 0.008490 1.937440 
# 
# From -- ./inp_files/262870.got.cif
#   From: 2010.05.17/outbox.cif.g08.bks.cpg/sg2_132_cif.got.tgz:262870.got - 2010.06.03 11:33:40.
