data_PCOD9032319
_publ_section_title
;
Structure prediction by ZEFSAII (Michael W. Deem and Ramdas Pophale) SiO2 
 PCOD9032319
Probable space group: P -1
;
_chemical_formula_sum "Si O2"
_cell_formula_units_Z 11
_cell_length_a 5.049066
_cell_length_b 12.172255
_cell_length_c 12.603640
_cell_angle_alpha 145.434001
_cell_angle_beta 88.561632
_cell_angle_gamma 74.161842
_cell_volume 375.895532
_symmetry_space_group_name_H-M "P -1"
_symmetry_group_IT_number 2
_symmetry_cell_setting 'triclinic'
loop_
_space_group_symop_operation_xyz
x,y,z
-x,-y,-z
loop_
_atom_site_type_symbol
_atom_site_label
_atom_site_fract_x
_atom_site_fract_y
_atom_site_fract_z
Si Si1 0.260251 0.253364 0.669259
Si Si2 0.951038 0.746897 0.712656
Si Si3 0.193599 0.670263 0.437130
Si Si4 0.315546 0.195494 0.020414
Si Si5 0.009376 0.150847 0.780214
Si Si6 0.500000 0.500000 0.000000
O O1 0.973081 0.301622 0.792715
O O2 0.376392 0.413821 0.833376
O O3 0.127792 0.286711 0.579585
O O4 0.500000 0.000000 0.500000
O O5 0.924345 0.784568 0.868504
O O6 0.000000 0.500000 0.500000
O O7 0.193518 0.729618 0.608483
O O8 0.628334 0.956974 0.842187
O O9 0.379618 0.400434 0.205257
O O10 0.198240 0.880666 0.549929
O O11 0.155083 0.205579 0.919805
O O12 0.645557 0.246290 0.860903
#
# Coordination Sequence:
#
# PCOD9032319 Si02
#       6
#     2   2   2   2   2   1
#     4  12  25  43  65 101 142 182 229 280 335 413
#     4   9  21  45  69  98 133 178 231 283 344 405
#     4  11  23  41  67 100 140 178 227 282 340 404
#     4  10  22  43  70  96 140 176 229 288 334 409
#     4  12  26  42  68 107 137 185 229 276 346 411
#     4  12  26  42  70  96 144 188 222 280 338 406
#
# _framework density 29.263451
#
# number of rings (size 3 to 8) (size 9 to 14) (size 15 to 20)
#    0.000    1.091    3.636    2.182    0.000    0.727 
#    0.000    8.182    0.000    0.000    0.000    0.000 
#    0.000    0.000    0.000    0.000    0.000    0.000 
#
# Total GULP energy -61360.890736 kJ/mol
# GULP energy per Si atom -5578.262794 kJ/mol
# Density = 2.919685 g / cm^3
# Si number density = 29.263451 Si / 1000 Ang^3
#
#
#
# Elastic Constant Matrix: (Units=GPa)
#
#
# Indices 1 2 3 4 5 6 
#
# 1 74.2468 59.4434 45.9014 -1.2604 26.1617 -12.6619
# 2 59.4434 152.5956 63.7538 20.0645 0.7528 -2.2661
# 3 45.9014 63.7538 197.8133 13.6917 10.2580 -7.7116
# 4 -1.2604 20.0645 13.6917 78.5496 -3.0665 -5.9380
# 5 26.1617 0.7528 10.2580 -3.0665 40.9738 2.4721
# 6 -12.6619 -2.2661 -7.7116 -5.9380 2.4721 49.8453
#
#
#
# Elastic Compliance Matrix: (Units=1/GPa)
#
#
# Indices 1 2 3 4 5 6 
#
# 1 0.034336 -0.012523 -0.002752 0.004100 -0.021257 0.009270
# 2 -0.012523 0.012333 -0.001419 -0.003060 0.008113 -0.003607
# 3 -0.002752 -0.001419 0.006198 -0.000748 0.000169 0.000098
# 4 0.004100 -0.003060 -0.000748 0.013840 -0.001490 0.002509
# 5 -0.021257 0.008113 0.000169 -0.001490 0.038102 -0.007072
# 6 0.009270 -0.003607 0.000098 0.002509 -0.007072 0.022918
#
#
# Mechanical properties :
#
#
# Convention : Reuss Voigt Hill
#
# Bulk Modulus (GPa) = 51.33133 84.76142 68.04637
# Shear Modulus (GPa) = 29.83186 50.91089 40.37137
#
# Velocity S-wave (km/s) = 3.19631 4.17555 3.71830
# Velocity P-wave (km/s) = 5.58579 7.23013 6.46049
#
# Compressibility (1/GPa) = 0.01948128
#
# Stress axis : x y z
#
# Youngs Moduli (GPa) = 29.12378 81.08439 161.34859
#
# Poissons Ratio (x) = 1.01539 0.44398
# Poissons Ratio (y) = 0.36471 0.22888
# Poissons Ratio (z) = 0.08014 0.11502
#
# Static dielectric constant tensor:
#      x y z
#    x 1.891260 0.136340 0.150300 
#    y 0.136340 2.286020 -0.014480 
#    z 0.150300 -0.014480 2.097310 
# 
# From -- ./inp_files/93467.got.cif
#   From: 2010.05.17/outbox.cif.g08.bks.cpg/sg2_47_cif.got.tgz:93467.got - 2010.06.03 11:33:40.
