data_PCOD9032844
_publ_section_title
;
Structure prediction by ZEFSAII (Michael W. Deem and Ramdas Pophale) SiO2 
 PCOD9032844
Probable space group: P -1
;
_chemical_formula_sum "Si O2"
_cell_formula_units_Z 16
_cell_length_a 14.239920
_cell_length_b 8.485093
_cell_length_c 14.745773
_cell_angle_alpha 42.732556
_cell_angle_beta 140.629187
_cell_angle_gamma 138.335910
_cell_volume 697.283527
_symmetry_space_group_name_H-M "P -1"
_symmetry_group_IT_number 2
_symmetry_cell_setting 'triclinic'
loop_
_space_group_symop_operation_xyz
x,y,z
-x,-y,-z
loop_
_atom_site_type_symbol
_atom_site_label
_atom_site_fract_x
_atom_site_fract_y
_atom_site_fract_z
Si Si1 0.180035 0.141906 0.329360
Si Si2 0.379333 0.870813 0.601635
Si Si3 0.508885 0.421270 0.644998
Si Si4 0.987369 0.530471 0.837389
Si Si5 0.702143 0.310259 0.585549
Si Si6 0.355122 0.897137 0.008409
Si Si7 0.056033 0.013139 0.933568
Si Si8 0.329195 0.371527 0.881410
O O1 0.329442 0.342773 0.298205
O O2 0.098017 0.295872 0.258556
O O3 0.267908 0.996637 0.512187
O O4 0.055841 0.964053 0.239616
O O5 0.323882 0.811255 0.481123
O O6 0.326229 0.598350 0.722999
O O7 0.569561 0.080650 0.647320
O O8 0.500000 0.500000 0.500000
O O9 0.358147 0.459560 0.559503
O O10 0.558957 0.194891 0.806406
O O11 0.885603 0.427489 0.711282
O O12 0.183453 0.684392 0.929117
O O13 0.937557 0.260129 0.966087
O O14 0.500000 0.000000 0.000000
O O15 0.312992 0.127616 0.913431
O O16 0.215397 0.262074 0.929605
O O17 0.000000 0.000000 0.000000
O O18 0.500000 0.500000 0.000000
#
# Coordination Sequence:
#
# PCOD9032844 Si02
#       8
#     2   2   2   2   2   2   2   2
#     4  11  22  42  73 103 136 190 236 309 355 440
#     4  10  24  45  68 109 154 188 244 298 384 443
#     4  11  22  40  75 104 137 186 247 297 368 436
#     4  12  23  46  77 107 140 187 261 300 371 446
#     4  10  22  43  78 107 141 197 245 306 361 467
#     4  12  28  49  73 106 150 195 246 323 380 441
#     4  12  26  45  73 106 144 193 244 305 371 442
#     4  12  28  45  72 103 152 199 242 309 377 447
#
# _framework density 22.946189
#
# number of rings (size 3 to 8) (size 9 to 14) (size 15 to 20)
#    0.000    0.750    3.750    3.375    5.250    2.500 
#    0.000    3.750    0.000    0.000    0.000    0.000 
#    0.000    0.000    0.000    0.000    0.000    0.000 
#
# Total GULP energy -89217.023956 kJ/mol
# GULP energy per Si atom -5576.063997 kJ/mol
# Density = 2.289396 g / cm^3
# Si number density = 22.946189 Si / 1000 Ang^3
#
#
#
# Elastic Constant Matrix: (Units=GPa)
#
#
# Indices 1 2 3 4 5 6 
#
# 1 89.4118 36.0872 47.0957 -10.4578 -3.0515 9.0175
# 2 36.0872 128.0298 61.3612 5.0053 -5.6958 18.2385
# 3 47.0957 61.3612 126.4343 -23.0667 16.7230 12.7898
# 4 -10.4578 5.0053 -23.0667 57.8045 -4.4555 7.7800
# 5 -3.0515 -5.6958 16.7230 -4.4555 32.5190 -3.0732
# 6 9.0175 18.2385 12.7898 7.7800 -3.0732 42.1125
#
#
#
# Elastic Compliance Matrix: (Units=1/GPa)
#
#
# Indices 1 2 3 4 5 6 
#
# 1 0.014771 -0.001557 -0.004911 0.001263 0.003721 -0.000959
# 2 -0.001557 0.011771 -0.006082 -0.003115 0.004426 -0.002019
# 3 -0.004911 -0.006082 0.015077 0.005316 -0.008789 -0.002517
# 4 0.001263 -0.003115 0.005316 0.020448 -0.000772 -0.004370
# 5 0.003721 0.004426 -0.008789 -0.000772 0.036551 0.002766
# 6 -0.000959 -0.002019 -0.002517 -0.004370 0.002766 0.026599
#
#
# Mechanical properties :
#
#
# Convention : Reuss Voigt Hill
#
# Bulk Modulus (GPa) = 60.53783 70.32934 65.43359
# Shear Modulus (GPa) = 32.08751 39.77599 35.93175
#
# Velocity S-wave (km/s) = 3.74355 4.16798 3.96146
# Velocity P-wave (km/s) = 6.71754 7.34023 7.03578
#
# Compressibility (1/GPa) = 0.01651860
#
# Stress axis : x y z
#
# Youngs Moduli (GPa) = 67.70070 84.95610 66.32429
#
# Poissons Ratio (x) = 0.13226 0.32574
# Poissons Ratio (y) = 0.10540 0.40340
# Poissons Ratio (z) = 0.33250 0.51672
#
# Static dielectric constant tensor:
#      x y z
#    x 1.939480 -0.000580 0.125580 
#    y -0.000580 1.822880 0.066260 
#    z 0.125580 0.066260 1.822620 
# 
# From -- ./inp_files/529312.got.cif
#   From: 2010.05.17/outbox.cif.g08.bks.cpg/sg2_265_cif.got.tgz:529312.got - 2010.06.03 11:33:40.
