data_PCOD9032387
_publ_section_title
;
Structure prediction by ZEFSAII (Michael W. Deem and Ramdas Pophale) SiO2 
 PCOD9032387
Probable space group: P -1
;
_chemical_formula_sum "Si O2"
_cell_formula_units_Z 13
_cell_length_a 9.553004
_cell_length_b 9.160075
_cell_length_c 7.730023
_cell_angle_alpha 52.428672
_cell_angle_beta 80.773408
_cell_angle_gamma 64.124217
_cell_volume 477.044832
_symmetry_space_group_name_H-M "P -1"
_symmetry_group_IT_number 2
_symmetry_cell_setting 'triclinic'
loop_
_space_group_symop_operation_xyz
x,y,z
-x,-y,-z
loop_
_atom_site_type_symbol
_atom_site_label
_atom_site_fract_x
_atom_site_fract_y
_atom_site_fract_z
Si Si1 0.308722 0.981476 0.396796
Si Si2 0.734262 0.165064 0.843662
Si Si3 0.000000 0.000000 0.500000
Si Si4 0.865935 0.430089 0.039529
Si Si5 0.597411 0.936398 0.208092
Si Si6 0.437951 0.511484 0.808885
Si Si7 0.839608 0.494259 0.592511
O O1 0.245202 0.981244 0.214960
O O2 0.145395 0.075861 0.462407
O O3 0.456914 0.033850 0.306844
O O4 0.385894 0.741215 0.595107
O O5 0.567929 0.361046 0.763048
O O6 0.845472 0.274411 0.699150
O O7 0.722011 0.033995 0.103258
O O8 0.079644 0.805978 0.754947
O O9 0.713504 0.535351 0.115789
O O10 0.819685 0.486321 0.809047
O O11 0.000000 0.500000 0.000000
O O12 0.696775 0.696545 0.398499
O O13 0.500000 0.000000 0.000000
O O14 0.500000 0.500000 0.000000
O O15 0.000000 0.500000 0.500000
#
# Coordination Sequence:
#
# PCOD9032387 Si02
#       7
#     2   2   1   2   2   2   2
#     4  10  22  43  71 100 141 184 241 292 363 426
#     4  11  24  43  72 100 140 188 238 301 357 428
#     4  10  26  44  68 106 146 186 238 294 358 440
#     4  11  27  46  71 102 150 196 238 297 377 431
#     4  10  24  43  72 108 139 189 245 296 363 432
#     4  11  21  44  69 100 138 183 239 301 361 423
#     4  12  28  46  70 108 150 185 249 305 363 439
#
# _framework density 27.251104000000002
#
# number of rings (size 3 to 8) (size 9 to 14) (size 15 to 20)
#    0.000    1.231    3.077    0.462   12.923    1.846 
#    0.000    1.538    0.000    0.000    0.000    0.000 
#    0.000    0.000    0.000    0.000    0.000    0.000 
#
# Total GULP energy -72420.727539 kJ/mol
# GULP energy per Si atom -5570.825195 kJ/mol
# Density = 2.718908 g / cm^3
# Si number density = 27.251104 Si / 1000 Ang^3
#
#
#
# Elastic Constant Matrix: (Units=GPa)
#
#
# Indices 1 2 3 4 5 6 
#
# 1 145.8226 24.4849 63.9697 6.5497 -50.1104 -20.7340
# 2 24.4849 49.0743 33.2678 -1.2539 0.2859 -13.1444
# 3 63.9697 33.2678 184.1908 -18.3303 -19.9534 2.6264
# 4 6.5497 -1.2539 -18.3303 39.9503 10.8127 -9.3494
# 5 -50.1104 0.2859 -19.9534 10.8127 66.0051 2.6382
# 6 -20.7340 -13.1444 2.6264 -9.3494 2.6382 40.1006
#
#
#
# Elastic Compliance Matrix: (Units=1/GPa)
#
#
# Indices 1 2 3 4 5 6 
#
# 1 0.013070 -0.003266 -0.003514 -0.005526 0.009620 0.003996
# 2 -0.003266 0.027151 -0.004120 0.002719 -0.004624 0.008419
# 3 -0.003514 -0.004120 0.007700 0.003540 -0.000790 -0.002795
# 4 -0.005526 0.002719 0.003540 0.031265 -0.008484 0.005650
# 5 0.009620 -0.004624 -0.000790 -0.008484 0.023625 -0.000023
# 6 0.003996 0.008419 -0.002795 0.005650 -0.000023 0.031265
#
#
# Mechanical properties :
#
#
# Convention : Reuss Voigt Hill
#
# Bulk Modulus (GPa) = 38.28285 69.17028 53.72657
# Shear Modulus (GPa) = 30.37973 46.36889 38.37431
#
# Velocity S-wave (km/s) = 3.34250 4.12945 3.75664
# Velocity P-wave (km/s) = 5.38285 6.94076 6.21084
#
# Compressibility (1/GPa) = 0.02612136
#
# Stress axis : x y z
#
# Youngs Moduli (GPa) = 76.51325 36.83084 129.86542
#
# Poissons Ratio (x) = 0.12027 0.45636
# Poissons Ratio (y) = 0.24986 0.53507
# Poissons Ratio (z) = 0.26888 0.15175
#
# Static dielectric constant tensor:
#      x y z
#    x 2.317660 0.048580 -0.027210 
#    y 0.048580 2.291990 0.087720 
#    z -0.027210 0.087720 2.133450 
# 
# From -- ./inp_files/173791.got.cif
#   From: 2010.05.17/outbox.cif.g08.bks.cpg/sg2_87_cif.got.tgz:173791.got - 2010.06.03 11:33:40.
