data_PCOD9032063
_publ_section_title
;
Structure prediction by ZEFSAII (Michael W. Deem and Ramdas Pophale) SiO2 
 PCOD9032063
Probable space group: P -1
;
_chemical_formula_sum "Si O2"
_cell_formula_units_Z 16
_cell_length_a 12.112682
_cell_length_b 15.951692
_cell_length_c 15.745495
_cell_angle_alpha 34.289051
_cell_angle_beta 152.531487
_cell_angle_gamma 127.406589
_cell_volume 692.102137
_symmetry_space_group_name_H-M "P -1"
_symmetry_group_IT_number 2
_symmetry_cell_setting 'triclinic'
loop_
_space_group_symop_operation_xyz
x,y,z
-x,-y,-z
loop_
_atom_site_type_symbol
_atom_site_label
_atom_site_fract_x
_atom_site_fract_y
_atom_site_fract_z
Si Si1 0.125451 0.349729 0.778242
Si Si2 0.551580 0.425653 0.333268
Si Si3 0.641129 0.196202 0.153017
Si Si4 0.059611 0.709234 0.029317
Si Si5 0.380310 0.373238 0.430573
Si Si6 0.936482 0.077974 0.618437
Si Si7 0.401790 0.305285 0.168283
Si Si8 0.519664 0.975758 0.135158
O O1 0.000000 0.500000 0.500000
O O2 0.878630 0.314083 0.660801
O O3 0.394050 0.207732 0.034672
O O4 0.219199 0.408396 0.877265
O O5 0.403177 0.368715 0.348667
O O6 0.479045 0.405953 0.204312
O O7 0.455956 0.625256 0.110532
O O8 0.863161 0.169069 0.399925
O O9 0.676396 0.058997 0.221690
O O10 0.148855 0.553382 0.156151
O O11 0.327116 0.646905 0.323387
O O12 0.791407 0.749590 0.866239
O O13 0.013195 0.884655 0.810963
O O14 0.360742 0.217491 0.590006
O O15 0.676963 0.160766 0.434603
O O16 0.191458 0.071889 0.848069
O O17 0.500000 0.000000 0.000000
#
# Coordination Sequence:
#
# PCOD9032063 Si02
#       8
#     2   2   2   2   2   2   2   2
#     4   9  20  39  63  95 139 173 216 272 330 389
#     4  11  23  40  68 103 134 176 224 273 331 406
#     4  10  24  41  66  98 137 175 220 275 337 387
#     4  10  22  43  69  93 137 174 224 276 332 394
#     4  10  24  44  68  99 131 180 226 270 332 403
#     4  10  24  45  66 101 132 172 226 275 331 400
#     4  11  22  40  69 101 132 175 220 277 338 388
#     4  11  26  46  69  95 135 180 219 276 333 398
#
# _framework density 23.117975000000001
#
# number of rings (size 3 to 8) (size 9 to 14) (size 15 to 20)
#    0.000    1.750    1.250    1.125    7.000    8.500 
#    0.000    1.875    0.000    0.000    0.000    0.000 
#    0.000    0.000    0.000    0.000    0.000    0.000 
#
# Total GULP energy -89390.368633 kJ/mol
# GULP energy per Si atom -5586.898040 kJ/mol
# Density = 2.306536 g / cm^3
# Si number density = 23.117975 Si / 1000 Ang^3
#
#
#
# Elastic Constant Matrix: (Units=GPa)
#
#
# Indices 1 2 3 4 5 6 
#
# 1 115.0527 26.4087 22.4302 -5.1348 -7.5497 -13.3005
# 2 26.4087 95.0085 24.3005 7.2188 -2.7912 -19.7008
# 3 22.4302 24.3005 68.2422 9.5837 1.2748 -2.6374
# 4 -5.1348 7.2188 9.5837 31.5002 1.7974 -3.0191
# 5 -7.5497 -2.7912 1.2748 1.7974 27.7916 6.8852
# 6 -13.3005 -19.7008 -2.6374 -3.0191 6.8852 36.6787
#
#
#
# Elastic Compliance Matrix: (Units=1/GPa)
#
#
# Indices 1 2 3 4 5 6 
#
# 1 0.010251 -0.001717 -0.003141 0.003145 0.001943 0.002463
# 2 -0.001717 0.013354 -0.003720 -0.001589 -0.000394 0.006226
# 3 -0.003141 -0.003720 0.017679 -0.005168 -0.001191 -0.002067
# 4 0.003145 -0.001589 -0.005168 0.034617 -0.002089 0.003157
# 5 0.001943 -0.000394 -0.001191 -0.002089 0.038387 -0.006971
# 6 0.002463 0.006226 -0.002067 0.003157 -0.006971 0.032921
#
#
# Mechanical properties :
#
#
# Convention : Reuss Voigt Hill
#
# Bulk Modulus (GPa) = 41.44452 47.17581 44.31016
# Shear Modulus (GPa) = 29.00131 32.87171 30.93651
#
# Velocity S-wave (km/s) = 3.54572 3.77491 3.66211
# Velocity P-wave (km/s) = 5.89315 6.28099 6.09016
#
# Compressibility (1/GPa) = 0.02412864
#
# Stress axis : x y z
#
# Youngs Moduli (GPa) = 97.55446 74.88266 56.56531
#
# Poissons Ratio (x) = 0.12859 0.17765
# Poissons Ratio (y) = 0.16752 0.21041
# Poissons Ratio (z) = 0.30638 0.27854
#
# Static dielectric constant tensor:
#      x y z
#    x 1.900400 0.022170 0.056480 
#    y 0.022170 1.853890 0.057410 
#    z 0.056480 0.057410 1.905410 
# 
# From -- ./inp_files/522306.got.cif
#   From: 2010.05.17/outbox.cif.g08.bks.cpg/sg2_262_cif.got.tgz:522306.got - 2010.06.03 11:33:40.
