data_PCOD9032444
_publ_section_title
;
Structure prediction by ZEFSAII (Michael W. Deem and Ramdas Pophale) SiO2 
 PCOD9032444
Probable space group: P -1
;
_chemical_formula_sum "Si O2"
_cell_formula_units_Z 16
_cell_length_a 8.146534
_cell_length_b 9.255423
_cell_length_c 11.902324
_cell_angle_alpha 80.025412
_cell_angle_beta 83.162352
_cell_angle_gamma 128.240820
_cell_volume 663.839879
_symmetry_space_group_name_H-M "P -1"
_symmetry_group_IT_number 2
_symmetry_cell_setting 'triclinic'
loop_
_space_group_symop_operation_xyz
x,y,z
-x,-y,-z
loop_
_atom_site_type_symbol
_atom_site_label
_atom_site_fract_x
_atom_site_fract_y
_atom_site_fract_z
Si Si1 0.795197 0.996131 0.508166
Si Si2 0.571327 0.452999 0.392426
Si Si3 0.577812 0.563239 0.824710
Si Si4 0.059346 0.663589 0.385554
Si Si5 0.096615 0.805064 0.763748
Si Si6 0.883864 0.089110 0.003296
Si Si7 0.063747 0.600830 0.153041
Si Si8 0.481139 0.738998 0.972900
O O1 0.797519 0.068946 0.374002
O O2 0.830375 0.142099 0.579278
O O3 0.571621 0.777673 0.570465
O O4 0.000000 0.000000 0.500000
O O5 0.500000 0.500000 0.500000
O O6 0.502537 0.506232 0.283976
O O7 0.827411 0.579113 0.365141
O O8 0.479261 0.379561 0.934693
O O9 0.839546 0.699971 0.791986
O O10 0.512575 0.686819 0.856039
O O11 0.000000 0.500000 0.500000
O O12 0.173732 0.681146 0.257422
O O13 0.174530 0.910343 0.863136
O O14 0.099431 0.630235 0.789403
O O15 0.669897 0.960360 0.960010
O O16 0.026384 0.301924 0.907300
O O17 0.000000 0.000000 0.000000
O O18 0.246111 0.659545 0.038949
#
# Coordination Sequence:
#
# PCOD9032444 Si02
#       8
#     2   2   2   2   2   2   2   2
#     4  12  25  47  77 110 146 194 250 306 368 448
#     4  12  27  44  80 109 147 196 251 300 382 437
#     4  10  22  43  71 105 142 191 240 301 360 439
#     4  12  28  51  74 110 152 193 248 313 375 440
#     4  11  23  46  71 105 150 188 240 306 370 440
#     4  12  26  41  74 110 138 190 251 301 366 439
#     4  11  27  48  70 100 154 193 235 310 374 442
#     4  10  24  45  70 101 148 190 243 298 370 434
#
# _framework density 24.102198999999999
#
# number of rings (size 3 to 8) (size 9 to 14) (size 15 to 20)
#    0.000    0.750    5.000    0.750    8.750    1.500 
#    2.250    0.000    0.000    0.000    0.000    0.000 
#    0.000    0.000    0.000    0.000    0.000    0.000 
#
# Total GULP energy -89634.011970 kJ/mol
# GULP energy per Si atom -5602.125748 kJ/mol
# Density = 2.404734 g / cm^3
# Si number density = 24.102199 Si / 1000 Ang^3
#
#
#
# Elastic Constant Matrix: (Units=GPa)
#
#
# Indices 1 2 3 4 5 6 
#
# 1 57.0998 9.1731 12.3659 -1.9870 8.5519 -12.7036
# 2 9.1731 119.6347 28.0838 13.3366 1.3888 -17.4662
# 3 12.3659 28.0838 129.4517 18.7444 10.9150 -22.4055
# 4 -1.9870 13.3366 18.7444 50.5346 -5.8658 -2.5305
# 5 8.5519 1.3888 10.9150 -5.8658 29.9104 -3.5551
# 6 -12.7036 -17.4662 -22.4055 -2.5305 -3.5551 46.5270
#
#
#
# Elastic Compliance Matrix: (Units=1/GPa)
#
#
# Indices 1 2 3 4 5 6 
#
# 1 0.019479 -0.000737 -0.000681 0.000902 -0.004585 0.004413
# 2 -0.000737 0.009293 -0.001239 -0.001871 0.000174 0.002602
# 3 -0.000681 -0.001239 0.009443 -0.003431 -0.003457 0.003446
# 4 0.000902 -0.001871 -0.003431 0.022190 0.005375 -0.000491
# 5 -0.004585 0.000174 -0.003457 0.005375 0.037084 0.000274
# 6 0.004413 0.002602 0.003446 -0.000491 0.000274 0.025328
#
#
# Mechanical properties :
#
#
# Convention : Reuss Voigt Hill
#
# Bulk Modulus (GPa) = 30.39373 45.04798 37.72086
# Shear Modulus (GPa) = 35.94589 42.49862 39.22226
#
# Velocity S-wave (km/s) = 3.86605 4.20368 4.03840
# Velocity P-wave (km/s) = 5.70668 6.50325 6.11794
#
# Compressibility (1/GPa) = 0.03290152
#
# Stress axis : x y z
#
# Youngs Moduli (GPa) = 51.33764 107.61245 105.89318
#
# Poissons Ratio (x) = 0.07928 0.07212
# Poissons Ratio (y) = 0.03782 0.13119
# Poissons Ratio (z) = 0.03497 0.13332
#
# Static dielectric constant tensor:
#      x y z
#    x 2.086060 0.022220 -0.305490 
#    y 0.022220 2.010470 -0.134880 
#    z -0.305490 -0.134880 2.570190 
# 
# From -- ./inp_files/328540.got.cif
#   From: 2010.05.17/outbox.cif.g08.bks.cpg/sg2_165_cif.got.tgz:328540.got - 2010.06.03 11:33:40.
