data_PCOD9032980
_publ_section_title
;
Structure prediction by ZEFSAII (Michael W. Deem and Ramdas Pophale) SiO2 
 PCOD9032980
Probable space group: P -1
;
_chemical_formula_sum "Si O2"
_cell_formula_units_Z 12
_cell_length_a 11.730477
_cell_length_b 11.785814
_cell_length_c 12.145623
_cell_angle_alpha 143.489251
_cell_angle_beta 25.312318
_cell_angle_gamma 138.758553
_cell_volume 425.023521
_symmetry_space_group_name_H-M "P -1"
_symmetry_group_IT_number 2
_symmetry_cell_setting 'triclinic'
loop_
_space_group_symop_operation_xyz
x,y,z
-x,-y,-z
loop_
_atom_site_type_symbol
_atom_site_label
_atom_site_fract_x
_atom_site_fract_y
_atom_site_fract_z
Si Si1 0.562741 0.146842 0.911347
Si Si2 0.826505 0.451004 0.755017
Si Si3 0.303828 0.418902 0.480011
Si Si4 0.771840 0.749196 0.370564
Si Si5 0.899897 0.101787 0.991418
Si Si6 0.859614 0.212883 0.332287
O O1 0.635273 0.326537 0.907198
O O2 0.748684 0.974255 0.594953
O O3 0.502227 0.250648 0.158902
O O4 0.281519 0.036848 0.036474
O O5 0.768135 0.360280 0.615038
O O6 0.115738 0.429988 0.545790
O O7 0.862251 0.677044 0.874515
O O8 0.491542 0.614454 0.492705
O O9 0.122773 0.346308 0.685795
O O10 0.942119 0.744391 0.106246
O O11 0.100246 0.969707 0.772713
O O12 0.719068 0.153760 0.294689
#
# Coordination Sequence:
#
# PCOD9032980 Si02
#       6
#     2   2   2   2   2   2
#     4  12  23  42  68 100 126 170 213 260 330 376
#     4  11  23  44  64  99 128 170 213 264 320 380
#     4  11  25  45  67  95 130 168 216 268 319 379
#     4  11  25  45  67  95 130 168 216 268 319 379
#     4  11  23  44  64  99 128 170 213 264 320 380
#     4  10  22  44  64  92 136 166 216 260 316 384
#
# _framework density 28.233732
#
# number of rings (size 3 to 8) (size 9 to 14) (size 15 to 20)
#    0.000    1.000    3.333    2.500    0.000    5.333 
#   12.000    4.167    0.000    0.000    0.000    0.000 
#    0.000    0.000    0.000    0.000    0.000    0.000 
#
# Total GULP energy -67105.493355 kJ/mol
# GULP energy per Si atom -5592.124446 kJ/mol
# Density = 2.816947 g / cm^3
# Si number density = 28.233732 Si / 1000 Ang^3
#
#
#
# Elastic Constant Matrix: (Units=GPa)
#
#
# Indices 1 2 3 4 5 6 
#
# 1 113.3506 34.5046 38.7196 -5.5086 18.7793 -22.3596
# 2 34.5046 158.8486 43.7897 -12.2664 7.9669 -22.2089
# 3 38.7196 43.7897 71.4059 -5.7815 15.4811 1.5466
# 4 -5.5086 -12.2664 -5.7815 65.0856 -2.4040 12.4375
# 5 18.7793 7.9669 15.4811 -2.4040 40.8716 -4.4714
# 6 -22.3596 -22.2089 1.5466 12.4375 -4.4714 49.4005
#
#
#
# Elastic Compliance Matrix: (Units=1/GPa)
#
#
# Indices 1 2 3 4 5 6 
#
# 1 0.012584 -0.000091 -0.006352 -0.000724 -0.002768 0.005786
# 2 -0.000091 0.008291 -0.005275 0.000386 0.000865 0.003833
# 3 -0.006352 -0.005275 0.022051 0.001536 -0.005057 -0.006781
# 4 -0.000724 0.000386 0.001536 0.016340 0.000166 -0.004301
# 5 -0.002768 0.000865 -0.005057 0.000166 0.027688 0.001759
# 6 0.005786 0.003833 -0.006781 -0.004301 0.001759 0.026039
#
#
# Mechanical properties :
#
#
# Convention : Reuss Voigt Hill
#
# Bulk Modulus (GPa) = 51.30360 64.18142 57.74251
# Shear Modulus (GPa) = 34.98294 46.17762 40.58028
#
# Velocity S-wave (km/s) = 3.52383 4.04858 3.79528
# Velocity P-wave (km/s) = 5.89635 6.68103 6.30092
#
# Compressibility (1/GPa) = 0.01949181
#
# Stress axis : x y z
#
# Youngs Moduli (GPa) = 79.46417 120.60667 45.34862
#
# Poissons Ratio (x) = 0.01093 0.28806
# Poissons Ratio (y) = 0.00720 0.23921
# Poissons Ratio (z) = 0.50476 0.63620
#
# Static dielectric constant tensor:
#      x y z
#    x 2.215000 0.005320 -0.053830 
#    y 0.005320 2.133320 0.044340 
#    z -0.053830 0.044340 2.208510 
# 
# From -- ./inp_files/24699.got.cif
#   From: 2010.05.17/outbox.cif.g08.bks.cpg/sg2_13_cif.got.tgz:24699.got - 2010.06.03 11:33:40.
