data_PCOD9032490
_publ_section_title
;
Structure prediction by ZEFSAII (Michael W. Deem and Ramdas Pophale) SiO2 
 PCOD9032490
Probable space group: P -1
;
_chemical_formula_sum "Si O2"
_cell_formula_units_Z 14
_cell_length_a 8.958594
_cell_length_b 8.533731
_cell_length_c 11.937019
_cell_angle_alpha 57.688962
_cell_angle_beta 119.108716
_cell_angle_gamma 125.472483
_cell_volume 607.176920
_symmetry_space_group_name_H-M "P -1"
_symmetry_group_IT_number 2
_symmetry_cell_setting 'triclinic'
loop_
_space_group_symop_operation_xyz
x,y,z
-x,-y,-z
loop_
_atom_site_type_symbol
_atom_site_label
_atom_site_fract_x
_atom_site_fract_y
_atom_site_fract_z
Si Si1 0.027133 0.312582 0.860056
Si Si2 0.206995 0.010340 0.567644
Si Si3 0.577734 0.644292 0.641953
Si Si4 0.417640 0.865646 0.864813
Si Si5 0.300504 0.693090 0.116712
Si Si6 0.256333 0.126406 0.162107
Si Si7 0.185682 0.613981 0.598730
O O1 0.905852 0.376127 0.879532
O O2 0.141841 0.492015 0.747043
O O3 0.876204 0.117113 0.808009
O O4 0.159112 0.233536 0.006520
O O5 0.269339 0.942306 0.731486
O O6 0.216206 0.844945 0.546415
O O7 0.352123 0.235709 0.494133
O O8 0.000000 0.000000 0.500000
O O9 0.602207 0.436886 0.741263
O O10 0.717407 0.791325 0.733752
O O11 0.366756 0.610769 0.605878
O O12 0.532264 0.813452 0.829901
O O13 0.586994 0.066951 0.903050
O O14 0.323499 0.694379 0.990588
O O15 0.000000 0.500000 0.500000
#
# Coordination Sequence:
#
# PCOD9032490 Si02
#       7
#     2   2   2   2   2   2   2
#     4  10  23  43  69 101 132 178 221 283 328 403
#     4  12  28  45  68  99 138 178 222 278 338 400
#     4  12  26  44  71 100 133 180 222 283 332 400
#     4  10  23  45  67  97 136 177 221 271 337 397
#     4  10  24  42  71  99 134 175 223 279 329 392
#     4  10  22  43  71  96 137 169 231 272 341 387
#     4  12  27  44  69  99 137 178 229 272 339 399
#
# _framework density 23.057528999999999
#
# number of rings (size 3 to 8) (size 9 to 14) (size 15 to 20)
#    0.000    1.143    1.429    3.000   10.000    3.429 
#    0.000    0.000    0.000    0.000    0.000    0.000 
#    0.000    0.000    0.000    0.000    0.000    0.000 
#
# Total GULP energy -78415.402414 kJ/mol
# GULP energy per Si atom -5601.100172 kJ/mol
# Density = 2.300505 g / cm^3
# Si number density = 23.057529 Si / 1000 Ang^3
#
#
#
# Elastic Constant Matrix: (Units=GPa)
#
#
# Indices 1 2 3 4 5 6 
#
# 1 145.1809 -0.7893 43.3042 -29.0427 17.7422 26.5461
# 2 -0.7893 42.3595 -1.5768 -6.9623 -11.0072 17.0108
# 3 43.3042 -1.5768 109.3328 -22.3431 -0.3195 22.0496
# 4 -29.0427 -6.9623 -22.3431 44.1580 6.5294 1.9937
# 5 17.7422 -11.0072 -0.3195 6.5294 36.9366 0.9291
# 6 26.5461 17.0108 22.0496 1.9937 0.9291 34.6936
#
#
#
# Elastic Compliance Matrix: (Units=1/GPa)
#
#
# Indices 1 2 3 4 5 6 
#
# 1 0.011778 0.005103 -0.000231 0.009790 -0.005573 -0.011780
# 2 0.005103 0.039846 0.007160 0.013409 0.007843 -0.028972
# 3 -0.000231 0.007160 0.013529 0.008203 0.001225 -0.012436
# 4 0.009790 0.013409 0.008203 0.037298 -0.006695 -0.021243
# 5 -0.005573 0.007843 0.001225 -0.006695 0.033304 -0.000867
# 6 -0.011780 -0.028972 -0.012436 -0.021243 -0.000867 0.061191
#
#
# Mechanical properties :
#
#
# Convention : Reuss Voigt Hill
#
# Bulk Modulus (GPa) = 11.20881 42.08326 26.64604
# Shear Modulus (GPa) = 24.67641 40.22001 32.44821
#
# Velocity S-wave (km/s) = 3.27496 4.18105 3.75543
# Velocity P-wave (km/s) = 4.37861 6.44975 5.51233
#
# Compressibility (1/GPa) = 0.08921550
#
# Stress axis : x y z
#
# Youngs Moduli (GPa) = 84.90221 25.09667 73.91424
#
# Poissons Ratio (x) = -0.12806 0.01710
# Poissons Ratio (y) = -0.43321 -0.52922
# Poissons Ratio (z) = 0.01964 -0.17969
#
# Static dielectric constant tensor:
#      x y z
#    x 1.803680 -0.015830 -0.035420 
#    y -0.015830 1.922520 0.045530 
#    z -0.035420 0.045530 1.838960 
# 
# From -- ./inp_files/157959.got.cif
#   From: 2010.05.17/outbox.cif.g08.bks.cpg/sg2_79_cif.got.tgz:157959.got - 2010.06.03 11:33:40.
