data_PCOD9032098
_publ_section_title
;
Structure prediction by ZEFSAII (Michael W. Deem and Ramdas Pophale) SiO2 
 PCOD9032098
Probable space group: P -1
;
_chemical_formula_sum "Si O2"
_cell_formula_units_Z 16
_cell_length_a 12.082118
_cell_length_b 20.775350
_cell_length_c 9.256565
_cell_angle_alpha 68.402733
_cell_angle_beta 36.609666
_cell_angle_gamma 40.080967
_cell_volume 684.822320
_symmetry_space_group_name_H-M "P -1"
_symmetry_group_IT_number 2
_symmetry_cell_setting 'triclinic'
loop_
_space_group_symop_operation_xyz
x,y,z
-x,-y,-z
loop_
_atom_site_type_symbol
_atom_site_label
_atom_site_fract_x
_atom_site_fract_y
_atom_site_fract_z
Si Si1 0.480665 0.302189 0.279780
Si Si2 0.449537 0.685614 0.474956
Si Si3 0.279021 0.001562 0.694799
Si Si4 0.782859 0.794869 0.091460
Si Si5 0.385748 0.846990 0.228424
Si Si6 0.361252 0.214120 0.300216
Si Si7 0.378842 0.607232 0.118448
Si Si8 0.703418 0.485987 0.189240
O O1 0.415547 0.344087 0.479077
O O2 0.264256 0.308843 0.427593
O O3 0.468405 0.374082 0.135212
O O4 0.878235 0.148565 0.983567
O O5 0.394278 0.774767 0.374678
O O6 0.701635 0.556888 0.223244
O O7 0.077924 0.761420 0.814000
O O8 0.455838 0.916155 0.435025
O O9 0.344625 0.924765 0.815035
O O10 0.500000 0.000000 0.500000
O O11 0.640994 0.821580 0.059636
O O12 0.960601 0.667624 0.065853
O O13 0.514834 0.794145 0.974473
O O14 0.000000 0.000000 0.500000
O O15 0.038931 0.264570 0.568017
O O16 0.494657 0.566275 0.196042
O O17 0.500000 0.500000 0.000000
O O18 0.500000 0.500000 0.500000
#
# Coordination Sequence:
#
# PCOD9032098 Si02
#       8
#     2   2   2   2   2   2   2   2
#     4  12  25  43  73 104 139 184 233 285 346 414
#     4  11  23  44  68 100 139 185 230 276 343 414
#     4  12  22  44  72 100 136 182 230 285 353 409
#     4  11  24  46  71  96 135 184 227 286 347 404
#     4  12  27  43  68 106 144 180 227 283 345 418
#     4  12  25  44  68 104 142 178 230 292 346 410
#     4  12  25  45  71 102 138 179 238 289 343 410
#     4  10  22  43  69  96 133 180 227 276 340 411
#
# _framework density 23.363727000000001
#
# number of rings (size 3 to 8) (size 9 to 14) (size 15 to 20)
#    0.000    0.500    2.500    7.125    0.000    1.500 
#    0.000    3.750    0.000    0.000    0.000    0.000 
#    0.000    0.000    0.000    0.000    0.000    0.000 
#
# Total GULP energy -89662.654141 kJ/mol
# GULP energy per Si atom -5603.915884 kJ/mol
# Density = 2.331055 g / cm^3
# Si number density = 23.363727 Si / 1000 Ang^3
#
#
#
# Elastic Constant Matrix: (Units=GPa)
#
#
# Indices 1 2 3 4 5 6 
#
# 1 173.2691 49.5177 40.5736 -25.2120 22.0149 1.4068
# 2 49.5177 136.8834 18.9339 -25.1807 17.1825 -2.4394
# 3 40.5736 18.9339 76.0281 -13.5036 19.8491 2.1874
# 4 -25.2120 -25.1807 -13.5036 46.8735 1.9012 12.0047
# 5 22.0149 17.1825 19.8491 1.9012 52.5949 -3.0846
# 6 1.4068 -2.4394 2.1874 12.0047 -3.0846 34.1752
#
#
#
# Elastic Compliance Matrix: (Units=1/GPa)
#
#
# Indices 1 2 3 4 5 6 
#
# 1 0.007498 -0.001628 -0.002571 0.002858 -0.001823 -0.001429
# 2 -0.001628 0.008976 0.000088 0.004342 -0.002503 -0.001049
# 3 -0.002571 0.000088 0.016878 0.004544 -0.005667 -0.003076
# 4 0.002858 0.004342 0.004544 0.029585 -0.006046 -0.011037
# 5 -0.001823 -0.002503 -0.005667 -0.006046 0.023214 0.004478
# 6 -0.001429 -0.001049 -0.003076 -0.011037 0.004478 0.033723
#
#
# Mechanical properties :
#
#
# Convention : Reuss Voigt Hill
#
# Bulk Modulus (GPa) = 39.79164 67.13677 53.46420
# Shear Modulus (GPa) = 36.63739 45.20575 40.92157
#
# Velocity S-wave (km/s) = 3.96426 4.40349 4.18963
# Velocity P-wave (km/s) = 6.16621 7.39271 6.80714
#
# Compressibility (1/GPa) = 0.02513091
#
# Stress axis : x y z
#
# Youngs Moduli (GPa) = 133.37505 111.40363 59.24708
#
# Poissons Ratio (x) = 0.18131 0.15234
# Poissons Ratio (y) = 0.21707 -0.00521
# Poissons Ratio (z) = 0.34294 -0.00980
#
# Static dielectric constant tensor:
#      x y z
#    x 1.908080 0.018890 -0.057250 
#    y 0.018890 1.861070 0.015690 
#    z -0.057250 0.015690 1.942800 
# 
# From -- ./inp_files/283009.got.cif
#   From: 2010.05.17/outbox.cif.g08.bks.cpg/sg2_142_cif.got.tgz:283009.got - 2010.06.03 11:33:40.
