data_PCOD9032040
_publ_section_title
;
Structure prediction by ZEFSAII (Michael W. Deem and Ramdas Pophale) SiO2 
 PCOD9032040
Probable space group: P -1
;
_chemical_formula_sum "Si O2"
_cell_formula_units_Z 14
_cell_length_a 13.535412
_cell_length_b 10.603034
_cell_length_c 12.050858
_cell_angle_alpha 40.778188
_cell_angle_beta 54.878189
_cell_angle_gamma 31.821395
_cell_volume 583.837517
_symmetry_space_group_name_H-M "P -1"
_symmetry_group_IT_number 2
_symmetry_cell_setting 'triclinic'
loop_
_space_group_symop_operation_xyz
x,y,z
-x,-y,-z
loop_
_atom_site_type_symbol
_atom_site_label
_atom_site_fract_x
_atom_site_fract_y
_atom_site_fract_z
Si Si1 0.368058 0.462643 0.808145
Si Si2 0.196039 0.398070 0.146648
Si Si3 0.944525 0.878771 0.345357
Si Si4 0.458082 0.207983 0.292191
Si Si5 0.513043 0.707320 0.382868
Si Si6 0.136423 0.250926 0.736983
Si Si7 0.321864 0.641355 0.270138
O O1 0.365832 0.368890 0.750274
O O2 0.584391 0.268241 0.822562
O O3 0.277894 0.434172 0.975634
O O4 0.236083 0.818100 0.670890
O O5 0.275473 0.374378 0.229444
O O6 0.971475 0.663756 0.136457
O O7 0.307631 0.060454 0.281883
O O8 0.037559 0.571253 0.543450
O O9 0.100802 0.856600 0.258582
O O10 0.887098 0.881312 0.256896
O O11 0.417834 0.454655 0.218140
O O12 0.500000 0.000000 0.500000
O O13 0.638161 0.997632 0.235320
O O14 0.500000 0.500000 0.500000
O O15 0.609064 0.585264 0.522384
#
# Coordination Sequence:
#
# PCOD9032040 Si02
#       7
#     2   2   2   2   2   2   2
#     4  11  26  41  60  92 136 169 203 250 316 384
#     4  12  24  41  64  95 131 165 198 261 326 371
#     4  11  21  38  64  93 125 159 215 258 307 365
#     4  12  20  39  67  98 122 159 214 265 308 365
#     4  10  22  43  69  88 119 170 220 257 297 365
#     4  11  21  36  66  95 125 160 209 264 308 366
#     4  11  21  41  66  93 123 164 217 260 302 363
#
# _framework density 23.979275000000001
#
# number of rings (size 3 to 8) (size 9 to 14) (size 15 to 20)
#    0.000    0.857    5.714    3.000    0.000    2.857 
#    0.000    2.857    0.000    8.571    0.000    0.000 
#    0.000    0.000    0.000    0.000    0.000    0.000 
#
# Total GULP energy -78278.891049 kJ/mol
# GULP energy per Si atom -5591.349361 kJ/mol
# Density = 2.392470 g / cm^3
# Si number density = 23.979275 Si / 1000 Ang^3
#
#
#
# Elastic Constant Matrix: (Units=GPa)
#
#
# Indices 1 2 3 4 5 6 
#
# 1 44.8808 37.3891 6.9154 -1.6301 -14.8723 1.9754
# 2 37.3891 120.1520 9.2118 20.8881 1.5204 -0.3661
# 3 6.9154 9.2118 78.4122 26.1119 -8.3700 0.5208
# 4 -1.6301 20.8881 26.1119 34.2536 -1.9374 -2.3771
# 5 -14.8723 1.5204 -8.3700 -1.9374 18.9391 10.4031
# 6 1.9754 -0.3661 0.5208 -2.3771 10.4031 46.5004
#
#
#
# Elastic Compliance Matrix: (Units=1/GPa)
#
#
# Indices 1 2 3 4 5 6 
#
# 1 0.067478 -0.025832 -0.004104 0.024624 0.064687 -0.016237
# 2 -0.025832 0.019284 0.002537 -0.015951 -0.025728 0.006161
# 3 -0.004104 0.002537 0.018507 -0.015739 0.004095 -0.001734
# 4 0.024624 -0.015951 -0.015739 0.053059 0.020688 -0.002911
# 5 0.064687 -0.025728 0.004095 0.020688 0.126157 -0.030163
# 6 -0.016237 0.006161 -0.001734 -0.002911 -0.030163 0.028862
#
#
# Mechanical properties :
#
#
# Convention : Reuss Voigt Hill
#
# Bulk Modulus (GPa) = 19.81299 38.94195 29.37747
# Shear Modulus (GPa) = 12.98810 32.60055 22.79433
#
# Velocity S-wave (km/s) = 2.32984 3.69118 3.08650
# Velocity P-wave (km/s) = 3.93929 5.86869 4.99798
#
# Compressibility (1/GPa) = 0.05047193
#
# Stress axis : x y z
#
# Youngs Moduli (GPa) = 14.81962 51.85620 54.03405
#
# Poissons Ratio (x) = 1.33956 0.22173
# Poissons Ratio (y) = 0.38282 -0.13709
# Poissons Ratio (z) = 0.06081 -0.13157
#
# Static dielectric constant tensor:
#      x y z
#    x 1.896060 0.010220 0.008660 
#    y 0.010220 1.905960 0.025810 
#    z 0.008660 0.025810 2.043670 
# 
# From -- ./inp_files/258778.got.cif
#   From: 2010.05.17/outbox.cif.g08.bks.cpg/sg2_130_cif.got.tgz:258778.got - 2010.06.03 11:33:40.
