data_PCOD9032913
_publ_section_title
;
Structure prediction by ZEFSAII (Michael W. Deem and Ramdas Pophale) SiO2 
 PCOD9032913
Probable space group: P -1
;
_chemical_formula_sum "Si O2"
_cell_formula_units_Z 16
_cell_length_a 23.057107
_cell_length_b 6.048672
_cell_length_c 11.987278
_cell_angle_alpha 56.740950
_cell_angle_beta 149.407337
_cell_angle_gamma 122.658322
_cell_volume 702.449399
_symmetry_space_group_name_H-M "P -1"
_symmetry_group_IT_number 2
_symmetry_cell_setting 'triclinic'
loop_
_space_group_symop_operation_xyz
x,y,z
-x,-y,-z
loop_
_atom_site_type_symbol
_atom_site_label
_atom_site_fract_x
_atom_site_fract_y
_atom_site_fract_z
Si Si1 0.010856 0.871545 0.722937
Si Si2 0.846114 0.594514 0.261045
Si Si3 0.813756 0.431355 0.480504
Si Si4 0.099763 0.951339 0.095725
Si Si5 0.605012 0.763513 0.855699
Si Si6 0.800221 0.462057 0.968626
Si Si7 0.541403 0.239103 0.594273
Si Si8 0.542165 0.308513 0.024640
O O1 0.878933 0.734339 0.526038
O O2 0.046855 0.170355 0.650481
O O3 0.043861 0.864323 0.908961
O O4 0.096081 0.686008 0.859798
O O5 0.862866 0.394799 0.445584
O O6 0.738712 0.741118 0.082794
O O7 0.805701 0.464125 0.112068
O O8 0.843429 0.264869 0.682197
O O9 0.678078 0.350953 0.264334
O O10 0.179628 0.232515 0.124767
O O11 0.000000 0.000000 0.000000
O O12 0.563912 0.838671 0.645472
O O13 0.559146 0.006333 0.777226
O O14 0.533080 0.485600 0.849982
O O15 0.675141 0.328617 0.754888
O O16 0.500000 0.500000 0.500000
O O17 0.500000 0.500000 0.000000
O O18 0.500000 0.000000 0.000000
#
# Coordination Sequence:
#
# PCOD9032913 Si02
#       8
#     2   2   2   2   2   2   2   2
#     4  11  23  45  68 100 138 175 234 293 360 426
#     4  10  22  44  63 104 136 172 237 293 363 427
#     4  11  25  46  73 100 139 192 232 297 371 431
#     4  11  25  44  67 103 141 181 239 294 357 442
#     4  10  23  41  67 102 138 181 243 302 354 435
#     4  11  23  39  69  96 139 178 226 302 347 432
#     4  11  22  38  70  98 134 185 236 298 366 414
#     4  11  29  51  72 106 149 195 246 299 363 447
#
# _framework density 22.777441
#
# number of rings (size 3 to 8) (size 9 to 14) (size 15 to 20)
#    0.000    1.250    3.750    0.750    3.500    2.500 
#    2.250    0.000    0.000    0.000    0.000    0.000 
#    0.000    0.000    0.000    0.000    0.000    0.000 
#
# Total GULP energy -89130.982124 kJ/mol
# GULP energy per Si atom -5570.686383 kJ/mol
# Density = 2.272560 g / cm^3
# Si number density = 22.777441 Si / 1000 Ang^3
#
#
#
# Elastic Constant Matrix: (Units=GPa)
#
#
# Indices 1 2 3 4 5 6 
#
# 1 94.3914 52.9730 42.7745 7.6985 -18.7250 0.5573
# 2 52.9730 138.4964 50.3589 28.7798 1.3025 15.7256
# 3 42.7745 50.3589 99.5982 29.7971 -2.6455 4.7162
# 4 7.6985 28.7798 29.7971 44.3423 4.8980 4.5871
# 5 -18.7250 1.3025 -2.6455 4.8980 38.4034 -4.2369
# 6 0.5573 15.7256 4.7162 4.5871 -4.2369 31.1902
#
#
#
# Elastic Compliance Matrix: (Units=1/GPa)
#
#
# Indices 1 2 3 4 5 6 
#
# 1 0.017952 -0.006070 -0.005560 0.003160 0.008647 0.004290
# 2 -0.006070 0.011780 -0.001876 -0.004385 -0.003523 -0.005381
# 3 -0.005560 -0.001876 0.015892 -0.008422 -0.000499 -0.000187
# 4 0.003160 -0.004385 -0.008422 0.031001 -0.003014 -0.001541
# 5 0.008647 -0.003523 -0.000499 -0.003014 0.031432 0.006410
# 6 0.004290 -0.005381 -0.000187 -0.001541 0.006410 0.035823
#
#
# Mechanical properties :
#
#
# Convention : Reuss Voigt Hill
#
# Bulk Modulus (GPa) = 53.72821 69.41098 61.56959
# Shear Modulus (GPa) = 28.23337 35.21250 31.72293
#
# Velocity S-wave (km/s) = 3.52452 3.93611 3.73598
# Velocity P-wave (km/s) = 6.34055 7.15521 6.76016
#
# Compressibility (1/GPa) = 0.01861220
#
# Stress axis : x y z
#
# Youngs Moduli (GPa) = 55.70278 84.89292 62.92578
#
# Poissons Ratio (x) = 0.51531 0.34985
# Poissons Ratio (y) = 0.33812 0.11804
# Poissons Ratio (z) = 0.30970 0.15925
#
# Static dielectric constant tensor:
#      x y z
#    x 1.813590 -0.077740 0.152910 
#    y -0.077740 1.674720 -0.109230 
#    z 0.152910 -0.109230 1.816450 
# 
# From -- ./inp_files/98525.got.cif
#   From: 2010.05.17/outbox.cif.g08.bks.cpg/sg2_50_cif.got.tgz:98525.got - 2010.06.03 11:33:40.
