data_PCOD9032623
_publ_section_title
;
Structure prediction by ZEFSAII (Michael W. Deem and Ramdas Pophale) SiO2 
 PCOD9032623
Probable space group: P -1
;
_chemical_formula_sum "Si O2"
_cell_formula_units_Z 14
_cell_length_a 11.176084
_cell_length_b 17.075319
_cell_length_c 10.557193
_cell_angle_alpha 133.470039
_cell_angle_beta 35.304116
_cell_angle_gamma 149.332007
_cell_volume 593.207062
_symmetry_space_group_name_H-M "P -1"
_symmetry_group_IT_number 2
_symmetry_cell_setting 'triclinic'
loop_
_space_group_symop_operation_xyz
x,y,z
-x,-y,-z
loop_
_atom_site_type_symbol
_atom_site_label
_atom_site_fract_x
_atom_site_fract_y
_atom_site_fract_z
Si Si1 0.775675 0.447257 0.321879
Si Si2 0.157881 0.724262 0.115802
Si Si3 0.191864 0.265878 0.946695
Si Si4 0.258309 0.539588 0.149505
Si Si5 0.207243 0.955296 0.726281
Si Si6 0.339069 0.186856 0.062144
Si Si7 0.910544 0.847973 0.361052
O O1 0.426649 0.312435 0.492116
O O2 0.908354 0.595263 0.290145
O O3 0.972902 0.509253 0.347352
O O4 0.856891 0.368147 0.086984
O O5 0.476958 0.816461 0.003910
O O6 0.113272 0.828855 0.223732
O O7 0.523233 0.361149 0.810840
O O8 0.083233 0.155432 0.800372
O O9 0.181678 0.386087 0.048696
O O10 0.985482 0.175471 0.146059
O O11 0.453239 0.637829 0.964623
O O12 0.500000 0.000000 0.500000
O O13 0.303970 0.102488 0.871577
O O14 0.993143 0.894458 0.723036
O O15 0.000000 0.000000 0.500000
#
# Coordination Sequence:
#
# PCOD9032623 Si02
#       7
#     2   2   2   2   2   2   2
#     4  10  22  43  72  97 131 185 234 282 341 401
#     4  10  22  45  67  97 138 181 237 284 329 413
#     4  10  22  44  69  98 139 174 225 291 342 406
#     4   9  19  45  68  95 130 174 226 296 333 390
#     4  10  22  44  67  99 135 180 229 277 350 412
#     4   9  21  42  67  96 136 176 226 286 332 413
#     4  12  27  43  66 104 143 187 225 278 356 417
#
# _framework density 23.600528000000001
#
# number of rings (size 3 to 8) (size 9 to 14) (size 15 to 20)
#    0.000    2.000    1.429    0.429    2.000    3.429 
#   28.286    0.000    0.000    0.000    0.000    0.000 
#    0.000    0.000    0.000    0.000    0.000    0.000 
#
# Total GULP energy -78267.017560 kJ/mol
# GULP energy per Si atom -5590.501254 kJ/mol
# Density = 2.354681 g / cm^3
# Si number density = 23.600528 Si / 1000 Ang^3
#
#
#
# Elastic Constant Matrix: (Units=GPa)
#
#
# Indices 1 2 3 4 5 6 
#
# 1 161.9683 50.9480 53.3214 -4.0011 -39.2590 17.5288
# 2 50.9480 103.9982 36.1473 -1.4265 -15.4046 9.8448
# 3 53.3214 36.1473 74.9906 -19.0179 -21.8421 6.8539
# 4 -4.0011 -1.4265 -19.0179 43.0544 4.2399 -13.5982
# 5 -39.2590 -15.4046 -21.8421 4.2399 34.9249 1.0688
# 6 17.5288 9.8448 6.8539 -13.5982 1.0688 35.7121
#
#
#
# Elastic Compliance Matrix: (Units=1/GPa)
#
#
# Indices 1 2 3 4 5 6 
#
# 1 0.011130 -0.001938 -0.004703 -0.003852 0.009360 -0.005773
# 2 -0.001938 0.012616 -0.004984 -0.002882 0.000701 -0.002688
# 3 -0.004703 -0.004984 0.022954 0.009896 0.005581 0.002878
# 4 -0.003852 -0.002882 0.009896 0.031584 -0.003642 0.012921
# 5 0.009360 0.000701 0.005581 -0.003642 0.043657 -0.008552
# 6 -0.005773 -0.002688 0.002878 0.012921 -0.008552 0.036200
#
#
# Mechanical properties :
#
#
# Convention : Reuss Voigt Hill
#
# Bulk Modulus (GPa) = 42.64464 69.08784 55.86624
# Shear Modulus (GPa) = 26.42580 36.10764 31.26672
#
# Velocity S-wave (km/s) = 3.34984 3.91570 3.64377
# Velocity P-wave (km/s) = 5.75069 7.05557 6.43628
#
# Compressibility (1/GPa) = 0.02344961
#
# Stress axis : x y z
#
# Youngs Moduli (GPa) = 89.84523 79.26339 43.56579
#
# Poissons Ratio (x) = 0.15360 0.20490
# Poissons Ratio (y) = 0.17411 0.21714
# Poissons Ratio (z) = 0.42256 0.39507
#
# Static dielectric constant tensor:
#      x y z
#    x 1.997360 0.023430 -0.012760 
#    y 0.023430 1.912980 -0.041380 
#    z -0.012760 -0.041380 1.897090 
# 
# From -- ./inp_files/437374.got.cif
#   From: 2010.05.17/outbox.cif.g08.bks.cpg/sg2_219_cif.got.tgz:437374.got - 2010.06.03 11:33:40.
