data_PCOD9032378
_publ_section_title
;
Structure prediction by ZEFSAII (Michael W. Deem and Ramdas Pophale) SiO2 
 PCOD9032378
Probable space group: P -1
;
_chemical_formula_sum "Si O2"
_cell_formula_units_Z 16
_cell_length_a 14.102235
_cell_length_b 14.992033
_cell_length_c 9.233647
_cell_angle_alpha 151.358407
_cell_angle_beta 53.952615
_cell_angle_gamma 126.925075
_cell_volume 738.450039
_symmetry_space_group_name_H-M "P -1"
_symmetry_group_IT_number 2
_symmetry_cell_setting 'triclinic'
loop_
_space_group_symop_operation_xyz
x,y,z
-x,-y,-z
loop_
_atom_site_type_symbol
_atom_site_label
_atom_site_fract_x
_atom_site_fract_y
_atom_site_fract_z
Si Si1 0.889614 0.574077 0.272575
Si Si2 0.593494 0.727526 0.910544
Si Si3 0.490033 0.715944 0.299112
Si Si4 0.899517 0.817680 0.363642
Si Si5 0.643146 0.358228 0.197145
Si Si6 0.660434 0.953476 0.716748
Si Si7 0.060246 0.607963 0.740277
Si Si8 0.287158 0.912302 0.838115
O O1 0.901681 0.779214 0.479713
O O2 0.762974 0.467505 0.164690
O O3 0.888365 0.521717 0.370007
O O4 0.000000 0.500000 0.000000
O O5 0.623518 0.518193 0.560284
O O6 0.473384 0.703097 0.885034
O O7 0.555318 0.774470 0.171792
O O8 0.700479 0.905228 0.019736
O O9 0.560805 0.827154 0.528344
O O10 0.358862 0.764923 0.492214
O O11 0.500000 0.500000 0.000000
O O12 0.774775 0.857406 0.478041
O O13 0.000000 0.000000 0.500000
O O14 0.950115 0.664469 0.006659
O O15 0.679883 0.169434 0.952496
O O16 0.634506 0.977526 0.942097
O O17 0.164834 0.787028 0.842490
O O18 0.000000 0.500000 0.500000
#
# Coordination Sequence:
#
# PCOD9032378 Si02
#       8
#     2   2   2   2   2   2   2   2
#     4  10  22  43  71 100 134 185 235 281 348 423
#     4  11  27  45  69 106 140 187 241 298 353 430
#     4  12  29  43  67 106 145 186 238 298 361 412
#     4  11  23  46  71 104 136 186 246 286 348 431
#     4  11  23  44  76  99 142 186 243 284 361 419
#     4  12  24  44  73 100 140 189 237 292 352 428
#     4  11  26  46  73 106 142 183 233 302 359 421
#     4  12  24  48  70 100 143 187 236 295 360 434
#
# _framework density 21.667003000000001
#
# number of rings (size 3 to 8) (size 9 to 14) (size 15 to 20)
#    0.000    0.750    3.750    3.000    7.000    1.000 
#    2.250    0.625    0.000    0.000    0.000    0.000 
#    0.000    0.000    0.000    0.000    0.000    0.000 
#
# Total GULP energy -89203.989219 kJ/mol
# GULP energy per Si atom -5575.249326 kJ/mol
# Density = 2.161769 g / cm^3
# Si number density = 21.667003 Si / 1000 Ang^3
#
#
#
# Elastic Constant Matrix: (Units=GPa)
#
#
# Indices 1 2 3 4 5 6 
#
# 1 94.0008 40.1787 36.4289 -2.7012 -12.3256 3.4441
# 2 40.1787 147.1629 36.7268 0.8505 -2.9052 -7.9780
# 3 36.4289 36.7268 107.2174 -9.9630 -13.3996 -0.9540
# 4 -2.7012 0.8505 -9.9630 41.2970 3.0778 -8.8556
# 5 -12.3256 -2.9052 -13.3996 3.0778 42.1165 0.4678
# 6 3.4441 -7.9780 -0.9540 -8.8556 0.4678 31.3263
#
#
#
# Elastic Compliance Matrix: (Units=1/GPa)
#
#
# Indices 1 2 3 4 5 6 
#
# 1 0.013650 -0.002971 -0.003350 -0.000615 0.002797 -0.002575
# 2 -0.002971 0.008192 -0.001916 -0.000265 -0.000920 0.002294
# 3 -0.003350 -0.001916 0.011677 0.002663 0.002397 0.000953
# 4 -0.000615 -0.000265 0.002663 0.026557 -0.001376 0.007609
# 5 0.002797 -0.000920 0.002397 -0.001376 0.025376 -0.001237
# 6 -0.002575 0.002294 0.000953 0.007609 -0.001237 0.034988
#
#
# Mechanical properties :
#
#
# Convention : Reuss Voigt Hill
#
# Bulk Modulus (GPa) = 58.67169 63.89443 61.28306
# Shear Modulus (GPa) = 35.06388 38.61773 36.84080
#
# Velocity S-wave (km/s) = 4.02718 4.22634 4.12797
# Velocity P-wave (km/s) = 6.98297 7.30543 7.14602
#
# Compressibility (1/GPa) = 0.01704400
#
# Stress axis : x y z
#
# Youngs Moduli (GPa) = 73.25894 122.06583 85.63829
#
# Poissons Ratio (x) = 0.36272 0.28693
# Poissons Ratio (y) = 0.21769 0.16407
# Poissons Ratio (z) = 0.24545 0.23386
#
# Static dielectric constant tensor:
#      x y z
#    x 1.782350 -0.048540 0.001010 
#    y -0.048540 1.926980 0.041100 
#    z 0.001010 0.041100 1.760990 
# 
# From -- ./inp_files/316173.got.cif
#   From: 2010.05.17/outbox.cif.g08.bks.cpg/sg2_159_cif.got.tgz:316173.got - 2010.06.03 11:33:40.
