data_PCOD9032689
_publ_section_title
;
Structure prediction by ZEFSAII (Michael W. Deem and Ramdas Pophale) SiO2 
 PCOD9032689
Probable space group: P -1
;
_chemical_formula_sum "Si O2"
_cell_formula_units_Z 15
_cell_length_a 10.273001
_cell_length_b 12.965850
_cell_length_c 13.285892
_cell_angle_alpha 157.434897
_cell_angle_beta 55.299229
_cell_angle_gamma 121.694433
_cell_volume 558.292486
_symmetry_space_group_name_H-M "P -1"
_symmetry_group_IT_number 2
_symmetry_cell_setting 'triclinic'
loop_
_space_group_symop_operation_xyz
x,y,z
-x,-y,-z
loop_
_atom_site_type_symbol
_atom_site_label
_atom_site_fract_x
_atom_site_fract_y
_atom_site_fract_z
Si Si1 0.000000 0.500000 0.000000
Si Si2 0.262829 0.858944 0.565236
Si Si3 0.080903 0.566062 0.836085
Si Si4 0.331845 0.926174 0.960242
Si Si5 0.060883 0.305710 0.387931
Si Si6 0.725016 0.576434 0.008143
Si Si7 0.520280 0.304380 0.495308
Si Si8 0.331085 0.751563 0.077324
O O1 0.893128 0.638380 0.268328
O O2 0.858256 0.267542 0.852064
O O3 0.257274 0.635879 0.280010
O O4 0.360495 0.742677 0.508752
O O5 0.083088 0.907852 0.727784
O O6 0.333571 0.136962 0.744403
O O7 0.070339 0.446237 0.620733
O O8 0.905066 0.643476 0.030853
O O9 0.201939 0.809672 0.989359
O O10 0.228413 0.161087 0.163667
O O11 0.500000 0.000000 0.000000
O O12 0.377765 0.703428 0.657832
O O13 0.000000 0.500000 0.500000
O O14 0.628464 0.428099 0.002360
O O15 0.423797 0.574576 0.794401
O O16 0.408488 0.042205 0.307083
#
# Coordination Sequence:
#
# PCOD9032689 Si02
#       8
#     1   2   2   2   2   2   2   2
#     4  10  24  50  80 100 152 204 270 314 388 466
#     4  11  23  43  72 107 148 197 248 321 383 463
#     4  10  23  46  73 108 145 200 259 321 378 467
#     4  12  28  47  75 111 154 204 255 327 392 471
#     4  11  26  45  77 111 153 207 259 317 389 475
#     4  10  22  43  73 104 143 195 258 310 378 454
#     4  12  28  43  72 109 155 193 250 318 398 455
#     4  11  26  47  69 111 146 205 252 322 380 466
#
# _framework density 26.867637999999999
#
# number of rings (size 3 to 8) (size 9 to 14) (size 15 to 20)
#    0.000    1.067    1.333    3.200    9.333    5.333 
#    0.000    0.000    0.000    0.000    0.000    0.000 
#    0.000    0.000    0.000    0.000    0.000    0.000 
#
# Total GULP energy -83751.577528 kJ/mol
# GULP energy per Si atom -5583.438502 kJ/mol
# Density = 2.680649 g / cm^3
# Si number density = 26.867638 Si / 1000 Ang^3
#
#
#
# Elastic Constant Matrix: (Units=GPa)
#
#
# Indices 1 2 3 4 5 6 
#
# 1 118.3525 39.6742 52.4918 -7.9797 -16.5070 24.2519
# 2 39.6742 184.7014 40.4699 0.6667 8.3808 8.3927
# 3 52.4918 40.4699 98.7618 0.9133 -8.0739 -2.6066
# 4 -7.9797 0.6667 0.9133 45.2821 0.1910 2.0993
# 5 -16.5070 8.3808 -8.0739 0.1910 37.2332 -2.1394
# 6 24.2519 8.3927 -2.6066 2.0993 -2.1394 45.8712
#
#
#
# Elastic Compliance Matrix: (Units=1/GPa)
#
#
# Indices 1 2 3 4 5 6 
#
# 1 0.014459 -0.001468 -0.006924 0.003045 0.004782 -0.007686
# 2 -0.001468 0.006318 -0.002031 -0.000272 -0.002546 -0.000602
# 3 -0.006924 -0.002031 0.014859 -0.001725 0.000906 0.004998
# 4 0.003045 -0.000272 -0.001725 0.022780 0.000767 -0.002665
# 5 0.004782 -0.002546 0.000906 0.000767 0.029706 -0.000661
# 6 -0.007686 -0.000602 0.004998 -0.002665 -0.000661 0.026349
#
#
# Mechanical properties :
#
#
# Convention : Reuss Voigt Hill
#
# Bulk Modulus (GPa) = 67.59949 74.12084 70.86017
# Shear Modulus (GPa) = 35.65166 43.62262 39.63714
#
# Velocity S-wave (km/s) = 3.64667 4.03378 3.84510
# Velocity P-wave (km/s) = 6.55330 7.02442 6.79294
#
# Compressibility (1/GPa) = 0.01479301
#
# Stress axis : x y z
#
# Youngs Moduli (GPa) = 69.15906 158.27416 67.29765
#
# Poissons Ratio (x) = 0.23228 0.46596
# Poissons Ratio (y) = 0.10149 0.13665
# Poissons Ratio (z) = 0.47885 0.32138
#
# Static dielectric constant tensor:
#      x y z
#    x 1.947770 0.265850 0.166170 
#    y 0.265850 1.881790 -0.106860 
#    z 0.166170 -0.106860 2.085850 
# 
# From -- ./inp_files/522022.got.cif
#   From: 2010.05.17/outbox.cif.g08.bks.cpg/sg2_262_cif.got.tgz:522022.got - 2010.06.03 11:33:40.
