data_PCOD9032132
_publ_section_title
;
Structure prediction by ZEFSAII (Michael W. Deem and Ramdas Pophale) SiO2 
 PCOD9032132
Probable space group: P -1
;
_chemical_formula_sum "Si O2"
_cell_formula_units_Z 14
_cell_length_a 13.707624
_cell_length_b 11.705510
_cell_length_c 20.821124
_cell_angle_alpha 151.145784
_cell_angle_beta 151.094369
_cell_angle_gamma 21.317257
_cell_volume 551.371460
_symmetry_space_group_name_H-M "P -1"
_symmetry_group_IT_number 2
_symmetry_cell_setting 'triclinic'
loop_
_space_group_symop_operation_xyz
x,y,z
-x,-y,-z
loop_
_atom_site_type_symbol
_atom_site_label
_atom_site_fract_x
_atom_site_fract_y
_atom_site_fract_z
Si Si1 0.170408 0.710666 0.402877
Si Si2 0.052904 0.516630 0.759455
Si Si3 0.216167 0.852440 0.158513
Si Si4 0.401067 0.845477 0.027113
Si Si5 0.669998 0.725183 0.907015
Si Si6 0.542244 0.281557 0.635609
Si Si7 0.087607 0.157118 0.477533
O O1 0.500000 0.500000 0.500000
O O2 0.090715 0.511440 0.278825
O O3 0.000000 0.000000 0.500000
O O4 0.080425 0.895317 0.373918
O O5 0.364379 0.343687 0.875177
O O6 0.099073 0.316112 0.624312
O O7 0.849176 0.898766 0.810014
O O8 0.283336 0.914861 0.296410
O O9 0.476893 0.462960 0.100700
O O10 0.923138 0.946882 0.041228
O O11 0.411906 0.085960 0.114472
O O12 0.606631 0.501736 0.764419
O O13 0.000000 0.500000 0.000000
O O14 0.500000 0.000000 0.000000
O O15 0.205745 0.545160 0.580661
O O16 0.652027 0.045003 0.520994
#
# Coordination Sequence:
#
# PCOD9032132 Si02
#       7
#     2   2   2   2   2   2   2
#     4  10  22  43  69  98 135 176 234 292 348 414
#     4  11  27  47  73 105 148 194 235 290 369 430
#     4  12  27  46  71 104 148 195 241 291 350 431
#     4  12  25  47  72 108 144 186 247 298 350 426
#     4  12  22  43  72 102 134 179 232 293 357 401
#     4  12  24  44  71 105 142 180 241 293 350 428
#     4  11  25  44  71 104 140 183 235 301 354 415
#
# _framework density 25.391231000000001
#
# number of rings (size 3 to 8) (size 9 to 14) (size 15 to 20)
#    0.000    0.571    2.857    5.143    0.000   10.286 
#    0.000    0.000    0.000    0.000    0.000    0.000 
#    0.000    0.000    0.000    0.000    0.000    0.000 
#
# Total GULP energy -78600.848975 kJ/mol
# GULP energy per Si atom -5614.346355 kJ/mol
# Density = 2.533344 g / cm^3
# Si number density = 25.391231 Si / 1000 Ang^3
#
#
#
# Elastic Constant Matrix: (Units=GPa)
#
#
# Indices 1 2 3 4 5 6 
#
# 1 92.9546 43.1342 29.1372 9.1674 10.3323 3.1468
# 2 43.1342 121.4194 13.9664 -9.7692 8.0392 -1.6444
# 3 29.1372 13.9664 65.1670 -3.5655 -2.9723 0.8126
# 4 9.1674 -9.7692 -3.5655 43.9511 8.1114 -0.4947
# 5 10.3323 8.0392 -2.9723 8.1114 38.2062 4.6833
# 6 3.1468 -1.6444 0.8126 -0.4947 4.6833 67.3150
#
#
#
# Elastic Compliance Matrix: (Units=1/GPa)
#
#
# Indices 1 2 3 4 5 6 
#
# 1 0.015882 -0.005100 -0.006368 -0.004474 -0.002690 -0.000636
# 2 -0.005100 0.010448 0.000160 0.003715 -0.001673 0.000635
# 3 -0.006368 0.000160 0.018409 0.002371 0.002628 -0.000086
# 4 -0.004474 0.003715 0.002371 0.025622 -0.004925 0.000802
# 5 -0.002690 -0.001673 0.002628 -0.004925 0.028746 -0.001983
# 6 -0.000636 0.000635 -0.000086 0.000802 -0.001983 0.015046
#
#
# Mechanical properties :
#
#
# Convention : Reuss Voigt Hill
#
# Bulk Modulus (GPa) = 45.20118 50.22406 47.71262
# Shear Modulus (GPa) = 34.68800 42.78136 38.73468
#
# Velocity S-wave (km/s) = 3.70014 4.10919 3.91002
# Velocity P-wave (km/s) = 6.00794 6.50669 6.26228
#
# Compressibility (1/GPa) = 0.02212332
#
# Stress axis : x y z
#
# Youngs Moduli (GPa) = 62.96312 95.71551 54.32251
#
# Poissons Ratio (x) = 0.48817 0.34591
# Poissons Ratio (y) = 0.32113 -0.00871
# Poissons Ratio (z) = 0.40093 -0.01534
#
# Static dielectric constant tensor:
#      x y z
#    x 1.975000 0.042900 0.011720 
#    y 0.042900 1.930910 0.038230 
#    z 0.011720 0.038230 1.997280 
# 
# From -- ./inp_files/72231.got.cif
#   From: 2010.05.17/outbox.cif.g08.bks.cpg/sg2_37_cif.got.tgz:72231.got - 2010.06.03 11:33:40.
