data_PCOD9032537
_publ_section_title
;
Structure prediction by ZEFSAII (Michael W. Deem and Ramdas Pophale) SiO2 
 PCOD9032537
Probable space group: P -1
;
_chemical_formula_sum "Si O2"
_cell_formula_units_Z 14
_cell_length_a 7.846010
_cell_length_b 9.332252
_cell_length_c 14.364878
_cell_angle_alpha 143.336767
_cell_angle_beta 66.473885
_cell_angle_gamma 123.334742
_cell_volume 522.885616
_symmetry_space_group_name_H-M "P -1"
_symmetry_group_IT_number 2
_symmetry_cell_setting 'triclinic'
loop_
_space_group_symop_operation_xyz
x,y,z
-x,-y,-z
loop_
_atom_site_type_symbol
_atom_site_label
_atom_site_fract_x
_atom_site_fract_y
_atom_site_fract_z
Si Si1 0.833289 0.942363 0.637725
Si Si2 0.192340 0.242317 0.248157
Si Si3 0.422598 0.200334 0.572441
Si Si4 0.364818 0.384431 0.862235
Si Si5 0.072448 0.552692 0.675567
Si Si6 0.378713 0.028719 0.953513
Si Si7 0.797342 0.444672 0.859501
O O1 0.770796 0.867065 0.719265
O O2 0.685932 0.872175 0.541075
O O3 0.937940 0.737295 0.489242
O O4 0.886909 0.254157 0.787184
O O5 0.384728 0.522921 0.338415
O O6 0.196555 0.072130 0.068681
O O7 0.997314 0.312477 0.322595
O O8 0.287515 0.249568 0.709595
O O9 0.500000 0.000000 0.500000
O O10 0.475798 0.700905 0.987147
O O11 0.554065 0.320593 0.821345
O O12 0.196550 0.334444 0.952115
O O13 0.918285 0.525761 0.779618
O O14 0.292054 0.770002 0.774093
O O15 0.500000 0.000000 0.000000
#
# Coordination Sequence:
#
# PCOD9032537 Si02
#       7
#     2   2   2   2   2   2   2
#     4  12  25  42  68 103 148 185 232 285 355 420
#     4  11  24  43  65 104 142 186 237 284 348 419
#     4  11  21  44  70 102 139 187 234 290 347 414
#     4  10  22  43  72 101 139 177 242 281 354 413
#     4  12  24  46  72 103 144 184 234 294 349 412
#     4  11  23  45  74 101 141 182 234 294 354 420
#     4  11  23  44  71 102 138 187 231 294 343 416
#
# _framework density 26.774498999999999
#
# number of rings (size 3 to 8) (size 9 to 14) (size 15 to 20)
#    0.000    0.857    4.286    4.286    0.000    1.143 
#    0.000    9.286    0.000    0.000    0.000    0.000 
#    0.000    0.000    0.000    0.000    0.000    0.000 
#
# Total GULP energy -78324.585081 kJ/mol
# GULP energy per Si atom -5594.613220 kJ/mol
# Density = 2.671356 g / cm^3
# Si number density = 26.774499 Si / 1000 Ang^3
#
#
#
# Elastic Constant Matrix: (Units=GPa)
#
#
# Indices 1 2 3 4 5 6 
#
# 1 109.5819 21.7854 17.6424 16.8853 -29.0316 -38.3642
# 2 21.7854 110.5130 23.2385 -0.5634 -13.1563 -42.9610
# 3 17.6424 23.2385 96.6854 8.0415 -12.0434 2.6441
# 4 16.8853 -0.5634 8.0415 32.7250 -12.2281 -6.6068
# 5 -29.0316 -13.1563 -12.0434 -12.2281 38.7952 -0.9256
# 6 -38.3642 -42.9610 2.6441 -6.6068 -0.9256 45.7257
#
#
#
# Elastic Compliance Matrix: (Units=1/GPa)
#
#
# Indices 1 2 3 4 5 6 
#
# 1 0.025030 0.012321 -0.005922 0.004302 0.023238 0.034011
# 2 0.012321 0.024358 -0.007534 0.010271 0.019227 0.035531
# 3 -0.005922 -0.007534 0.013429 -0.004872 -0.004678 -0.013622
# 4 0.004302 0.010271 -0.004872 0.040603 0.018460 0.019781
# 5 0.023238 0.019227 -0.004678 0.018460 0.055045 0.041613
# 6 0.034011 0.035531 -0.013622 0.019781 0.041613 0.088276
#
#
# Mechanical properties :
#
#
# Convention : Reuss Voigt Hill
#
# Bulk Modulus (GPa) = 16.51593 49.12366 32.81980
# Shear Modulus (GPa) = 18.57396 40.39011 29.48204
#
# Velocity S-wave (km/s) = 2.63671 3.88819 3.32192
# Velocity P-wave (km/s) = 3.93085 6.20841 5.19596
#
# Compressibility (1/GPa) = 0.06054761
#
# Stress axis : x y z
#
# Youngs Moduli (GPa) = 39.95168 41.05468 74.46474
#
# Poissons Ratio (x) = -0.50583 0.44098
# Poissons Ratio (y) = -0.49224 0.56099
# Poissons Ratio (z) = 0.23659 0.30929
#
# Static dielectric constant tensor:
#      x y z
#    x 2.183500 0.057640 -0.004280 
#    y 0.057640 2.050090 -0.030540 
#    z -0.004280 -0.030540 2.192850 
# 
# From -- ./inp_files/491710.got.cif
#   From: 2010.05.17/outbox.cif.g08.bks.cpg/sg2_246_cif.got.tgz:491710.got - 2010.06.03 11:33:40.
