data_PCOD9032812
_publ_section_title
;
Structure prediction by ZEFSAII (Michael W. Deem and Ramdas Pophale) SiO2 
 PCOD9032812
Probable space group: P -1
;
_chemical_formula_sum "Si O2"
_cell_formula_units_Z 16
_cell_length_a 24.539380
_cell_length_b 5.090176
_cell_length_c 5.585232
_cell_angle_alpha 94.774894
_cell_angle_beta 107.978075
_cell_angle_gamma 69.193362
_cell_volume 620.037464
_symmetry_space_group_name_H-M "P -1"
_symmetry_group_IT_number 2
_symmetry_cell_setting 'triclinic'
loop_
_space_group_symop_operation_xyz
x,y,z
-x,-y,-z
loop_
_atom_site_type_symbol
_atom_site_label
_atom_site_fract_x
_atom_site_fract_y
_atom_site_fract_z
Si Si1 0.279845 0.929871 0.556576
Si Si2 0.070873 0.470192 0.084830
Si Si3 0.236126 0.384081 0.897243
Si Si4 0.817823 0.032095 0.930524
Si Si5 0.408880 0.704189 0.458202
Si Si6 0.044271 0.683034 0.563932
Si Si7 0.552819 0.852476 0.247032
Si Si8 0.649891 0.536359 0.014434
O O1 0.226194 0.858981 0.347430
O O2 0.338640 0.851967 0.459045
O O3 0.250593 0.245275 0.643203
O O4 0.306391 0.730433 0.803570
O O5 0.114932 0.151967 0.078570
O O6 0.083933 0.584418 0.368035
O O7 0.076231 0.632803 0.862318
O O8 0.000000 0.500000 0.000000
O O9 0.208509 0.188812 0.995089
O O10 0.303806 0.369281 0.077128
O O11 0.192496 0.705114 0.890037
O O12 0.443435 0.446947 0.663809
O O13 0.400813 0.557440 0.192302
O O14 0.441738 0.932452 0.525366
O O15 0.000000 0.500000 0.500000
O O16 0.000000 0.000000 0.500000
O O17 0.614617 0.778761 0.168022
O O18 0.500000 0.000000 0.000000
#
# Coordination Sequence:
#
# PCOD9032812 Si02
#       8
#     2   2   2   2   2   2   2   2
#     4  11  24  44  70 102 141 182 240 295 366 430
#     4  10  25  50  73 109 149 196 243 303 375 453
#     4  12  25  44  67 104 140 180 241 292 365 419
#     4  12  29  43  72 107 144 183 240 303 362 439
#     4  11  24  41  72  96 139 186 233 291 360 419
#     4  10  22  43  75  98 137 188 241 286 351 436
#     4  11  26  44  67 105 141 184 237 288 352 430
#     4  11  25  43  74  98 141 187 234 295 365 424
#
# _framework density 25.804894000000001
#
# number of rings (size 3 to 8) (size 9 to 14) (size 15 to 20)
#    0.000    1.000    3.750    0.750    7.000    5.000 
#    0.000    1.250    0.000    0.000    0.000    0.000 
#    0.000    0.000    0.000    0.000    0.000    0.000 
#
# Total GULP energy -89620.335497 kJ/mol
# GULP energy per Si atom -5601.270969 kJ/mol
# Density = 2.574616 g / cm^3
# Si number density = 25.804894 Si / 1000 Ang^3
#
#
#
# Elastic Constant Matrix: (Units=GPa)
#
#
# Indices 1 2 3 4 5 6 
#
# 1 80.7109 46.6135 9.0215 1.8575 5.7106 -9.8014
# 2 46.6135 168.3209 31.8236 1.8977 -8.7600 -14.6681
# 3 9.0215 31.8236 96.9151 3.7927 -25.0125 -6.1395
# 4 1.8575 1.8977 3.7927 47.7880 -0.9316 -0.7410
# 5 5.7106 -8.7600 -25.0125 -0.9316 32.0390 2.9455
# 6 -9.8014 -14.6681 -6.1395 -0.7410 2.9455 55.2586
#
#
#
# Elastic Compliance Matrix: (Units=1/GPa)
#
#
# Indices 1 2 3 4 5 6 
#
# 1 0.015518 -0.004164 -0.001254 -0.000409 -0.005058 0.001772
# 2 -0.004164 0.007571 -0.001670 0.000037 0.001417 0.001011
# 3 -0.001254 -0.001670 0.013725 -0.000766 0.010432 0.000293
# 4 -0.000409 0.000037 -0.000766 0.021005 0.000084 0.000129
# 5 -0.005058 0.001417 0.010432 0.000084 0.040789 -0.001535
# 6 0.001772 0.001011 0.000293 0.000129 -0.001535 0.018795
#
#
# Mechanical properties :
#
#
# Convention : Reuss Voigt Hill
#
# Bulk Modulus (GPa) = 44.17856 57.87378 51.02617
# Shear Modulus (GPa) = 35.93866 44.24967 40.09417
#
# Velocity S-wave (km/s) = 3.73595 4.14548 3.94603
# Velocity P-wave (km/s) = 5.98056 6.73717 6.37011
#
# Compressibility (1/GPa) = 0.02263542
#
# Stress axis : x y z
#
# Youngs Moduli (GPa) = 64.44245 132.07444 72.86231
#
# Poissons Ratio (x) = 0.55002 0.09139
# Poissons Ratio (y) = 0.26837 0.12171
# Poissons Ratio (z) = 0.08083 0.22062
#
# Static dielectric constant tensor:
#      x y z
#    x 2.046990 0.007600 0.004210 
#    y 0.007600 1.990840 0.003060 
#    z 0.004210 0.003060 2.063520 
# 
# From -- ./inp_files/125898.got.cif
#   From: 2010.05.17/outbox.cif.g08.bks.cpg/sg2_63_cif.got.tgz:125898.got - 2010.06.03 11:33:40.
