data_PCOD9032885
_publ_section_title
;
Structure prediction by ZEFSAII (Michael W. Deem and Ramdas Pophale) SiO2 
 PCOD9032885
Probable space group: P -1
;
_chemical_formula_sum "Si O2"
_cell_formula_units_Z 16
_cell_length_a 12.426309
_cell_length_b 18.719465
_cell_length_c 9.609166
_cell_angle_alpha 123.510116
_cell_angle_beta 47.843163
_cell_angle_gamma 152.952334
_cell_volume 746.540535
_symmetry_space_group_name_H-M "P -1"
_symmetry_group_IT_number 2
_symmetry_cell_setting 'triclinic'
loop_
_space_group_symop_operation_xyz
x,y,z
-x,-y,-z
loop_
_atom_site_type_symbol
_atom_site_label
_atom_site_fract_x
_atom_site_fract_y
_atom_site_fract_z
Si Si1 0.994217 0.567150 0.955464
Si Si2 0.530181 0.114918 0.257516
Si Si3 0.130830 0.873610 0.114754
Si Si4 0.385236 0.463329 0.709688
Si Si5 0.181305 0.515059 0.299638
Si Si6 0.650636 0.863220 0.301763
Si Si7 0.237003 0.356471 0.168550
Si Si8 0.869568 0.017311 0.010818
O O1 0.850578 0.491046 0.845650
O O2 0.302674 0.736017 0.822860
O O3 0.827275 0.565001 0.155790
O O4 0.000000 0.500000 0.000000
O O5 0.440891 0.115492 0.478516
O O6 0.274580 0.951245 0.221748
O O7 0.743559 0.142745 0.100282
O O8 0.813322 0.706291 0.232401
O O9 0.210061 0.994314 0.085761
O O10 0.500000 0.500000 0.500000
O O11 0.634783 0.599709 0.744946
O O12 0.477083 0.690775 0.278102
O O13 0.104822 0.385007 0.291234
O O14 0.000000 0.500000 0.500000
O O15 0.958507 0.983981 0.162881
O O16 0.628889 0.887655 0.189683
O O17 0.051454 0.186189 0.095633
O O18 0.500000 0.500000 0.000000
#
# Coordination Sequence:
#
# PCOD9032885 Si02
#       8
#     2   2   2   2   2   2   2   2
#     4  11  24  41  62  94 131 164 210 265 318 375
#     4  10  23  43  62  88 130 169 207 256 318 380
#     4  10  22  44  62  88 128 170 208 256 315 381
#     4  11  24  40  66  95 123 168 217 260 312 383
#     4  12  24  43  69  95 127 169 216 271 322 378
#     4  11  24  41  64  99 127 161 215 267 316 374
#     4  12  21  45  69  89 128 175 216 263 321 384
#     4  11  24  41  66  95 128 165 212 264 317 378
#
# _framework density 21.432192000000001
#
# number of rings (size 3 to 8) (size 9 to 14) (size 15 to 20)
#    0.000    1.000    5.000    0.750    5.250    2.000 
#    0.000    0.000    0.000    0.000    0.000    0.000 
#    0.000    0.000    0.000    0.000    0.000    0.000 
#
# Total GULP energy -89181.107066 kJ/mol
# GULP energy per Si atom -5573.819192 kJ/mol
# Density = 2.138341 g / cm^3
# Si number density = 21.432192 Si / 1000 Ang^3
#
#
#
# Elastic Constant Matrix: (Units=GPa)
#
#
# Indices 1 2 3 4 5 6 
#
# 1 80.6276 1.9704 30.5788 -1.6777 8.2255 -8.7492
# 2 1.9704 56.4268 18.4262 5.6197 -3.3524 8.6839
# 3 30.5788 18.4262 158.3157 -7.7933 -0.0616 -2.3521
# 4 -1.6777 5.6197 -7.7933 23.7871 -1.0359 8.1413
# 5 8.2255 -3.3524 -0.0616 -1.0359 25.7502 5.5865
# 6 -8.7492 8.6839 -2.3521 8.1413 5.5865 35.8245
#
#
#
# Elastic Compliance Matrix: (Units=1/GPa)
#
#
# Indices 1 2 3 4 5 6 
#
# 1 0.014540 -0.000524 -0.002760 -0.001644 -0.005822 0.004778
# 2 -0.000524 0.019877 -0.002466 -0.003729 0.003647 -0.004829
# 3 -0.002760 -0.002466 0.007276 0.002938 0.000780 -0.000388
# 4 -0.001644 -0.003729 0.002938 0.047653 0.004308 -0.010806
# 5 -0.005822 0.003647 0.000780 0.004308 0.043518 -0.010020
# 6 0.004778 -0.004829 -0.000388 -0.010806 -0.010020 0.034244
#
#
# Mechanical properties :
#
#
# Convention : Reuss Voigt Hill
#
# Bulk Modulus (GPa) = 33.11999 44.14676 38.63337
# Shear Modulus (GPa) = 26.50084 33.36537 29.93310
#
# Velocity S-wave (km/s) = 3.52020 3.94990 3.74122
# Velocity P-wave (km/s) = 5.65768 6.43780 6.06031
#
# Compressibility (1/GPa) = 0.03019325
#
# Stress axis : x y z
#
# Youngs Moduli (GPa) = 68.77362 50.30949 137.44297
#
# Poissons Ratio (x) = 0.02637 0.37930
# Poissons Ratio (y) = 0.03605 0.33895
# Poissons Ratio (z) = 0.18979 0.12407
#
# Static dielectric constant tensor:
#      x y z
#    x 8.767450 -0.574920 1.514470 
#    y -0.574920 1.910020 -0.098700 
#    z 1.514470 -0.098700 2.139580 
# 
# From -- ./inp_files/186826.got.cif
#   From: 2010.05.17/outbox.cif.g08.bks.cpg/sg2_94_cif.got.tgz:186826.got - 2010.06.03 11:33:40.
