data_PCOD9032117
_publ_section_title
;
Structure prediction by ZEFSAII (Michael W. Deem and Ramdas Pophale) SiO2 
 PCOD9032117
Probable space group: P -1
;
_chemical_formula_sum "Si O2"
_cell_formula_units_Z 14
_cell_length_a 15.582153
_cell_length_b 6.203579
_cell_length_c 12.336388
_cell_angle_alpha 99.395845
_cell_angle_beta 135.585235
_cell_angle_gamma 54.901276
_cell_volume 615.754724
_symmetry_space_group_name_H-M "P -1"
_symmetry_group_IT_number 2
_symmetry_cell_setting 'triclinic'
loop_
_space_group_symop_operation_xyz
x,y,z
-x,-y,-z
loop_
_atom_site_type_symbol
_atom_site_label
_atom_site_fract_x
_atom_site_fract_y
_atom_site_fract_z
Si Si1 0.631558 0.724884 0.020286
Si Si2 0.622517 0.263073 0.679652
Si Si3 0.180000 0.781390 0.692714
Si Si4 0.586168 0.383651 0.300634
Si Si5 0.864595 0.786075 0.143603
Si Si6 0.842595 0.865538 0.654771
Si Si7 0.100795 0.892638 0.973124
O O1 0.774280 0.470388 0.207952
O O2 0.725159 0.765314 0.021145
O O3 0.538543 0.630280 0.875240
O O4 0.500000 0.000000 0.000000
O O5 0.500000 0.500000 0.500000
O O6 0.506659 0.332748 0.681525
O O7 0.748837 0.970082 0.696617
O O8 0.720981 0.346977 0.831478
O O9 0.308558 0.629173 0.698783
O O10 0.190167 0.985230 0.792585
O O11 0.000000 0.000000 0.500000
O O12 0.710898 0.094829 0.465067
O O13 0.048547 0.475300 0.300798
O O14 0.874511 0.908722 0.050899
O O15 0.987516 0.876721 0.794121
O O16 0.000000 0.000000 0.000000
#
# Coordination Sequence:
#
# PCOD9032117 Si02
#       7
#     2   2   2   2   2   2   2
#     4  12  27  44  67 107 141 185 234 283 355 410
#     4   9  20  39  67  96 132 176 225 283 342 399
#     4  12  27  44  70 101 139 187 231 289 350 413
#     4  11  22  44  70  96 146 181 232 292 343 410
#     4  12  24  43  70  99 141 179 232 284 350 419
#     4  10  23  43  69 104 134 185 233 284 347 419
#     4  10  22  43  69  97 135 179 228 286 343 409
#
# _framework density 22.736325000000001
#
# number of rings (size 3 to 8) (size 9 to 14) (size 15 to 20)
#    0.000    1.143    1.429    4.714    4.000    3.429 
#    0.000    1.429    0.000   13.714    0.000    0.000 
#    0.000    0.000    0.000    0.000    0.000    0.000 
#
# Total GULP energy -78055.437486 kJ/mol
# GULP energy per Si atom -5575.388392 kJ/mol
# Density = 2.268458 g / cm^3
# Si number density = 22.736325 Si / 1000 Ang^3
#
#
#
# Elastic Constant Matrix: (Units=GPa)
#
#
# Indices 1 2 3 4 5 6 
#
# 1 184.3495 35.2188 22.8978 -0.9998 -15.9636 -28.5961
# 2 35.2188 56.1041 4.8573 -20.0487 -9.1492 -24.8512
# 3 22.8978 4.8573 136.1926 -13.1250 -2.3229 14.1757
# 4 -0.9998 -20.0487 -13.1250 23.7986 -6.0923 6.8665
# 5 -15.9636 -9.1492 -2.3229 -6.0923 31.9414 1.3203
# 6 -28.5961 -24.8512 14.1757 6.8665 1.3203 45.2705
#
#
#
# Elastic Compliance Matrix: (Units=1/GPa)
#
#
# Indices 1 2 3 4 5 6 
#
# 1 0.007099 -0.004537 -0.001873 -0.005276 0.000967 0.003352
# 2 -0.004537 0.042482 0.001616 0.036686 0.016441 0.013904
# 3 -0.001873 0.001616 0.008839 0.007875 0.001850 -0.004312
# 4 -0.005276 0.036686 0.007875 0.082942 0.024220 0.001053
# 5 0.000967 0.016441 0.001850 0.024220 0.041081 0.004185
# 6 0.003352 0.013904 -0.004312 0.001053 0.004185 0.032908
#
#
# Mechanical properties :
#
#
# Convention : Reuss Voigt Hill
#
# Bulk Modulus (GPa) = 20.47800 55.84376 38.16088
# Shear Modulus (GPa) = 20.72833 41.11359 30.92096
#
# Velocity S-wave (km/s) = 3.02269 4.25700 3.69179
# Velocity P-wave (km/s) = 4.60526 6.98409 5.91549
#
# Compressibility (1/GPa) = 0.04883289
#
# Stress axis : x y z
#
# Youngs Moduli (GPa) = 140.86561 23.53953 113.13414
#
# Poissons Ratio (x) = 0.10680 0.21185
# Poissons Ratio (y) = 0.63913 -0.18286
# Poissons Ratio (z) = 0.26378 -0.03805
#
# Static dielectric constant tensor:
#      x y z
#    x 1.643580 -0.064940 0.084080 
#    y -0.064940 1.934300 0.014400 
#    z 0.084080 0.014400 1.848260 
# 
# From -- ./inp_files/48232.got.cif
#   From: 2010.05.17/outbox.cif.g08.bks.cpg/sg2_25_cif.got.tgz:48232.got - 2010.06.03 11:33:40.
