data_PCOD9032743
_publ_section_title
;
Structure prediction by ZEFSAII (Michael W. Deem and Ramdas Pophale) SiO2 
 PCOD9032743
Probable space group: P -1
;
_chemical_formula_sum "Si O2"
_cell_formula_units_Z 12
_cell_length_a 5.111986
_cell_length_b 18.467297
_cell_length_c 5.507131
_cell_angle_alpha 103.202913
_cell_angle_beta 83.443226
_cell_angle_gamma 114.961751
_cell_volume 458.782482
_symmetry_space_group_name_H-M "P -1"
_symmetry_group_IT_number 2
_symmetry_cell_setting 'triclinic'
loop_
_space_group_symop_operation_xyz
x,y,z
-x,-y,-z
loop_
_atom_site_type_symbol
_atom_site_label
_atom_site_fract_x
_atom_site_fract_y
_atom_site_fract_z
Si Si1 0.890252 0.871237 0.538979
Si Si2 0.322851 0.030023 0.734171
Si Si3 0.717873 0.594780 0.563342
Si Si4 0.600683 0.741854 0.820369
Si Si5 0.207193 0.815095 0.093317
Si Si6 0.160167 0.441270 0.976193
O O1 0.804441 0.914976 0.360316
O O2 0.624246 0.799308 0.632911
O O3 0.093995 0.830503 0.377282
O O4 0.058848 0.945378 0.763726
O O5 0.556007 0.093972 0.936289
O O6 0.500000 0.000000 0.500000
O O7 0.500000 0.500000 0.500000
O O8 0.553244 0.652375 0.674057
O O9 0.877279 0.613289 0.301487
O O10 0.906421 0.601520 0.788244
O O11 0.374925 0.756473 0.029162
O O12 0.921889 0.779242 0.932069
O O13 0.500000 0.500000 0.000000
O O14 0.000000 0.500000 0.000000
#
# Coordination Sequence:
#
# PCOD9032743 Si02
#       6
#     2   2   2   2   2   2
#     4  10  23  46  67 104 144 188 236 302 358 437
#     4   9  20  43  72  97 145 186 236 296 359 437
#     4  10  25  49  73 111 143 195 246 305 371 443
#     4  12  28  42  72 102 142 191 238 302 369 430
#     4  11  25  45  65 105 140 184 239 292 364 432
#     4  10  22  43  74 101 139 178 238 296 360 434
#
# _framework density 26.156189000000001
#
# number of rings (size 3 to 8) (size 9 to 14) (size 15 to 20)
#    0.000    1.667    1.667    0.500    7.000    6.667 
#    0.000    1.667    0.000    0.000    0.000    0.000 
#    0.000    0.000    0.000    0.000    0.000    0.000 
#
# Total GULP energy -67167.226222 kJ/mol
# GULP energy per Si atom -5597.268852 kJ/mol
# Density = 2.609666 g / cm^3
# Si number density = 26.156189 Si / 1000 Ang^3
#
#
#
# Elastic Constant Matrix: (Units=GPa)
#
#
# Indices 1 2 3 4 5 6 
#
# 1 153.5531 42.2851 52.6119 15.7635 -14.0196 -27.9843
# 2 42.2851 129.8653 56.4891 38.1156 -5.5398 -13.3740
# 3 52.6119 56.4891 167.2670 14.2636 -12.6469 -28.6582
# 4 15.7635 38.1156 14.2636 48.6763 -17.1908 -5.7282
# 5 -14.0196 -5.5398 -12.6469 -17.1908 47.1435 13.3845
# 6 -27.9843 -13.3740 -28.6582 -5.7282 13.3845 49.6841
#
#
#
# Elastic Compliance Matrix: (Units=1/GPa)
#
#
# Indices 1 2 3 4 5 6 
#
# 1 0.008095 -0.001589 -0.001394 -0.000303 0.000868 0.003059
# 2 -0.001589 0.012133 -0.002979 -0.009240 -0.003355 0.000491
# 3 -0.001394 -0.002979 0.007884 0.001148 0.000965 0.002832
# 4 -0.000303 -0.009240 0.001148 0.031233 0.010899 -0.001330
# 5 0.000868 -0.003355 0.000965 0.010899 0.026975 -0.005868
# 6 0.003059 0.000491 0.002832 -0.001330 -0.005868 0.025044
#
#
# Mechanical properties :
#
#
# Convention : Reuss Voigt Hill
#
# Bulk Modulus (GPa) = 61.77634 83.71750 72.74692
# Shear Modulus (GPa) = 38.85482 49.05407 43.95445
#
# Velocity S-wave (km/s) = 3.85839 4.33532 4.10379
# Velocity P-wave (km/s) = 6.59690 7.55885 7.09420
#
# Compressibility (1/GPa) = 0.01618743
#
# Stress axis : x y z
#
# Youngs Moduli (GPa) = 123.52695 82.41995 126.84670
#
# Poissons Ratio (x) = 0.13093 0.17686
# Poissons Ratio (y) = 0.19623 0.37793
# Poissons Ratio (z) = 0.17223 0.24557
#
# Static dielectric constant tensor:
#      x y z
#    x 2.077770 0.075860 0.021110 
#    y 0.075860 2.081360 -0.036240 
#    z 0.021110 -0.036240 2.096630 
# 
# From -- ./inp_files/4850.got.cif
#   From: 2010.05.17/outbox.cif.g08.bks.cpg/sg2_3_cif.got.tgz:4850.got - 2010.06.03 11:33:40.
