data_PCOD9032308
_publ_section_title
;
Structure prediction by ZEFSAII (Michael W. Deem and Ramdas Pophale) SiO2 
 PCOD9032308
Probable space group: P -1
;
_chemical_formula_sum "Si O2"
_cell_formula_units_Z 16
_cell_length_a 13.483085
_cell_length_b 12.442589
_cell_length_c 8.584431
_cell_angle_alpha 140.555875
_cell_angle_beta 51.315949
_cell_angle_gamma 132.195834
_cell_volume 660.335378
_symmetry_space_group_name_H-M "P -1"
_symmetry_group_IT_number 2
_symmetry_cell_setting 'triclinic'
loop_
_space_group_symop_operation_xyz
x,y,z
-x,-y,-z
loop_
_atom_site_type_symbol
_atom_site_label
_atom_site_fract_x
_atom_site_fract_y
_atom_site_fract_z
Si Si1 0.955460 0.949107 0.667785
Si Si2 0.855437 0.243565 0.103506
Si Si3 0.438538 0.151844 0.764600
Si Si4 0.782555 0.075064 0.460864
Si Si5 0.890625 0.489491 0.730584
Si Si6 0.629691 0.950916 0.781018
Si Si7 0.671195 0.435904 0.661886
Si Si8 0.350138 0.307310 0.299411
O O1 0.814437 0.776511 0.618073
O O2 0.075042 0.918180 0.606437
O O3 0.000000 0.000000 0.500000
O O4 0.920947 0.109056 0.964969
O O5 0.750392 0.310470 0.373932
O O6 0.003006 0.412313 0.122652
O O7 0.761370 0.108485 0.912330
O O8 0.533553 0.322718 0.762901
O O9 0.500000 0.000000 0.500000
O O10 0.279396 0.062118 0.773004
O O11 0.429580 0.200836 0.006392
O O12 0.801993 0.281841 0.634495
O O13 0.667565 0.983377 0.601134
O O14 0.780935 0.554475 0.820478
O O15 0.000000 0.500000 0.500000
O O16 0.611516 0.745501 0.624986
O O17 0.500000 0.000000 0.000000
O O18 0.632902 0.528200 0.652325
#
# Coordination Sequence:
#
# PCOD9032308 Si02
#       8
#     2   2   2   2   2   2   2   2
#     4  11  22  44  67  99 137 178 232 275 338 407
#     4  10  22  43  70  95 139 179 222 281 341 402
#     4  12  24  44  73 101 135 180 231 279 350 408
#     4  12  24  43  72  99 135 180 231 285 336 413
#     4  10  23  40  66 102 134 170 222 284 340 398
#     4  11  24  46  70 100 134 185 230 274 341 409
#     4  11  23  46  67 105 141 171 229 284 352 406
#     4  11  25  44  72  98 142 178 224 291 334 412
#
# _framework density 24.230111000000001
#
# number of rings (size 3 to 8) (size 9 to 14) (size 15 to 20)
#    0.000    1.000    3.750    4.875    5.250    1.000 
#    2.250    2.500    0.000    0.000    0.000    0.000 
#    0.000    0.000    0.000    0.000    0.000    0.000 
#
# Total GULP energy -89187.935555 kJ/mol
# GULP energy per Si atom -5574.245972 kJ/mol
# Density = 2.417496 g / cm^3
# Si number density = 24.230111 Si / 1000 Ang^3
#
#
#
# Elastic Constant Matrix: (Units=GPa)
#
#
# Indices 1 2 3 4 5 6 
#
# 1 125.9771 40.3009 11.2218 17.1248 -15.2534 4.0670
# 2 40.3009 145.2316 8.3484 -21.8619 -0.5763 -12.7985
# 3 11.2218 8.3484 53.9672 -11.4754 -21.0916 -10.3464
# 4 17.1248 -21.8619 -11.4754 23.7088 2.1885 -6.4221
# 5 -15.2534 -0.5763 -21.0916 2.1885 37.0850 7.5218
# 6 4.0670 -12.7985 -10.3464 -6.4221 7.5218 44.5685
#
#
#
# Elastic Compliance Matrix: (Units=1/GPa)
#
#
# Indices 1 2 3 4 5 6 
#
# 1 0.016351 -0.009160 -0.007484 -0.027383 0.006142 -0.010842
# 2 -0.009160 0.013806 0.005571 0.025228 -0.003983 0.010401
# 3 -0.007484 0.005571 0.031783 0.028119 0.011021 0.011853
# 4 -0.027383 0.025228 0.028119 0.108585 -0.008035 0.033274
# 5 0.006142 -0.003983 0.011021 -0.008035 0.037517 -0.006635
# 6 -0.010842 0.010401 0.011853 0.033274 -0.006635 0.035080
#
#
# Mechanical properties :
#
#
# Convention : Reuss Voigt Hill
#
# Bulk Modulus (GPa) = 25.13003 49.43534 37.28268
# Shear Modulus (GPa) = 17.95120 38.75945 28.35532
#
# Velocity S-wave (km/s) = 2.72483 4.00389 3.42461
# Velocity P-wave (km/s) = 4.50484 6.46696 5.57293
#
# Compressibility (1/GPa) = 0.03979304
#
# Stress axis : x y z
#
# Youngs Moduli (GPa) = 61.15812 72.43404 31.46333
#
# Poissons Ratio (x) = 0.66351 0.23547
# Poissons Ratio (y) = 0.56022 -0.17528
# Poissons Ratio (z) = 0.45771 -0.40352
#
# Static dielectric constant tensor:
#      x y z
#    x 2.031740 0.000000 0.086440 
#    y 0.000000 1.945370 0.078170 
#    z 0.086440 0.078170 2.006180 
# 
# From -- ./inp_files/308699.got.cif
#   From: 2010.05.17/outbox.cif.g08.bks.cpg/sg2_155_cif.got.tgz:308699.got - 2010.06.03 11:33:40.
