data_PCOD9032757
_publ_section_title
;
Structure prediction by ZEFSAII (Michael W. Deem and Ramdas Pophale) SiO2 
 PCOD9032757
Probable space group: P -1
;
_chemical_formula_sum "Si O2"
_cell_formula_units_Z 13
_cell_length_a 8.708376
_cell_length_b 5.572026
_cell_length_c 15.807358
_cell_angle_alpha 81.644678
_cell_angle_beta 51.159024
_cell_angle_gamma 59.087234
_cell_volume 494.281698
_symmetry_space_group_name_H-M "P -1"
_symmetry_group_IT_number 2
_symmetry_cell_setting 'triclinic'
loop_
_space_group_symop_operation_xyz
x,y,z
-x,-y,-z
loop_
_atom_site_type_symbol
_atom_site_label
_atom_site_fract_x
_atom_site_fract_y
_atom_site_fract_z
Si Si1 0.808583 0.919605 0.864916
Si Si2 0.888861 0.268358 0.708950
Si Si3 0.454416 0.854001 0.885162
Si Si4 0.146952 0.384891 0.868620
Si Si5 0.000000 0.000000 0.500000
Si Si6 0.475483 0.638002 0.364859
Si Si7 0.303586 0.340109 0.545258
O O1 0.610395 0.973369 0.862944
O O2 0.949324 0.579245 0.857681
O O3 0.965418 0.025989 0.766312
O O4 0.701386 0.095836 0.980518
O O5 0.630821 0.528741 0.811870
O O6 0.050374 0.394337 0.639143
O O7 0.913636 0.113916 0.620439
O O8 0.293133 0.042279 0.852097
O O9 0.353410 0.435822 0.769016
O O10 0.000000 0.500000 0.000000
O O11 0.258494 0.972085 0.427391
O O12 0.319750 0.502621 0.448957
O O13 0.638700 0.549910 0.395503
O O14 0.500000 0.000000 0.500000
#
# Coordination Sequence:
#
# PCOD9032757 Si02
#       7
#     2   2   2   2   1   2   2
#     4  10  22  46  75 107 150 193 246 314 378 447
#     4  12  25  44  75 108 149 202 249 306 375 449
#     4  10  23  44  75 111 146 193 250 314 375 444
#     4  10  22  43  74 105 144 188 237 308 375 439
#     4  12  28  44  68 102 154 190 246 306 362 436
#     4  11  25  44  68 103 140 187 240 296 366 447
#     4  11  24  44  70  98 139 189 243 295 368 440
#
# _framework density 26.300792000000001
#
# number of rings (size 3 to 8) (size 9 to 14) (size 15 to 20)
#    0.000    1.231    1.538    3.231    6.462    1.846 
#    0.000    6.154    0.000   19.385    0.000    0.000 
#    0.000    0.000    0.000    0.000    0.000    0.000 
#
# Total GULP energy -72458.957523 kJ/mol
# GULP energy per Si atom -5573.765963 kJ/mol
# Density = 2.624093 g / cm^3
# Si number density = 26.300792 Si / 1000 Ang^3
#
#
#
# Elastic Constant Matrix: (Units=GPa)
#
#
# Indices 1 2 3 4 5 6 
#
# 1 63.1895 12.3311 41.5341 -12.1462 4.2500 -9.5747
# 2 12.3311 92.8837 66.5452 2.7305 11.4781 -11.0945
# 3 41.5341 66.5452 215.5571 -8.5674 4.9843 1.2363
# 4 -12.1462 2.7305 -8.5674 53.2631 -1.8406 -6.2441
# 5 4.2500 11.4781 4.9843 -1.8406 21.6323 0.3911
# 6 -9.5747 -11.0945 1.2363 -6.2441 0.3911 34.1209
#
#
#
# Elastic Compliance Matrix: (Units=1/GPa)
#
#
# Indices 1 2 3 4 5 6 
#
# 1 0.020526 0.001437 -0.004172 0.004665 -0.003568 0.007273
# 2 0.001437 0.015858 -0.005063 -0.000902 -0.007709 0.005666
# 3 -0.004172 -0.005063 0.006984 0.000140 0.001964 -0.003067
# 4 0.004665 -0.000902 0.000140 0.020505 0.001189 0.004750
# 5 -0.003568 -0.007709 0.001964 0.001189 0.050739 -0.003943
# 6 0.007273 0.005666 -0.003067 0.004750 -0.003943 0.034216
#
#
# Mechanical properties :
#
#
# Convention : Reuss Voigt Hill
#
# Bulk Modulus (GPa) = 36.00760 68.05014 52.02887
# Shear Modulus (GPa) = 28.78815 38.55127 33.66971
#
# Velocity S-wave (km/s) = 3.31202 3.83271 3.58184
# Velocity P-wave (km/s) = 5.32413 6.74657 6.07711
#
# Compressibility (1/GPa) = 0.02777192
#
# Stress axis : x y z
#
# Youngs Moduli (GPa) = 48.71795 63.05774 143.19045
#
# Poissons Ratio (x) = -0.09059 0.59744
# Poissons Ratio (y) = -0.06999 0.72492
# Poissons Ratio (z) = 0.20327 0.31924
#
# Static dielectric constant tensor:
#      x y z
#    x 2.164190 -0.012800 -0.020150 
#    y -0.012800 1.888090 -0.012320 
#    z -0.020150 -0.012320 2.004040 
# 
# From -- ./inp_files/488243.got.cif
#   From: 2010.05.17/outbox.cif.g08.bks.cpg/sg2_245_cif.got.tgz:488243.got - 2010.06.03 11:33:40.
