data_PCOD9032918
_publ_section_title
;
Structure prediction by ZEFSAII (Michael W. Deem and Ramdas Pophale) SiO2 
 PCOD9032918
Probable space group: P -1
;
_chemical_formula_sum "Si O2"
_cell_formula_units_Z 16
_cell_length_a 6.592501
_cell_length_b 16.247007
_cell_length_c 7.405123
_cell_angle_alpha 118.159305
_cell_angle_beta 114.773437
_cell_angle_gamma 71.630014
_cell_volume 628.054633
_symmetry_space_group_name_H-M "P -1"
_symmetry_group_IT_number 2
_symmetry_cell_setting 'triclinic'
loop_
_space_group_symop_operation_xyz
x,y,z
-x,-y,-z
loop_
_atom_site_type_symbol
_atom_site_label
_atom_site_fract_x
_atom_site_fract_y
_atom_site_fract_z
Si Si1 0.940517 0.013912 0.200195
Si Si2 0.465616 0.332260 0.313555
Si Si3 0.847650 0.821796 0.474842
Si Si4 0.700227 0.634197 0.338394
Si Si5 0.637723 0.112533 0.701361
Si Si6 0.663582 0.859496 0.064269
Si Si7 0.021020 0.460165 0.169933
Si Si8 0.692453 0.321964 0.022273
O O1 0.157220 0.965935 0.351773
O O2 0.755642 0.947634 0.103337
O O3 0.942259 0.124393 0.350826
O O4 0.000000 0.000000 0.000000
O O5 0.480232 0.351395 0.551014
O O6 0.663322 0.326623 0.233056
O O7 0.275633 0.418562 0.271080
O O8 0.379357 0.229713 0.161193
O O9 0.835064 0.722901 0.460385
O O10 0.595873 0.880405 0.489943
O O11 0.822961 0.814739 0.242604
O O12 0.886640 0.543399 0.326725
O O13 0.548581 0.631052 0.100418
O O14 0.559056 0.099284 0.864145
O O15 0.715071 0.214798 0.848743
O O16 0.884793 0.373736 0.067111
O O17 0.000000 0.500000 0.000000
#
# Coordination Sequence:
#
# PCOD9032918 Si02
#       8
#     2   2   2   2   2   2   2   2
#     4  12  21  33  61  91 117 155 203 252 299 360
#     4  11  22  42  65  90 127 160 203 263 299 360
#     4   9  20  40  58  82 120 162 203 245 303 366
#     4  11  22  41  64  91 121 164 211 251 307 362
#     4   8  20  38  61  79 118 158 197 241 304 360
#     4   9  20  39  61  80 122 160 197 247 306 352
#     4  12  23  40  67  90 128 164 202 251 312 366
#     4  10  22  44  63  89 124 164 201 251 310 367
#
# _framework density 25.475491999999999
#
# number of rings (size 3 to 8) (size 9 to 14) (size 15 to 20)
#    0.750    1.000    2.500    3.000    0.000    1.000 
#    2.250    0.000   11.000    0.000    0.000    0.000 
#    0.000    0.000    0.000    0.000    0.000    0.000 
#
# Total GULP energy -89448.625812 kJ/mol
# GULP energy per Si atom -5590.539113 kJ/mol
# Density = 2.541751 g / cm^3
# Si number density = 25.475492 Si / 1000 Ang^3
#
#
#
# Elastic Constant Matrix: (Units=GPa)
#
#
# Indices 1 2 3 4 5 6 
#
# 1 71.1968 42.7977 14.5502 -0.8839 -5.2223 17.8369
# 2 42.7977 86.6262 8.3288 -0.4077 9.3972 25.1778
# 3 14.5502 8.3288 57.8714 -11.1910 -18.8961 6.2205
# 4 -0.8839 -0.4077 -11.1910 27.2827 3.5814 -4.8759
# 5 -5.2223 9.3972 -18.8961 3.5814 26.4114 -0.8606
# 6 17.8369 25.1778 6.2205 -4.8759 -0.8606 55.0597
#
#
#
# Elastic Compliance Matrix: (Units=1/GPa)
#
#
# Indices 1 2 3 4 5 6 
#
# 1 0.021927 -0.010885 -0.001683 -0.001428 0.007134 -0.001951
# 2 -0.010885 0.020193 -0.003686 -0.000979 -0.012023 -0.005566
# 3 -0.001683 -0.003686 0.025744 0.008105 0.018309 0.000327
# 4 -0.001428 -0.000979 0.008105 0.040494 0.000491 0.003588
# 5 0.007134 -0.012023 0.018309 0.000491 0.056650 0.002047
# 6 -0.001951 -0.005566 0.000327 0.003588 0.002047 0.021652
#
#
# Mechanical properties :
#
#
# Convention : Reuss Voigt Hill
#
# Bulk Modulus (GPa) = 28.28463 38.56086 33.42275
# Shear Modulus (GPa) = 21.64929 31.75195 26.70062
#
# Velocity S-wave (km/s) = 2.91831 3.53423 3.24093
# Velocity P-wave (km/s) = 4.74154 5.64125 5.21085
#
# Compressibility (1/GPa) = 0.03535489
#
# Stress axis : x y z
#
# Youngs Moduli (GPa) = 45.60600 49.52131 38.84415
#
# Poissons Ratio (x) = 0.53903 0.06539
# Poissons Ratio (y) = 0.49641 0.14319
# Poissons Ratio (z) = 0.07678 0.18255
#
# Static dielectric constant tensor:
#      x y z
#    x 2.072750 -0.031970 0.012580 
#    y -0.031970 1.995810 -0.009630 
#    z 0.012580 -0.009630 2.001960 
# 
# From -- ./inp_files/198103.got.cif
#   From: 2010.05.17/outbox.cif.g08.bks.cpg/sg2_100_cif.got.tgz:198103.got - 2010.06.03 11:33:40.
