data_PCOD9032445
_publ_section_title
;
Structure prediction by ZEFSAII (Michael W. Deem and Ramdas Pophale) SiO2 
 PCOD9032445
Probable space group: P -1
;
_chemical_formula_sum "Si O2"
_cell_formula_units_Z 16
_cell_length_a 8.486688
_cell_length_b 15.668806
_cell_length_c 11.655719
_cell_angle_alpha 152.681917
_cell_angle_beta 77.981202
_cell_angle_gamma 94.983066
_cell_volume 678.883952
_symmetry_space_group_name_H-M "P -1"
_symmetry_group_IT_number 2
_symmetry_cell_setting 'triclinic'
loop_
_space_group_symop_operation_xyz
x,y,z
-x,-y,-z
loop_
_atom_site_type_symbol
_atom_site_label
_atom_site_fract_x
_atom_site_fract_y
_atom_site_fract_z
Si Si1 0.092781 0.079318 0.701624
Si Si2 0.321619 0.189328 0.999974
Si Si3 0.934302 0.282067 0.596167
Si Si4 0.615486 0.987208 0.579170
Si Si5 0.653523 0.548639 0.102375
Si Si6 0.812859 0.103254 0.183668
Si Si7 0.310277 0.569242 0.577504
Si Si8 0.829693 0.452736 0.178741
O O1 0.207686 0.149021 0.864051
O O2 0.213199 0.988748 0.471896
O O3 0.019001 0.917529 0.581908
O O4 0.967383 0.266967 0.904277
O O5 0.511238 0.130081 0.857641
O O6 0.286956 0.050895 0.941450
O O7 0.270529 0.405646 0.305738
O O8 0.829388 0.239218 0.451476
O O9 0.088282 0.365910 0.634422
O O10 0.816740 0.436036 0.878032
O O11 0.639281 0.773498 0.367139
O O12 0.500000 0.000000 0.500000
O O13 0.674656 0.481581 0.150689
O O14 0.500000 0.500000 0.000000
O O15 0.730351 0.231253 0.243956
O O16 0.000000 0.000000 0.000000
O O17 0.500000 0.500000 0.500000
O O18 0.210792 0.574487 0.716238
#
# Coordination Sequence:
#
# PCOD9032445 Si02
#       8
#     2   2   2   2   2   2   2   2
#     4  10  22  45  74 113 141 188 244 298 368 429
#     4  10  23  46  73 104 151 194 241 298 363 441
#     4  11  24  45  79 105 142 188 242 305 360 431
#     4  10  22  43  71 105 144 186 241 296 362 435
#     4  12  26  46  72 104 145 193 239 298 373 434
#     4  11  24  47  76 105 144 201 252 292 364 437
#     4  12  29  45  72 110 151 199 242 304 368 437
#     4  12  27  48  70 109 149 183 248 310 359 433
#
# _framework density 23.568092
#
# number of rings (size 3 to 8) (size 9 to 14) (size 15 to 20)
#    0.000    1.000    1.250    5.625    5.250    3.500 
#    6.750    0.000    0.000    0.000    0.000    0.000 
#    0.000    0.000    0.000    0.000    0.000    0.000 
#
# Total GULP energy -89695.410121 kJ/mol
# GULP energy per Si atom -5605.963133 kJ/mol
# Density = 2.351445 g / cm^3
# Si number density = 23.568092 Si / 1000 Ang^3
#
#
#
# Elastic Constant Matrix: (Units=GPa)
#
#
# Indices 1 2 3 4 5 6 
#
# 1 51.9425 36.2732 2.1542 22.2288 -1.5999 1.5755
# 2 36.2732 139.6859 19.3944 22.4521 -15.3850 -2.0065
# 3 2.1542 19.3944 57.8964 5.5585 -13.7756 0.7933
# 4 22.2288 22.4521 5.5585 46.5787 1.1191 -7.1827
# 5 -1.5999 -15.3850 -13.7756 1.1191 30.9198 4.5130
# 6 1.5755 -2.0065 0.7933 -7.1827 4.5130 44.7620
#
#
#
# Elastic Compliance Matrix: (Units=1/GPa)
#
#
# Indices 1 2 3 4 5 6 
#
# 1 0.028198 -0.005783 0.002124 -0.011420 0.000403 -0.003163
# 2 -0.005783 0.009615 -0.001968 -0.001725 0.003667 0.000023
# 3 0.002124 -0.001968 0.020185 -0.002964 0.008502 -0.001853
# 4 -0.011420 -0.001725 -0.002964 0.029065 -0.004625 0.005507
# 5 0.000403 0.003667 0.008502 -0.004625 0.038822 -0.004657
# 6 -0.003163 0.000023 -0.001853 0.005507 -0.004657 0.023839
#
#
# Mechanical properties :
#
#
# Convention : Reuss Voigt Hill
#
# Bulk Modulus (GPa) = 21.39300 40.57427 30.98364
# Shear Modulus (GPa) = 28.31911 37.23231 32.77571
#
# Velocity S-wave (km/s) = 3.47015 3.97895 3.73323
# Velocity P-wave (km/s) = 5.01525 6.19375 5.63539
#
# Compressibility (1/GPa) = 0.04674425
#
# Stress axis : x y z
#
# Youngs Moduli (GPa) = 35.46379 104.00133 49.54132
#
# Poissons Ratio (x) = 0.60140 -0.10520
# Poissons Ratio (y) = 0.20507 0.09749
# Poissons Ratio (z) = -0.07531 0.20466
#
# Static dielectric constant tensor:
#      x y z
#    x 1.934570 0.004040 0.003520 
#    y 0.004040 1.867270 -0.036360 
#    z 0.003520 -0.036360 1.897510 
# 
# From -- ./inp_files/399943.got.cif
#   From: 2010.05.17/outbox.cif.g08.bks.cpg/sg2_200_cif.got.tgz:399943.got - 2010.06.03 11:33:40.
