data_PCOD9032230
_publ_section_title
;
Structure prediction by ZEFSAII (Michael W. Deem and Ramdas Pophale) SiO2 
 PCOD9032230
Probable space group: P -1
;
_chemical_formula_sum "Si O2"
_cell_formula_units_Z 14
_cell_length_a 12.763655
_cell_length_b 19.407571
_cell_length_c 8.865865
_cell_angle_alpha 41.249022
_cell_angle_beta 52.692132
_cell_angle_gamma 25.200688
_cell_volume 594.628213
_symmetry_space_group_name_H-M "P -1"
_symmetry_group_IT_number 2
_symmetry_cell_setting 'triclinic'
loop_
_space_group_symop_operation_xyz
x,y,z
-x,-y,-z
loop_
_atom_site_type_symbol
_atom_site_label
_atom_site_fract_x
_atom_site_fract_y
_atom_site_fract_z
Si Si1 0.714802 0.929836 0.996143
Si Si2 0.318722 0.187352 0.519211
Si Si3 0.855472 0.052169 0.686326
Si Si4 0.390559 0.637224 0.015844
Si Si5 0.890647 0.778292 0.638300
Si Si6 0.828662 0.490357 0.873001
Si Si7 0.815500 0.215111 0.734498
O O1 0.721081 0.893116 0.224902
O O2 0.982253 0.710589 0.056033
O O3 0.669230 0.083259 0.757901
O O4 0.500000 0.000000 0.000000
O O5 0.210372 0.237810 0.365972
O O6 0.170442 0.389874 0.371884
O O7 0.620905 0.004056 0.566313
O O8 0.091504 0.837902 0.917067
O O9 0.000000 0.000000 0.500000
O O10 0.744918 0.210227 0.641560
O O11 0.394493 0.617896 0.227182
O O12 0.500000 0.500000 0.000000
O O13 0.541855 0.642932 0.859618
O O14 0.037017 0.777839 0.442111
O O15 0.065356 0.602663 0.898210
O O16 0.000000 0.000000 0.000000
#
# Coordination Sequence:
#
# PCOD9032230 Si02
#       7
#     2   2   2   2   2   2   2
#     4  12  25  45  71 105 148 190 240 301 368 436
#     4  11  24  44  71 100 145 191 237 298 368 434
#     4  11  24  46  75 103 143 194 244 297 367 435
#     4  11  24  44  70  99 146 186 236 310 361 423
#     4  11  24  45  70 101 146 187 242 305 357 442
#     4  12  25  45  69 105 143 189 248 295 370 435
#     4  10  22  43  70 102 136 192 244 291 366 434
#
# _framework density 23.544125000000001
#
# number of rings (size 3 to 8) (size 9 to 14) (size 15 to 20)
#    0.000    0.857    2.857    5.143    2.000    1.714 
#    2.571    0.000    0.000    0.000    0.000    0.000 
#    0.000    0.000    0.000    0.000    0.000    0.000 
#
# Total GULP energy -78098.086028 kJ/mol
# GULP energy per Si atom -5578.434716 kJ/mol
# Density = 2.349054 g / cm^3
# Si number density = 23.544125 Si / 1000 Ang^3
#
#
#
# Elastic Constant Matrix: (Units=GPa)
#
#
# Indices 1 2 3 4 5 6 
#
# 1 112.4998 35.0582 35.0982 4.1763 -11.2941 12.2656
# 2 35.0582 75.3118 39.2716 16.8932 -8.9126 27.5454
# 3 35.0982 39.2716 87.1989 12.4235 -28.0362 13.6452
# 4 4.1763 16.8932 12.4235 45.2331 0.7181 4.2195
# 5 -11.2941 -8.9126 -28.0362 0.7181 28.1187 9.8982
# 6 12.2656 27.5454 13.6452 4.2195 9.8982 47.5996
#
#
#
# Elastic Compliance Matrix: (Units=1/GPa)
#
#
# Indices 1 2 3 4 5 6 
#
# 1 0.010942 -0.003919 -0.002656 0.001175 0.000472 0.000007
# 2 -0.003919 0.024109 -0.004467 -0.006358 0.006131 -0.012372
# 3 -0.002656 -0.004467 0.024664 -0.004454 0.025272 -0.008661
# 4 0.001175 -0.006358 -0.004454 0.025344 -0.008069 0.004085
# 5 0.000472 0.006131 0.025272 -0.008069 0.071957 -0.025162
# 6 0.000007 -0.012372 -0.008661 0.004085 -0.025162 0.035519
#
#
# Mechanical properties :
#
#
# Convention : Reuss Voigt Hill
#
# Bulk Modulus (GPa) = 26.57414 54.87405 40.72409
# Shear Modulus (GPa) = 22.01059 35.22913 28.61986
#
# Velocity S-wave (km/s) = 3.06087 3.87240 3.49031
# Velocity P-wave (km/s) = 4.87887 6.58419 5.79460
#
# Compressibility (1/GPa) = 0.03763057
#
# Stress axis : x y z
#
# Youngs Moduli (GPa) = 91.39338 41.47852 40.54462
#
# Poissons Ratio (x) = 0.16255 0.10769
# Poissons Ratio (y) = 0.35815 0.18112
# Poissons Ratio (z) = 0.24274 0.18530
#
# Static dielectric constant tensor:
#      x y z
#    x 1.855150 0.022530 0.134800 
#    y 0.022530 1.920140 0.039440 
#    z 0.134800 0.039440 1.873910 
# 
# From -- ./inp_files/278766.got.cif
#   From: 2010.05.17/outbox.cif.g08.bks.cpg/sg2_140_cif.got.tgz:278766.got - 2010.06.03 11:33:40.
