data_PCOD9032856
_publ_section_title
;
Structure prediction by ZEFSAII (Michael W. Deem and Ramdas Pophale) SiO2 
 PCOD9032856
Probable space group: P -1
;
_chemical_formula_sum "Si O2"
_cell_formula_units_Z 13
_cell_length_a 4.986217
_cell_length_b 5.253262
_cell_length_c 21.001960
_cell_angle_alpha 80.048248
_cell_angle_beta 124.285260
_cell_angle_gamma 95.008683
_cell_volume 447.662470
_symmetry_space_group_name_H-M "P -1"
_symmetry_group_IT_number 2
_symmetry_cell_setting 'triclinic'
loop_
_space_group_symop_operation_xyz
x,y,z
-x,-y,-z
loop_
_atom_site_type_symbol
_atom_site_label
_atom_site_fract_x
_atom_site_fract_y
_atom_site_fract_z
Si Si1 0.569879 0.655137 0.359910
Si Si2 0.265991 0.513233 0.203177
Si Si3 0.000000 0.500000 0.500000
Si Si4 0.295398 0.056664 0.881627
Si Si5 0.152680 0.273699 0.072689
Si Si6 0.302885 0.227726 0.430271
Si Si7 0.982444 0.947157 0.721699
O O1 0.534290 0.637819 0.280437
O O2 0.570704 0.391646 0.415822
O O3 0.244567 0.804958 0.326996
O O4 0.859448 0.776118 0.431583
O O5 0.934251 0.689289 0.147037
O O6 0.362675 0.430509 0.148317
O O7 0.190535 0.259892 0.245900
O O8 0.153473 0.411491 0.454613
O O9 0.268231 0.026059 0.802780
O O10 0.113199 0.855799 0.911932
O O11 0.663609 0.940622 0.937386
O O12 0.000000 0.500000 0.000000
O O13 0.500000 0.000000 0.500000
O O14 0.020444 0.173838 0.342676
#
# Coordination Sequence:
#
# PCOD9032856 Si02
#       7
#     2   2   1   2   2   2   2
#     4  10  22  44  59  90 124 164 219 263 318 390
#     4   9  22  44  65  91 131 171 213 269 325 383
#     4  12  24  36  64  88 118 168 212 266 330 372
#     4  10  23  43  68  99 133 173 220 262 322 395
#     4  11  24  43  70 103 135 170 214 266 325 391
#     4  11  23  41  57  87 127 160 212 270 320 379
#     4   9  20  44  61  84 128 166 213 269 317 384
#
# _framework density 29.039738
#
# number of rings (size 3 to 8) (size 9 to 14) (size 15 to 20)
#    0.000    1.846    1.538    0.923    2.154    4.308 
#   22.154    0.000    0.000    0.000    0.000    0.000 
#    0.000    0.000    0.000    0.000    0.000    0.000 
#
# Total GULP energy -72515.877606 kJ/mol
# GULP energy per Si atom -5578.144431 kJ/mol
# Density = 2.897364 g / cm^3
# Si number density = 29.039738 Si / 1000 Ang^3
#
#
#
# Elastic Constant Matrix: (Units=GPa)
#
#
# Indices 1 2 3 4 5 6 
#
# 1 141.5855 37.1546 40.0383 -24.6034 -9.3035 -14.1718
# 2 37.1546 88.9956 60.2135 -26.5026 -8.5944 -24.3453
# 3 40.0383 60.2135 193.6914 -7.1980 -19.4401 -3.9875
# 4 -24.6034 -26.5026 -7.1980 72.6038 -2.1004 -10.3011
# 5 -9.3035 -8.5944 -19.4401 -2.1004 51.9126 -15.2177
# 6 -14.1718 -24.3453 -3.9875 -10.3011 -15.2177 47.3865
#
#
#
# Elastic Compliance Matrix: (Units=1/GPa)
#
#
# Indices 1 2 3 4 5 6 
#
# 1 0.008603 -0.000756 -0.001146 0.003075 0.002120 0.003437
# 2 -0.000756 0.023341 -0.005746 0.010095 0.006553 0.015581
# 3 -0.001146 -0.005746 0.007096 -0.002193 0.000531 -0.003004
# 4 0.003075 0.010095 -0.002193 0.020176 0.005783 0.012164
# 5 0.002120 0.006553 0.000531 0.005783 0.025076 0.013355
# 6 0.003437 0.015581 -0.003004 0.012164 0.013355 0.036816
#
#
# Mechanical properties :
#
#
# Convention : Reuss Voigt Hill
#
# Bulk Modulus (GPa) = 42.11510 77.67614 59.89562
# Shear Modulus (GPa) = 34.64561 53.50498 44.07530
#
# Velocity S-wave (km/s) = 3.45779 4.29706 3.90007
# Velocity P-wave (km/s) = 5.52049 7.17119 6.39929
#
# Compressibility (1/GPa) = 0.02374445
#
# Stress axis : x y z
#
# Youngs Moduli (GPa) = 116.24134 42.84275 140.92404
#
# Poissons Ratio (x) = 0.03239 0.16143
# Poissons Ratio (y) = 0.08787 0.80979
# Poissons Ratio (z) = 0.13316 0.24619
#
# Static dielectric constant tensor:
#      x y z
#    x 2.798920 0.378520 0.470470 
#    y 0.378520 2.537930 0.212850 
#    z 0.470470 0.212850 2.544910 
# 
# From -- ./inp_files/545658.got.cif
#   From: 2010.05.17/outbox.cif.g08.bks.cpg/sg2_273_cif.got.tgz:545658.got - 2010.06.03 11:33:40.
