data_PCOD9032894
_publ_section_title
;
Structure prediction by ZEFSAII (Michael W. Deem and Ramdas Pophale) SiO2 
 PCOD9032894
Probable space group: P -1
;
_chemical_formula_sum "Si O2"
_cell_formula_units_Z 14
_cell_length_a 10.972118
_cell_length_b 5.012673
_cell_length_c 13.592079
_cell_angle_alpha 105.087001
_cell_angle_beta 126.313282
_cell_angle_gamma 79.727850
_cell_volume 581.332769
_symmetry_space_group_name_H-M "P -1"
_symmetry_group_IT_number 2
_symmetry_cell_setting 'triclinic'
loop_
_space_group_symop_operation_xyz
x,y,z
-x,-y,-z
loop_
_atom_site_type_symbol
_atom_site_label
_atom_site_fract_x
_atom_site_fract_y
_atom_site_fract_z
Si Si1 0.073883 0.234505 0.400486
Si Si2 0.343227 0.840211 0.409802
Si Si3 0.109017 0.291731 0.750298
Si Si4 0.312691 0.317412 0.682639
Si Si5 0.071243 0.220614 0.953210
Si Si6 0.540727 0.278567 0.351816
Si Si7 0.235488 0.027203 0.190145
O O1 0.153828 0.333314 0.547747
O O2 0.206715 0.049483 0.395009
O O3 0.014284 0.484394 0.328080
O O4 0.942037 0.016271 0.334039
O O5 0.364864 0.247227 0.290754
O O6 0.303073 0.784479 0.270942
O O7 0.500000 0.000000 0.500000
O O8 0.368225 0.642194 0.497534
O O9 0.264374 0.356200 0.775565
O O10 0.113731 0.297976 0.870623
O O11 0.418783 0.530235 0.700694
O O12 0.392246 0.021324 0.674655
O O13 0.208270 0.072378 0.064863
O O14 0.940682 0.992609 0.866377
O O15 0.000000 0.500000 0.000000
#
# Coordination Sequence:
#
# PCOD9032894 Si02
#       7
#     2   2   2   2   2   2   2
#     4  11  21  39  64  98 132 169 207 263 323 382
#     4   9  18  38  63  94 129 163 203 259 324 384
#     4  12  24  41  67  94 133 168 220 262 316 382
#     4  11  23  41  64 100 129 171 208 262 326 387
#     4  11  25  41  69  91 127 171 224 268 315 371
#     4  10  23  42  66  96 133 167 209 263 327 388
#     4  10  22  44  62  93 127 170 218 268 317 375
#
# _framework density 24.082594
#
# number of rings (size 3 to 8) (size 9 to 14) (size 15 to 20)
#    0.000    1.429    1.429    4.286    4.000    0.000 
#    0.000    5.714    0.000    0.000    0.000    0.000 
#    0.000    0.000    0.000    0.000    0.000    0.000 
#
# Total GULP energy -78098.251756 kJ/mol
# GULP energy per Si atom -5578.446554 kJ/mol
# Density = 2.402778 g / cm^3
# Si number density = 24.082594 Si / 1000 Ang^3
#
#
#
# Elastic Constant Matrix: (Units=GPa)
#
#
# Indices 1 2 3 4 5 6 
#
# 1 98.5415 47.5774 43.2654 -14.4026 -16.7993 21.8590
# 2 47.5774 140.5901 41.4345 -29.1557 -11.1137 15.5861
# 3 43.2654 41.4345 139.7746 -33.6236 -4.5792 17.0929
# 4 -14.4026 -29.1557 -33.6236 32.5399 12.5411 -8.1456
# 5 -16.7993 -11.1137 -4.5792 12.5411 43.3348 -5.4233
# 6 21.8590 15.5861 17.0929 -8.1456 -5.4233 35.0475
#
#
#
# Elastic Compliance Matrix: (Units=1/GPa)
#
#
# Indices 1 2 3 4 5 6 
#
# 1 0.015200 -0.003809 -0.003576 -0.003801 0.004865 -0.006173
# 2 -0.003809 0.009917 0.000098 0.007638 -0.001195 -0.000492
# 3 -0.003576 0.000098 0.010848 0.010768 -0.003474 -0.001139
# 4 -0.003801 0.007638 0.010768 0.053133 -0.013250 0.004021
# 5 0.004865 -0.001195 -0.003474 -0.013250 0.028182 0.000473
# 6 -0.006173 -0.000492 -0.001139 0.004021 0.000473 0.034164
#
#
# Mechanical properties :
#
#
# Convention : Reuss Voigt Hill
#
# Bulk Modulus (GPa) = 46.74927 71.49563 59.12245
# Shear Modulus (GPa) = 28.87661 38.62636 33.75148
#
# Velocity S-wave (km/s) = 3.46651 4.00923 3.74771
# Velocity P-wave (km/s) = 5.95621 7.15430 6.58257
#
# Compressibility (1/GPa) = 0.02139071
#
# Stress axis : x y z
#
# Youngs Moduli (GPa) = 65.78750 100.83396 92.18316
#
# Poissons Ratio (x) = 0.38411 0.32963
# Poissons Ratio (y) = 0.25061 -0.00901
# Poissons Ratio (z) = 0.23524 -0.00985
#
# Static dielectric constant tensor:
#      x y z
#    x 1.954660 -0.037340 -0.051200 
#    y -0.037340 2.022310 0.002970 
#    z -0.051200 0.002970 1.979550 
# 
# From -- ./inp_files/73488.got.cif
#   From: 2010.05.17/outbox.cif.g08.bks.cpg/sg2_37_cif.got.tgz:73488.got - 2010.06.03 11:33:40.
