data_PCOD9032824
_publ_section_title
;
Structure prediction by ZEFSAII (Michael W. Deem and Ramdas Pophale) SiO2 
 PCOD9032824
Probable space group: P -1
;
_chemical_formula_sum "Si O2"
_cell_formula_units_Z 14
_cell_length_a 18.660483
_cell_length_b 5.148258
_cell_length_c 5.606449
_cell_angle_alpha 85.148180
_cell_angle_beta 83.661282
_cell_angle_gamma 95.026153
_cell_volume 530.832904
_symmetry_space_group_name_H-M "P -1"
_symmetry_group_IT_number 2
_symmetry_cell_setting 'triclinic'
loop_
_space_group_symop_operation_xyz
x,y,z
-x,-y,-z
loop_
_atom_site_type_symbol
_atom_site_label
_atom_site_fract_x
_atom_site_fract_y
_atom_site_fract_z
Si Si1 0.583816 0.442095 0.963642
Si Si2 0.448651 0.736354 0.508924
Si Si3 0.101365 0.938453 0.685210
Si Si4 0.244940 0.697494 0.615537
Si Si5 0.960362 0.672243 0.688582
Si Si6 0.709275 0.783876 0.674367
Si Si7 0.821817 0.667485 0.987154
O O1 0.587368 0.264536 0.739147
O O2 0.636991 0.697805 0.856140
O O3 0.500000 0.500000 0.000000
O O4 0.598117 0.322224 0.227857
O O5 0.500000 0.500000 0.500000
O O6 0.500000 0.000000 0.500000
O O7 0.160521 0.746648 0.602058
O O8 0.026472 0.790025 0.821606
O O9 0.073849 0.095922 0.459062
O O10 0.142657 0.147263 0.831859
O O11 0.270520 0.471699 0.456434
O O12 0.237157 0.564402 0.887424
O O13 0.290100 0.974344 0.526123
O O14 0.000000 0.500000 0.500000
O O15 0.889468 0.543251 0.855259
O O16 0.776305 0.843614 0.823271
#
# Coordination Sequence:
#
# PCOD9032824 Si02
#       7
#     2   2   2   2   2   2   2
#     4  10  25  50  79 118 157 207 261 333 397 472
#     4  10  22  43  76 110 154 194 247 314 392 462
#     4  11  24  44  73 106 149 191 259 306 386 451
#     4  12  27  50  71 111 150 203 253 314 382 471
#     4  11  24  45  73 111 148 195 254 321 380 461
#     4  12  29  49  76 109 157 198 261 318 389 472
#     4  12  25  47  75 106 152 203 255 312 397 456
#
# _framework density 26.373650000000001
#
# number of rings (size 3 to 8) (size 9 to 14) (size 15 to 20)
#    0.000    0.857    2.857    2.571    4.000    9.143 
#    0.000    1.429    0.000    0.000    0.000    0.000 
#    0.000    0.000    0.000    0.000    0.000    0.000 
#
# Total GULP energy -78394.750533 kJ/mol
# GULP energy per Si atom -5599.625038 kJ/mol
# Density = 2.631362 g / cm^3
# Si number density = 26.373650 Si / 1000 Ang^3
#
#
#
# Elastic Constant Matrix: (Units=GPa)
#
#
# Indices 1 2 3 4 5 6 
#
# 1 110.1209 35.1336 46.3109 -8.1239 -40.8390 6.8483
# 2 35.1336 138.4186 51.2917 -3.0885 -13.2783 6.2590
# 3 46.3109 51.2917 162.6861 -13.3212 -19.9182 17.3213
# 4 -8.1239 -3.0885 -13.3212 42.8145 6.1019 -7.6426
# 5 -40.8390 -13.2783 -19.9182 6.1019 57.1088 -13.2675
# 6 6.8483 6.2590 17.3213 -7.6426 -13.2675 54.8040
#
#
#
# Elastic Compliance Matrix: (Units=1/GPa)
#
#
# Indices 1 2 3 4 5 6 
#
# 1 0.013977 -0.001849 -0.002392 0.000761 0.008999 0.001505
# 2 -0.001849 0.008490 -0.002183 -0.000428 -0.000094 -0.000131
# 3 -0.002392 -0.002183 0.007817 0.001521 -0.000054 -0.001724
# 4 0.000761 -0.000428 0.001521 0.024563 -0.001034 0.002648
# 5 0.008999 -0.000094 -0.000054 -0.001034 0.025141 0.004846
# 6 0.001505 -0.000131 -0.001724 0.002648 0.004846 0.020161
#
#
# Mechanical properties :
#
#
# Convention : Reuss Voigt Hill
#
# Bulk Modulus (GPa) = 57.35218 75.18867 66.27043
# Shear Modulus (GPa) = 42.08426 49.51142 45.79784
#
# Velocity S-wave (km/s) = 3.99895 4.33749 4.17165
# Velocity P-wave (km/s) = 6.56623 7.32503 6.95598
#
# Compressibility (1/GPa) = 0.01743613
#
# Stress axis : x y z
#
# Youngs Moduli (GPa) = 71.54801 117.78498 127.92087
#
# Poissons Ratio (x) = 0.21779 0.30597
# Poissons Ratio (y) = 0.13230 0.27925
# Poissons Ratio (z) = 0.17113 0.25712
#
# Static dielectric constant tensor:
#      x y z
#    x 2.056160 0.035180 -0.016270 
#    y 0.035180 2.053540 -0.041300 
#    z -0.016270 -0.041300 2.157710 
# 
# From -- ./inp_files/14135.got.cif
#   From: 2010.05.17/outbox.cif.g08.bks.cpg/sg2_8_cif.got.tgz:14135.got - 2010.06.03 11:33:40.
