data_PCOD9032582
_publ_section_title
;
Structure prediction by ZEFSAII (Michael W. Deem and Ramdas Pophale) SiO2 
 PCOD9032582
Probable space group: P -1
;
_chemical_formula_sum "Si O2"
_cell_formula_units_Z 14
_cell_length_a 15.995295
_cell_length_b 15.459854
_cell_length_c 5.315089
_cell_angle_alpha 67.691134
_cell_angle_beta 102.506476
_cell_angle_gamma 152.261818
_cell_volume 543.745221
_symmetry_space_group_name_H-M "P -1"
_symmetry_group_IT_number 2
_symmetry_cell_setting 'triclinic'
loop_
_space_group_symop_operation_xyz
x,y,z
-x,-y,-z
loop_
_atom_site_type_symbol
_atom_site_label
_atom_site_fract_x
_atom_site_fract_y
_atom_site_fract_z
Si Si1 0.752751 0.709859 0.646815
Si Si2 0.372849 0.236822 0.756661
Si Si3 0.383279 0.101916 0.552833
Si Si4 0.185410 0.754882 0.550129
Si Si5 0.042846 0.424898 0.903196
Si Si6 0.767086 0.566118 0.157048
Si Si7 0.060727 0.908066 0.329565
O O1 0.573475 0.474509 0.695731
O O2 0.690007 0.755101 0.521818
O O3 0.940731 0.869112 0.440175
O O4 0.777945 0.685515 0.958599
O O5 0.394972 0.148550 0.799226
O O6 0.206104 0.085053 0.016409
O O7 0.559045 0.328017 0.309582
O O8 0.359981 0.978621 0.544874
O O9 0.190718 0.964813 0.505403
O O10 0.115210 0.719567 0.265024
O O11 0.192454 0.649033 0.668422
O O12 0.030684 0.623023 0.813764
O O13 0.131018 0.408003 0.985276
O O14 0.894901 0.684896 0.352350
#
# Coordination Sequence:
#
# PCOD9032582 Si02
#       7
#     2   2   2   2   2   2   2
#     4  11  25  44  68 100 136 182 240 293 352 423
#     4  11  25  44  68 100 136 182 240 293 352 423
#     4  12  25  42  69  99 139 181 235 291 355 424
#     4  10  22  43  72 105 141 184 234 291 356 427
#     4  10  22  43  72 105 141 184 234 291 356 427
#     4  12  25  42  69  99 139 181 235 291 355 424
#     4  12  23  44  67  96 134 186 223 298 349 418
#
# _framework density 25.747354000000001
#
# number of rings (size 3 to 8) (size 9 to 14) (size 15 to 20)
#    0.000    0.857    4.286    3.000    0.000    4.571 
#    0.000    0.000    0.000    6.000    0.000    0.000 
#    0.000    0.000    0.000    0.000    0.000    0.000 
#
# Total GULP energy -78182.516836 kJ/mol
# GULP energy per Si atom -5584.465488 kJ/mol
# Density = 2.568875 g / cm^3
# Si number density = 25.747354 Si / 1000 Ang^3
#
#
#
# Elastic Constant Matrix: (Units=GPa)
#
#
# Indices 1 2 3 4 5 6 
#
# 1 30.2981 21.3177 7.8322 -10.4210 -1.2898 -9.6440
# 2 21.3177 131.9266 24.2495 -19.2647 -10.2648 -7.7860
# 3 7.8322 24.2495 70.5680 -23.2838 -8.2251 5.0598
# 4 -10.4210 -19.2647 -23.2838 45.3755 -3.3929 -1.0595
# 5 -1.2898 -10.2648 -8.2251 -3.3929 31.5580 -7.4009
# 6 -9.6440 -7.7860 5.0598 -1.0595 -7.4009 52.4902
#
#
#
# Elastic Compliance Matrix: (Units=1/GPa)
#
#
# Indices 1 2 3 4 5 6 
#
# 1 0.041697 -0.004872 -0.000728 0.007497 0.002498 0.007512
# 2 -0.004872 0.009284 -0.001663 0.002211 0.002881 0.001093
# 3 -0.000728 -0.001663 0.018428 0.008918 0.004889 -0.001287
# 4 0.007497 0.002211 0.008918 0.029866 0.007136 0.002455
# 5 0.002498 0.002881 0.004889 0.007136 0.036093 0.005648
# 6 0.007512 0.001093 -0.001287 0.002455 0.005648 0.021563
#
#
# Mechanical properties :
#
#
# Convention : Reuss Voigt Hill
#
# Bulk Modulus (GPa) = 18.22011 37.73239 27.97625
# Shear Modulus (GPa) = 26.35036 37.84428 32.09732
#
# Velocity S-wave (km/s) = 3.20256 3.83800 3.53459
# Velocity P-wave (km/s) = 4.55709 5.85892 5.24853
#
# Compressibility (1/GPa) = 0.05488442
#
# Stress axis : x y z
#
# Youngs Moduli (GPa) = 23.98257 107.70815 54.26619
#
# Poissons Ratio (x) = 0.52471 0.03950
# Poissons Ratio (y) = 0.11683 0.09024
# Poissons Ratio (z) = 0.01746 0.17910
#
# Static dielectric constant tensor:
#      x y z
#    x 2.024310 -0.095140 -0.018140 
#    y -0.095140 2.087660 0.049700 
#    z -0.018140 0.049700 2.088840 
# 
# From -- ./inp_files/45583.got.cif
#   From: 2010.05.17/outbox.cif.g08.bks.cpg/sg2_23_cif.got.tgz:45583.got - 2010.06.03 11:33:40.
