data_PCOD9032755
_publ_section_title
;
Structure prediction by ZEFSAII (Michael W. Deem and Ramdas Pophale) SiO2 
 PCOD9032755
Probable space group: P -1
;
_chemical_formula_sum "Si O2"
_cell_formula_units_Z 14
_cell_length_a 9.270314
_cell_length_b 11.884966
_cell_length_c 12.527810
_cell_angle_alpha 45.696963
_cell_angle_beta 143.877134
_cell_angle_gamma 123.736688
_cell_volume 582.203472
_symmetry_space_group_name_H-M "P -1"
_symmetry_group_IT_number 2
_symmetry_cell_setting 'triclinic'
loop_
_space_group_symop_operation_xyz
x,y,z
-x,-y,-z
loop_
_atom_site_type_symbol
_atom_site_label
_atom_site_fract_x
_atom_site_fract_y
_atom_site_fract_z
Si Si1 0.505818 0.126022 0.248143
Si Si2 0.653094 0.564303 0.302322
Si Si3 0.058005 0.288113 0.983900
Si Si4 0.537639 0.341851 0.560616
Si Si5 0.163821 0.575265 0.710430
Si Si6 0.397509 0.883932 0.927703
Si Si7 0.152325 0.159384 0.350545
O O1 0.681308 0.274865 0.268160
O O2 0.476209 0.095667 0.124730
O O3 0.655084 0.975638 0.481437
O O4 0.249865 0.168679 0.121768
O O5 0.592741 0.402797 0.433393
O O6 0.694378 0.527384 0.227397
O O7 0.907062 0.618914 0.470906
O O8 0.456434 0.702035 0.112806
O O9 0.112476 0.460586 0.854734
O O10 0.778935 0.254727 0.806658
O O11 0.096443 0.273714 0.142023
O O12 0.500000 0.500000 0.500000
O O13 0.290286 0.246962 0.470240
O O14 0.107131 0.907674 0.727114
O O15 0.500000 0.000000 0.000000
#
# Coordination Sequence:
#
# PCOD9032755 Si02
#       7
#     2   2   2   2   2   2   2
#     4  12  26  46  75 105 147 190 252 295 359 437
#     4  10  22  43  74 104 144 186 245 296 359 435
#     4  11  25  48  76 105 144 188 244 305 359 421
#     4  11  27  45  73 109 151 189 241 299 370 435
#     4  10  22  44  74 110 136 185 245 306 355 425
#     4  12  28  47  74 105 149 198 241 297 371 435
#     4  12  29  47  72 107 150 192 240 303 367 430
#
# _framework density 24.046572999999999
#
# number of rings (size 3 to 8) (size 9 to 14) (size 15 to 20)
#    0.000    0.857    1.429    3.857   10.000    1.714 
#    2.571    0.000    0.000    0.000    0.000    0.000 
#    0.000    0.000    0.000    0.000    0.000    0.000 
#
# Total GULP energy -78502.034205 kJ/mol
# GULP energy per Si atom -5607.288158 kJ/mol
# Density = 2.399184 g / cm^3
# Si number density = 24.046573 Si / 1000 Ang^3
#
#
#
# Elastic Constant Matrix: (Units=GPa)
#
#
# Indices 1 2 3 4 5 6 
#
# 1 70.0720 29.7352 16.2171 12.7621 15.4522 -9.7065
# 2 29.7352 128.6712 57.8039 24.5862 13.3622 -6.8545
# 3 16.2171 57.8039 128.6725 7.2393 17.4582 -0.6599
# 4 12.7621 24.5862 7.2393 38.0026 8.6574 8.6065
# 5 15.4522 13.3622 17.4582 8.6574 52.4679 -0.2517
# 6 -9.7065 -6.8545 -0.6599 8.6065 -0.2517 22.2360
#
#
#
# Elastic Compliance Matrix: (Units=1/GPa)
#
#
# Indices 1 2 3 4 5 6 
#
# 1 0.018543 -0.001922 -0.000568 -0.006267 -0.003701 0.009869
# 2 -0.001922 0.012089 -0.004779 -0.007641 0.000366 0.005707
# 3 -0.000568 -0.004779 0.010168 0.002436 -0.002412 -0.002390
# 4 -0.006267 -0.007641 0.002436 0.038166 -0.003412 -0.019830
# 5 -0.003701 0.000366 -0.002412 -0.003412 0.021422 -0.000011
# 6 0.009869 0.005707 -0.002390 -0.019830 -0.000011 0.058643
#
#
# Mechanical properties :
#
#
# Convention : Reuss Voigt Hill
#
# Bulk Modulus (GPa) = 38.07920 59.43648 48.75784
# Shear Modulus (GPa) = 27.42383 37.45192 32.43787
#
# Velocity S-wave (km/s) = 3.38071 3.95077 3.67680
# Velocity P-wave (km/s) = 5.57754 6.75147 6.19238
#
# Compressibility (1/GPa) = 0.02626106
#
# Stress axis : x y z
#
# Youngs Moduli (GPa) = 53.92919 82.72023 98.34678
#
# Poissons Ratio (x) = 0.15902 0.05587
# Poissons Ratio (y) = 0.10367 0.46999
# Poissons Ratio (z) = 0.03064 0.39531
#
# Static dielectric constant tensor:
#      x y z
#    x 1.924680 0.032560 -0.021610 
#    y 0.032560 1.897080 -0.016260 
#    z -0.021610 -0.016260 1.929430 
# 
# From -- ./inp_files/392248.got.cif
#   From: 2010.05.17/outbox.cif.g08.bks.cpg/sg2_197_cif.got.tgz:392248.got - 2010.06.03 11:33:40.
