data_PCOD9032712
_publ_section_title
;
Structure prediction by ZEFSAII (Michael W. Deem and Ramdas Pophale) SiO2 
 PCOD9032712
Probable space group: P -1
;
_chemical_formula_sum "Si O2"
_cell_formula_units_Z 12
_cell_length_a 5.015814
_cell_length_b 8.157586
_cell_length_c 11.443678
_cell_angle_alpha 118.152588
_cell_angle_beta 92.280169
_cell_angle_gamma 83.689174
_cell_volume 410.303951
_symmetry_space_group_name_H-M "P -1"
_symmetry_group_IT_number 2
_symmetry_cell_setting 'triclinic'
loop_
_space_group_symop_operation_xyz
x,y,z
-x,-y,-z
loop_
_atom_site_type_symbol
_atom_site_label
_atom_site_fract_x
_atom_site_fract_y
_atom_site_fract_z
Si Si1 0.353537 0.611837 0.143417
Si Si2 0.621742 0.208757 0.358289
Si Si3 0.911814 0.857968 0.120744
Si Si4 0.774381 0.841963 0.873895
Si Si5 0.802417 0.486838 0.292657
Si Si6 0.807793 0.180807 0.592862
O O1 0.044600 0.665662 0.112519
O O2 0.525776 0.515748 0.222934
O O3 0.336824 0.816959 0.282116
O O4 0.500000 0.500000 0.000000
O O5 0.391518 0.208699 0.258378
O O6 0.756807 0.395400 0.387169
O O7 0.585511 0.211493 0.496841
O O8 0.801937 0.016226 0.263100
O O9 0.134955 0.957701 0.089028
O O10 0.691474 0.840500 0.008722
O O11 0.022977 0.682655 0.826233
O O12 0.991549 0.654656 0.352194
O O13 0.000000 0.000000 0.500000
#
# Coordination Sequence:
#
# PCOD9032712 Si02
#       6
#     2   2   2   2   2   2
#     4  12  26  48  75 111 151 196 246 311 376 443
#     4  11  24  48  75 109 149 198 251 307 370 447
#     4  10  22  43  73 111 147 195 250 303 367 444
#     4  10  22  44  74 109 148 197 249 302 369 447
#     4  11  26  46  74 109 151 195 249 309 374 440
#     4  12  28  49  74 114 148 198 250 310 378 440
#
# _framework density 29.246613
#
# number of rings (size 3 to 8) (size 9 to 14) (size 15 to 20)
#    0.000    1.000    3.333    2.000    2.333    6.667 
#    6.000    0.000    0.000    0.000    0.000    0.000 
#    0.000    0.000    0.000    0.000    0.000    0.000 
#
# Total GULP energy -66948.174301 kJ/mol
# GULP energy per Si atom -5579.014525 kJ/mol
# Density = 2.918005 g / cm^3
# Si number density = 29.246613 Si / 1000 Ang^3
#
#
#
# Elastic Constant Matrix: (Units=GPa)
#
#
# Indices 1 2 3 4 5 6 
#
# 1 105.4116 65.5499 24.2846 2.3092 17.3723 -11.2027
# 2 65.5499 149.0032 65.7466 5.8244 14.2409 -25.3980
# 3 24.2846 65.7466 240.5837 -25.8330 8.3275 -11.6821
# 4 2.3092 5.8244 -25.8330 67.1388 -13.1518 10.6832
# 5 17.3723 14.2409 8.3275 -13.1518 55.6455 8.4536
# 6 -11.2027 -25.3980 -11.6821 10.6832 8.4536 55.6391
#
#
#
# Elastic Compliance Matrix: (Units=1/GPa)
#
#
# Indices 1 2 3 4 5 6 
#
# 1 0.013521 -0.005599 0.000245 -0.000620 -0.003094 0.000807
# 2 -0.005599 0.011376 -0.002567 -0.002902 -0.002135 0.004408
# 3 0.000245 -0.002567 0.005040 0.002338 0.000468 -0.000584
# 4 -0.000620 -0.002902 0.002338 0.018012 0.005645 -0.005275
# 5 -0.003094 -0.002135 0.000468 0.005645 0.021639 -0.005871
# 6 0.000807 0.004408 -0.000584 -0.005275 -0.005871 0.021930
#
#
# Mechanical properties :
#
#
# Convention : Reuss Voigt Hill
#
# Bulk Modulus (GPa) = 70.94894 89.57343 80.26118
# Shear Modulus (GPa) = 44.61958 58.31250 51.46604
#
# Velocity S-wave (km/s) = 3.91017 4.47007 4.19946
# Velocity P-wave (km/s) = 6.68561 7.57202 7.14258
#
# Compressibility (1/GPa) = 0.01409464
#
# Stress axis : x y z
#
# Youngs Moduli (GPa) = 73.95866 87.90503 198.41611
#
# Poissons Ratio (x) = 0.49216 -0.04861
# Poissons Ratio (y) = 0.41408 0.50939
# Poissons Ratio (z) = -0.01812 0.22568
#
# Static dielectric constant tensor:
#      x y z
#    x 2.400490 0.018590 0.006380 
#    y 0.018590 2.310650 -0.023730 
#    z 0.006380 -0.023730 2.307450 
# 
# From -- ./inp_files/60201.got.cif
#   From: 2010.05.17/outbox.cif.g08.bks.cpg/sg2_31_cif.got.tgz:60201.got - 2010.06.03 11:33:40.
