data_PCOD9032659
_publ_section_title
;
Structure prediction by ZEFSAII (Michael W. Deem and Ramdas Pophale) SiO2 
 PCOD9032659
Probable space group: P -1
;
_chemical_formula_sum "Si O2"
_cell_formula_units_Z 16
_cell_length_a 20.150072
_cell_length_b 23.813543
_cell_length_c 5.262505
_cell_angle_alpha 109.958151
_cell_angle_beta 112.021353
_cell_angle_gamma 16.698652
_cell_volume 671.141521
_symmetry_space_group_name_H-M "P -1"
_symmetry_group_IT_number 2
_symmetry_cell_setting 'triclinic'
loop_
_space_group_symop_operation_xyz
x,y,z
-x,-y,-z
loop_
_atom_site_type_symbol
_atom_site_label
_atom_site_fract_x
_atom_site_fract_y
_atom_site_fract_z
Si Si1 0.306250 0.903128 0.932645
Si Si2 0.239130 0.473909 0.819672
Si Si3 0.591303 0.592746 0.490590
Si Si4 0.870928 0.665396 0.582423
Si Si5 0.172816 0.137455 0.975397
Si Si6 0.915296 0.000105 0.861559
Si Si7 0.635837 0.416184 0.319736
Si Si8 0.642731 0.942243 0.375504
O O1 0.484045 0.717522 0.756479
O O2 0.506881 0.761295 0.204694
O O3 0.225161 0.025680 0.862642
O O4 0.100906 0.027497 0.951941
O O5 0.225183 0.516524 0.586876
O O6 0.066801 0.557136 0.779374
O O7 0.107084 0.630801 0.039732
O O8 0.646010 0.479868 0.435900
O O9 0.352887 0.780278 0.266172
O O10 0.636076 0.846434 0.691201
O O11 0.000000 0.500000 0.500000
O O12 0.771815 0.776122 0.354623
O O13 0.288448 0.072912 0.299007
O O14 0.275598 0.089684 0.808213
O O15 0.100440 0.819349 0.671265
O O16 0.000000 0.000000 0.000000
O O17 0.500000 0.500000 0.500000
O O18 0.500000 0.500000 0.000000
#
# Coordination Sequence:
#
# PCOD9032659 Si02
#       8
#     2   2   2   2   2   2   2   2
#     4  11  26  42  72 102 138 192 234 287 356 426
#     4  10  25  44  66 103 140 187 232 294 347 423
#     4  11  26  45  70 103 142 181 240 284 354 423
#     4  10  22  43  73 100 144 182 242 291 358 409
#     4  11  25  46  72  98 149 183 240 291 357 413
#     4  11  24  46  71 101 141 180 233 291 351 414
#     4  12  27  46  75 105 138 180 228 289 351 415
#     4  10  25  44  69 107 136 188 237 297 348 422
#
# _framework density 23.839981000000002
#
# number of rings (size 3 to 8) (size 9 to 14) (size 15 to 20)
#    0.000    1.250    1.250    2.250   12.250    6.500 
#    0.000    3.750    0.000    0.000    0.000    0.000 
#    0.000    0.000    0.000    0.000    0.000    0.000 
#
# Total GULP energy -89317.533420 kJ/mol
# GULP energy per Si atom -5582.345839 kJ/mol
# Density = 2.378572 g / cm^3
# Si number density = 23.839981 Si / 1000 Ang^3
#
#
#
# Elastic Constant Matrix: (Units=GPa)
#
#
# Indices 1 2 3 4 5 6 
#
# 1 184.5477 80.2127 65.8217 30.5326 -23.5114 23.0690
# 2 80.2127 164.5410 -23.5002 28.8117 -19.1179 28.9887
# 3 65.8217 -23.5002 126.6906 20.6440 -15.3236 0.4440
# 4 30.5326 28.8117 20.6440 31.9001 -10.1816 4.4990
# 5 -23.5114 -19.1179 -15.3236 -10.1816 54.4659 8.7445
# 6 23.0690 28.9887 0.4440 4.4990 8.7445 56.9987
#
#
#
# Elastic Compliance Matrix: (Units=1/GPa)
#
#
# Indices 1 2 3 4 5 6 
#
# 1 0.010431 -0.005534 -0.006256 -0.000424 0.000957 -0.001472
# 2 -0.005534 0.012336 0.006973 -0.008908 0.002851 -0.003823
# 3 -0.006256 0.006973 0.014115 -0.008621 0.002233 -0.000787
# 4 -0.000424 -0.008908 -0.008621 0.046169 0.002783 0.000698
# 5 0.000957 0.002851 0.002233 0.002783 0.021793 -0.005418
# 6 -0.001472 -0.003823 -0.000787 0.000698 -0.005418 0.020867
#
#
# Mechanical properties :
#
#
# Convention : Reuss Voigt Hill
#
# Bulk Modulus (GPa) = 36.69915 80.09419 58.39667
# Shear Modulus (GPa) = 34.61992 52.22262 43.42127
#
# Velocity S-wave (km/s) = 3.81488 4.68541 4.27237
# Velocity P-wave (km/s) = 5.90185 7.93349 6.99185
#
# Compressibility (1/GPa) = 0.02724859
#
# Stress axis : x y z
#
# Youngs Moduli (GPa) = 95.86436 81.06482 70.84885
#
# Poissons Ratio (x) = 0.44860 0.44323
# Poissons Ratio (y) = 0.53049 -0.49404
# Poissons Ratio (z) = 0.59972 -0.56528
#
# Static dielectric constant tensor:
#      x y z
#    x 2.036890 -0.105250 0.068280 
#    y -0.105250 1.962210 -0.070910 
#    z 0.068280 -0.070910 2.065780 
# 
# From -- ./inp_files/112442.got.cif
#   From: 2010.05.17/outbox.cif.g08.bks.cpg/sg2_57_cif.got.tgz:112442.got - 2010.06.03 11:33:40.
