data_PCOD9032028
_publ_section_title
;
Structure prediction by ZEFSAII (Michael W. Deem and Ramdas Pophale) SiO2 
 PCOD9032028
Probable space group: P -1
;
_chemical_formula_sum "Si O2"
_cell_formula_units_Z 16
_cell_length_a 7.365517
_cell_length_b 14.450882
_cell_length_c 13.829768
_cell_angle_alpha 130.025270
_cell_angle_beta 98.869781
_cell_angle_gamma 47.996798
_cell_volume 732.375339
_symmetry_space_group_name_H-M "P -1"
_symmetry_group_IT_number 2
_symmetry_cell_setting 'triclinic'
loop_
_space_group_symop_operation_xyz
x,y,z
-x,-y,-z
loop_
_atom_site_type_symbol
_atom_site_label
_atom_site_fract_x
_atom_site_fract_y
_atom_site_fract_z
Si Si1 0.826586 0.068810 0.132222
Si Si2 0.090205 0.087962 0.543986
Si Si3 0.921928 0.866193 0.655299
Si Si4 0.320910 0.126837 0.730996
Si Si5 0.497340 0.549165 0.241692
Si Si6 0.696553 0.509196 0.646548
Si Si7 0.132458 0.422392 0.764005
Si Si8 0.015316 0.247024 0.972510
O O1 0.513442 0.277687 0.248388
O O2 0.984279 0.069648 0.227896
O O3 0.824282 0.929539 0.068191
O O4 0.000000 0.000000 0.000000
O O5 0.827488 0.294383 0.700855
O O6 0.092594 0.096299 0.435026
O O7 0.349632 0.010998 0.572297
O O8 0.000000 0.000000 0.500000
O O9 0.148506 0.644690 0.527818
O O10 0.598357 0.995547 0.731205
O O11 0.089085 0.196729 0.834068
O O12 0.245100 0.287140 0.772926
O O13 0.501059 0.484335 0.302968
O O14 0.616541 0.626585 0.299474
O O15 0.692198 0.386277 0.070723
O O16 0.950401 0.434588 0.683242
O O17 0.942101 0.631038 0.921721
#
# Coordination Sequence:
#
# PCOD9032028 Si02
#       8
#     2   2   2   2   2   2   2   2
#     4  12  25  49  74  96 140 188 244 300 343 413
#     4  11  22  40  69  99 147 187 229 283 350 435
#     4  11  26  43  70 105 139 186 236 283 361 424
#     4  12  23  42  68 108 148 184 225 293 358 428
#     4   9  21  40  65 103 135 182 235 275 346 415
#     4  11  23  48  74 100 141 188 238 293 355 408
#     4  10  22  43  69 107 142 185 227 292 352 424
#     4  10  25  41  66 107 139 186 238 283 358 413
#
# _framework density 21.846719
#
# number of rings (size 3 to 8) (size 9 to 14) (size 15 to 20)
#    0.750    0.500    3.750    2.625    3.500    1.000 
#    4.500    0.625    0.000    0.000    0.000    0.000 
#    0.000    0.000    0.000    0.000    0.000    0.000 
#
# Total GULP energy -89138.061919 kJ/mol
# GULP energy per Si atom -5571.128870 kJ/mol
# Density = 2.179700 g / cm^3
# Si number density = 21.846719 Si / 1000 Ang^3
#
#
#
# Elastic Constant Matrix: (Units=GPa)
#
#
# Indices 1 2 3 4 5 6 
#
# 1 67.2275 28.7024 19.5898 -7.4406 0.4325 8.4954
# 2 28.7024 80.4028 27.7589 17.2738 3.2578 10.4499
# 3 19.5898 27.7589 90.3813 2.7914 -3.4429 4.6548
# 4 -7.4406 17.2738 2.7914 35.8676 1.4725 7.8871
# 5 0.4325 3.2578 -3.4429 1.4725 23.6752 4.4018
# 6 8.4954 10.4499 4.6548 7.8871 4.4018 43.6541
#
#
#
# Elastic Compliance Matrix: (Units=1/GPa)
#
#
# Indices 1 2 3 4 5 6 
#
# 1 0.020341 -0.008072 -0.002008 0.009010 0.000536 -0.003494
# 2 -0.008072 0.019018 -0.003835 -0.010337 -0.002296 -0.000474
# 3 -0.002008 -0.003835 0.012778 0.000418 0.002467 -0.000378
# 4 0.009010 -0.010337 0.000418 0.035972 0.000167 -0.005840
# 5 0.000536 -0.002296 0.002467 0.000167 0.043684 -0.004253
# 6 -0.003494 -0.000474 -0.000378 -0.005840 -0.004253 0.025225
#
#
# Mechanical properties :
#
#
# Convention : Reuss Voigt Hill
#
# Bulk Modulus (GPa) = 41.13869 43.34599 42.24234
# Shear Modulus (GPa) = 25.91342 31.43673 28.67508
#
# Velocity S-wave (km/s) = 3.44778 3.79749 3.62685
# Velocity P-wave (km/s) = 5.89246 6.25395 6.07590
#
# Compressibility (1/GPa) = 0.02430801
#
# Stress axis : x y z
#
# Youngs Moduli (GPa) = 49.16120 52.58096 78.25997
#
# Poissons Ratio (x) = 0.42441 0.15713
# Poissons Ratio (y) = 0.39680 0.30016
# Poissons Ratio (z) = 0.09870 0.20167
#
# Static dielectric constant tensor:
#      x y z
#    x 1.791010 -0.014580 -0.026290 
#    y -0.014580 1.972600 0.106930 
#    z -0.026290 0.106930 1.852500 
# 
# From -- ./inp_files/399440.got.cif
#   From: 2010.05.17/outbox.cif.g08.bks.cpg/sg2_200_cif.got.tgz:399440.got - 2010.06.03 11:33:40.
