data_PCOD9032926
_publ_section_title
;
Structure prediction by ZEFSAII (Michael W. Deem and Ramdas Pophale) SiO2 
 PCOD9032926
Probable space group: P -1
;
_chemical_formula_sum "Si O2"
_cell_formula_units_Z 16
_cell_length_a 14.376252
_cell_length_b 15.131687
_cell_length_c 11.391625
_cell_angle_alpha 121.724493
_cell_angle_beta 139.399541
_cell_angle_gamma 28.900913
_cell_volume 699.324539
_symmetry_space_group_name_H-M "P -1"
_symmetry_group_IT_number 2
_symmetry_cell_setting 'triclinic'
loop_
_space_group_symop_operation_xyz
x,y,z
-x,-y,-z
loop_
_atom_site_type_symbol
_atom_site_label
_atom_site_fract_x
_atom_site_fract_y
_atom_site_fract_z
Si Si1 0.692082 0.238728 0.353220
Si Si2 0.599152 0.340424 0.905559
Si Si3 0.018637 0.609861 0.581216
Si Si4 0.610809 0.018452 0.356604
Si Si5 0.263490 0.661002 0.218219
Si Si6 0.042282 0.348589 0.177688
Si Si7 0.969054 0.048353 0.257342
Si Si8 0.724550 0.677166 0.940317
O O1 0.567476 0.430086 0.391606
O O2 0.483110 0.290221 0.250445
O O3 0.700075 0.227973 0.210718
O O4 0.000000 0.000000 0.500000
O O5 0.687380 0.321586 0.849961
O O6 0.324397 0.442499 0.707718
O O7 0.500000 0.500000 0.000000
O O8 0.845783 0.131371 0.067208
O O9 0.978254 0.672511 0.721503
O O10 0.000000 0.500000 0.500000
O O11 0.793831 0.804781 0.417626
O O12 0.354685 0.181385 0.317861
O O13 0.464749 0.113568 0.153533
O O14 0.821063 0.985551 0.548251
O O15 0.119350 0.843693 0.279480
O O16 0.069383 0.680176 0.026469
O O17 0.850174 0.570031 0.114521
O O18 0.000000 0.500000 0.000000
#
# Coordination Sequence:
#
# PCOD9032926 Si02
#       8
#     2   2   2   2   2   2   2   2
#     4  11  21  41  66  96 139 172 223 282 325 394
#     4  12  21  43  65  92 138 169 219 286 347 392
#     4  12  26  40  67  96 128 178 229 278 341 409
#     4  11  22  42  65  97 132 172 227 280 333 401
#     4  11  24  41  69  99 132 180 222 274 345 407
#     4  10  22  44  63  92 139 171 215 284 340 397
#     4  12  24  40  72 101 130 182 227 276 342 405
#     4   9  20  41  71  91 135 183 211 275 350 391
#
# _framework density 22.87922
#
# number of rings (size 3 to 8) (size 9 to 14) (size 15 to 20)
#    0.000    1.000    5.000    1.500    3.500    0.500 
#    0.000    0.625    5.500    0.000    0.000    0.000 
#    0.000    0.000    0.000    0.000    0.000    0.000 
#
# Total GULP energy -89247.204952 kJ/mol
# GULP energy per Si atom -5577.950309 kJ/mol
# Density = 2.282715 g / cm^3
# Si number density = 22.879220 Si / 1000 Ang^3
#
#
#
# Elastic Constant Matrix: (Units=GPa)
#
#
# Indices 1 2 3 4 5 6 
#
# 1 121.4954 29.4421 32.5395 -17.2407 3.0833 9.9836
# 2 29.4421 149.7487 48.6034 -20.8275 -9.2621 26.7167
# 3 32.5395 48.6034 71.2086 -36.9578 4.9731 16.5781
# 4 -17.2407 -20.8275 -36.9578 41.6398 8.3228 -16.3640
# 5 3.0833 -9.2621 4.9731 8.3228 45.1833 -11.5680
# 6 9.9836 26.7167 16.5781 -16.3640 -11.5680 40.2236
#
#
#
# Elastic Compliance Matrix: (Units=1/GPa)
#
#
# Indices 1 2 3 4 5 6 
#
# 1 0.009436 -0.000596 -0.003558 0.000371 -0.000569 -0.000492
# 2 -0.000596 0.009620 -0.007924 -0.004608 0.002690 -0.004077
# 3 -0.003558 -0.007924 0.037432 0.029879 -0.011086 -0.000314
# 4 0.000371 -0.004608 0.029879 0.054448 -0.011885 0.009387
# 5 -0.000569 0.002690 -0.011086 -0.011885 0.027680 0.006049
# 6 -0.000492 -0.004077 -0.000314 0.009387 0.006049 0.033379
#
#
# Mechanical properties :
#
#
# Convention : Reuss Voigt Hill
#
# Bulk Modulus (GPa) = 30.92901 62.62473 46.77687
# Shear Modulus (GPa) = 24.16295 40.86719 32.51507
#
# Velocity S-wave (km/s) = 3.25331 4.23095 3.77392
# Velocity P-wave (km/s) = 5.25925 7.16235 6.28327
#
# Compressibility (1/GPa) = 0.03233210
#
# Stress axis : x y z
#
# Youngs Moduli (GPa) = 105.98082 103.95384 26.71482
#
# Poissons Ratio (x) = 0.06197 0.09505
# Poissons Ratio (y) = 0.06317 0.21168
# Poissons Ratio (z) = 0.37708 0.82370
#
# Static dielectric constant tensor:
#      x y z
#    x 1.773650 0.097490 -0.028880 
#    y 0.097490 1.786150 -0.078750 
#    z -0.028880 -0.078750 1.868430 
# 
# From -- ./inp_files/455821.got.cif
#   From: 2010.05.17/outbox.cif.g08.bks.cpg/sg2_228_cif.got.tgz:455821.got - 2010.06.03 11:33:40.
