data_PCOD9032236
_publ_section_title
;
Structure prediction by ZEFSAII (Michael W. Deem and Ramdas Pophale) SiO2 
 PCOD9032236
Probable space group: P -1
;
_chemical_formula_sum "Si O2"
_cell_formula_units_Z 16
_cell_length_a 5.286424
_cell_length_b 16.979482
_cell_length_c 14.158581
_cell_angle_alpha 29.359741
_cell_angle_beta 102.125744
_cell_angle_gamma 95.296257
_cell_volume 598.179508
_symmetry_space_group_name_H-M "P -1"
_symmetry_group_IT_number 2
_symmetry_cell_setting 'triclinic'
loop_
_space_group_symop_operation_xyz
x,y,z
-x,-y,-z
loop_
_atom_site_type_symbol
_atom_site_label
_atom_site_fract_x
_atom_site_fract_y
_atom_site_fract_z
Si Si1 0.346955 0.038949 0.209997
Si Si2 0.869043 0.188520 0.318264
Si Si3 0.188268 0.625409 0.409429
Si Si4 0.196474 0.247138 0.448351
Si Si5 0.735554 0.726373 0.881137
Si Si6 0.063975 0.119156 0.753620
Si Si7 0.601917 0.233804 0.898137
Si Si8 0.504366 0.514652 0.230216
O O1 0.629020 0.933075 0.369116
O O2 0.201741 0.912148 0.281396
O O3 0.225497 0.122532 0.207197
O O4 0.352236 0.182770 0.983911
O O5 0.939563 0.242631 0.371822
O O6 0.029930 0.294769 0.152953
O O7 0.555966 0.222551 0.241909
O O8 0.000000 0.000000 0.500000
O O9 0.380008 0.660214 0.303965
O O10 0.336442 0.567652 0.579401
O O11 0.000000 0.500000 0.500000
O O12 0.997681 0.799090 0.236772
O O13 0.162930 0.246729 0.559016
O O14 0.350105 0.393156 0.291104
O O15 0.693670 0.583075 0.099511
O O16 0.251112 0.944910 0.937371
O O17 0.690974 0.333647 0.890279
#
# Coordination Sequence:
#
# PCOD9032236 Si02
#       8
#     2   2   2   2   2   2   2   2
#     4  10  22  43  70 102 140 189 238 300 360 429
#     4  12  25  45  76 111 143 189 254 305 361 444
#     4  12  26  45  72 103 142 190 240 298 365 439
#     4  11  24  44  72 101 145 189 238 295 371 434
#     4  11  27  44  75 107 150 192 243 306 369 438
#     4  11  24  45  73 104 139 187 247 297 359 430
#     4  10  25  44  69 101 140 185 241 300 353 431
#     4  11  26  49  67 104 150 194 228 300 379 434
#
# _framework density 26.747823
#
# number of rings (size 3 to 8) (size 9 to 14) (size 15 to 20)
#    0.000    1.000    2.500    2.625    8.750    2.500 
#    0.000    0.000    0.000    0.000    0.000    0.000 
#    0.000    0.000    0.000    0.000    0.000    0.000 
#
# Total GULP energy -89565.213876 kJ/mol
# GULP energy per Si atom -5597.825867 kJ/mol
# Density = 2.668694 g / cm^3
# Si number density = 26.747823 Si / 1000 Ang^3
#
#
#
# Elastic Constant Matrix: (Units=GPa)
#
#
# Indices 1 2 3 4 5 6 
#
# 1 62.0082 7.9746 28.9031 3.7538 -12.8207 5.0735
# 2 7.9746 111.6396 30.7982 -13.3077 -2.7590 20.1630
# 3 28.9031 30.7982 113.7857 -0.7180 -24.6273 5.6673
# 4 3.7538 -13.3077 -0.7180 40.2053 0.7995 -3.6206
# 5 -12.8207 -2.7590 -24.6273 0.7995 48.3847 4.3403
# 6 5.0735 20.1630 5.6673 -3.6206 4.3403 47.7561
#
#
#
# Elastic Compliance Matrix: (Units=1/GPa)
#
#
# Indices 1 2 3 4 5 6 
#
# 1 0.018956 -0.000062 -0.004026 -0.002102 0.003181 -0.001959
# 2 -0.000062 0.010815 -0.002810 0.003191 -0.000530 -0.003936
# 3 -0.004026 -0.002810 0.011598 -0.000461 0.004704 -0.000225
# 4 -0.002102 0.003191 -0.000461 0.026231 -0.001135 0.001022
# 5 0.003181 -0.000530 0.004704 -0.001135 0.024158 -0.002954
# 6 -0.001959 -0.003936 -0.000225 0.001022 -0.002954 0.023182
#
#
# Mechanical properties :
#
#
# Convention : Reuss Voigt Hill
#
# Bulk Modulus (GPa) = 36.26523 46.97616 41.62070
# Shear Modulus (GPa) = 36.25063 41.91972 39.08518
#
# Velocity S-wave (km/s) = 3.68540 3.96311 3.82677
# Velocity P-wave (km/s) = 5.63002 6.20825 5.92619
#
# Compressibility (1/GPa) = 0.02757462
#
# Stress axis : x y z
#
# Youngs Moduli (GPa) = 52.75249 92.46188 86.22119
#
# Poissons Ratio (x) = 0.00570 0.34711
# Poissons Ratio (y) = 0.00325 0.24229
# Poissons Ratio (z) = 0.21237 0.25983
#
# Static dielectric constant tensor:
#      x y z
#    x 2.209770 -0.005570 0.110540 
#    y -0.005570 1.977620 0.004700 
#    z 0.110540 0.004700 2.191990 
# 
# From -- ./inp_files/333984.got.cif
#   From: 2010.05.17/outbox.cif.g08.bks.cpg/sg2_167_cif.got.tgz:333984.got - 2010.06.03 11:33:40.
