data_PCOD9032288
_publ_section_title
;
Structure prediction by ZEFSAII (Michael W. Deem and Ramdas Pophale) SiO2 
 PCOD9032288
Probable space group: P -1
;
_chemical_formula_sum "Si O2"
_cell_formula_units_Z 16
_cell_length_a 22.528805
_cell_length_b 9.590255
_cell_length_c 7.662170
_cell_angle_alpha 89.224465
_cell_angle_beta 65.750436
_cell_angle_gamma 142.705113
_cell_volume 720.505286
_symmetry_space_group_name_H-M "P -1"
_symmetry_group_IT_number 2
_symmetry_cell_setting 'triclinic'
loop_
_space_group_symop_operation_xyz
x,y,z
-x,-y,-z
loop_
_atom_site_type_symbol
_atom_site_label
_atom_site_fract_x
_atom_site_fract_y
_atom_site_fract_z
Si Si1 0.351414 0.813962 0.522814
Si Si2 0.410155 0.615402 0.535066
Si Si3 0.013842 0.439901 0.812150
Si Si4 0.768323 0.249413 0.661548
Si Si5 0.948548 0.754544 0.004301
Si Si6 0.237781 0.148518 0.019415
Si Si7 0.975965 0.115526 0.478721
Si Si8 0.548095 0.659678 0.120039
O O1 0.391502 0.726983 0.454482
O O2 0.308643 0.803149 0.390995
O O3 0.469110 0.120438 0.476412
O O4 0.215141 0.557512 0.810571
O O5 0.275554 0.322781 0.812706
O O6 0.444215 0.548781 0.369993
O O7 0.152218 0.726401 0.535767
O O8 0.000000 0.500000 0.000000
O O9 0.022527 0.298185 0.874318
O O10 0.875108 0.182611 0.878077
O O11 0.894154 0.561934 0.598782
O O12 0.660025 0.985976 0.929237
O O13 0.018549 0.850418 0.735400
O O14 0.000000 0.000000 0.000000
O O15 0.376729 0.327076 0.878603
O O16 0.165588 0.097947 0.262606
O O17 0.000000 0.000000 0.500000
O O18 0.500000 0.500000 0.000000
#
# Coordination Sequence:
#
# PCOD9032288 Si02
#       8
#     2   2   2   2   2   2   2   2
#     4  10  22  43  70  94 126 170 222 278 326 389
#     4  11  24  44  67  92 129 179 226 267 325 384
#     4  10  24  38  67  95 124 172 208 268 336 391
#     4  10  24  42  63  99 131 159 222 267 335 389
#     4  11  22  41  68  98 130 166 215 270 338 396
#     4  11  26  42  64  96 133 170 221 263 325 394
#     4  11  23  41  69 101 131 164 209 281 336 393
#     4  12  28  42  63  94 137 184 221 264 319 395
#
# _framework density 22.206638000000002
#
# number of rings (size 3 to 8) (size 9 to 14) (size 15 to 20)
#    0.000    1.250    0.000    5.625    8.750    4.500 
#    0.000    0.000    0.000    0.000    0.000    0.000 
#    0.000    0.000    0.000    0.000    0.000    0.000 
#
# Total GULP energy -89424.211307 kJ/mol
# GULP energy per Si atom -5589.013207 kJ/mol
# Density = 2.215609 g / cm^3
# Si number density = 22.206638 Si / 1000 Ang^3
#
#
#
# Elastic Constant Matrix: (Units=GPa)
#
#
# Indices 1 2 3 4 5 6 
#
# 1 55.5362 8.9894 1.7237 1.9475 -2.6015 -2.2767
# 2 8.9894 58.4252 22.0618 12.2436 -11.7656 -2.0255
# 3 1.7237 22.0618 128.3525 10.5433 3.1157 -4.9896
# 4 1.9475 12.2436 10.5433 40.0720 -1.5740 0.5691
# 5 -2.6015 -11.7656 3.1157 -1.5740 33.9217 0.6967
# 6 -2.2767 -2.0255 -4.9896 0.5691 0.6967 27.8024
#
#
#
# Elastic Compliance Matrix: (Units=1/GPa)
#
#
# Indices 1 2 3 4 5 6 
#
# 1 0.018530 -0.002809 0.000287 -0.000122 0.000387 0.001357
# 2 -0.002809 0.021400 -0.003361 -0.005242 0.007259 0.000651
# 3 0.000287 -0.003361 0.008579 -0.001343 -0.002023 0.001396
# 4 -0.000122 -0.005242 -0.001343 0.026916 -0.000431 -0.001173
# 5 0.000387 0.007259 -0.002023 -0.000431 0.032205 -0.000601
# 6 0.001357 0.000651 0.001396 -0.001173 -0.000601 0.036416
#
#
# Mechanical properties :
#
#
# Convention : Reuss Voigt Hill
#
# Bulk Modulus (GPa) = 27.21564 34.20708 30.71136
# Shear Modulus (GPa) = 29.75137 34.32848 32.03993
#
# Velocity S-wave (km/s) = 3.66423 3.93602 3.80255
# Velocity P-wave (km/s) = 5.49403 6.00780 5.75665
#
# Compressibility (1/GPa) = 0.03674358
#
# Stress axis : x y z
#
# Youngs Moduli (GPa) = 53.96630 46.72863 116.56887
#
# Poissons Ratio (x) = 0.13126 -0.03350
# Poissons Ratio (y) = 0.15160 0.39178
# Poissons Ratio (z) = -0.01551 0.15705
#
# Static dielectric constant tensor:
#      x y z
#    x 1.859680 0.001350 -0.023730 
#    y 0.001350 1.828010 0.007580 
#    z -0.023730 0.007580 1.817650 
# 
# From -- ./inp_files/352237.got.cif
#   From: 2010.05.17/outbox.cif.g08.bks.cpg/sg2_177_cif.got.tgz:352237.got - 2010.06.03 11:33:40.
