data_PCOD9032078
_publ_section_title
;
Structure prediction by ZEFSAII (Michael W. Deem and Ramdas Pophale) SiO2 
 PCOD9032078
Probable space group: P -1
;
_chemical_formula_sum "Si O2"
_cell_formula_units_Z 16
_cell_length_a 9.874418
_cell_length_b 14.078604
_cell_length_c 10.553739
_cell_angle_alpha 53.307606
_cell_angle_beta 140.335848
_cell_angle_gamma 104.145100
_cell_volume 681.042177
_symmetry_space_group_name_H-M "P -1"
_symmetry_group_IT_number 2
_symmetry_cell_setting 'triclinic'
loop_
_space_group_symop_operation_xyz
x,y,z
-x,-y,-z
loop_
_atom_site_type_symbol
_atom_site_label
_atom_site_fract_x
_atom_site_fract_y
_atom_site_fract_z
Si Si1 0.058850 0.890813 0.392627
Si Si2 0.479620 0.242511 0.057985
Si Si3 0.723691 0.440607 0.048805
Si Si4 0.763875 0.404231 0.818703
Si Si5 0.052622 0.420643 0.777454
Si Si6 0.304577 0.817323 0.158308
Si Si7 0.732248 0.322753 0.499499
Si Si8 0.662759 0.845718 0.238384
O O1 0.299609 0.884628 0.628170
O O2 0.125402 0.789527 0.405851
O O3 0.920891 0.838956 0.433607
O O4 0.877114 0.032193 0.101061
O O5 0.601527 0.342737 0.052989
O O6 0.269936 0.303645 0.959408
O O7 0.388987 0.211394 0.884686
O O8 0.798328 0.437868 0.959269
O O9 0.519909 0.585505 0.806795
O O10 0.909538 0.448183 0.277582
O O11 0.500000 0.500000 0.500000
O O12 0.768774 0.261025 0.936975
O O13 0.962377 0.398822 0.867734
O O14 0.843066 0.423510 0.536018
O O15 0.291099 0.750775 0.332737
O O16 0.567503 0.793166 0.329585
O O17 0.500000 0.000000 0.000000
#
# Coordination Sequence:
#
# PCOD9032078 Si02
#       8
#     2   2   2   2   2   2   2   2
#     4  11  24  44  69  95 134 172 215 271 323 388
#     4  12  25  43  67  99 134 170 218 269 325 390
#     4  12  24  43  66  98 133 171 220 269 325 387
#     4  11  22  44  67  94 134 171 216 274 322 383
#     4  11  24  41  66  97 132 171 221 263 330 387
#     4  10  22  43  69  95 127 175 218 264 326 386
#     4  11  23  44  68  95 132 171 218 272 325 382
#     4  10  23  44  67  93 131 174 218 262 322 389
#
# _framework density 23.493404000000002
#
# number of rings (size 3 to 8) (size 9 to 14) (size 15 to 20)
#    0.000    1.000    6.250    1.125    0.000    4.500 
#    2.250    6.250    0.000    0.000    0.000    0.000 
#    0.000    0.000    0.000    0.000    0.000    0.000 
#
# Total GULP energy -89433.034145 kJ/mol
# GULP energy per Si atom -5589.564634 kJ/mol
# Density = 2.343993 g / cm^3
# Si number density = 23.493404 Si / 1000 Ang^3
#
#
#
# Elastic Constant Matrix: (Units=GPa)
#
#
# Indices 1 2 3 4 5 6 
#
# 1 138.8389 30.0213 44.9647 5.7961 25.4576 -11.3517
# 2 30.0213 105.6756 27.6365 -9.7576 2.6247 -14.5558
# 3 44.9647 27.6365 74.6981 3.2863 7.0217 -4.9339
# 4 5.7961 -9.7576 3.2863 32.6616 -4.8781 2.2309
# 5 25.4576 2.6247 7.0217 -4.8781 33.6847 0.4457
# 6 -11.3517 -14.5558 -4.9339 2.2309 0.4457 38.9093
#
#
#
# Elastic Compliance Matrix: (Units=1/GPa)
#
#
# Indices 1 2 3 4 5 6 
#
# 1 0.010841 -0.001589 -0.004945 -0.003176 -0.007528 0.002210
# 2 -0.001589 0.011596 -0.003452 0.004111 0.001570 0.003183
# 3 -0.004945 -0.003452 0.017695 -0.001901 0.000047 -0.000382
# 4 -0.003176 0.004111 -0.001901 0.033817 0.007396 -0.001654
# 5 -0.007528 0.001570 0.000047 0.007396 0.036348 -0.002443
# 6 0.002210 0.003183 -0.000382 -0.001654 -0.002443 0.027611
#
#
# Mechanical properties :
#
#
# Convention : Reuss Voigt Hill
#
# Bulk Modulus (GPa) = 49.60048 58.27308 53.93678
# Shear Modulus (GPa) = 30.37677 35.49044 32.93360
#
# Velocity S-wave (km/s) = 3.59972 3.89093 3.74816
# Velocity P-wave (km/s) = 6.19965 6.71146 6.46062
#
# Compressibility (1/GPa) = 0.02016109
#
# Stress axis : x y z
#
# Youngs Moduli (GPa) = 92.24115 86.23616 56.51329
#
# Poissons Ratio (x) = 0.13699 0.27945
# Poissons Ratio (y) = 0.14653 0.19509
# Poissons Ratio (z) = 0.45611 0.29770
#
# Static dielectric constant tensor:
#      x y z
#    x 1.908670 0.032020 0.033980 
#    y 0.032020 1.883220 -0.003270 
#    z 0.033980 -0.003270 1.921760 
# 
# From -- ./inp_files/398692.got.cif
#   From: 2010.05.17/outbox.cif.g08.bks.cpg/sg2_200_cif.got.tgz:398692.got - 2010.06.03 11:33:40.
