data_PCOD9032769
_publ_section_title
;
Structure prediction by ZEFSAII (Michael W. Deem and Ramdas Pophale) SiO2 
 PCOD9032769
Probable space group: P -1
;
_chemical_formula_sum "Si O2"
_cell_formula_units_Z 14
_cell_length_a 5.259545
_cell_length_b 23.965268
_cell_length_c 5.596269
_cell_angle_alpha 55.164211
_cell_angle_beta 74.961654
_cell_angle_gamma 91.477588
_cell_volume 545.512736
_symmetry_space_group_name_H-M "P -1"
_symmetry_group_IT_number 2
_symmetry_cell_setting 'triclinic'
loop_
_space_group_symop_operation_xyz
x,y,z
-x,-y,-z
loop_
_atom_site_type_symbol
_atom_site_label
_atom_site_fract_x
_atom_site_fract_y
_atom_site_fract_z
Si Si1 0.483207 0.279625 0.186853
Si Si2 0.695466 0.951046 0.984813
Si Si3 0.299727 0.460827 0.443643
Si Si4 0.054331 0.664051 0.363123
Si Si5 0.169389 0.079831 0.471790
Si Si6 0.963693 0.213664 0.213695
Si Si7 0.273709 0.591019 0.870839
O O1 0.181989 0.243200 0.290698
O O2 0.545891 0.345243 0.183542
O O3 0.679061 0.227954 0.333895
O O4 0.625563 0.311063 0.826832
O O5 0.638944 0.917612 0.814711
O O6 0.707047 0.905019 0.329980
O O7 0.988323 0.002130 0.741533
O O8 0.500000 0.000000 0.000000
O O9 0.500000 0.500000 0.500000
O O10 0.513446 0.434548 0.287427
O O11 0.074918 0.388720 0.688864
O O12 0.164067 0.519552 0.214085
O O13 0.045496 0.619864 0.712598
O O14 0.962226 0.735677 0.160855
O O15 0.985475 0.135868 0.338941
#
# Coordination Sequence:
#
# PCOD9032769 Si02
#       7
#     2   2   2   2   2   2   2
#     4  10  25  45  67  93 138 172 234 278 353 413
#     4  10  22  43  74 108 150 191 245 300 359 431
#     4  11  24  40  64  93 132 169 232 283 366 413
#     4  10  23  41  63  93 132 169 227 282 350 410
#     4  10  23  44  70 110 147 193 247 297 365 428
#     4  10  24  46  68 100 137 186 223 296 347 435
#     4  11  23  39  66  93 125 180 221 297 344 430
#
# _framework density 25.663933
#
# number of rings (size 3 to 8) (size 9 to 14) (size 15 to 20)
#    0.857    0.857    0.000    3.429    4.000    4.571 
#    2.571    0.000    0.000    0.000    0.000    0.000 
#    0.000    0.000    0.000    0.000    0.000    0.000 
#
# Total GULP energy -78139.481250 kJ/mol
# GULP energy per Si atom -5581.391518 kJ/mol
# Density = 2.560552 g / cm^3
# Si number density = 25.663933 Si / 1000 Ang^3
#
#
#
# Elastic Constant Matrix: (Units=GPa)
#
#
# Indices 1 2 3 4 5 6 
#
# 1 105.1715 21.0401 35.7238 -1.4427 17.9331 5.6258
# 2 21.0401 104.8905 57.9535 1.7408 11.3398 -14.2730
# 3 35.7238 57.9535 107.3958 10.3203 39.5109 -10.2220
# 4 -1.4427 1.7408 10.3203 46.6339 -10.1865 -1.0371
# 5 17.9331 11.3398 39.5109 -10.1865 43.0080 -11.7223
# 6 5.6258 -14.2730 -10.2220 -1.0371 -11.7223 48.1394
#
#
#
# Elastic Compliance Matrix: (Units=1/GPa)
#
#
# Indices 1 2 3 4 5 6 
#
# 1 0.011170 -0.000984 -0.002405 0.000218 -0.002903 -0.002810
# 2 -0.000984 0.015548 -0.011245 0.003904 0.008810 0.004567
# 3 -0.002405 -0.011245 0.025077 -0.010175 -0.022408 -0.003404
# 4 0.000218 0.003904 -0.010175 0.027024 0.015537 0.003337
# 5 -0.002903 0.008810 -0.022408 0.015537 0.049274 0.010527
# 6 -0.002810 0.004567 -0.003404 0.003337 0.010527 0.024368
#
#
# Mechanical properties :
#
#
# Convention : Reuss Voigt Hill
#
# Bulk Modulus (GPa) = 44.38946 60.76583 52.57764
# Shear Modulus (GPa) = 26.42177 41.07228 33.74703
#
# Velocity S-wave (km/s) = 3.21211 4.00483 3.63017
# Velocity P-wave (km/s) = 5.57592 6.71668 6.17271
#
# Compressibility (1/GPa) = 0.02252787
#
# Stress axis : x y z
#
# Youngs Moduli (GPa) = 89.52249 64.31664 39.87759
#
# Poissons Ratio (x) = 0.06329 0.09591
# Poissons Ratio (y) = 0.08809 0.44841
# Poissons Ratio (z) = 0.21531 0.72322
#
# Static dielectric constant tensor:
#      x y z
#    x 2.078210 -0.010430 -0.044820 
#    y -0.010430 2.001990 0.085000 
#    z -0.044820 0.085000 2.199020 
# 
# From -- ./inp_files/12213.got.cif
#   From: 2010.05.17/outbox.cif.g08.bks.cpg/sg2_7_cif.got.tgz:12213.got - 2010.06.03 11:33:40.
