data_PCOD9032196
_publ_section_title
;
Structure prediction by ZEFSAII (Michael W. Deem and Ramdas Pophale) SiO2 
 PCOD9032196
Probable space group: P -1
;
_chemical_formula_sum "Si O2"
_cell_formula_units_Z 14
_cell_length_a 6.028266
_cell_length_b 16.427385
_cell_length_c 6.170366
_cell_angle_alpha 84.766267
_cell_angle_beta 97.407951
_cell_angle_gamma 101.561837
_cell_volume 592.301930
_symmetry_space_group_name_H-M "P -1"
_symmetry_group_IT_number 2
_symmetry_cell_setting 'triclinic'
loop_
_space_group_symop_operation_xyz
x,y,z
-x,-y,-z
loop_
_atom_site_type_symbol
_atom_site_label
_atom_site_fract_x
_atom_site_fract_y
_atom_site_fract_z
Si Si1 0.740551 0.021486 0.402217
Si Si2 0.182843 0.079778 0.930760
Si Si3 0.721948 0.330452 0.500350
Si Si4 0.812610 0.476712 0.168686
Si Si5 0.669026 0.768032 0.805805
Si Si6 0.026070 0.807684 0.462730
Si Si7 0.584042 0.624464 0.155913
O O1 0.668007 0.965582 0.194880
O O2 0.500000 0.000000 0.500000
O O3 0.804389 0.121194 0.398185
O O4 0.000000 0.000000 0.500000
O O5 0.070620 0.141178 0.750353
O O6 0.300494 0.138003 0.123501
O O7 0.000000 0.000000 0.000000
O O8 0.853343 0.412937 0.376484
O O9 0.572588 0.272742 0.314834
O O10 0.875492 0.266803 0.615345
O O11 0.556592 0.354613 0.658661
O O12 0.751073 0.560663 0.238676
O O13 0.595591 0.425889 0.024908
O O14 0.000000 0.500000 0.000000
O O15 0.841840 0.768883 0.628303
O O16 0.700932 0.706837 0.021918
#
# Coordination Sequence:
#
# PCOD9032196 Si02
#       7
#     2   2   2   2   2   2   2
#     4  10  24  45  70 100 141 190 247 308 373 436
#     4  11  24  47  71 100 138 194 242 302 362 432
#     4  11  25  42  69 106 139 184 228 297 354 429
#     4  10  22  43  70 100 140 179 229 279 356 437
#     4  11  24  44  68  98 142 181 241 286 362 424
#     4  11  25  42  68  97 142 179 239 298 362 427
#     4  10  23  42  68 102 138 179 230 286 353 432
#
# _framework density 23.636593999999999
#
# number of rings (size 3 to 8) (size 9 to 14) (size 15 to 20)
#    0.000    1.429    1.429    2.143    6.000    5.143 
#    2.571    3.571    0.000    0.000    0.000    0.000 
#    0.000    0.000    0.000    0.000    0.000    0.000 
#
# Total GULP energy -78153.728199 kJ/mol
# GULP energy per Si atom -5582.409157 kJ/mol
# Density = 2.358280 g / cm^3
# Si number density = 23.636594 Si / 1000 Ang^3
#
#
#
# Elastic Constant Matrix: (Units=GPa)
#
#
# Indices 1 2 3 4 5 6 
#
# 1 94.7668 54.8227 50.7855 -13.8519 -22.8096 -10.0164
# 2 54.8227 167.6258 64.9145 -8.5720 -11.5309 -8.9416
# 3 50.7855 64.9145 107.6228 -12.3115 -16.6203 -21.7023
# 4 -13.8519 -8.5720 -12.3115 56.5211 9.4862 -8.5092
# 5 -22.8096 -11.5309 -16.6203 9.4862 52.4687 11.4537
# 6 -10.0164 -8.9416 -21.7023 -8.5092 11.4537 46.5608
#
#
#
# Elastic Compliance Matrix: (Units=1/GPa)
#
#
# Indices 1 2 3 4 5 6 
#
# 1 0.016304 -0.002994 -0.005042 0.001636 0.004591 -0.000248
# 2 -0.002994 0.008365 -0.003909 -0.000362 -0.000458 -0.000813
# 3 -0.005042 -0.003909 0.015493 0.002390 0.000162 0.005783
# 4 0.001636 -0.000362 0.002390 0.020044 -0.003529 0.005927
# 5 0.004591 -0.000458 0.000162 -0.003529 0.022796 -0.005277
# 6 -0.000248 -0.000813 0.005783 0.005927 -0.005277 0.026345
#
#
# Mechanical properties :
#
#
# Convention : Reuss Voigt Hill
#
# Bulk Modulus (GPa) = 61.45009 79.00674 70.22842
# Shear Modulus (GPa) = 36.05955 44.40964 40.23460
#
# Velocity S-wave (km/s) = 3.91011 4.33927 4.13027
# Velocity P-wave (km/s) = 6.81466 7.65532 7.24719
#
# Compressibility (1/GPa) = 0.01627337
#
# Stress axis : x y z
#
# Youngs Moduli (GPa) = 61.33548 119.54373 64.54416
#
# Poissons Ratio (x) = 0.35786 0.32542
# Poissons Ratio (y) = 0.18361 0.25231
# Poissons Ratio (z) = 0.30924 0.46731
#
# Static dielectric constant tensor:
#      x y z
#    x 1.945300 0.012100 0.078190 
#    y 0.012100 1.896480 0.000480 
#    z 0.078190 0.000480 1.917870 
# 
# From -- ./inp_files/7636.got.cif
#   From: 2010.05.17/outbox.cif.g08.bks.cpg/sg2_4_cif.got.tgz:7636.got - 2010.06.03 11:33:40.
