data_PCOD9032726
_publ_section_title
;
Structure prediction by ZEFSAII (Michael W. Deem and Ramdas Pophale) SiO2 
 PCOD9032726
Probable space group: P -1
;
_chemical_formula_sum "Si O2"
_cell_formula_units_Z 14
_cell_length_a 8.086468
_cell_length_b 16.891208
_cell_length_c 7.999166
_cell_angle_alpha 77.779497
_cell_angle_beta 114.266657
_cell_angle_gamma 144.507115
_cell_volume 562.501890
_symmetry_space_group_name_H-M "P -1"
_symmetry_group_IT_number 2
_symmetry_cell_setting 'triclinic'
loop_
_space_group_symop_operation_xyz
x,y,z
-x,-y,-z
loop_
_atom_site_type_symbol
_atom_site_label
_atom_site_fract_x
_atom_site_fract_y
_atom_site_fract_z
Si Si1 0.771768 0.127194 0.310453
Si Si2 0.330574 0.624759 0.176032
Si Si3 0.312567 0.178999 0.236946
Si Si4 0.686412 0.604374 0.186258
Si Si5 0.497131 0.389314 0.415709
Si Si6 0.602588 0.149881 0.583583
Si Si7 0.583340 0.876647 0.039949
O O1 0.660457 0.128581 0.435724
O O2 0.640991 0.130867 0.099085
O O3 0.143511 0.260982 0.395136
O O4 0.625755 0.985302 0.334619
O O5 0.573465 0.652952 0.168570
O O6 0.295039 0.575440 0.369489
O O7 0.458751 0.763599 0.167260
O O8 0.000000 0.500000 0.000000
O O9 0.462769 0.321043 0.267265
O O10 0.443251 0.174331 0.448009
O O11 0.408372 0.173820 0.105152
O O12 0.935066 0.037084 0.143384
O O13 0.612065 0.518556 0.350250
O O14 0.053929 0.728807 0.248665
O O15 0.500000 0.500000 0.000000
#
# Coordination Sequence:
#
# PCOD9032726 Si02
#       7
#     2   2   2   2   2   2   2
#     4  10  22  43  73  98 136 177 229 282 339 397
#     4  12  27  44  69 101 140 178 229 285 342 401
#     4  10  24  42  71  99 137 175 231 279 343 398
#     4  12  28  46  71  99 141 184 228 275 349 416
#     4  12  26  46  71 102 138 182 229 288 337 406
#     4  10  23  43  69  99 135 183 222 276 343 410
#     4  10  23  44  70 100 136 178 225 283 339 412
#
# _framework density 24.888808000000001
#
# number of rings (size 3 to 8) (size 9 to 14) (size 15 to 20)
#    0.000    1.143    1.429    3.000   14.000    3.429 
#    0.000    0.000    0.000    0.000    0.000    0.000 
#    0.000    0.000    0.000    0.000    0.000    0.000 
#
# Total GULP energy -78489.721377 kJ/mol
# GULP energy per Si atom -5606.408670 kJ/mol
# Density = 2.483216 g / cm^3
# Si number density = 24.888808 Si / 1000 Ang^3
#
#
#
# Elastic Constant Matrix: (Units=GPa)
#
#
# Indices 1 2 3 4 5 6 
#
# 1 60.0177 14.7084 30.4855 2.7587 7.4146 -4.2615
# 2 14.7084 103.6360 20.4444 -12.6477 22.7884 -9.2090
# 3 30.4855 20.4444 132.2642 -3.3756 11.2113 -3.8940
# 4 2.7587 -12.6477 -3.3756 46.6393 3.0753 0.5669
# 5 7.4146 22.7884 11.2113 3.0753 47.0539 -4.2370
# 6 -4.2615 -9.2090 -3.8940 0.5669 -4.2370 38.1734
#
#
#
# Elastic Compliance Matrix: (Units=1/GPa)
#
#
# Indices 1 2 3 4 5 6 
#
# 1 0.019516 -0.001869 -0.004142 -0.001913 -0.000948 0.001229
# 2 -0.001869 0.011851 -0.000802 0.003593 -0.005315 0.001925
# 3 -0.004142 -0.000802 0.008753 0.000731 -0.001083 0.000106
# 4 -0.001913 0.003593 0.000731 0.022785 -0.003098 0.000046
# 5 -0.000948 -0.005315 -0.001083 -0.003098 0.024551 0.001272
# 6 0.001229 0.001925 0.000106 0.000046 0.001272 0.026949
#
#
# Mechanical properties :
#
#
# Convention : Reuss Voigt Hill
#
# Bulk Modulus (GPa) = 37.74371 47.46608 42.60490
# Shear Modulus (GPa) = 36.53333 41.72530 39.12931
#
# Velocity S-wave (km/s) = 3.83542 4.09891 3.96936
# Velocity P-wave (km/s) = 5.90016 6.44314 6.17762
#
# Compressibility (1/GPa) = 0.02649448
#
# Stress axis : x y z
#
# Youngs Moduli (GPa) = 51.24085 84.38103 114.24948
#
# Poissons Ratio (x) = 0.15768 0.47318
# Poissons Ratio (y) = 0.09575 0.09165
# Poissons Ratio (z) = 0.21222 0.06769
#
# Static dielectric constant tensor:
#      x y z
#    x 1.953960 -0.031450 -0.093830 
#    y -0.031450 1.882230 -0.025080 
#    z -0.093830 -0.025080 1.956500 
# 
# From -- ./inp_files/174755.got.cif
#   From: 2010.05.17/outbox.cif.g08.bks.cpg/sg2_88_cif.got.tgz:174755.got - 2010.06.03 11:33:40.
