data_PCOD9032216
_publ_section_title
;
Structure prediction by ZEFSAII (Michael W. Deem and Ramdas Pophale) SiO2 
 PCOD9032216
Probable space group: P -1
;
_chemical_formula_sum "Si O2"
_cell_formula_units_Z 16
_cell_length_a 27.575554
_cell_length_b 5.300059
_cell_length_c 9.704232
_cell_angle_alpha 88.354620
_cell_angle_beta 37.530556
_cell_angle_gamma 69.362811
_cell_volume 726.121574
_symmetry_space_group_name_H-M "P -1"
_symmetry_group_IT_number 2
_symmetry_cell_setting 'triclinic'
loop_
_space_group_symop_operation_xyz
x,y,z
-x,-y,-z
loop_
_atom_site_type_symbol
_atom_site_label
_atom_site_fract_x
_atom_site_fract_y
_atom_site_fract_z
Si Si1 0.892628 0.025172 0.806510
Si Si2 0.062209 0.642206 0.834592
Si Si3 0.197195 0.518987 0.772615
Si Si4 0.434666 0.899524 0.991662
Si Si5 0.251288 0.105924 0.910219
Si Si6 0.375915 0.496130 0.279212
Si Si7 0.081818 0.615115 0.470686
Si Si8 0.439260 0.852175 0.663298
O O1 0.919706 0.104595 0.599735
O O2 0.884837 0.226718 0.949909
O O3 0.976010 0.694896 0.672792
O O4 0.785404 0.113028 0.029263
O O5 0.149309 0.485491 0.746797
O O6 0.096126 0.590043 0.600847
O O7 0.000000 0.500000 0.000000
O O8 0.000000 0.000000 0.000000
O O9 0.249071 0.239747 0.763987
O O10 0.271044 0.604490 0.558368
O O11 0.386305 0.757807 0.190210
O O12 0.406861 0.224162 0.104689
O O13 0.547139 0.666522 0.769114
O O14 0.410318 0.906704 0.887546
O O15 0.348665 0.990483 0.767010
O O16 0.166415 0.344495 0.198728
O O17 0.500000 0.500000 0.500000
O O18 0.500000 0.000000 0.500000
#
# Coordination Sequence:
#
# PCOD9032216 Si02
#       8
#     2   2   2   2   2   2   2   2
#     4  10  22  43  70 101 140 185 237 281 353 409
#     4  12  27  45  69 102 143 184 230 287 351 404
#     4  11  25  42  70 103 138 186 236 284 345 421
#     4  10  23  44  65 102 131 180 223 285 348 404
#     4  11  26  42  74  99 140 187 239 282 354 418
#     4  10  23  41  71  94 139 172 227 281 346 411
#     4  10  23  43  68 101 141 182 234 290 345 415
#     4  12  28  47  73 101 143 182 236 293 347 415
#
# _framework density 22.034877999999999
#
# number of rings (size 3 to 8) (size 9 to 14) (size 15 to 20)
#    0.000    1.250    1.250    2.625   10.500    2.000 
#    0.000    0.000    0.000    0.000    0.000    0.000 
#    0.000    0.000    0.000    0.000    0.000    0.000 
#
# Total GULP energy -89437.651614 kJ/mol
# GULP energy per Si atom -5589.853226 kJ/mol
# Density = 2.198473 g / cm^3
# Si number density = 22.034878 Si / 1000 Ang^3
#
#
#
# Elastic Constant Matrix: (Units=GPa)
#
#
# Indices 1 2 3 4 5 6 
#
# 1 180.5842 47.3241 52.9295 -15.1714 -7.9254 -34.6596
# 2 47.3241 65.9253 15.3793 -6.3494 -4.9366 -4.3881
# 3 52.9295 15.3793 77.3955 -13.0402 -13.6335 -13.5347
# 4 -15.1714 -6.3494 -13.0402 30.2222 1.2978 0.6488
# 5 -7.9254 -4.9366 -13.6335 1.2978 49.2963 -6.7547
# 6 -34.6596 -4.3881 -13.5347 0.6488 -6.7547 43.6129
#
#
#
# Elastic Compliance Matrix: (Units=1/GPa)
#
#
# Indices 1 2 3 4 5 6 
#
# 1 0.009325 -0.005177 -0.003940 0.001743 0.000632 0.005739
# 2 -0.005177 0.018977 -0.000286 0.001284 0.000652 -0.002212
# 3 -0.003940 -0.000286 0.017921 0.005434 0.004566 0.003028
# 4 0.001743 0.001284 0.005434 0.036458 0.001345 0.002867
# 5 0.000632 0.000652 0.004566 0.001345 0.022425 0.005438
# 6 0.005739 -0.002212 0.003028 0.002867 0.005438 0.029006
#
#
# Mechanical properties :
#
#
# Convention : Reuss Voigt Hill
#
# Bulk Modulus (GPa) = 36.47345 61.68563 49.07954
# Shear Modulus (GPa) = 30.85320 38.51110 34.68215
#
# Velocity S-wave (km/s) = 3.74598 4.18513 3.97163
# Velocity P-wave (km/s) = 5.94124 7.17001 6.58435
#
# Compressibility (1/GPa) = 0.02741720
#
# Stress axis : x y z
#
# Youngs Moduli (GPa) = 107.24171 52.69469 55.79981
#
# Poissons Ratio (x) = 0.27283 0.21983
# Poissons Ratio (y) = 0.55524 0.01595
# Poissons Ratio (z) = 0.42250 0.01506
#
# Static dielectric constant tensor:
#      x y z
#    x 1.831840 0.056110 -0.031020 
#    y 0.056110 1.850450 0.014170 
#    z -0.031020 0.014170 1.835850 
# 
# From -- ./inp_files/84946.got.cif
#   From: 2010.05.17/outbox.cif.g08.bks.cpg/sg2_43_cif.got.tgz:84946.got - 2010.06.03 11:33:40.
