data_PCOD9032341
_publ_section_title
;
Structure prediction by ZEFSAII (Michael W. Deem and Ramdas Pophale) SiO2 
 PCOD9032341
Probable space group: P -1
;
_chemical_formula_sum "Si O2"
_cell_formula_units_Z 12
_cell_length_a 9.453300
_cell_length_b 10.600551
_cell_length_c 7.504287
_cell_angle_alpha 95.810488
_cell_angle_beta 51.703689
_cell_angle_gamma 61.667937
_cell_volume 426.003055
_symmetry_space_group_name_H-M "P -1"
_symmetry_group_IT_number 2
_symmetry_cell_setting 'triclinic'
loop_
_space_group_symop_operation_xyz
x,y,z
-x,-y,-z
loop_
_atom_site_type_symbol
_atom_site_label
_atom_site_fract_x
_atom_site_fract_y
_atom_site_fract_z
Si Si1 0.211954 0.530871 0.194697
Si Si2 0.367917 0.875088 0.089725
Si Si3 0.856237 0.026641 0.352174
Si Si4 0.615846 0.411966 0.608384
Si Si5 0.321961 0.057718 0.814880
Si Si6 0.064942 0.538231 0.773094
O O1 0.202671 0.637921 0.372330
O O2 0.027235 0.437900 0.655149
O O3 0.421987 0.330256 0.067104
O O4 0.340413 0.534576 0.923707
O O5 0.289765 0.962807 0.360516
O O6 0.124630 0.925418 0.206522
O O7 0.431158 0.938086 0.887337
O O8 0.707615 0.228795 0.458911
O O9 0.862264 0.944664 0.154785
O O10 0.685526 0.497922 0.440918
O O11 0.500000 0.000000 0.500000
O O12 0.159177 0.253386 0.038830
O O13 0.000000 0.500000 0.000000
#
# Coordination Sequence:
#
# PCOD9032341 Si02
#       6
#     2   2   2   2   2   2
#     4  10  24  46  70 102 133 179 235 277 345 410
#     4  10  22  43  70  98 133 178 225 285 340 397
#     4  10  22  45  71 101 132 179 234 275 347 406
#     4  10  22  47  70  97 137 179 227 279 342 405
#     4  12  26  44  68 106 140 177 229 285 342 411
#     4  12  28  45  66 103 141 183 224 281 347 410
#
# _framework density 28.168811000000002
#
# number of rings (size 3 to 8) (size 9 to 14) (size 15 to 20)
#    0.000    1.333    1.667    3.000    2.333    8.667 
#    0.000    0.000    0.000    0.000    0.000    0.000 
#    0.000    0.000    0.000    0.000    0.000    0.000 
#
# Total GULP energy -67247.736177 kJ/mol
# GULP energy per Si atom -5603.978015 kJ/mol
# Density = 2.810470 g / cm^3
# Si number density = 28.168811 Si / 1000 Ang^3
#
#
#
# Elastic Constant Matrix: (Units=GPa)
#
#
# Indices 1 2 3 4 5 6 
#
# 1 75.4899 34.3037 21.5209 -15.7264 21.1389 5.0881
# 2 34.3037 117.4812 46.1798 -33.6750 -8.0362 -8.7129
# 3 21.5209 46.1798 187.7531 -56.0882 4.6055 -6.4045
# 4 -15.7264 -33.6750 -56.0882 59.4341 -0.6679 3.0883
# 5 21.1389 -8.0362 4.6055 -0.6679 60.3346 -6.7929
# 6 5.0881 -8.7129 -6.4045 3.0883 -6.7929 50.1904
#
#
#
# Elastic Compliance Matrix: (Units=1/GPa)
#
#
# Indices 1 2 3 4 5 6 
#
# 1 0.018694 -0.005746 -0.000189 0.001636 -0.007740 -0.004065
# 2 -0.005746 0.012359 -0.001082 0.004358 0.004114 0.002879
# 3 -0.000189 -0.001082 0.007567 0.006454 -0.000547 0.000326
# 4 0.001636 0.004358 0.006454 0.025826 -0.000223 -0.000205
# 5 -0.007740 0.004114 -0.000547 -0.000223 0.020346 0.004196
# 6 -0.004065 0.002879 0.000326 -0.000205 0.004196 0.021458
#
#
# Mechanical properties :
#
#
# Convention : Reuss Voigt Hill
#
# Bulk Modulus (GPa) = 40.67568 64.97031 52.82300
# Shear Modulus (GPa) = 38.91634 52.57316 45.74475
#
# Velocity S-wave (km/s) = 3.72094 4.32483 4.03420
# Velocity P-wave (km/s) = 5.73863 6.93207 6.36339
#
# Compressibility (1/GPa) = 0.02458471
#
# Stress axis : x y z
#
# Youngs Moduli (GPa) = 53.49258 80.91152 132.15781
#
# Poissons Ratio (x) = 0.46492 0.02504
# Poissons Ratio (y) = 0.30737 0.14302
# Poissons Ratio (z) = 0.01014 0.08756
#
# Static dielectric constant tensor:
#      x y z
#    x 2.297830 0.063470 0.024420 
#    y 0.063470 2.168650 -0.154660 
#    z 0.024420 -0.154660 2.279090 
# 
# From -- ./inp_files/231378.got.cif
#   From: 2010.05.17/outbox.cif.g08.bks.cpg/sg2_116_cif.got.tgz:231378.got - 2010.06.03 11:33:40.
