data_PCOD9032888
_publ_section_title
;
Structure prediction by ZEFSAII (Michael W. Deem and Ramdas Pophale) SiO2 
 PCOD9032888
Probable space group: P -1
;
_chemical_formula_sum "Si O2"
_cell_formula_units_Z 16
_cell_length_a 5.208104
_cell_length_b 11.773159
_cell_length_c 10.553560
_cell_angle_alpha 75.596748
_cell_angle_beta 91.996173
_cell_angle_gamma 77.602819
_cell_volume 609.478455
_symmetry_space_group_name_H-M "P -1"
_symmetry_group_IT_number 2
_symmetry_cell_setting 'triclinic'
loop_
_space_group_symop_operation_xyz
x,y,z
-x,-y,-z
loop_
_atom_site_type_symbol
_atom_site_label
_atom_site_fract_x
_atom_site_fract_y
_atom_site_fract_z
Si Si1 0.228001 0.557530 0.541526
Si Si2 0.337161 0.389714 0.814138
Si Si3 0.139302 0.120100 0.069223
Si Si4 0.321423 0.954972 0.617328
Si Si5 0.806809 0.469288 0.896995
Si Si6 0.621312 0.137472 0.885300
Si Si7 0.030169 0.185192 0.511163
Si Si8 0.279435 0.260679 0.248524
O O1 0.500000 0.500000 0.500000
O O2 0.270235 0.513249 0.698861
O O3 0.158350 0.697623 0.471633
O O4 0.000000 0.500000 0.500000
O O5 0.039723 0.380595 0.845506
O O6 0.503552 0.268357 0.783874
O O7 0.550068 0.412260 0.917747
O O8 0.093331 0.222373 0.149114
O O9 0.259798 0.982912 0.161514
O O10 0.369575 0.130532 0.970900
O O11 0.866986 0.133364 0.985619
O O12 0.127980 0.888280 0.558814
O O13 0.469505 0.849738 0.739427
O O14 0.500000 0.000000 0.500000
O O15 0.181403 0.083897 0.637956
O O16 0.701748 0.603220 0.800686
O O17 0.000000 0.500000 0.000000
O O18 0.204978 0.239750 0.398043
#
# Coordination Sequence:
#
# PCOD9032888 Si02
#       8
#     2   2   2   2   2   2   2   2
#     4  12  28  46  70  97 134 186 230 280 345 407
#     4  12  24  45  66  95 139 175 223 278 334 402
#     4  10  23  40  66  93 127 173 212 271 327 395
#     4   9  21  39  68  92 129 168 211 282 339 386
#     4  12  25  40  70 104 136 177 221 276 341 409
#     4  10  22  44  62  91 134 169 218 266 326 399
#     4  10  22  44  64  95 133 166 224 287 335 402
#     4  11  22  38  67  95 130 167 221 270 340 393
#
# _framework density 26.251953
#
# number of rings (size 3 to 8) (size 9 to 14) (size 15 to 20)
#    0.000    1.250    1.250    4.125    5.250    1.000 
#    4.500    0.000    0.000    0.000    0.000    0.000 
#    0.000    0.000    0.000    0.000    0.000    0.000 
#
# Total GULP energy -89333.564075 kJ/mol
# GULP energy per Si atom -5583.347755 kJ/mol
# Density = 2.619220 g / cm^3
# Si number density = 26.251953 Si / 1000 Ang^3
#
#
#
# Elastic Constant Matrix: (Units=GPa)
#
#
# Indices 1 2 3 4 5 6 
#
# 1 124.8768 28.0721 20.8921 -14.1213 9.6267 -8.3972
# 2 28.0721 188.1859 8.3340 -48.1461 13.0530 -26.6144
# 3 20.8921 8.3340 37.1189 -18.6733 2.2957 -10.7821
# 4 -14.1213 -48.1461 -18.6733 47.6719 -5.5128 11.6582
# 5 9.6267 13.0530 2.2957 -5.5128 39.3987 0.1305
# 6 -8.3972 -26.6144 -10.7821 11.6582 0.1305 39.3329
#
#
#
# Elastic Compliance Matrix: (Units=1/GPa)
#
#
# Indices 1 2 3 4 5 6 
#
# 1 0.009189 -0.001218 -0.005172 -0.000708 -0.001639 -0.000065
# 2 -0.001218 0.008109 0.004318 0.008388 -0.001480 0.003929
# 3 -0.005172 0.004318 0.039364 0.016324 -0.000202 0.007770
# 4 -0.000708 0.008388 0.016324 0.035966 0.001478 -0.000666
# 5 -0.001639 -0.001480 -0.000202 0.001478 0.026497 -0.001932
# 6 -0.000065 0.003929 0.007770 -0.000666 -0.001932 0.030402
#
#
# Mechanical properties :
#
#
# Convention : Reuss Voigt Hill
#
# Bulk Modulus (GPa) = 19.04212 51.64200 35.34206
# Shear Modulus (GPa) = 29.20938 44.80626 37.00782
#
# Velocity S-wave (km/s) = 3.33927 4.13580 3.75869
# Velocity P-wave (km/s) = 4.70499 6.52080 5.68585
#
# Compressibility (1/GPa) = 0.05251516
#
# Stress axis : x y z
#
# Youngs Moduli (GPa) = 108.82584 123.32502 25.40419
#
# Poissons Ratio (x) = 0.15026 0.13139
# Poissons Ratio (y) = 0.13259 -0.10968
# Poissons Ratio (z) = 0.56287 -0.53246
#
# Static dielectric constant tensor:
#      x y z
#    x 2.155830 -0.053890 -0.047470 
#    y -0.053890 2.182910 0.010330 
#    z -0.047470 0.010330 2.395200 
# 
# From -- ./inp_files/364069.got.cif
#   From: 2010.05.17/outbox.cif.g08.bks.cpg/sg2_183_cif.got.tgz:364069.got - 2010.06.03 11:33:40.
