data_PCOD9032809
_publ_section_title
;
Structure prediction by ZEFSAII (Michael W. Deem and Ramdas Pophale) SiO2 
 PCOD9032809
Probable space group: P -1
;
_chemical_formula_sum "Si O2"
_cell_formula_units_Z 16
_cell_length_a 14.695159
_cell_length_b 5.205839
_cell_length_c 9.827371
_cell_angle_alpha 107.625275
_cell_angle_beta 69.503113
_cell_angle_gamma 114.131304
_cell_volume 631.359274
_symmetry_space_group_name_H-M "P -1"
_symmetry_group_IT_number 2
_symmetry_cell_setting 'triclinic'
loop_
_space_group_symop_operation_xyz
x,y,z
-x,-y,-z
loop_
_atom_site_type_symbol
_atom_site_label
_atom_site_fract_x
_atom_site_fract_y
_atom_site_fract_z
Si Si1 0.281942 0.271319 0.863046
Si Si2 0.520741 0.287070 0.230868
Si Si3 0.911390 0.744884 0.933891
Si Si4 0.993645 0.605984 0.367238
Si Si5 0.319053 0.284113 0.465351
Si Si6 0.375918 0.112802 0.026512
Si Si7 0.814791 0.942688 0.753616
Si Si8 0.235620 0.753909 0.627365
O O1 0.382391 0.429252 0.747709
O O2 0.333423 0.316871 0.992027
O O3 0.239006 0.940033 0.790183
O O4 0.182722 0.369462 0.928481
O O5 0.430592 0.252642 0.379945
O O6 0.572278 0.047094 0.131069
O O7 0.458997 0.277654 0.120002
O O8 0.959573 0.532483 0.802734
O O9 0.861703 0.855785 0.850159
O O10 0.000000 0.000000 0.000000
O O11 0.873400 0.499518 0.376621
O O12 0.000000 0.500000 0.500000
O O13 0.080833 0.916035 0.364775
O O14 0.318933 0.593900 0.563904
O O15 0.261811 0.273705 0.346864
O O16 0.254755 0.000290 0.540054
O O17 0.270220 0.914099 0.126526
#
# Coordination Sequence:
#
# PCOD9032809 Si02
#       8
#     2   2   2   2   2   2   2   2
#     4  11  24  43  69 102 142 187 234 303 361 436
#     4  10  22  43  75  94 141 180 243 295 366 425
#     4  11  24  44  67 107 143 186 238 297 366 428
#     4  12  24  43  72 100 142 195 240 296 356 431
#     4  11  27  48  70 108 139 195 241 304 351 438
#     4   9  21  43  67 108 129 185 237 303 361 435
#     4  10  23  43  73 101 142 183 246 300 358 430
#     4  12  28  45  70 103 149 187 249 289 366 428
#
# _framework density 25.342146
#
# number of rings (size 3 to 8) (size 9 to 14) (size 15 to 20)
#    0.000    1.250    2.500    1.875    5.250    2.500 
#    4.500    0.000    0.000    0.000    0.000    0.000 
#    0.000    0.000    0.000    0.000    0.000    0.000 
#
# Total GULP energy -89254.173569 kJ/mol
# GULP energy per Si atom -5578.385848 kJ/mol
# Density = 2.528447 g / cm^3
# Si number density = 25.342146 Si / 1000 Ang^3
#
#
#
# Elastic Constant Matrix: (Units=GPa)
#
#
# Indices 1 2 3 4 5 6 
#
# 1 93.6341 19.3034 20.1864 -14.8545 -12.9590 13.2489
# 2 19.3034 64.2691 15.5279 -6.6027 -14.6608 20.2376
# 3 20.1864 15.5279 94.7407 0.4589 -36.1237 4.4630
# 4 -14.8545 -6.6027 0.4589 41.0998 2.9597 -6.9655
# 5 -12.9590 -14.6608 -36.1237 2.9597 59.0624 -13.1504
# 6 13.2489 20.2376 4.4630 -6.9655 -13.1504 42.8953
#
#
#
# Elastic Compliance Matrix: (Units=1/GPa)
#
#
# Indices 1 2 3 4 5 6 
#
# 1 0.012508 -0.002184 -0.002128 0.003851 0.000285 -0.001899
# 2 -0.002184 0.019527 -0.001806 0.000949 0.001493 -0.007738
# 3 -0.002128 -0.001806 0.014450 -0.001430 0.008526 0.002387
# 4 0.003851 0.000949 -0.001430 0.026376 -0.000530 0.002632
# 5 0.000285 0.001493 0.008526 -0.000530 0.023840 0.005543
# 6 -0.001899 -0.007738 0.002387 0.002632 0.005543 0.029428
#
#
# Mechanical properties :
#
#
# Convention : Reuss Voigt Hill
#
# Bulk Modulus (GPa) = 29.19793 40.29770 34.74782
# Shear Modulus (GPa) = 33.38247 41.78658 37.58453
#
# Velocity S-wave (km/s) = 3.63336 4.06507 3.85526
# Velocity P-wave (km/s) = 5.39891 6.16190 5.79298
#
# Compressibility (1/GPa) = 0.03424900
#
# Stress axis : x y z
#
# Youngs Moduli (GPa) = 79.94933 51.21222 69.20559
#
# Poissons Ratio (x) = 0.11186 0.14724
# Poissons Ratio (y) = 0.17462 0.12498
# Poissons Ratio (z) = 0.17010 0.09248
#
# Static dielectric constant tensor:
#      x y z
#    x 2.257140 0.099320 -0.180340 
#    y 0.099320 2.239590 -0.143160 
#    z -0.180340 -0.143160 2.248850 
# 
# From -- ./inp_files/442258.got.cif
#   From: 2010.05.17/outbox.cif.g08.bks.cpg/sg2_222_cif.got.tgz:442258.got - 2010.06.03 11:33:40.
