data_PCOD9032079
_publ_section_title
;
Structure prediction by ZEFSAII (Michael W. Deem and Ramdas Pophale) SiO2 
 PCOD9032079
Probable space group: P -1
;
_chemical_formula_sum "Si O2"
_cell_formula_units_Z 16
_cell_length_a 8.404663
_cell_length_b 7.911751
_cell_length_c 20.477505
_cell_angle_alpha 129.348224
_cell_angle_beta 54.657677
_cell_angle_gamma 86.727793
_cell_volume 636.145781
_symmetry_space_group_name_H-M "P -1"
_symmetry_group_IT_number 2
_symmetry_cell_setting 'triclinic'
loop_
_space_group_symop_operation_xyz
x,y,z
-x,-y,-z
loop_
_atom_site_type_symbol
_atom_site_label
_atom_site_fract_x
_atom_site_fract_y
_atom_site_fract_z
Si Si1 0.835687 0.374305 0.418221
Si Si2 0.938051 0.766678 0.039046
Si Si3 0.512285 0.356983 0.789809
Si Si4 0.138502 0.153845 0.678172
Si Si5 0.393702 0.884080 0.421190
Si Si6 0.347485 0.663331 0.681040
Si Si7 0.599524 0.995360 0.806461
Si Si8 0.416875 0.277126 0.049464
O O1 0.594715 0.616238 0.582171
O O2 0.741442 0.422809 0.378394
O O3 0.893891 0.074791 0.349832
O O4 0.101574 0.313333 0.343907
O O5 0.658305 0.963105 0.116201
O O6 0.885594 0.005118 0.159584
O O7 0.000000 0.500000 0.000000
O O8 0.209749 0.595150 0.894634
O O9 0.688927 0.145273 0.636120
O O10 0.549375 0.159248 0.791428
O O11 0.559703 0.547581 0.861136
O O12 0.397185 0.076081 0.626141
O O13 0.888253 0.480597 0.839053
O O14 0.176512 0.124418 0.583556
O O15 0.543668 0.574539 0.347025
O O16 0.583667 0.162246 0.915024
O O17 0.500000 0.000000 0.000000
#
# Coordination Sequence:
#
# PCOD9032079 Si02
#       8
#     2   2   2   2   2   2   2   2
#     4  10  22  43  69  95 129 181 223 272 328 392
#     4  10  24  40  65  96 129 174 216 272 328 391
#     4  11  24  44  69  97 131 178 218 274 335 400
#     4  10  23  45  68  97 132 180 223 266 336 400
#     4  10  24  44  69  99 133 175 223 276 330 390
#     4  10  23  42  67  97 133 174 225 275 324 395
#     4  11  24  44  66  99 128 179 221 269 336 392
#     4  12  27  42  66 101 134 173 219 278 335 394
#
# _framework density 25.151467
#
# number of rings (size 3 to 8) (size 9 to 14) (size 15 to 20)
#    0.000    1.500    1.250    1.875   12.250    1.500 
#    0.000    0.000    0.000    0.000    0.000    0.000 
#    0.000    0.000    0.000    0.000    0.000    0.000 
#
# Total GULP energy -89545.875546 kJ/mol
# GULP energy per Si atom -5596.617222 kJ/mol
# Density = 2.509422 g / cm^3
# Si number density = 25.151467 Si / 1000 Ang^3
#
#
#
# Elastic Constant Matrix: (Units=GPa)
#
#
# Indices 1 2 3 4 5 6 
#
# 1 92.5725 -1.5290 0.2420 -18.9830 -4.4263 -8.2195
# 2 -1.5290 84.7480 21.8183 -4.7873 15.2605 -14.4918
# 3 0.2420 21.8183 103.8082 -12.1549 0.4602 -6.4113
# 4 -18.9830 -4.7873 -12.1549 35.1366 -5.1914 11.0574
# 5 -4.4263 15.2605 0.4602 -5.1914 47.1112 -2.0492
# 6 -8.2195 -14.4918 -6.4113 11.0574 -2.0492 21.9805
#
#
#
# Elastic Compliance Matrix: (Units=1/GPa)
#
#
# Indices 1 2 3 4 5 6 
#
# 1 0.012445 0.000400 0.000785 0.006712 0.001856 0.001942
# 2 0.000400 0.014930 -0.002798 -0.002557 -0.004617 0.010033
# 3 0.000785 -0.002798 0.010665 0.004034 0.001305 -0.000349
# 4 0.006712 -0.002557 0.004034 0.039321 0.004999 -0.017314
# 5 0.001856 -0.004617 0.001305 0.004999 0.023334 -0.002308
# 6 0.001942 0.010033 -0.000349 -0.017314 -0.002308 0.061229
#
#
# Mechanical properties :
#
#
# Convention : Reuss Voigt Hill
#
# Bulk Modulus (GPa) = 28.72672 35.79903 32.26287
# Shear Modulus (GPa) = 28.28787 38.21882 33.25334
#
# Velocity S-wave (km/s) = 3.35729 3.90236 3.64005
# Velocity P-wave (km/s) = 5.14537 5.87953 5.52466
#
# Compressibility (1/GPa) = 0.03481080
#
# Stress axis : x y z
#
# Youngs Moduli (GPa) = 80.35670 66.98065 93.76894
#
# Poissons Ratio (x) = -0.02676 -0.07358
# Poissons Ratio (y) = -0.03211 0.26238
# Poissons Ratio (z) = -0.06305 0.18742
#
# Static dielectric constant tensor:
#      x y z
#    x 2.047530 0.007310 -0.036020 
#    y 0.007310 1.950900 0.001890 
#    z -0.036020 0.001890 1.938160 
# 
# From -- ./inp_files/244435.got.cif
#   From: 2010.05.17/outbox.cif.g08.bks.cpg/sg2_123_cif.got.tgz:244435.got - 2010.06.03 11:33:40.
