data_PCOD9032144
_publ_section_title
;
Structure prediction by ZEFSAII (Michael W. Deem and Ramdas Pophale) SiO2 
 PCOD9032144
Probable space group: P -1
;
_chemical_formula_sum "Si O2"
_cell_formula_units_Z 16
_cell_length_a 10.360696
_cell_length_b 14.493252
_cell_length_c 14.229480
_cell_angle_alpha 33.609272
_cell_angle_beta 50.283335
_cell_angle_gamma 68.444819
_cell_volume 838.877067
_symmetry_space_group_name_H-M "P -1"
_symmetry_group_IT_number 2
_symmetry_cell_setting 'triclinic'
loop_
_space_group_symop_operation_xyz
x,y,z
-x,-y,-z
loop_
_atom_site_type_symbol
_atom_site_label
_atom_site_fract_x
_atom_site_fract_y
_atom_site_fract_z
Si Si1 0.408528 0.713191 0.306360
Si Si2 0.370621 0.110317 0.462591
Si Si3 0.545898 0.323987 0.363386
Si Si4 0.298491 0.309846 0.658433
Si Si5 0.020710 0.134378 0.084495
Si Si6 0.909784 0.632587 0.970970
Si Si7 0.238927 0.945665 0.476109
Si Si8 0.282027 0.998998 0.195254
O O1 0.308036 0.513293 0.484244
O O2 0.552457 0.703266 0.325373
O O3 0.283721 0.804262 0.334965
O O4 0.525915 0.850250 0.055524
O O5 0.476514 0.293431 0.314423
O O6 0.310610 0.101047 0.390080
O O7 0.500000 0.000000 0.500000
O O8 0.189313 0.991493 0.704927
O O9 0.373621 0.277115 0.551925
O O10 0.645870 0.184158 0.455848
O O11 0.695566 0.524173 0.145469
O O12 0.106854 0.182885 0.900213
O O13 0.058203 0.314650 0.978184
O O14 0.131481 0.035900 0.173319
O O15 0.030111 0.819349 0.704941
O O16 0.000000 0.500000 0.000000
O O17 0.259405 0.011929 0.304930
#
# Coordination Sequence:
#
# PCOD9032144 Si02
#       8
#     2   2   2   2   2   2   2   2
#     4   9  18  30  50  85 112 136 168 222 269 315
#     4   9  20  36  51  77 108 141 178 222 256 316
#     4  10  17  32  54  79 106 140 180 220 260 305
#     4  10  18  31  55  80 107 136 181 222 261 309
#     4  10  21  34  54  84 108 134 180 223 266 314
#     4   9  18  30  50  77 103 135 178 222 254 301
#     4   9  18  32  53  77 107 142 174 217 267 313
#     4  10  18  31  53  81 115 137 168 218 277 317
#
# _framework density 19.073115999999999
#
# number of rings (size 3 to 8) (size 9 to 14) (size 15 to 20)
#    0.000    2.500    1.250    3.000    1.750    2.500 
#    0.000    0.000    0.000    7.500    0.000    0.000 
#    0.000    0.000    0.000    0.000    0.000    0.000 
#
# Total GULP energy -89175.096550 kJ/mol
# GULP energy per Si atom -5573.443534 kJ/mol
# Density = 1.902970 g / cm^3
# Si number density = 19.073116 Si / 1000 Ang^3
#
#
#
# Elastic Constant Matrix: (Units=GPa)
#
#
# Indices 1 2 3 4 5 6 
#
# 1 40.3978 23.6468 28.3323 4.6483 -7.8376 3.5707
# 2 23.6468 95.3071 28.3438 17.3416 4.5304 1.7415
# 3 28.3323 28.3438 47.9338 17.0574 0.5309 9.8463
# 4 4.6483 17.3416 17.0574 34.8920 -2.2645 1.3512
# 5 -7.8376 4.5304 0.5309 -2.2645 24.5771 1.7599
# 6 3.5707 1.7415 9.8463 1.3512 1.7599 37.1413
#
#
#
# Elastic Compliance Matrix: (Units=1/GPa)
#
#
# Indices 1 2 3 4 5 6 
#
# 1 0.054968 -0.007103 -0.034070 0.014106 0.020689 0.002587
# 2 -0.007103 0.014191 -0.002482 -0.005287 -0.005395 0.001124
# 3 -0.034070 -0.002482 0.051525 -0.019895 -0.012713 -0.008941
# 4 0.014106 -0.005287 -0.019895 0.039655 0.009393 0.002278
# 5 0.020689 -0.005395 -0.012713 0.009393 0.049496 -0.001053
# 6 0.002587 0.001124 -0.008941 0.002278 -0.001053 0.028960
#
#
# Mechanical properties :
#
#
# Convention : Reuss Voigt Hill
#
# Bulk Modulus (GPa) = 29.96462 38.25381 34.10922
# Shear Modulus (GPa) = 14.82658 26.20981 20.51820
#
# Velocity S-wave (km/s) = 2.79113 3.71101 3.28344
# Velocity P-wave (km/s) = 5.11192 6.20178 5.68304
#
# Compressibility (1/GPa) = 0.03337269
#
# Stress axis : x y z
#
# Youngs Moduli (GPa) = 18.19225 70.46740 19.40806
#
# Poissons Ratio (x) = 0.50055 0.66123
# Poissons Ratio (y) = 0.12923 0.04818
# Poissons Ratio (z) = 0.61981 0.17493
#
# Static dielectric constant tensor:
#      x y z
#    x 1.653340 -0.008240 -0.011820 
#    y -0.008240 1.711790 0.002690 
#    z -0.011820 0.002690 1.675470 
# 
# From -- ./inp_files/305138.got.cif
#   From: 2010.05.17/outbox.cif.g08.bks.cpg/sg2_153_cif.got.tgz:305138.got - 2010.06.03 11:33:40.
