data_PCOD9032528
_publ_section_title
;
Structure prediction by ZEFSAII (Michael W. Deem and Ramdas Pophale) SiO2 
 PCOD9032528
Probable space group: P -1
;
_chemical_formula_sum "Si O2"
_cell_formula_units_Z 14
_cell_length_a 10.402130
_cell_length_b 13.228869
_cell_length_c 12.919098
_cell_angle_alpha 33.847927
_cell_angle_beta 33.168425
_cell_angle_gamma 45.614510
_cell_volume 541.689474
_symmetry_space_group_name_H-M "P -1"
_symmetry_group_IT_number 2
_symmetry_cell_setting 'triclinic'
loop_
_space_group_symop_operation_xyz
x,y,z
-x,-y,-z
loop_
_atom_site_type_symbol
_atom_site_label
_atom_site_fract_x
_atom_site_fract_y
_atom_site_fract_z
Si Si1 0.855075 0.498170 0.204516
Si Si2 0.237772 0.600430 0.998089
Si Si3 0.399387 0.982632 0.292708
Si Si4 0.103514 0.904728 0.381427
Si Si5 0.814501 0.162800 0.976914
Si Si6 0.985816 0.339789 0.524618
Si Si7 0.531662 0.576871 0.609828
O O1 0.989523 0.628985 0.079950
O O2 0.885762 0.295794 0.401846
O O3 0.600807 0.532708 0.299552
O O4 0.000000 0.500000 0.000000
O O5 0.208623 0.423756 0.243205
O O6 0.267162 0.763818 0.918872
O O7 0.418174 0.568830 0.808674
O O8 0.318452 0.004618 0.208510
O O9 0.508157 0.784801 0.412795
O O10 0.418087 0.880237 0.896545
O O11 0.144123 0.000159 0.504675
O O12 0.086765 0.849981 0.319910
O O13 0.970598 0.302957 0.687082
O O14 0.000000 0.000000 0.000000
O O15 0.781041 0.484444 0.519822
#
# Coordination Sequence:
#
# PCOD9032528 Si02
#       7
#     2   2   2   2   2   2   2
#     4   8  17  36  67  98 127 166 229 270 331 391
#     4  10  23  44  66  95 138 178 221 278 332 405
#     4  10  23  44  71 102 140 178 225 271 358 401
#     4   9  21  43  70 102 134 174 225 293 331 401
#     4  12  28  44  64 101 143 182 226 278 341 416
#     4  11  25  44  70  99 131 177 241 279 331 401
#     4  10  22  43  72 100 126 183 226 285 334 398
#
# _framework density 25.845065999999999
#
# number of rings (size 3 to 8) (size 9 to 14) (size 15 to 20)
#    0.000    2.000    0.000    1.286    8.000    8.000 
#    2.571    0.000    0.000    0.000    0.000    0.000 
#    0.000    0.000    0.000    0.000    0.000    0.000 
#
# Total GULP energy -78271.485742 kJ/mol
# GULP energy per Si atom -5590.820410 kJ/mol
# Density = 2.578624 g / cm^3
# Si number density = 25.845066 Si / 1000 Ang^3
#
#
#
# Elastic Constant Matrix: (Units=GPa)
#
#
# Indices 1 2 3 4 5 6 
#
# 1 121.3470 32.1991 -4.0664 15.4748 -22.5720 31.3168
# 2 32.1991 118.4568 15.5510 23.4855 -0.4289 -1.0792
# 3 -4.0664 15.5510 83.4459 24.2916 15.0239 6.9636
# 4 15.4748 23.4855 24.2916 39.9531 13.7387 14.1097
# 5 -22.5720 -0.4289 15.0239 13.7387 21.2892 -8.5689
# 6 31.3168 -1.0792 6.9636 14.1097 -8.5689 38.2437
#
#
#
# Elastic Compliance Matrix: (Units=1/GPa)
#
#
# Indices 1 2 3 4 5 6 
#
# 1 0.015085 -0.001973 0.000870 -0.011094 0.020981 -0.003773
# 2 -0.001973 0.011671 -0.001415 -0.012039 0.010535 0.009005
# 3 0.000870 -0.001415 0.015501 -0.004650 -0.008565 -0.003778
# 4 -0.011094 -0.012039 -0.004650 0.076111 -0.071753 -0.034566
# 5 0.020981 0.010535 -0.008565 -0.071753 0.138782 0.042244
# 6 -0.003773 0.009005 -0.003778 -0.034566 0.042244 0.052398
#
#
# Mechanical properties :
#
#
# Convention : Reuss Voigt Hill
#
# Bulk Modulus (GPa) = 26.86766 45.62412 36.24589
# Shear Modulus (GPa) = 15.29094 38.53494 26.91294
#
# Velocity S-wave (km/s) = 2.43500 3.86553 3.23045
# Velocity P-wave (km/s) = 4.28064 6.13306 5.28858
#
# Compressibility (1/GPa) = 0.03721947
#
# Stress axis : x y z
#
# Youngs Moduli (GPa) = 66.29256 85.68202 64.51215
#
# Poissons Ratio (x) = 0.16909 -0.05610
# Poissons Ratio (y) = 0.13083 0.09127
# Poissons Ratio (z) = -0.05765 0.12122
#
# Static dielectric constant tensor:
#      x y z
#    x 2.284840 0.048560 -0.051680 
#    y 0.048560 1.989680 -0.059380 
#    z -0.051680 -0.059380 2.143130 
# 
# From -- ./inp_files/197848.got.cif
#   From: 2010.05.17/outbox.cif.g08.bks.cpg/sg2_99_cif.got.tgz:197848.got - 2010.06.03 11:33:40.
