data_PCOD9032877
_publ_section_title
;
Structure prediction by ZEFSAII (Michael W. Deem and Ramdas Pophale) SiO2 
 PCOD9032877
Probable space group: P -1
;
_chemical_formula_sum "Si O2"
_cell_formula_units_Z 16
_cell_length_a 26.919628
_cell_length_b 26.753519
_cell_length_c 5.412525
_cell_angle_alpha 111.604012
_cell_angle_beta 70.494525
_cell_angle_gamma 169.517695
_cell_volume 650.170387
_symmetry_space_group_name_H-M "P -1"
_symmetry_group_IT_number 2
_symmetry_cell_setting 'triclinic'
loop_
_space_group_symop_operation_xyz
x,y,z
-x,-y,-z
loop_
_atom_site_type_symbol
_atom_site_label
_atom_site_fract_x
_atom_site_fract_y
_atom_site_fract_z
Si Si1 0.108590 0.327478 0.955700
Si Si2 0.448940 0.982402 0.804016
Si Si3 0.680319 0.358574 0.570237
Si Si4 0.202986 0.310752 0.201478
Si Si5 0.254792 0.294882 0.588787
Si Si6 0.637886 0.804723 0.118493
Si Si7 0.907910 0.509303 0.811821
Si Si8 0.884379 0.180792 0.728662
O O1 0.269132 0.543649 0.137479
O O2 0.361490 0.538423 0.915987
O O3 0.865498 0.072863 0.096978
O O4 0.940221 0.175873 0.715369
O O5 0.139463 0.695522 0.768033
O O6 0.500000 0.000000 0.500000
O O7 0.674804 0.256602 0.929624
O O8 0.500000 0.000000 0.000000
O O9 0.721177 0.340597 0.582439
O O10 0.897292 0.584438 0.408606
O O11 0.400049 0.094274 0.429570
O O12 0.221137 0.299581 0.414081
O O13 0.432404 0.589114 0.306365
O O14 0.287880 0.358870 0.911621
O O15 0.879393 0.001664 0.124953
O O16 0.500000 0.500000 0.500000
O O17 0.000000 0.000000 0.500000
O O18 0.084545 0.740727 0.979054
#
# Coordination Sequence:
#
# PCOD9032877 Si02
#       8
#     2   2   2   2   2   2   2   2
#     4  10  22  44  62 101 132 184 230 276 340 406
#     4  12  28  47  72 102 140 182 228 279 352 427
#     4  11  23  41  70  99 132 174 235 282 342 404
#     4  11  24  44  66 106 136 185 230 280 356 411
#     4  12  24  44  72 100 136 178 236 295 346 406
#     4  10  22  44  64  91 148 177 226 280 340 423
#     4  11  26  45  70  98 140 174 226 294 340 405
#     4  11  23  41  70  99 132 174 235 282 342 404
#
# _framework density 24.608931999999999
#
# number of rings (size 3 to 8) (size 9 to 14) (size 15 to 20)
#    0.000    1.000    0.000    6.000    5.250    4.000 
#   22.500    0.000    0.000    0.000    0.000    0.000 
#    0.000    0.000    0.000    0.000    0.000    0.000 
#
# Total GULP energy -89125.930949 kJ/mol
# GULP energy per Si atom -5570.370684 kJ/mol
# Density = 2.455292 g / cm^3
# Si number density = 24.608932 Si / 1000 Ang^3
#
#
#
# Elastic Constant Matrix: (Units=GPa)
#
#
# Indices 1 2 3 4 5 6 
#
# 1 155.9915 72.4513 58.5359 3.9501 55.7830 23.5755
# 2 72.4513 216.5360 17.3927 -0.2883 26.7861 33.3027
# 3 58.5359 17.3927 97.3528 -3.5112 26.2404 10.8261
# 4 3.9501 -0.2883 -3.5112 29.6843 -8.9695 1.8930
# 5 55.7830 26.7861 26.2404 -8.9695 50.7209 0.9958
# 6 23.5755 33.3027 10.8261 1.8930 0.9958 64.7977
#
#
#
# Elastic Compliance Matrix: (Units=1/GPa)
#
#
# Indices 1 2 3 4 5 6 
#
# 1 0.014790 -0.002440 -0.004686 -0.006480 -0.013641 -0.002945
# 2 -0.002440 0.005798 0.000890 0.000411 -0.000722 -0.002242
# 3 -0.004686 0.000890 0.013666 0.001691 -0.002066 -0.001053
# 4 -0.006480 0.000411 0.001691 0.038603 0.012850 0.000538
# 5 -0.013641 -0.000722 -0.002066 0.012850 0.038348 0.004714
# 6 -0.002945 -0.002242 -0.001053 0.000538 0.004714 0.017744
#
#
# Mechanical properties :
#
#
# Convention : Reuss Voigt Hill
#
# Bulk Modulus (GPa) = 45.91338 85.18223 65.54781
# Shear Modulus (GPa) = 33.62918 50.47395 42.05156
#
# Velocity S-wave (km/s) = 3.70069 4.53376 4.13824
# Velocity P-wave (km/s) = 6.07930 7.88011 7.03754
#
# Compressibility (1/GPa) = 0.02178014
#
# Stress axis : x y z
#
# Youngs Moduli (GPa) = 67.61487 172.47994 73.17591
#
# Poissons Ratio (x) = 0.42093 0.34292
# Poissons Ratio (y) = 0.16501 -0.06514
# Poissons Ratio (z) = 0.31686 -0.15354
#
# Static dielectric constant tensor:
#      x y z
#    x 2.085720 -0.027020 -0.051940 
#    y -0.027020 1.949490 0.167020 
#    z -0.051940 0.167020 2.171990 
# 
# From -- ./inp_files/127774.got.cif
#   From: 2010.05.17/outbox.cif.g08.bks.cpg/sg2_64_cif.got.tgz:127774.got - 2010.06.03 11:33:40.
