data_PCOD9032915
_publ_section_title
;
Structure prediction by ZEFSAII (Michael W. Deem and Ramdas Pophale) SiO2 
 PCOD9032915
Probable space group: P -1
;
_chemical_formula_sum "Si O2"
_cell_formula_units_Z 12
_cell_length_a 10.479477
_cell_length_b 8.857208
_cell_length_c 16.033204
_cell_angle_alpha 149.302571
_cell_angle_beta 82.056904
_cell_angle_gamma 110.823866
_cell_volume 664.911976
_symmetry_space_group_name_H-M "P -1"
_symmetry_group_IT_number 2
_symmetry_cell_setting 'triclinic'
loop_
_space_group_symop_operation_xyz
x,y,z
-x,-y,-z
loop_
_atom_site_type_symbol
_atom_site_label
_atom_site_fract_x
_atom_site_fract_y
_atom_site_fract_z
Si Si1 0.926196 0.271111 0.817225
Si Si2 0.657088 0.543611 0.530644
Si Si3 0.848080 0.730877 0.924646
Si Si4 0.659785 0.241688 0.567917
Si Si5 0.827039 0.210123 0.283292
Si Si6 0.893370 0.084433 0.405389
O O1 0.875925 0.472112 0.855137
O O2 0.786963 0.923064 0.691186
O O3 0.041039 0.172119 0.715367
O O4 0.000000 0.500000 0.000000
O O5 0.500000 0.500000 0.500000
O O6 0.703865 0.323512 0.361880
O O7 0.656272 0.408259 0.559298
O O8 0.740293 0.529512 0.764973
O O9 0.792805 0.931939 0.085254
O O10 0.000000 0.000000 0.000000
O O11 0.754826 0.045018 0.451314
O O12 0.023064 0.454328 0.590592
O O13 0.500000 0.000000 0.500000
O O14 0.856046 0.088620 0.312717
#
# Coordination Sequence:
#
# PCOD9032915 Si02
#       6
#     2   2   2   2   2   2
#     4  11  21  37  65  90 114 154 208 238 281 361
#     4  10  22  44  63  82 118 165 201 234 292 367
#     4  12  22  38  61  95 121 148 197 257 298 336
#     4  11  23  40  60  89 127 154 190 251 309 338
#     4   9  18  37  64  85 116 158 198 237 293 354
#     4   9  18  38  61  85 117 162 195 233 292 362
#
# _framework density 18.047501
#
# number of rings (size 3 to 8) (size 9 to 14) (size 15 to 20)
#    0.000    1.667    3.333    3.000    0.000    0.667 
#    6.000    3.333    0.000    0.000    0.000    0.000 
#    0.000    0.000    0.000    0.000    0.000    0.000 
#
# Total GULP energy -67022.329177 kJ/mol
# GULP energy per Si atom -5585.194098 kJ/mol
# Density = 1.800642 g / cm^3
# Si number density = 18.047501 Si / 1000 Ang^3
#
#
#
# Elastic Constant Matrix: (Units=GPa)
#
#
# Indices 1 2 3 4 5 6 
#
# 1 150.4156 58.1661 79.8156 -9.8621 -10.7586 20.8529
# 2 58.1661 94.3071 62.0757 2.0810 -6.8100 15.8118
# 3 79.8156 62.0757 148.4495 -20.7065 -9.8191 13.2594
# 4 -9.8621 2.0810 -20.7065 32.9972 -0.0950 0.3422
# 5 -10.7586 -6.8100 -9.8191 -0.0950 32.5309 0.3466
# 6 20.8529 15.8118 13.2594 0.3422 0.3466 32.1210
#
#
#
# Elastic Compliance Matrix: (Units=1/GPa)
#
#
# Indices 1 2 3 4 5 6 
#
# 1 0.010640 -0.003405 -0.003692 0.001122 0.001735 -0.003738
# 2 -0.003405 0.017381 -0.005839 -0.005736 0.000774 -0.003882
# 3 -0.003692 -0.005839 0.012198 0.006922 0.001257 0.000148
# 4 0.001122 -0.005736 0.006922 0.035362 0.001375 -0.001154
# 5 0.001735 0.000774 0.001257 0.001375 0.031885 -0.002385
# 6 -0.003738 -0.003882 0.000148 -0.001154 -0.002385 0.035447
#
#
# Mechanical properties :
#
#
# Convention : Reuss Voigt Hill
#
# Bulk Modulus (GPa) = 69.70162 88.14299 78.92230
# Shear Modulus (GPa) = 28.80742 32.40414 30.60578
#
# Velocity S-wave (km/s) = 3.99958 4.24192 4.12253
# Velocity P-wave (km/s) = 7.74816 8.54034 8.15387
#
# Compressibility (1/GPa) = 0.01434687
#
# Stress axis : x y z
#
# Youngs Moduli (GPa) = 93.98701 57.53489 81.97925
#
# Poissons Ratio (x) = 0.19592 0.30263
# Poissons Ratio (y) = 0.32005 0.47869
# Poissons Ratio (z) = 0.34696 0.33596
#
# Static dielectric constant tensor:
#      x y z
#    x 1.610260 0.003290 -0.021330 
#    y 0.003290 1.615480 -0.004140 
#    z -0.021330 -0.004140 1.595430 
# 
# From -- ./inp_files/555778.got.cif
#   From: 2010.05.17/outbox.cif.g08.bks.cpg/sg2_278_cif.got.tgz:555778.got - 2010.06.03 11:33:40.
