data_PCOD9032637
_publ_section_title
;
Structure prediction by ZEFSAII (Michael W. Deem and Ramdas Pophale) SiO2 
 PCOD9032637
Probable space group: P -1
;
_chemical_formula_sum "Si O2"
_cell_formula_units_Z 12
_cell_length_a 5.358410
_cell_length_b 24.220771
_cell_length_c 8.777074
_cell_angle_alpha 137.922925
_cell_angle_beta 87.911233
_cell_angle_gamma 116.015143
_cell_volume 601.801162
_symmetry_space_group_name_H-M "P -1"
_symmetry_group_IT_number 2
_symmetry_cell_setting 'triclinic'
loop_
_space_group_symop_operation_xyz
x,y,z
-x,-y,-z
loop_
_atom_site_type_symbol
_atom_site_label
_atom_site_fract_x
_atom_site_fract_y
_atom_site_fract_z
Si Si1 0.718019 0.726688 0.788347
Si Si2 0.199348 0.271521 0.869345
Si Si3 0.875240 0.358758 0.890457
Si Si4 0.122621 0.931686 0.363609
Si Si5 0.949246 0.450657 0.562532
Si Si6 0.239075 0.410736 0.708932
O O1 0.345003 0.671368 0.685238
O O2 0.762697 0.681735 0.544867
O O3 0.752938 0.687169 0.871672
O O4 0.959774 0.850312 0.058311
O O5 0.528449 0.313664 0.866688
O O6 0.002219 0.299776 0.840456
O O7 0.013817 0.148456 0.654457
O O8 0.919034 0.360854 0.712646
O O9 0.099626 0.479230 0.187736
O O10 0.500000 0.000000 0.500000
O O11 0.000000 0.000000 0.500000
O O12 0.000000 0.500000 0.500000
O O13 0.235833 0.463371 0.663131
O O14 0.500000 0.500000 0.000000
#
# Coordination Sequence:
#
# PCOD9032637 Si02
#       6
#     2   2   2   2   2   2
#     4  10  25  38  67  97 130 173 232 260 340 383
#     4  10  24  41  67  98 124 177 226 275 330 389
#     4  12  23  40  62  95 145 174 213 265 332 407
#     4  10  22  43  72  98 123 163 235 297 328 378
#     4  12  23  39  64  93 141 179 230 265 318 402
#     4  12  26  39  61  99 145 188 213 263 337 403
#
# _framework density 19.94014
#
# number of rings (size 3 to 8) (size 9 to 14) (size 15 to 20)
#    1.000    0.000    3.333    3.500    4.667    1.333 
#    0.000    0.000    0.000    6.000    0.000    0.000 
#    0.000    0.000    0.000    0.000    0.000    0.000 
#
# Total GULP energy -66848.964046 kJ/mol
# GULP energy per Si atom -5570.747004 kJ/mol
# Density = 1.989476 g / cm^3
# Si number density = 19.940140 Si / 1000 Ang^3
#
#
#
# Elastic Constant Matrix: (Units=GPa)
#
#
# Indices 1 2 3 4 5 6 
#
# 1 123.9955 26.7813 59.8646 15.5284 1.6404 0.4837
# 2 26.7813 49.4110 37.5404 3.1047 1.2429 9.1679
# 3 59.8646 37.5404 146.9800 14.2725 -2.2254 12.2328
# 4 15.5284 3.1047 14.2725 40.6574 5.2040 -2.3078
# 5 1.6404 1.2429 -2.2254 5.2040 34.9088 -2.5088
# 6 0.4837 9.1679 12.2328 -2.3078 -2.5088 48.0053
#
#
#
# Elastic Compliance Matrix: (Units=1/GPa)
#
#
# Indices 1 2 3 4 5 6 
#
# 1 0.010732 -0.003317 -0.003381 -0.002571 -0.000128 0.001256
# 2 -0.003317 0.026723 -0.005290 0.001070 -0.001562 -0.003752
# 3 -0.003381 -0.005290 0.009869 -0.002004 0.001167 -0.001506
# 4 -0.002571 0.001070 -0.002004 0.026784 -0.003936 0.001414
# 5 -0.000128 -0.001562 0.001167 -0.003936 0.029466 0.001353
# 6 0.001256 -0.003752 -0.001506 0.001414 0.001353 0.022057
#
#
# Mechanical properties :
#
#
# Convention : Reuss Voigt Hill
#
# Bulk Modulus (GPa) = 42.82628 63.19545 53.01087
# Shear Modulus (GPa) = 31.76811 37.79433 34.78122
#
# Velocity S-wave (km/s) = 3.99579 4.35833 4.18099
# Velocity P-wave (km/s) = 6.54312 7.55567 7.06755
#
# Compressibility (1/GPa) = 0.02335015
#
# Stress axis : x y z
#
# Youngs Moduli (GPa) = 93.17704 37.42044 101.32316
#
# Poissons Ratio (x) = 0.12411 0.34257
# Poissons Ratio (y) = 0.30903 0.53598
# Poissons Ratio (z) = 0.31503 0.19795
#
# Static dielectric constant tensor:
#      x y z
#    x 1.804700 0.023610 0.010660 
#    y 0.023610 1.746340 0.001580 
#    z 0.010660 0.001580 1.723910 
# 
# From -- ./inp_files/143015.got.cif
#   From: 2010.05.17/outbox.cif.g08.bks.cpg/sg2_72_cif.got.tgz:143015.got - 2010.06.03 11:33:40.
