data_PCOD9032564
_publ_section_title
;
Structure prediction by ZEFSAII (Michael W. Deem and Ramdas Pophale) SiO2 
 PCOD9032564
Probable space group: P -1
;
_chemical_formula_sum "Si O2"
_cell_formula_units_Z 12
_cell_length_a 17.767609
_cell_length_b 4.914690
_cell_length_c 21.211295
_cell_angle_alpha 47.131667
_cell_angle_beta 18.695562
_cell_angle_gamma 48.997213
_cell_volume 434.603196
_symmetry_space_group_name_H-M "P -1"
_symmetry_group_IT_number 2
_symmetry_cell_setting 'triclinic'
loop_
_space_group_symop_operation_xyz
x,y,z
-x,-y,-z
loop_
_atom_site_type_symbol
_atom_site_label
_atom_site_fract_x
_atom_site_fract_y
_atom_site_fract_z
Si Si1 0.659405 0.854602 0.312141
Si Si2 0.423518 0.301797 0.735032
Si Si3 0.780924 0.241117 0.665745
Si Si4 0.753322 0.930480 0.856928
Si Si5 0.021472 0.256336 0.158516
Si Si6 0.153956 0.462486 0.561973
O O1 0.500000 0.500000 0.500000
O O2 0.633208 0.922037 0.247273
O O3 0.903624 0.659342 0.174219
O O4 0.621725 0.253327 0.312194
O O5 0.675399 0.287414 0.572146
O O6 0.234623 0.187858 0.953284
O O7 0.755117 0.534395 0.582620
O O8 0.815538 0.286384 0.707577
O O9 0.520584 0.073008 0.906740
O O10 0.000000 0.000000 0.500000
O O11 0.886111 0.830142 0.831485
O O12 0.880313 0.610378 0.762042
O O13 0.836836 0.935448 0.349202
#
# Coordination Sequence:
#
# PCOD9032564 Si02
#       6
#     2   2   2   2   2   2
#     4  12  26  47  74 104 153 199 248 304 370 431
#     4  12  27  47  72 109 153 197 249 307 364 438
#     4   9  20  45  72 103 142 188 241 309 375 442
#     4  10  22  43  72 102 147 185 246 304 374 442
#     4  12  26  42  72 106 142 198 245 301 370 440
#     4  11  24  43  72 105 147 192 248 303 368 443
#
# _framework density 27.611395999999999
#
# number of rings (size 3 to 8) (size 9 to 14) (size 15 to 20)
#    0.000    1.000    3.333    2.500    4.667    0.667 
#    0.000    7.500    0.000    0.000    0.000    0.000 
#    0.000    0.000    0.000    0.000    0.000    0.000 
#
# Total GULP energy -67040.254156 kJ/mol
# GULP energy per Si atom -5586.687846 kJ/mol
# Density = 2.754855 g / cm^3
# Si number density = 27.611396 Si / 1000 Ang^3
#
#
#
# Elastic Constant Matrix: (Units=GPa)
#
#
# Indices 1 2 3 4 5 6 
#
# 1 152.1366 34.7842 45.1929 6.0571 10.5853 -12.4260
# 2 34.7842 107.2705 48.6668 2.1885 -0.4463 -6.1437
# 3 45.1929 48.6668 193.2208 4.4088 26.7722 -15.8097
# 4 6.0571 2.1885 4.4088 41.4662 -13.7947 2.3937
# 5 10.5853 -0.4463 26.7722 -13.7947 54.3482 -1.7603
# 6 -12.4260 -6.1437 -15.8097 2.3937 -1.7603 42.2680
#
#
#
# Elastic Compliance Matrix: (Units=1/GPa)
#
#
# Indices 1 2 3 4 5 6 
#
# 1 0.007573 -0.001913 -0.000937 -0.001446 -0.001343 0.001623
# 2 -0.001913 0.011137 -0.002627 0.000601 0.001914 0.000119
# 3 -0.000937 -0.002627 0.006733 -0.001721 -0.003534 0.001811
# 4 -0.001446 0.000601 -0.001721 0.027261 0.007982 -0.002193
# 5 -0.001343 0.001914 -0.003534 0.007982 0.022413 -0.000957
# 6 0.001623 0.000119 0.001811 -0.002193 -0.000957 0.024915
#
#
# Mechanical properties :
#
#
# Convention : Reuss Voigt Hill
#
# Bulk Modulus (GPa) = 69.02242 78.87952 73.95097
# Shear Modulus (GPa) = 43.17192 49.21541 46.19367
#
# Velocity S-wave (km/s) = 3.95847 4.22646 4.09466
# Velocity P-wave (km/s) = 6.77825 7.24204 7.01398
#
# Compressibility (1/GPa) = 0.01448805
#
# Stress axis : x y z
#
# Youngs Moduli (GPa) = 132.05532 89.79123 148.51371
#
# Poissons Ratio (x) = 0.17181 0.13920
# Poissons Ratio (y) = 0.25268 0.39011
# Poissons Ratio (z) = 0.12377 0.23586
#
# Static dielectric constant tensor:
#      x y z
#    x 2.276720 -0.062090 -0.093000 
#    y -0.062090 2.277410 0.014140 
#    z -0.093000 0.014140 2.180710 
# 
# From -- ./inp_files/95817.got.cif
#   From: 2010.05.17/outbox.cif.g08.bks.cpg/sg2_48_cif.got.tgz:95817.got - 2010.06.03 11:33:40.
