data_PCOD9032677
_publ_section_title
;
Structure prediction by ZEFSAII (Michael W. Deem and Ramdas Pophale) SiO2 
 PCOD9032677
Probable space group: P -1
;
_chemical_formula_sum "Si O2"
_cell_formula_units_Z 16
_cell_length_a 5.377699
_cell_length_b 12.637995
_cell_length_c 13.967931
_cell_angle_alpha 56.586789
_cell_angle_beta 113.976902
_cell_angle_gamma 86.578867
_cell_volume 672.170630
_symmetry_space_group_name_H-M "P -1"
_symmetry_group_IT_number 2
_symmetry_cell_setting 'triclinic'
loop_
_space_group_symop_operation_xyz
x,y,z
-x,-y,-z
loop_
_atom_site_type_symbol
_atom_site_label
_atom_site_fract_x
_atom_site_fract_y
_atom_site_fract_z
Si Si1 0.165566 0.824049 0.181251
Si Si2 0.809438 0.727145 0.875417
Si Si3 0.360082 0.421904 0.718996
Si Si4 0.423682 0.486198 0.105770
Si Si5 0.355622 0.078047 0.072950
Si Si6 0.152071 0.631762 0.430919
Si Si7 0.170180 0.109342 0.652146
Si Si8 0.667652 0.999848 0.622403
O O1 0.386718 0.727923 0.183105
O O2 0.252093 0.735058 0.334566
O O3 0.205427 0.967405 0.128186
O O4 0.832733 0.850428 0.083749
O O5 0.606658 0.660838 0.821730
O O6 0.679725 0.803655 0.915414
O O7 0.854648 0.844105 0.760653
O O8 0.104891 0.603859 0.009759
O O9 0.383692 0.484048 0.795158
O O10 0.389841 0.519506 0.588297
O O11 0.040557 0.420972 0.644211
O O12 0.500000 0.500000 0.000000
O O13 0.692041 0.980136 0.185993
O O14 0.918138 0.732756 0.417744
O O15 0.417624 0.059609 0.634581
O O16 0.882943 0.079223 0.599403
O O17 0.500000 0.000000 0.500000
#
# Coordination Sequence:
#
# PCOD9032677 Si02
#       8
#     2   2   2   2   2   2   2   2
#     4  11  22  45  70 104 143 194 236 308 377 435
#     4  10  24  44  64 103 135 185 242 302 361 436
#     4  11  25  45  67 104 143 191 250 297 369 447
#     4  11  26  44  70  95 141 192 248 302 362 437
#     4  10  22  43  73 102 143 180 247 305 369 442
#     4  11  25  41  70 104 146 190 241 298 378 443
#     4  11  24  45  70 110 147 192 245 308 371 443
#     4  11  26  45  75 106 148 194 249 306 375 441
#
# _framework density 23.803483
#
# number of rings (size 3 to 8) (size 9 to 14) (size 15 to 20)
#    0.000    1.250    2.500    2.250    7.000    1.500 
#    0.000    0.000    0.000    0.000    0.000    0.000 
#    0.000    0.000    0.000    0.000    0.000    0.000 
#
# Total GULP energy -89420.264038 kJ/mol
# GULP energy per Si atom -5588.766502 kJ/mol
# Density = 2.374931 g / cm^3
# Si number density = 23.803483 Si / 1000 Ang^3
#
#
#
# Elastic Constant Matrix: (Units=GPa)
#
#
# Indices 1 2 3 4 5 6 
#
# 1 67.2934 26.4475 14.8520 11.7633 10.6106 9.1864
# 2 26.4475 151.0731 47.3085 17.8147 14.6291 7.4729
# 3 14.8520 47.3085 93.0216 15.8055 8.6870 2.7670
# 4 11.7633 17.8147 15.8055 53.9471 7.1462 8.9389
# 5 10.6106 14.6291 8.6870 7.1462 35.3875 -0.6308
# 6 9.1864 7.4729 2.7670 8.9389 -0.6308 36.4184
#
#
#
# Elastic Compliance Matrix: (Units=1/GPa)
#
#
# Indices 1 2 3 4 5 6 
#
# 1 0.017235 -0.001955 -0.001002 -0.001730 -0.003827 -0.003512
# 2 -0.001955 0.008419 -0.003619 -0.000924 -0.001833 -0.000764
# 3 -0.001002 -0.003619 0.013236 -0.002433 -0.000951 0.000570
# 4 -0.001730 -0.000924 -0.002433 0.021036 -0.002828 -0.004401
# 5 -0.003827 -0.001833 -0.000951 -0.002828 0.031016 0.002645
# 6 -0.003512 -0.000764 0.000570 -0.004401 0.002645 0.029584
#
#
# Mechanical properties :
#
#
# Convention : Reuss Voigt Hill
#
# Bulk Modulus (GPa) = 38.85167 54.28933 46.57050
# Shear Modulus (GPa) = 35.14793 40.00261 37.57527
#
# Velocity S-wave (km/s) = 3.84681 4.10388 3.97742
# Velocity P-wave (km/s) = 6.00732 6.73146 6.37967
#
# Compressibility (1/GPa) = 0.02573892
#
# Stress axis : x y z
#
# Youngs Moduli (GPa) = 58.02127 118.77820 75.55319
#
# Poissons Ratio (x) = 0.23225 0.07567
# Poissons Ratio (y) = 0.11345 0.27340
# Poissons Ratio (z) = 0.05811 0.42981
#
# Static dielectric constant tensor:
#      x y z
#    x 4.012980 -1.435480 -0.891790 
#    y -1.435480 2.898360 0.589630 
#    z -0.891790 0.589630 2.323120 
# 
# From -- ./inp_files/482762.got.cif
#   From: 2010.05.17/outbox.cif.g08.bks.cpg/sg2_242_cif.got.tgz:482762.got - 2010.06.03 11:33:40.
