data_PCOD9032366
_publ_section_title
;
Structure prediction by ZEFSAII (Michael W. Deem and Ramdas Pophale) SiO2 
 PCOD9032366
Probable space group: P -1
;
_chemical_formula_sum "Si O2"
_cell_formula_units_Z 14
_cell_length_a 8.800917
_cell_length_b 18.370043
_cell_length_c 10.502953
_cell_angle_alpha 33.924081
_cell_angle_beta 137.833222
_cell_angle_gamma 138.362882
_cell_volume 595.148578
_symmetry_space_group_name_H-M "P -1"
_symmetry_group_IT_number 2
_symmetry_cell_setting 'triclinic'
loop_
_space_group_symop_operation_xyz
x,y,z
-x,-y,-z
loop_
_atom_site_type_symbol
_atom_site_label
_atom_site_fract_x
_atom_site_fract_y
_atom_site_fract_z
Si Si1 0.905030 0.299470 0.906809
Si Si2 0.178846 0.018052 0.740771
Si Si3 0.726328 0.940837 0.964496
Si Si4 0.600466 0.604901 0.027631
Si Si5 0.443134 0.346821 0.632503
Si Si6 0.845421 0.585977 0.835660
Si Si7 0.629830 0.901450 0.519173
O O1 0.673762 0.344308 0.699542
O O2 0.824847 0.134522 0.080963
O O3 0.112719 0.364983 0.835145
O O4 0.031592 0.342460 0.061274
O O5 0.897164 0.001287 0.583399
O O6 0.270833 0.042482 0.905067
O O7 0.335547 0.118609 0.582162
O O8 0.608134 0.773956 0.117510
O O9 0.565769 0.025716 0.686990
O O10 0.000000 0.000000 0.000000
O O11 0.573094 0.753121 0.766359
O O12 0.500000 0.500000 0.000000
O O13 0.422595 0.524361 0.143793
O O14 0.500000 0.500000 0.500000
O O15 0.204490 0.312640 0.446005
O O16 0.000000 0.500000 0.000000
#
# Coordination Sequence:
#
# PCOD9032366 Si02
#       7
#     2   2   2   2   2   2   2
#     4  10  22  45  69 103 131 179 240 287 344 413
#     4  10  23  44  73 100 132 181 232 289 349 409
#     4  12  29  44  70 107 143 186 234 291 357 419
#     4   9  22  39  67 103 131 181 230 287 342 407
#     4  12  27  44  70 100 141 189 228 288 356 420
#     4  11  24  43  68  97 145 183 226 282 360 417
#     4  10  22  43  70  99 139 173 239 284 345 411
#
# _framework density 23.523537000000001
#
# number of rings (size 3 to 8) (size 9 to 14) (size 15 to 20)
#    0.000    1.429    2.857    0.429   10.000    3.429 
#    0.000    0.000    0.000    0.000    0.000    0.000 
#    0.000    0.000    0.000    0.000    0.000    0.000 
#
# Total GULP energy -78363.983069 kJ/mol
# GULP energy per Si atom -5597.427362 kJ/mol
# Density = 2.347000 g / cm^3
# Si number density = 23.523537 Si / 1000 Ang^3
#
#
#
# Elastic Constant Matrix: (Units=GPa)
#
#
# Indices 1 2 3 4 5 6 
#
# 1 88.2587 32.9747 38.2593 -2.7273 29.2381 21.9215
# 2 32.9747 79.7140 34.1483 -9.5765 14.3250 -2.7286
# 3 38.2593 34.1483 130.5826 -3.2314 45.1180 14.5391
# 4 -2.7273 -9.5765 -3.2314 45.9901 6.1215 0.8387
# 5 29.2381 14.3250 45.1180 6.1215 49.3850 12.9490
# 6 21.9215 -2.7286 14.5391 0.8387 12.9490 47.6578
#
#
#
# Elastic Compliance Matrix: (Units=1/GPa)
#
#
# Indices 1 2 3 4 5 6 
#
# 1 0.017637 -0.005998 -0.000594 0.000745 -0.006544 -0.006510
# 2 -0.005998 0.016861 -0.003056 0.002872 -0.000120 0.004639
# 3 -0.000594 -0.003056 0.012166 0.001506 -0.009807 -0.000975
# 4 0.000745 0.002872 0.001506 0.023236 -0.005659 0.000491
# 5 -0.006544 -0.000120 -0.009807 -0.005659 0.034693 -0.003332
# 6 -0.006510 0.004639 -0.000975 0.000491 -0.003332 0.025437
#
#
# Mechanical properties :
#
#
# Convention : Reuss Voigt Hill
#
# Bulk Modulus (GPa) = 36.54154 56.59110 46.56632
# Shear Modulus (GPa) = 31.55603 41.48476 36.52040
#
# Velocity S-wave (km/s) = 3.66658 4.20401 3.94446
# Velocity P-wave (km/s) = 5.78730 6.90466 6.37053
#
# Compressibility (1/GPa) = 0.02736611
#
# Stress axis : x y z
#
# Youngs Moduli (GPa) = 56.69919 59.31017 82.19906
#
# Poissons Ratio (x) = 0.35577 0.04886
# Poissons Ratio (y) = 0.34010 0.25117
# Poissons Ratio (z) = 0.03370 0.18123
#
# Static dielectric constant tensor:
#      x y z
#    x 1.910950 -0.012940 -0.030980 
#    y -0.012940 1.919940 0.005550 
#    z -0.030980 0.005550 1.921100 
# 
# From -- ./inp_files/259737.got.cif
#   From: 2010.05.17/outbox.cif.g08.bks.cpg/sg2_130_cif.got.tgz:259737.got - 2010.06.03 11:33:40.
