data_PCOD9032266
_publ_section_title
;
Structure prediction by ZEFSAII (Michael W. Deem and Ramdas Pophale) SiO2 
 PCOD9032266
Probable space group: P -1
;
_chemical_formula_sum "Si O2"
_cell_formula_units_Z 12
_cell_length_a 7.797497
_cell_length_b 9.760015
_cell_length_c 8.903798
_cell_angle_alpha 116.968578
_cell_angle_beta 128.355145
_cell_angle_gamma 75.870226
_cell_volume 472.911037
_symmetry_space_group_name_H-M "P -1"
_symmetry_group_IT_number 2
_symmetry_cell_setting 'triclinic'
loop_
_space_group_symop_operation_xyz
x,y,z
-x,-y,-z
loop_
_atom_site_type_symbol
_atom_site_label
_atom_site_fract_x
_atom_site_fract_y
_atom_site_fract_z
Si Si1 0.521220 0.183328 0.631459
Si Si2 0.728714 0.645388 0.940718
Si Si3 0.814620 0.987609 0.263219
Si Si4 0.653163 0.271165 0.422090
Si Si5 0.139650 0.625014 0.929755
Si Si6 0.027676 0.266262 0.412151
O O1 0.284282 0.251095 0.559395
O O2 0.500000 0.000000 0.500000
O O3 0.071609 0.910166 0.756331
O O4 0.688351 0.230886 0.877267
O O5 0.512763 0.632695 0.714103
O O6 0.931307 0.634512 0.931137
O O7 0.748424 0.815338 0.104905
O O8 0.737064 0.521139 0.014939
O O9 0.375985 0.731587 0.418680
O O10 0.620295 0.090731 0.265594
O O11 0.000000 0.000000 0.500000
O O12 0.897118 0.310624 0.513725
O O13 0.053140 0.633025 0.718044
#
# Coordination Sequence:
#
# PCOD9032266 Si02
#       6
#     2   2   2   2   2   2
#     4  12  25  45  75 105 144 186 244 288 346 430
#     4  11  23  46  72  99 149 186 236 289 359 426
#     4  10  22  43  70 106 137 183 238 292 348 414
#     4  10  24  43  72 104 139 187 230 303 344 412
#     4  11  26  46  71 105 144 194 227 294 364 412
#     4  10  25  46  70 110 134 183 245 285 354 417
#
# _framework density 25.374751
#
# number of rings (size 3 to 8) (size 9 to 14) (size 15 to 20)
#    1.000    0.333    1.667    3.500    2.333    4.000 
#    3.000    1.667    0.000    0.000    0.000    0.000 
#    0.000    0.000    0.000    0.000    0.000    0.000 
#
# Total GULP energy -67217.817117 kJ/mol
# GULP energy per Si atom -5601.484760 kJ/mol
# Density = 2.531700 g / cm^3
# Si number density = 25.374751 Si / 1000 Ang^3
#
#
#
# Elastic Constant Matrix: (Units=GPa)
#
#
# Indices 1 2 3 4 5 6 
#
# 1 140.7603 24.3051 48.1990 -17.0858 17.0414 10.0456
# 2 24.3051 137.6684 38.2071 -13.1383 -4.2182 12.3672
# 3 48.1990 38.2071 109.6821 -27.5407 9.4567 -0.9357
# 4 -17.0858 -13.1383 -27.5407 52.5198 -6.1725 0.5229
# 5 17.0414 -4.2182 9.4567 -6.1725 34.6320 -8.1630
# 6 10.0456 12.3672 -0.9357 0.5229 -8.1630 31.9498
#
#
#
# Elastic Compliance Matrix: (Units=1/GPa)
#
#
# Indices 1 2 3 4 5 6 
#
# 1 0.009250 -0.000403 -0.003412 0.000630 -0.004503 -0.004013
# 2 -0.000403 0.008467 -0.002731 0.000751 0.001431 -0.002877
# 3 -0.003412 -0.002731 0.012870 0.004842 -0.000780 0.002229
# 4 0.000630 0.000751 0.004842 0.022256 0.002403 -0.000097
# 5 -0.004503 0.001431 -0.000780 0.002403 0.034152 0.009525
# 6 -0.004013 -0.002877 0.002229 -0.000097 0.009525 0.036175
#
#
# Mechanical properties :
#
#
# Convention : Reuss Voigt Hill
#
# Bulk Modulus (GPa) = 57.16489 67.72591 62.44540
# Shear Modulus (GPa) = 35.18758 42.31361 38.75059
#
# Velocity S-wave (km/s) = 3.72790 4.08799 3.91209
# Velocity P-wave (km/s) = 6.41146 7.00218 6.71332
#
# Compressibility (1/GPa) = 0.01749325
#
# Stress axis : x y z
#
# Youngs Moduli (GPa) = 108.10373 118.10323 77.69856
#
# Poissons Ratio (x) = 0.04765 0.26513
# Poissons Ratio (y) = 0.04362 0.21223
# Poissons Ratio (z) = 0.36888 0.32259
#
# Static dielectric constant tensor:
#      x y z
#    x 1.989760 -0.012490 -0.013930 
#    y -0.012490 2.069740 0.047530 
#    z -0.013930 0.047530 1.988420 
# 
# From -- ./inp_files/380181.got.cif
#   From: 2010.05.17/outbox.cif.g08.bks.cpg/sg2_191_cif.got.tgz:380181.got - 2010.06.03 11:33:40.
