data_PCOD9032231
_publ_section_title
;
Structure prediction by ZEFSAII (Michael W. Deem and Ramdas Pophale) SiO2 
 PCOD9032231
Probable space group: P -1
;
_chemical_formula_sum "Si O2"
_cell_formula_units_Z 16
_cell_length_a 6.523965
_cell_length_b 16.154090
_cell_length_c 15.783133
_cell_angle_alpha 148.888737
_cell_angle_beta 51.608169
_cell_angle_gamma 120.586688
_cell_volume 672.556811
_symmetry_space_group_name_H-M "P -1"
_symmetry_group_IT_number 2
_symmetry_cell_setting 'triclinic'
loop_
_space_group_symop_operation_xyz
x,y,z
-x,-y,-z
loop_
_atom_site_type_symbol
_atom_site_label
_atom_site_fract_x
_atom_site_fract_y
_atom_site_fract_z
Si Si1 0.545467 0.313556 0.350093
Si Si2 0.118927 0.352232 0.781982
Si Si3 0.085906 0.140489 0.044285
Si Si4 0.078848 0.226737 0.499312
Si Si5 0.704804 0.445401 0.684082
Si Si6 0.517585 0.687178 0.817805
Si Si7 0.209820 0.083837 0.651061
Si Si8 0.088053 0.285041 0.010002
O O1 0.500000 0.500000 0.500000
O O2 0.855639 0.276566 0.243670
O O3 0.378540 0.248425 0.412729
O O4 0.448845 0.243763 0.224061
O O5 0.016470 0.328172 0.690990
O O6 0.424485 0.383006 0.722670
O O7 0.103607 0.179310 0.679462
O O8 0.000000 0.500000 0.000000
O O9 0.374801 0.182152 0.033087
O O10 0.076640 0.127885 0.935151
O O11 0.000000 0.000000 0.000000
O O12 0.919568 0.306685 0.530831
O O13 0.988504 0.048919 0.384691
O O14 0.677036 0.525033 0.667419
O O15 0.772229 0.587563 0.856712
O O16 0.212291 0.659339 0.882429
O O17 0.226936 0.229052 0.840821
O O18 0.500000 0.000000 0.500000
#
# Coordination Sequence:
#
# PCOD9032231 Si02
#       8
#     2   2   2   2   2   2   2   2
#     4  11  24  43  69 105 144 179 228 284 349 419
#     4  12  27  48  74  97 135 193 241 287 346 420
#     4  10  24  41  68 101 139 181 228 275 342 425
#     4  12  27  44  72 107 145 180 233 299 359 407
#     4  11  22  45  72 101 135 184 244 278 340 429
#     4  10  22  43  70 102 138 183 229 277 340 425
#     4  12  27  48  68 105 146 182 231 306 359 398
#     4  10  24  44  71 100 140 188 236 279 345 429
#
# _framework density 23.789811
#
# number of rings (size 3 to 8) (size 9 to 14) (size 15 to 20)
#    0.000    1.000    1.250    5.625    5.250    6.000 
#    2.250    0.000    0.000    0.000    0.000    0.000 
#    0.000    0.000    0.000    0.000    0.000    0.000 
#
# Total GULP energy -89367.917788 kJ/mol
# GULP energy per Si atom -5585.494862 kJ/mol
# Density = 2.373566 g / cm^3
# Si number density = 23.789811 Si / 1000 Ang^3
#
#
#
# Elastic Constant Matrix: (Units=GPa)
#
#
# Indices 1 2 3 4 5 6 
#
# 1 90.9781 16.3546 12.8113 7.3040 6.9322 -0.7132
# 2 16.3546 107.8319 7.0756 13.9033 7.3324 -2.0163
# 3 12.8113 7.0756 56.5442 -6.5206 2.3844 -5.3313
# 4 7.3040 13.9033 -6.5206 36.6970 -0.4349 -1.5131
# 5 6.9322 7.3324 2.3844 -0.4349 17.3684 2.5782
# 6 -0.7132 -2.0163 -5.3313 -1.5131 2.5782 42.5903
#
#
#
# Elastic Compliance Matrix: (Units=1/GPa)
#
#
# Indices 1 2 3 4 5 6 
#
# 1 0.012078 -0.001050 -0.002730 -0.002541 -0.004061 -0.000034
# 2 -0.001050 0.010302 -0.001305 -0.003956 -0.003910 0.000403
# 3 -0.002730 -0.001305 0.019286 0.004554 -0.001271 0.002545
# 4 -0.002541 -0.003956 0.004554 0.030147 0.002628 0.001252
# 5 -0.004061 -0.003910 -0.001271 0.002628 0.061689 -0.004053
# 6 -0.000034 0.000403 0.002545 0.001252 -0.004053 0.024107
#
#
# Mechanical properties :
#
#
# Convention : Reuss Voigt Hill
#
# Bulk Modulus (GPa) = 31.74880 36.42636 34.08758
# Shear Modulus (GPa) = 28.04639 33.93864 30.99251
#
# Velocity S-wave (km/s) = 3.43727 3.78114 3.61330
# Velocity P-wave (km/s) = 5.39700 5.86581 5.63628
#
# Compressibility (1/GPa) = 0.03149725
#
# Stress axis : x y z
#
# Youngs Moduli (GPa) = 82.79542 97.06925 51.85131
#
# Poissons Ratio (x) = 0.10188 0.14156
# Poissons Ratio (y) = 0.08690 0.06765
# Poissons Ratio (z) = 0.22604 0.12664
#
# Static dielectric constant tensor:
#      x y z
#    x 1.907620 -0.060050 0.044900 
#    y -0.060050 1.944720 0.024080 
#    z 0.044900 0.024080 1.917830 
# 
# From -- ./inp_files/484425.got.cif
#   From: 2010.05.17/outbox.cif.g08.bks.cpg/sg2_243_cif.got.tgz:484425.got - 2010.06.03 11:33:40.
