data_PCOD9032719
_publ_section_title
;
Structure prediction by ZEFSAII (Michael W. Deem and Ramdas Pophale) SiO2 
 PCOD9032719
Probable space group: P -1
;
_chemical_formula_sum "Si O2"
_cell_formula_units_Z 16
_cell_length_a 11.268980
_cell_length_b 8.961099
_cell_length_c 16.121246
_cell_angle_alpha 106.983470
_cell_angle_beta 152.553977
_cell_angle_gamma 83.182926
_cell_volume 680.187571
_symmetry_space_group_name_H-M "P -1"
_symmetry_group_IT_number 2
_symmetry_cell_setting 'triclinic'
loop_
_space_group_symop_operation_xyz
x,y,z
-x,-y,-z
loop_
_atom_site_type_symbol
_atom_site_label
_atom_site_fract_x
_atom_site_fract_y
_atom_site_fract_z
Si Si1 0.220555 0.914237 0.095157
Si Si2 0.340213 0.146875 0.071665
Si Si3 0.260497 0.850516 0.291631
Si Si4 0.936532 0.346510 0.709958
Si Si5 0.637438 0.308514 0.958130
Si Si6 0.097322 0.257641 0.513305
Si Si7 0.760605 0.429503 0.446769
Si Si8 0.257682 0.099717 0.827614
O O1 0.312713 0.846753 0.225424
O O2 0.139433 0.764674 0.955533
O O3 0.426021 0.051071 0.185326
O O4 0.000000 0.000000 0.000000
O O5 0.481282 0.338164 0.210766
O O6 0.382141 0.096921 0.996402
O O7 0.019920 0.108634 0.870816
O O8 0.206452 0.697012 0.296083
O O9 0.500000 0.000000 0.500000
O O10 0.032769 0.193255 0.716598
O O11 0.752835 0.388429 0.531872
O O12 0.212819 0.499740 0.907636
O O13 0.385432 0.267182 0.731827
O O14 0.498364 0.215727 0.939350
O O15 0.139933 0.377896 0.479979
O O16 0.960374 0.344256 0.511394
O O17 0.909500 0.074728 0.345038
#
# Coordination Sequence:
#
# PCOD9032719 Si02
#       8
#     2   2   2   2   2   2   2   2
#     4  10  24  44  70  98 137 178 242 294 345 397
#     4  10  23  41  70 101 143 182 222 295 349 413
#     4  10  22  43  73  97 128 186 239 287 347 403
#     4  11  25  43  70 104 145 184 234 292 347 420
#     4  12  25  43  72 102 145 190 231 286 355 421
#     4  11  25  39  66 105 146 194 222 278 345 429
#     4  11  24  42  63 103 155 179 228 282 348 415
#     4  11  24  41  70 107 144 186 232 276 360 429
#
# _framework density 23.522925999999998
#
# number of rings (size 3 to 8) (size 9 to 14) (size 15 to 20)
#    0.000    1.250    1.250    3.750   10.500    1.500 
#    0.000    0.000    0.000    5.250    0.000    0.000 
#    0.000    0.000    0.000    0.000    0.000    0.000 
#
# Total GULP energy -89384.473577 kJ/mol
# GULP energy per Si atom -5586.529599 kJ/mol
# Density = 2.346939 g / cm^3
# Si number density = 23.522926 Si / 1000 Ang^3
#
#
#
# Elastic Constant Matrix: (Units=GPa)
#
#
# Indices 1 2 3 4 5 6 
#
# 1 154.3457 39.3350 32.1511 -0.4866 -22.4191 46.6863
# 2 39.3350 90.8400 25.9546 19.3266 -4.5514 28.2976
# 3 32.1511 25.9546 119.9772 17.4269 2.5048 12.2988
# 4 -0.4866 19.3266 17.4269 37.9942 4.7182 2.5948
# 5 -22.4191 -4.5514 2.5048 4.7182 28.7207 -13.3474
# 6 46.6863 28.2976 12.2988 2.5948 -13.3474 54.6890
#
#
#
# Elastic Compliance Matrix: (Units=1/GPa)
#
#
# Indices 1 2 3 4 5 6 
#
# 1 0.009854 -0.002049 -0.001964 0.001916 0.004478 -0.005908
# 2 -0.002049 0.015481 -0.001191 -0.006881 -0.000615 -0.005817
# 3 -0.001964 -0.001191 0.009708 -0.003598 -0.002083 -0.000228
# 4 0.001916 -0.006881 -0.003598 0.032044 -0.004490 0.000117
# 5 0.004478 -0.000615 -0.002083 -0.004490 0.042662 0.007589
# 6 -0.005908 -0.005817 -0.000228 0.000117 0.007589 0.028237
#
#
# Mechanical properties :
#
#
# Convention : Reuss Voigt Hill
#
# Bulk Modulus (GPa) = 40.59119 62.22714 51.40917
# Shear Modulus (GPa) = 31.92732 42.12892 37.02812
#
# Velocity S-wave (km/s) = 3.68813 4.23658 3.97183
# Velocity P-wave (km/s) = 5.95230 7.10231 6.55258
#
# Compressibility (1/GPa) = 0.02463589
#
# Stress axis : x y z
#
# Youngs Moduli (GPa) = 101.48544 64.59490 103.00442
#
# Poissons Ratio (x) = 0.13233 0.20225
# Poissons Ratio (y) = 0.20790 0.12272
# Poissons Ratio (z) = 0.19927 0.07696
#
# Static dielectric constant tensor:
#      x y z
#    x 1.935010 0.011900 -0.003950 
#    y 0.011900 2.002720 -0.035230 
#    z -0.003950 -0.035230 1.891470 
# 
# From -- ./inp_files/566830.got.cif
#   From: 2010.05.17/outbox.cif.g08.bks.cpg/sg2_284_cif.got.tgz:566830.got - 2010.06.03 11:33:40.
