data_PCOD9032128
_publ_section_title
;
Structure prediction by ZEFSAII (Michael W. Deem and Ramdas Pophale) SiO2 
 PCOD9032128
Probable space group: P -1
;
_chemical_formula_sum "Si O2"
_cell_formula_units_Z 16
_cell_length_a 17.783711
_cell_length_b 11.910658
_cell_length_c 8.764437
_cell_angle_alpha 81.030648
_cell_angle_beta 137.525962
_cell_angle_gamma 129.886081
_cell_volume 760.753165
_symmetry_space_group_name_H-M "P -1"
_symmetry_group_IT_number 2
_symmetry_cell_setting 'triclinic'
loop_
_space_group_symop_operation_xyz
x,y,z
-x,-y,-z
loop_
_atom_site_type_symbol
_atom_site_label
_atom_site_fract_x
_atom_site_fract_y
_atom_site_fract_z
Si Si1 0.841298 0.137015 0.567321
Si Si2 0.530607 0.289967 0.400409
Si Si3 0.974342 0.862146 0.397068
Si Si4 0.064608 0.423506 0.096632
Si Si5 0.161978 0.851181 0.909281
Si Si6 0.442225 0.466424 0.244073
Si Si7 0.206842 0.704810 0.775706
Si Si8 0.496139 0.757232 0.267421
O O1 0.766392 0.175793 0.336029
O O2 0.898182 0.072326 0.567678
O O3 0.682843 0.973777 0.478804
O O4 0.010517 0.325837 0.872957
O O5 0.720120 0.401253 0.592310
O O6 0.508974 0.402173 0.287875
O O7 0.549643 0.295061 0.611639
O O8 0.342796 0.073413 0.134002
O O9 0.018773 0.796052 0.594019
O O10 0.772743 0.700558 0.063649
O O11 0.000000 0.000000 0.500000
O O12 0.947899 0.257410 0.078108
O O13 0.000000 0.500000 0.000000
O O14 0.226186 0.782795 0.950781
O O15 0.500000 0.500000 0.500000
O O16 0.515398 0.645183 0.255700
O O17 0.000000 0.500000 0.500000
O O18 0.340680 0.706579 0.966125
#
# Coordination Sequence:
#
# PCOD9032128 Si02
#       8
#     2   2   2   2   2   2   2   2
#     4  11  24  42  67 105 134 186 240 284 358 424
#     4  11  23  44  68 101 140 180 233 290 345 415
#     4  11  23  46  70  98 145 182 233 293 349 415
#     4  12  26  44  72 105 141 187 235 289 358 425
#     4  11  24  44  69 102 138 185 234 291 349 418
#     4  10  22  43  69  98 134 183 231 285 346 411
#     4  11  23  43  65  95 139 184 231 295 355 415
#     4  11  22  41  69  98 139 180 231 295 347 417
#
# _framework density 21.031787999999999
#
# number of rings (size 3 to 8) (size 9 to 14) (size 15 to 20)
#    0.000    1.000    2.500    5.625    1.750    2.000 
#    9.000    3.750    0.000    0.000    0.000    0.000 
#    0.000    0.000    0.000    0.000    0.000    0.000 
#
# Total GULP energy -89346.555292 kJ/mol
# GULP energy per Si atom -5584.159706 kJ/mol
# Density = 2.098392 g / cm^3
# Si number density = 21.031788 Si / 1000 Ang^3
#
#
#
# Elastic Constant Matrix: (Units=GPa)
#
#
# Indices 1 2 3 4 5 6 
#
# 1 73.7649 38.6098 28.0649 -5.0632 11.1347 -10.4509
# 2 38.6098 89.2383 41.5480 2.0883 20.9566 -13.2263
# 3 28.0649 41.5480 130.7780 3.3668 22.2783 -3.4847
# 4 -5.0632 2.0883 3.3668 30.6389 -7.1292 2.6857
# 5 11.1347 20.9566 22.2783 -7.1292 39.3051 -2.6591
# 6 -10.4509 -13.2263 -3.4847 2.6857 -2.6591 34.6537
#
#
#
# Elastic Compliance Matrix: (Units=1/GPa)
#
#
# Indices 1 2 3 4 5 6 
#
# 1 0.018419 -0.006904 -0.001840 0.003574 0.000322 0.002482
# 2 -0.006904 0.017716 -0.002865 -0.003864 -0.006282 0.004209
# 3 -0.001840 -0.002865 0.009633 -0.001986 -0.003827 -0.000820
# 4 0.003574 -0.003864 -0.001986 0.035929 0.008506 -0.002729
# 5 0.000322 -0.006282 -0.003827 0.008506 0.032354 -0.000862
# 6 0.002482 0.004209 -0.000820 -0.002729 -0.000862 0.031275
#
#
# Mechanical properties :
#
#
# Convention : Reuss Voigt Hill
#
# Bulk Modulus (GPa) = 44.34546 56.69185 50.51865
# Shear Modulus (GPa) = 28.39943 33.29011 30.84477
#
# Velocity S-wave (km/s) = 3.67864 3.98282 3.83375
# Velocity P-wave (km/s) = 6.25891 6.94005 6.60826
#
# Compressibility (1/GPa) = 0.02255022
#
# Stress axis : x y z
#
# Youngs Moduli (GPa) = 54.29322 56.44466 103.81148
#
# Poissons Ratio (x) = 0.38967 0.19102
# Poissons Ratio (y) = 0.37482 0.29743
# Poissons Ratio (z) = 0.09990 0.16172
#
# Static dielectric constant tensor:
#      x y z
#    x 1.789050 -0.032180 -0.049250 
#    y -0.032180 1.734000 -0.022020 
#    z -0.049250 -0.022020 1.713360 
# 
# From -- ./inp_files/307458.got.cif
#   From: 2010.05.17/outbox.cif.g08.bks.cpg/sg2_154_cif.got.tgz:307458.got - 2010.06.03 11:33:40.
