data_PCOD9032783
_publ_section_title
;
Structure prediction by ZEFSAII (Michael W. Deem and Ramdas Pophale) SiO2 
 PCOD9032783
Probable space group: P -1
;
_chemical_formula_sum "Si O2"
_cell_formula_units_Z 16
_cell_length_a 8.064201
_cell_length_b 16.565521
_cell_length_c 23.348488
_cell_angle_alpha 16.557212
_cell_angle_beta 65.964796
_cell_angle_gamma 59.238263
_cell_volume 718.619362
_symmetry_space_group_name_H-M "P -1"
_symmetry_group_IT_number 2
_symmetry_cell_setting 'triclinic'
loop_
_space_group_symop_operation_xyz
x,y,z
-x,-y,-z
loop_
_atom_site_type_symbol
_atom_site_label
_atom_site_fract_x
_atom_site_fract_y
_atom_site_fract_z
Si Si1 0.548360 0.190195 0.034435
Si Si2 0.892995 0.883030 0.640360
Si Si3 0.656481 0.045475 0.870548
Si Si4 0.735565 0.492102 0.327084
Si Si5 0.814525 0.483271 0.068202
Si Si6 0.947266 0.863480 0.273339
Si Si7 0.504811 0.841548 0.546670
Si Si8 0.135272 0.143142 0.577518
O O1 0.482137 0.989575 0.136948
O O2 0.776827 0.060874 0.114888
O O3 0.411962 0.245950 0.073399
O O4 0.490510 0.521368 0.783259
O O5 0.085132 0.567506 0.848507
O O6 0.801828 0.151208 0.519970
O O7 0.695325 0.881800 0.643776
O O8 0.000000 0.000000 0.500000
O O9 0.491374 0.350752 0.721782
O O10 0.851021 0.086500 0.795106
O O11 0.733257 0.740845 0.110163
O O12 0.910995 0.408243 0.407429
O O13 0.805263 0.180041 0.247970
O O14 0.000000 0.500000 0.000000
O O15 0.868538 0.927214 0.307012
O O16 0.000000 0.500000 0.500000
O O17 0.697411 0.753957 0.538157
O O18 0.500000 0.000000 0.500000
#
# Coordination Sequence:
#
# PCOD9032783 Si02
#       8
#     2   2   2   2   2   2   2   2
#     4  12  25  47  71 102 140 187 233 291 355 412
#     4  11  21  41  67  99 135 173 227 285 352 411
#     4  11  24  47  71 101 135 184 242 290 344 413
#     4  10  22  43  74  97 128 182 238 290 347 406
#     4  11  24  41  66  98 134 180 227 280 352 424
#     4  12  30  46  68 101 147 191 233 289 348 420
#     4  12  23  42  69 104 139 174 231 294 347 417
#     4  11  25  43  66 104 136 180 227 290 355 414
#
# _framework density 22.264918000000002
#
# number of rings (size 3 to 8) (size 9 to 14) (size 15 to 20)
#    0.000    0.750    3.750    3.000    3.500    5.500 
#    0.000    3.125    0.000    0.000    0.000    0.000 
#    0.000    0.000    0.000    0.000    0.000    0.000 
#
# Total GULP energy -89304.719477 kJ/mol
# GULP energy per Si atom -5581.544967 kJ/mol
# Density = 2.221424 g / cm^3
# Si number density = 22.264918 Si / 1000 Ang^3
#
#
#
# Elastic Constant Matrix: (Units=GPa)
#
#
# Indices 1 2 3 4 5 6 
#
# 1 140.5528 48.8514 17.8422 6.7729 4.9188 -7.5694
# 2 48.8514 101.5580 11.6461 8.5000 -7.1363 -14.1689
# 3 17.8422 11.6461 21.0822 -2.6654 0.9049 -0.4686
# 4 6.7729 8.5000 -2.6654 37.9046 -0.2181 -4.5061
# 5 4.9188 -7.1363 0.9049 -0.2181 34.0445 7.5881
# 6 -7.5694 -14.1689 -0.4686 -4.5061 7.5881 45.1607
#
#
#
# Elastic Compliance Matrix: (Units=1/GPa)
#
#
# Indices 1 2 3 4 5 6 
#
# 1 0.009337 -0.003794 -0.005852 -0.001176 -0.002119 0.000553
# 2 -0.003794 0.012911 -0.004256 -0.002181 0.002754 0.002690
# 3 -0.005852 -0.004256 0.055501 0.005783 -0.001273 -0.000949
# 4 -0.001176 -0.002181 0.005783 0.027729 -0.000724 0.002067
# 5 -0.002119 0.002754 -0.001273 -0.000724 0.031366 -0.004847
# 6 0.000553 0.002690 -0.000949 0.002067 -0.004847 0.024091
#
#
# Mechanical properties :
#
#
# Convention : Reuss Voigt Hill
#
# Bulk Modulus (GPa) = 20.02116 46.65248 33.33682
# Shear Modulus (GPa) = 24.34442 35.74551 30.04497
#
# Velocity S-wave (km/s) = 3.31024 4.01117 3.67745
# Velocity P-wave (km/s) = 4.86025 6.51548 5.74776
#
# Compressibility (1/GPa) = 0.04994716
#
# Stress axis : x y z
#
# Youngs Moduli (GPa) = 107.10470 77.45472 18.01758
#
# Poissons Ratio (x) = 0.29382 0.10543
# Poissons Ratio (y) = 0.40630 0.07668
# Poissons Ratio (z) = 0.62673 0.32963
#
# Static dielectric constant tensor:
#      x y z
#    x 1.856540 0.004250 0.023980 
#    y 0.004250 1.862100 0.054860 
#    z 0.023980 0.054860 1.853880 
# 
# From -- ./inp_files/319336.got.cif
#   From: 2010.05.17/outbox.cif.g08.bks.cpg/sg2_160_cif.got.tgz:319336.got - 2010.06.03 11:33:40.
