data_PCOD9032284
_publ_section_title
;
Structure prediction by ZEFSAII (Michael W. Deem and Ramdas Pophale) SiO2 
 PCOD9032284
Probable space group: P -1
;
_chemical_formula_sum "Si O2"
_cell_formula_units_Z 14
_cell_length_a 10.494696
_cell_length_b 16.313914
_cell_length_c 9.222326
_cell_angle_alpha 32.590638
_cell_angle_beta 59.401115
_cell_angle_gamma 72.274390
_cell_volume 705.197562
_symmetry_space_group_name_H-M "P -1"
_symmetry_group_IT_number 2
_symmetry_cell_setting 'triclinic'
loop_
_space_group_symop_operation_xyz
x,y,z
-x,-y,-z
loop_
_atom_site_type_symbol
_atom_site_label
_atom_site_fract_x
_atom_site_fract_y
_atom_site_fract_z
Si Si1 0.644040 0.453836 0.053024
Si Si2 0.065691 0.885278 0.345726
Si Si3 0.103318 0.899214 0.968950
Si Si4 0.557539 0.355120 0.746453
Si Si5 0.175448 0.604270 0.243281
Si Si6 0.614815 0.170349 0.705364
Si Si7 0.259413 0.234077 0.286080
O O1 0.592694 0.298957 0.411889
O O2 0.500000 0.500000 0.000000
O O3 0.750838 0.421881 0.911801
O O4 0.724464 0.605633 0.875254
O O5 0.215477 0.854512 0.370815
O O6 0.907148 0.796952 0.649046
O O7 0.065382 0.836728 0.247133
O O8 0.046485 0.062848 0.073778
O O9 0.225258 0.073072 0.641136
O O10 0.167525 0.782191 0.010961
O O11 0.500000 0.500000 0.500000
O O12 0.707900 0.421685 0.660130
O O13 0.595157 0.245056 0.762172
O O14 0.412924 0.256032 0.072317
O O15 0.000000 0.500000 0.500000
O O16 0.500000 0.000000 0.000000
#
# Coordination Sequence:
#
# PCOD9032284 Si02
#       7
#     2   2   2   2   2   2   2
#     4  12  26  44  67 105 137 182 228 283 345 405
#     4   9  21  42  69  95 129 178 223 275 343 401
#     4   9  21  42  71  96 130 178 224 275 348 400
#     4  12  25  47  66 102 136 186 223 289 344 401
#     4  12  26  43  72 104 136 180 233 284 345 417
#     4  12  28  43  70 103 141 179 231 286 344 411
#     4  10  22  43  70  90 138 177 226 276 334 416
#
# _framework density 19.852592999999999
#
# number of rings (size 3 to 8) (size 9 to 14) (size 15 to 20)
#    0.857    0.286    4.286    0.857    4.000    3.429 
#    0.000    1.429    0.000    0.000    0.000    0.000 
#    0.000    0.000    0.000    0.000    0.000    0.000 
#
# Total GULP energy -78041.306738 kJ/mol
# GULP energy per Si atom -5574.379053 kJ/mol
# Density = 1.980741 g / cm^3
# Si number density = 19.852593 Si / 1000 Ang^3
#
#
#
# Elastic Constant Matrix: (Units=GPa)
#
#
# Indices 1 2 3 4 5 6 
#
# 1 136.0161 28.7320 52.4060 -1.5436 -10.8760 -17.6405
# 2 28.7320 100.4571 32.9270 5.8507 0.1339 -16.0074
# 3 52.4060 32.9270 116.2116 -1.0161 -9.4442 1.7621
# 4 -1.5436 5.8507 -1.0161 38.6424 -9.2293 -0.5267
# 5 -10.8760 0.1339 -9.4442 -9.2293 32.0718 0.1333
# 6 -17.6405 -16.0074 1.7621 -0.5267 0.1333 30.4031
#
#
#
# Elastic Compliance Matrix: (Units=1/GPa)
#
#
# Indices 1 2 3 4 5 6 
#
# 1 0.010077 -0.000637 -0.004243 0.001051 0.002449 0.005765
# 2 -0.000637 0.012446 -0.003520 -0.002399 -0.002021 0.006354
# 3 -0.004243 -0.003520 0.011798 0.001182 0.002411 -0.004989
# 4 0.001051 -0.002399 0.001182 0.028436 0.008899 -0.000268
# 5 0.002449 -0.002021 0.002411 0.008899 0.035289 0.000216
# 6 0.005765 0.006354 -0.004989 -0.000268 0.000216 0.039865
#
#
# Mechanical properties :
#
#
# Convention : Reuss Voigt Hill
#
# Bulk Modulus (GPa) = 57.08135 64.53496 60.80816
# Shear Modulus (GPa) = 31.14278 36.13145 33.63712
#
# Velocity S-wave (km/s) = 3.96498 4.27076 4.12071
# Velocity P-wave (km/s) = 7.05524 7.54300 7.30319
#
# Compressibility (1/GPa) = 0.01751886
#
# Stress axis : x y z
#
# Youngs Moduli (GPa) = 99.23800 80.34966 84.76260
#
# Poissons Ratio (x) = 0.05121 0.35963
# Poissons Ratio (y) = 0.06325 0.29841
# Poissons Ratio (z) = 0.42104 0.28287
#
# Static dielectric constant tensor:
#      x y z
#    x 1.712060 -0.012050 -0.000830 
#    y -0.012050 1.681700 0.011920 
#    z -0.000830 0.011920 1.708700 
# 
# From -- ./inp_files/204981.got.cif
#   From: 2010.05.17/outbox.cif.g08.bks.cpg/sg2_103_cif.got.tgz:204981.got - 2010.06.03 11:33:40.
