data_PCOD9032182
_publ_section_title
;
Structure prediction by ZEFSAII (Michael W. Deem and Ramdas Pophale) SiO2 
 PCOD9032182
Probable space group: P -1
;
_chemical_formula_sum "Si O2"
_cell_formula_units_Z 16
_cell_length_a 13.963239
_cell_length_b 10.229478
_cell_length_c 11.057092
_cell_angle_alpha 152.763915
_cell_angle_beta 81.222311
_cell_angle_gamma 95.085292
_cell_volume 710.465831
_symmetry_space_group_name_H-M "P -1"
_symmetry_group_IT_number 2
_symmetry_cell_setting 'triclinic'
loop_
_space_group_symop_operation_xyz
x,y,z
-x,-y,-z
loop_
_atom_site_type_symbol
_atom_site_label
_atom_site_fract_x
_atom_site_fract_y
_atom_site_fract_z
Si Si1 0.724474 0.349820 0.144831
Si Si2 0.080940 0.628757 0.751086
Si Si3 0.749058 0.458549 0.974047
Si Si4 0.026272 0.868401 0.692484
Si Si5 0.530492 0.668215 0.245801
Si Si6 0.398543 0.184285 0.299207
Si Si7 0.410198 0.678017 0.508718
Si Si8 0.227567 0.915265 0.577265
O O1 0.809117 0.310134 0.195883
O O2 0.785070 0.330700 0.990722
O O3 0.663501 0.649387 0.444029
O O4 0.650767 0.103357 0.956513
O O5 0.050962 0.743586 0.718651
O O6 0.059014 0.299704 0.485317
O O7 0.011737 0.803242 0.005290
O O8 0.644443 0.589193 0.152806
O O9 0.792415 0.742171 0.153046
O O10 0.743049 0.238802 0.683607
O O11 0.125667 0.812720 0.553707
O O12 0.474694 0.573249 0.294634
O O13 0.500000 0.000000 0.500000
O O14 0.500000 0.500000 0.000000
O O15 0.389714 0.412341 0.378435
O O16 0.487241 0.853956 0.713561
O O17 0.312800 0.841408 0.601122
#
# Coordination Sequence:
#
# PCOD9032182 Si02
#       8
#     2   2   2   2   2   2   2   2
#     4  12  25  46  66  95 134 174 216 265 330 387
#     4  10  22  44  72  95 126 166 212 271 333 383
#     4  12  25  41  63  96 131 179 220 263 313 396
#     4  10  22  43  70 100 124 162 218 270 325 391
#     4  12  23  41  64  90 128 181 224 264 311 372
#     4  11  27  41  65  98 134 172 216 271 323 387
#     4  11  25  43  65  97 134 173 220 268 324 379
#     4  12  25  42  67  97 135 170 220 271 320 378
#
# _framework density 22.520434000000002
#
# number of rings (size 3 to 8) (size 9 to 14) (size 15 to 20)
#    0.000    0.750    3.750    3.000    1.750    8.000 
#    0.000    3.750    0.000    0.000    0.000    0.000 
#    0.000    0.000    0.000    0.000    0.000    0.000 
#
# Total GULP energy -89372.528403 kJ/mol
# GULP energy per Si atom -5585.783025 kJ/mol
# Density = 2.246918 g / cm^3
# Si number density = 22.520434 Si / 1000 Ang^3
#
#
#
# Elastic Constant Matrix: (Units=GPa)
#
#
# Indices 1 2 3 4 5 6 
#
# 1 71.6919 15.6354 32.4778 -2.0820 13.8254 5.3370
# 2 15.6354 86.0433 27.0516 -11.0357 12.0572 2.9575
# 3 32.4778 27.0516 113.3650 1.2595 24.9971 -6.2314
# 4 -2.0820 -11.0357 1.2595 29.6148 10.6479 -2.0371
# 5 13.8254 12.0572 24.9971 10.6479 37.6294 -5.6522
# 6 5.3370 2.9575 -6.2314 -2.0371 -5.6522 30.1830
#
#
#
# Elastic Compliance Matrix: (Units=1/GPa)
#
#
# Indices 1 2 3 4 5 6 
#
# 1 0.017259 -0.000719 -0.003976 0.002555 -0.004875 -0.004543
# 2 -0.000719 0.014144 -0.002247 0.006992 -0.005085 -0.002203
# 3 -0.003976 -0.002247 0.011826 0.000507 -0.005462 0.002376
# 4 0.002555 0.006992 0.000507 0.042057 -0.015584 -0.001112
# 5 -0.004875 -0.005085 -0.005462 -0.015584 0.039007 0.006486
# 6 -0.004543 -0.002203 0.002376 -0.001112 0.006486 0.035780
#
#
# Mechanical properties :
#
#
# Convention : Reuss Voigt Hill
#
# Bulk Modulus (GPa) = 34.07771 46.82553 40.45162
# Shear Modulus (GPa) = 27.21246 32.54782 29.88014
#
# Velocity S-wave (km/s) = 3.47990 3.80578 3.64648
# Velocity P-wave (km/s) = 5.59562 6.33637 5.97748
#
# Compressibility (1/GPa) = 0.02934470
#
# Stress axis : x y z
#
# Youngs Moduli (GPa) = 57.94041 70.70046 84.56273
#
# Poissons Ratio (x) = 0.05086 0.33623
# Poissons Ratio (y) = 0.04168 0.18998
# Poissons Ratio (z) = 0.23038 0.15884
#
# Static dielectric constant tensor:
#      x y z
#    x 1.941050 0.048670 -0.016970 
#    y 0.048670 0.999860 0.058230 
#    z -0.016970 0.058230 1.804740 
# 
# From -- ./inp_files/452038.got.cif
#   From: 2010.05.17/outbox.cif.g08.bks.cpg/sg2_227_cif.got.tgz:452038.got - 2010.06.03 11:33:40.
