data_PCOD9032091
_publ_section_title
;
Structure prediction by ZEFSAII (Michael W. Deem and Ramdas Pophale) SiO2 
 PCOD9032091
Probable space group: P -1
;
_chemical_formula_sum "Si O2"
_cell_formula_units_Z 16
_cell_length_a 5.481473
_cell_length_b 10.031696
_cell_length_c 13.112689
_cell_angle_alpha 117.304750
_cell_angle_beta 90.492747
_cell_angle_gamma 108.502998
_cell_volume 597.330255
_symmetry_space_group_name_H-M "P -1"
_symmetry_group_IT_number 2
_symmetry_cell_setting 'triclinic'
loop_
_space_group_symop_operation_xyz
x,y,z
-x,-y,-z
loop_
_atom_site_type_symbol
_atom_site_label
_atom_site_fract_x
_atom_site_fract_y
_atom_site_fract_z
Si Si1 0.608348 0.888640 0.391554
Si Si2 0.089961 0.232586 0.138898
Si Si3 0.328601 0.887163 0.048034
Si Si4 0.560590 0.674993 0.660407
Si Si5 0.097229 0.594890 0.269323
Si Si6 0.190110 0.318416 0.536054
Si Si7 0.701906 0.091353 0.273864
Si Si8 0.267352 0.529284 0.948090
O O1 0.772157 0.817516 0.441087
O O2 0.366040 0.736604 0.293326
O O3 0.500000 0.000000 0.500000
O O4 0.760245 0.998026 0.336613
O O5 0.105119 0.417041 0.199622
O O6 0.887034 0.136519 0.192077
O O7 0.358986 0.250614 0.201049
O O8 0.972750 0.153968 0.003429
O O9 0.422495 0.968230 0.184924
O O10 0.368735 0.717444 0.987860
O O11 0.500000 0.000000 0.000000
O O12 0.438408 0.484819 0.605893
O O13 0.797964 0.715858 0.595311
O O14 0.360447 0.750867 0.641268
O O15 0.036973 0.634754 0.397732
O O16 0.849502 0.581088 0.190674
O O17 0.500000 0.500000 0.000000
O O18 0.000000 0.500000 0.000000
#
# Coordination Sequence:
#
# PCOD9032091 Si02
#       8
#     2   2   2   2   2   2   2   2
#     4  12  26  44  64 101 145 179 231 304 361 426
#     4  10  22  43  69  96 126 182 238 283 354 435
#     4   9  22  46  66 104 140 183 239 304 370 426
#     4  11  23  41  70  97 130 184 240 287 353 436
#     4  11  25  43  73  97 140 188 237 294 360 436
#     4  11  25  42  67  99 134 182 237 292 354 435
#     4  11  23  43  65  97 139 173 230 295 365 415
#     4  11  26  49  77 111 146 198 249 298 369 451
#
# _framework density 26.785852999999999
#
# number of rings (size 3 to 8) (size 9 to 14) (size 15 to 20)
#    0.000    1.250    3.750    0.750    5.250    2.500 
#    6.750    0.000    0.000    0.000    0.000    0.000 
#    0.000    0.000    0.000    0.000    0.000    0.000 
#
# Total GULP energy -89616.005584 kJ/mol
# GULP energy per Si atom -5601.000349 kJ/mol
# Density = 2.672489 g / cm^3
# Si number density = 26.785853 Si / 1000 Ang^3
#
#
#
# Elastic Constant Matrix: (Units=GPa)
#
#
# Indices 1 2 3 4 5 6 
#
# 1 73.6335 46.7841 25.7927 -2.3452 8.7743 -2.5278
# 2 46.7841 193.9616 35.6654 -4.0128 8.0985 8.3380
# 3 25.7927 35.6654 126.2085 -7.4173 23.6373 -11.8298
# 4 -2.3452 -4.0128 -7.4173 38.2546 -2.8379 -2.4809
# 5 8.7743 8.0985 23.6373 -2.8379 55.2944 -10.1214
# 6 -2.5278 8.3380 -11.8298 -2.4809 -10.1214 45.1530
#
#
#
# Elastic Compliance Matrix: (Units=1/GPa)
#
#
# Indices 1 2 3 4 5 6 
#
# 1 0.016803 -0.003652 -0.002112 0.000213 -0.001065 0.000835
# 2 -0.003652 0.006333 -0.001169 0.000091 -0.000157 -0.001710
# 3 -0.002112 -0.001169 0.009546 0.001494 -0.003136 0.001978
# 4 0.000213 0.000091 0.001494 0.026668 0.001065 0.002091
# 5 -0.001065 -0.000157 -0.003136 0.001065 0.020362 0.003771
# 6 0.000835 -0.001710 0.001978 0.002091 0.003771 0.023988
#
#
# Mechanical properties :
#
#
# Convention : Reuss Voigt Hill
#
# Bulk Modulus (GPa) = 53.14313 67.80979 60.47646
# Shear Modulus (GPa) = 40.37557 46.77783 43.57670
#
# Velocity S-wave (km/s) = 3.88667 4.18348 4.03780
# Velocity P-wave (km/s) = 6.32650 6.97896 6.66073
#
# Compressibility (1/GPa) = 0.01881711
#
# Stress axis : x y z
#
# Youngs Moduli (GPa) = 59.51335 157.89387 104.75779
#
# Poissons Ratio (x) = 0.57657 0.22123
# Poissons Ratio (y) = 0.21732 0.12247
# Poissons Ratio (z) = 0.12568 0.18459
#
# Static dielectric constant tensor:
#      x y z
#    x 2.150930 0.027110 0.079040 
#    y 0.027110 2.045960 0.026250 
#    z 0.079040 0.026250 2.143980 
# 
# From -- ./inp_files/78043.got.cif
#   From: 2010.05.17/outbox.cif.g08.bks.cpg/sg2_40_cif.got.tgz:78043.got - 2010.06.03 11:33:40.
