data_PCOD9032188
_publ_section_title
;
Structure prediction by ZEFSAII (Michael W. Deem and Ramdas Pophale) SiO2 
 PCOD9032188
Probable space group: P -1
;
_chemical_formula_sum "Si O2"
_cell_formula_units_Z 14
_cell_length_a 8.533168
_cell_length_b 16.878012
_cell_length_c 4.836739
_cell_angle_alpha 102.739886
_cell_angle_beta 111.213346
_cell_angle_gamma 60.010952
_cell_volume 561.779211
_symmetry_space_group_name_H-M "P -1"
_symmetry_group_IT_number 2
_symmetry_cell_setting 'triclinic'
loop_
_space_group_symop_operation_xyz
x,y,z
-x,-y,-z
loop_
_atom_site_type_symbol
_atom_site_label
_atom_site_fract_x
_atom_site_fract_y
_atom_site_fract_z
Si Si1 0.298680 0.695200 0.191756
Si Si2 0.530640 0.257593 0.168717
Si Si3 0.500667 0.911547 0.079769
Si Si4 0.144090 0.031447 0.245134
Si Si5 0.884149 0.424639 0.107886
Si Si6 0.094189 0.148504 0.792837
Si Si7 0.858361 0.615266 0.281947
O O1 0.452754 0.690930 0.508834
O O2 0.098846 0.759925 0.260476
O O3 0.322713 0.742941 0.968347
O O4 0.279997 0.605594 0.027407
O O5 0.566679 0.154478 0.172251
O O6 0.329943 0.312102 0.930475
O O7 0.723582 0.848442 0.217033
O O8 0.359041 0.952084 0.279184
O O9 0.500000 0.000000 0.000000
O O10 0.085207 0.069553 0.541712
O O11 0.131091 0.113586 0.103615
O O12 0.000000 0.000000 0.000000
O O13 0.059689 0.361229 0.372264
O O14 0.821859 0.527581 0.247959
O O15 0.970711 0.415925 0.852478
#
# Coordination Sequence:
#
# PCOD9032188 Si02
#       7
#     2   2   2   2   2   2   2
#     4  12  25  41  64  98 136 173 215 274 333 391
#     4  12  26  42  65  98 134 172 223 275 334 389
#     4  10  24  43  65  91 125 173 225 275 327 391
#     4  11  22  39  61  86 119 157 208 271 327 377
#     4  10  22  43  70 100 134 175 219 263 328 393
#     4  11  23  39  60  85 119 164 212 259 319 385
#     4  10  22  43  71 100 133 175 221 267 317 401
#
# _framework density 24.920822000000001
#
# number of rings (size 3 to 8) (size 9 to 14) (size 15 to 20)
#    0.000    1.143    0.000    6.000    0.000    8.000 
#    0.000    0.000    0.000    0.000    0.000    0.000 
#    0.000    0.000    0.000    0.000    0.000    0.000 
#
# Total GULP energy -78339.535227 kJ/mol
# GULP energy per Si atom -5595.681088 kJ/mol
# Density = 2.486410 g / cm^3
# Si number density = 24.920822 Si / 1000 Ang^3
#
#
#
# Elastic Constant Matrix: (Units=GPa)
#
#
# Indices 1 2 3 4 5 6 
#
# 1 65.4709 33.1944 26.5443 11.2871 4.3737 11.4860
# 2 33.1944 96.0034 38.8154 10.7494 17.2423 26.0383
# 3 26.5443 38.8154 142.1737 7.5344 2.8400 36.9888
# 4 11.2871 10.7494 7.5344 37.8384 8.7925 13.3340
# 5 4.3737 17.2423 2.8400 8.7925 36.7313 9.2628
# 6 11.4860 26.0383 36.9888 13.3340 9.2628 39.4214
#
#
#
# Elastic Compliance Matrix: (Units=1/GPa)
#
#
# Indices 1 2 3 4 5 6 
#
# 1 0.019668 -0.006069 -0.002210 -0.004578 0.001376 0.001577
# 2 -0.006069 0.015624 -0.001431 0.001100 -0.005158 -0.006369
# 3 -0.002210 -0.001431 0.010009 0.001733 0.001979 -0.008853
# 4 -0.004578 0.001100 0.001733 0.032081 -0.005093 -0.010673
# 5 0.001376 -0.005158 0.001979 -0.005093 0.031702 -0.004577
# 6 0.001577 -0.006369 -0.008853 -0.010673 -0.004577 0.042107
#
#
# Mechanical properties :
#
#
# Convention : Reuss Voigt Hill
#
# Bulk Modulus (GPa) = 38.63916 55.63959 47.13938
# Shear Modulus (GPa) = 27.89594 36.47113 32.18353
#
# Velocity S-wave (km/s) = 3.34935 3.82970 3.59755
# Velocity P-wave (km/s) = 5.52231 6.47537 6.01774
#
# Compressibility (1/GPa) = 0.02588048
#
# Stress axis : x y z
#
# Youngs Moduli (GPa) = 50.84444 64.00463 99.91103
#
# Poissons Ratio (x) = 0.38845 0.22084
# Poissons Ratio (y) = 0.30858 0.14294
# Poissons Ratio (z) = 0.11238 0.09157
#
# Static dielectric constant tensor:
#      x y z
#    x 1.985760 -0.001980 0.051480 
#    y -0.001980 2.048270 0.003450 
#    z 0.051480 0.003450 1.953390 
# 
# From -- ./inp_files/40076.got.cif
#   From: 2010.05.17/outbox.cif.g08.bks.cpg/sg2_21_cif.got.tgz:40076.got - 2010.06.03 11:33:40.
