data_PCOD9032222
_publ_section_title
;
Structure prediction by ZEFSAII (Michael W. Deem and Ramdas Pophale) SiO2 
 PCOD9032222
Probable space group: P -1
;
_chemical_formula_sum "Si O2"
_cell_formula_units_Z 15
_cell_length_a 8.555044
_cell_length_b 8.994720
_cell_length_c 14.681960
_cell_angle_alpha 57.408752
_cell_angle_beta 95.189023
_cell_angle_gamma 134.115269
_cell_volume 603.080895
_symmetry_space_group_name_H-M "P -1"
_symmetry_group_IT_number 2
_symmetry_cell_setting 'triclinic'
loop_
_space_group_symop_operation_xyz
x,y,z
-x,-y,-z
loop_
_atom_site_type_symbol
_atom_site_label
_atom_site_fract_x
_atom_site_fract_y
_atom_site_fract_z
Si Si1 0.710163 0.185092 0.826480
Si Si2 0.856436 0.897751 0.209927
Si Si3 0.623075 0.390961 0.610698
Si Si4 0.000000 0.000000 0.500000
Si Si5 0.855899 0.252619 0.002805
Si Si6 0.631989 0.762406 0.861184
Si Si7 0.298491 0.985560 0.567331
Si Si8 0.594075 0.327967 0.307519
O O1 0.745416 0.334386 0.690002
O O2 0.433714 0.989008 0.909986
O O3 0.700013 0.976321 0.862816
O O4 0.884370 0.345860 0.870821
O O5 0.631329 0.775553 0.297688
O O6 0.761529 0.633846 0.248067
O O7 0.920722 0.104276 0.070587
O O8 0.110069 0.085352 0.213980
O O9 0.802804 0.711675 0.522339
O O10 0.530752 0.244199 0.556071
O O11 0.954057 0.135459 0.384090
O O12 0.000000 0.500000 0.000000
O O13 0.471319 0.700812 0.791176
O O14 0.500000 0.500000 0.000000
O O15 0.344495 0.118795 0.426299
O O16 0.304170 0.779681 0.631327
#
# Coordination Sequence:
#
# PCOD9032222 Si02
#       8
#     2   2   2   1   2   2   2   2
#     4  10  23  43  67 101 140 188 243 293 359 433
#     4  11  26  44  72 108 148 189 246 299 367 440
#     4  11  25  48  71 110 146 189 250 303 364 444
#     4  12  26  44  80 102 138 196 244 302 366 430
#     4  10  22  43  70 101 142 189 242 302 356 428
#     4  12  26  46  74 106 149 197 241 301 368 439
#     4  11  26  48  76 108 149 188 253 305 367 442
#     4  11  26  48  72 111 148 195 240 309 371 431
#
# _framework density 24.872282999999999
#
# number of rings (size 3 to 8) (size 9 to 14) (size 15 to 20)
#    0.000    1.067    2.667    2.000    3.733    7.467 
#    0.000    2.667    0.000    0.000    0.000    0.000 
#    0.000    0.000    0.000    0.000    0.000    0.000 
#
# Total GULP energy -83755.863228 kJ/mol
# GULP energy per Si atom -5583.724215 kJ/mol
# Density = 2.481567 g / cm^3
# Si number density = 24.872283 Si / 1000 Ang^3
#
#
#
# Elastic Constant Matrix: (Units=GPa)
#
#
# Indices 1 2 3 4 5 6 
#
# 1 84.5041 38.8443 24.6554 -3.9061 35.7329 -0.5898
# 2 38.8443 136.4492 49.3045 9.4563 29.2113 -6.3630
# 3 24.6554 49.3045 97.3615 9.8489 34.3748 -2.9738
# 4 -3.9061 9.4563 9.8489 41.5336 1.0096 6.5788
# 5 35.7329 29.2113 34.3748 1.0096 45.8529 -5.9349
# 6 -0.5898 -6.3630 -2.9738 6.5788 -5.9349 44.0443
#
#
#
# Elastic Compliance Matrix: (Units=1/GPa)
#
#
# Indices 1 2 3 4 5 6 
#
# 1 0.019034 -0.003213 0.001478 0.002909 -0.014278 -0.002468
# 2 -0.003213 0.009953 -0.003694 -0.001879 -0.000857 0.001311
# 3 0.001478 -0.003694 0.015743 -0.002413 -0.010615 -0.000521
# 4 0.002909 -0.001879 -0.002413 0.026047 -0.000396 -0.004339
# 5 -0.014278 -0.000857 -0.010615 -0.000396 0.042056 0.004695
# 6 -0.002468 0.001311 -0.000521 -0.004339 0.004695 0.024106
#
#
# Mechanical properties :
#
#
# Convention : Reuss Voigt Hill
#
# Bulk Modulus (GPa) = 29.52195 60.43590 44.97893
# Shear Modulus (GPa) = 31.42918 39.98688 35.70803
#
# Velocity S-wave (km/s) = 3.55860 4.01395 3.79312
# Velocity P-wave (km/s) = 5.36471 6.77005 6.10793
#
# Compressibility (1/GPa) = 0.03387310
#
# Stress axis : x y z
#
# Youngs Moduli (GPa) = 52.53755 100.47349 63.51873
#
# Poissons Ratio (x) = 0.32280 -0.09390
# Poissons Ratio (y) = 0.16879 0.23464
# Poissons Ratio (z) = -0.07766 0.37116
#
# Static dielectric constant tensor:
#      x y z
#    x 1.704460 -0.035560 0.062010 
#    y -0.035560 1.900000 0.027430 
#    z 0.062010 0.027430 1.965730 
# 
# From -- ./inp_files/494513.got.cif
#   From: 2010.05.17/outbox.cif.g08.bks.cpg/sg2_248_cif.got.tgz:494513.got - 2010.06.03 11:33:40.
