data_PCOD9032127
_publ_section_title
;
Structure prediction by ZEFSAII (Michael W. Deem and Ramdas Pophale) SiO2 
 PCOD9032127
Probable space group: P -1
;
_chemical_formula_sum "Si O2"
_cell_formula_units_Z 16
_cell_length_a 12.774121
_cell_length_b 7.822237
_cell_length_c 13.764234
_cell_angle_alpha 87.432883
_cell_angle_beta 137.791602
_cell_angle_gamma 121.433093
_cell_volume 633.239148
_symmetry_space_group_name_H-M "P -1"
_symmetry_group_IT_number 2
_symmetry_cell_setting 'triclinic'
loop_
_space_group_symop_operation_xyz
x,y,z
-x,-y,-z
loop_
_atom_site_type_symbol
_atom_site_label
_atom_site_fract_x
_atom_site_fract_y
_atom_site_fract_z
Si Si1 0.972566 0.381416 0.086872
Si Si2 0.283642 0.759973 0.621210
Si Si3 0.501733 0.198375 0.527970
Si Si4 0.584365 0.193185 0.964852
Si Si5 0.860273 0.908623 0.004841
Si Si6 0.111621 0.047269 0.372531
Si Si7 0.446149 0.600863 0.625711
Si Si8 0.814807 0.562010 0.269977
O O1 0.233522 0.550214 0.284146
O O2 0.824477 0.358517 0.068033
O O3 0.842856 0.098686 0.999009
O O4 0.000000 0.500000 0.000000
O O5 0.409283 0.771363 0.618891
O O6 0.288640 0.594899 0.699199
O O7 0.033741 0.608011 0.415918
O O8 0.399862 0.003282 0.758468
O O9 0.332246 0.102592 0.503016
O O10 0.428393 0.278962 0.394429
O O11 0.500000 0.000000 0.500000
O O12 0.640392 0.402524 0.064691
O O13 0.500000 0.000000 0.000000
O O14 0.971292 0.930473 0.178573
O O15 0.612623 0.639975 0.814168
O O16 0.000000 0.000000 0.000000
O O17 0.214167 0.312677 0.461612
O O18 0.939916 0.842351 0.341345
#
# Coordination Sequence:
#
# PCOD9032127 Si02
#       8
#     2   2   2   2   2   2   2   2
#     4  12  25  40  69 105 130 172 232 278 336 403
#     4  10  22  44  72  96 124 180 228 283 334 399
#     4  12  24  42  66  97 136 174 224 279 337 402
#     4  10  22  43  69  98 133 171 225 286 333 392
#     4  12  25  43  63  94 137 181 219 274 344 408
#     4  12  26  43  63 100 141 175 217 281 350 407
#     4  12  23  42  67  93 137 178 221 272 346 408
#     4  10  24  43  69  98 132 171 233 280 334 406
#
# _framework density 25.266915000000001
#
# number of rings (size 3 to 8) (size 9 to 14) (size 15 to 20)
#    0.000    0.750    3.750    4.125    3.500    1.500 
#    0.000    0.625    0.000    0.000    0.000    0.000 
#    0.000    0.000    0.000    0.000    0.000    0.000 
#
# Total GULP energy -89268.627656 kJ/mol
# GULP energy per Si atom -5579.289229 kJ/mol
# Density = 2.520941 g / cm^3
# Si number density = 25.266915 Si / 1000 Ang^3
#
#
#
# Elastic Constant Matrix: (Units=GPa)
#
#
# Indices 1 2 3 4 5 6 
#
# 1 39.8557 -6.0286 7.3735 -2.6784 -4.4067 8.8698
# 2 -6.0286 104.0947 31.6419 14.3159 -14.3949 20.7555
# 3 7.3735 31.6419 135.1110 3.3528 -14.9447 9.0814
# 4 -2.6784 14.3159 3.3528 33.3955 0.1767 -4.2718
# 5 -4.4067 -14.3949 -14.9447 0.1767 32.3176 6.2565
# 6 8.8698 20.7555 9.0814 -4.2718 6.2565 39.6711
#
#
#
# Elastic Compliance Matrix: (Units=1/GPa)
#
#
# Indices 1 2 3 4 5 6 
#
# 1 0.029256 0.005418 -0.001264 -0.001228 0.007849 -0.010457
# 2 0.005418 0.014778 -0.001924 -0.007110 0.008525 -0.010613
# 3 -0.001264 -0.001924 0.008341 -0.000275 0.003048 -0.001131
# 4 -0.001228 -0.007110 -0.000275 0.034044 -0.005305 0.008560
# 5 0.007849 0.008525 0.003048 -0.005305 0.039916 -0.013779
# 6 -0.010457 -0.010613 -0.001131 0.008560 -0.013779 0.036451
#
#
# Mechanical properties :
#
#
# Convention : Reuss Voigt Hill
#
# Bulk Modulus (GPa) = 17.59475 38.33722 27.96599
# Shear Modulus (GPa) = 28.20528 37.48182 32.84355
#
# Velocity S-wave (km/s) = 3.34472 3.85572 3.60927
# Velocity P-wave (km/s) = 4.67920 5.91844 5.33492
#
# Compressibility (1/GPa) = 0.05683513
#
# Stress axis : x y z
#
# Youngs Moduli (GPa) = 34.18073 67.66834 119.89237
#
# Poissons Ratio (x) = -0.36662 0.15154
# Poissons Ratio (y) = -0.18519 0.23065
# Poissons Ratio (z) = 0.04320 0.13018
#
# Static dielectric constant tensor:
#      x y z
#    x 1.626130 0.112100 0.009990 
#    y 0.112100 2.210850 0.117800 
#    z 0.009990 0.117800 2.231850 
# 
# From -- ./inp_files/390227.got.cif
#   From: 2010.05.17/outbox.cif.g08.bks.cpg/sg2_196_cif.got.tgz:390227.got - 2010.06.03 11:33:40.
