data_PCOD9032576
_publ_section_title
;
Structure prediction by ZEFSAII (Michael W. Deem and Ramdas Pophale) SiO2 
 PCOD9032576
Probable space group: P -1
;
_chemical_formula_sum "Si O2"
_cell_formula_units_Z 16
_cell_length_a 17.627991
_cell_length_b 5.174233
_cell_length_c 17.557475
_cell_angle_alpha 63.939537
_cell_angle_beta 145.830099
_cell_angle_gamma 115.134606
_cell_volume 802.022681
_symmetry_space_group_name_H-M "P -1"
_symmetry_group_IT_number 2
_symmetry_cell_setting 'triclinic'
loop_
_space_group_symop_operation_xyz
x,y,z
-x,-y,-z
loop_
_atom_site_type_symbol
_atom_site_label
_atom_site_fract_x
_atom_site_fract_y
_atom_site_fract_z
Si Si1 0.558491 0.258351 0.735897
Si Si2 0.125321 0.554286 0.852224
Si Si3 0.453309 0.866949 0.560253
Si Si4 0.817408 0.048710 0.018211
Si Si5 0.479579 0.046771 0.093657
Si Si6 0.332096 0.622328 0.900315
Si Si7 0.907887 0.708890 0.853145
Si Si8 0.835824 0.302661 0.718310
O O1 0.529360 0.586463 0.675144
O O2 0.485340 0.100882 0.622937
O O3 0.517558 0.080537 0.802559
O O4 0.719482 0.231963 0.866467
O O5 0.183656 0.835618 0.911714
O O6 0.970632 0.450396 0.765045
O O7 0.211492 0.289154 0.980049
O O8 0.175006 0.599179 0.800567
O O9 0.293154 0.756415 0.435369
O O10 0.500000 0.000000 0.500000
O O11 0.974623 0.119568 0.122015
O O12 0.386926 0.311338 0.978758
O O13 0.420990 0.795521 0.018900
O O14 0.625255 0.192119 0.163584
O O15 0.810540 0.516830 0.739042
O O16 0.851745 0.983507 0.809614
O O17 0.000000 0.500000 0.000000
#
# Coordination Sequence:
#
# PCOD9032576 Si02
#       8
#     2   2   2   2   2   2   2   2
#     4  12  22  40  59  80 116 148 193 228 276 334
#     4  10  17  35  56  80 116 138 172 222 278 332
#     4  12  28  41  58  75 110 163 194 237 265 320
#     4  10  20  31  55  86 103 143 175 222 286 323
#     4  10  20  31  55  87 119 142 174 224 276 351
#     4  10  17  32  54  89 120 140 169 219 294 336
#     4  10  21  35  58  78 106 131 174 246 285 334
#     4  10  23  39  52  79 106 143 192 217 278 332
#
# _framework density 19.949562
#
# number of rings (size 3 to 8) (size 9 to 14) (size 15 to 20)
#    0.000    1.500    2.500    3.000    3.500    0.000 
#    0.000    0.000    0.000    1.500    0.000    0.000 
#    0.000    0.000    0.000    0.000    0.000    0.000 
#
# Total GULP energy -89126.931948 kJ/mol
# GULP energy per Si atom -5570.433247 kJ/mol
# Density = 1.990416 g / cm^3
# Si number density = 19.949562 Si / 1000 Ang^3
#
#
#
# Elastic Constant Matrix: (Units=GPa)
#
#
# Indices 1 2 3 4 5 6 
#
# 1 67.6740 23.0098 1.8124 2.8264 -10.0250 9.1963
# 2 23.0098 100.4987 3.0202 -3.7960 0.9303 -8.9692
# 3 1.8124 3.0202 44.7954 9.0810 4.2959 3.6750
# 4 2.8264 -3.7960 9.0810 31.9672 2.1820 -4.7892
# 5 -10.0250 0.9303 4.2959 2.1820 23.0656 2.3392
# 6 9.1963 -8.9692 3.6750 -4.7892 2.3392 23.6503
#
#
#
# Elastic Compliance Matrix: (Units=1/GPa)
#
#
# Indices 1 2 3 4 5 6 
#
# 1 0.020330 -0.006085 0.000656 -0.005303 0.010724 -0.012449
# 2 -0.006085 0.012348 -0.001717 0.004049 -0.004072 0.008538
# 3 0.000656 -0.001717 0.024818 -0.008029 -0.002890 -0.006103
# 4 -0.005303 0.004049 -0.008029 0.036835 -0.005763 0.012875
# 5 0.010724 -0.004072 -0.002890 -0.005763 0.050421 -0.011419
# 6 -0.012449 0.008538 -0.006103 0.012875 -0.011419 0.055047
#
#
# Mechanical properties :
#
#
# Convention : Reuss Voigt Hill
#
# Bulk Modulus (GPa) = 23.14629 29.85030 26.49830
# Shear Modulus (GPa) = 21.88253 28.07835 24.98044
#
# Velocity S-wave (km/s) = 3.31553 3.75569 3.54245
# Velocity P-wave (km/s) = 5.12685 5.81398 5.48119
#
# Compressibility (1/GPa) = 0.04320347
#
# Stress axis : x y z
#
# Youngs Moduli (GPa) = 49.18847 80.98575 40.29263
#
# Poissons Ratio (x) = 0.49280 -0.02642
# Poissons Ratio (y) = 0.29931 0.06919
# Poissons Ratio (z) = -0.03226 0.13907
#
# Static dielectric constant tensor:
#      x y z
#    x 1.806880 0.035920 0.046960 
#    y 0.035920 1.778480 -0.004500 
#    z 0.046960 -0.004500 1.692440 
# 
# From -- ./inp_files/574774.got.cif
#   From: 2010.05.17/outbox.cif.g08.bks.cpg/sg2_288_cif.got.tgz:574774.got - 2010.06.03 11:33:40.
