data_PCOD9032326
_publ_section_title
;
Structure prediction by ZEFSAII (Michael W. Deem and Ramdas Pophale) SiO2 
 PCOD9032326
Probable space group: P -1
;
_chemical_formula_sum "Si O2"
_cell_formula_units_Z 14
_cell_length_a 11.207409
_cell_length_b 10.633346
_cell_length_c 11.495554
_cell_angle_alpha 152.241564
_cell_angle_beta 74.961369
_cell_angle_gamma 107.961938
_cell_volume 606.671469
_symmetry_space_group_name_H-M "P -1"
_symmetry_group_IT_number 2
_symmetry_cell_setting 'triclinic'
loop_
_space_group_symop_operation_xyz
x,y,z
-x,-y,-z
loop_
_atom_site_type_symbol
_atom_site_label
_atom_site_fract_x
_atom_site_fract_y
_atom_site_fract_z
Si Si1 0.938426 0.770515 0.417314
Si Si2 0.408556 0.211190 0.666126
Si Si3 0.307928 0.147740 0.386368
Si Si4 0.266966 0.690933 0.868804
Si Si5 0.169728 0.945669 0.879973
Si Si6 0.643089 0.647495 0.957040
Si Si7 0.127726 0.538522 0.346235
O O1 0.844059 0.905207 0.633307
O O2 0.834565 0.508994 0.187158
O O3 0.040598 0.648057 0.363934
O O4 0.000000 0.000000 0.500000
O O5 0.338934 0.111913 0.483866
O O6 0.500633 0.502381 0.861607
O O7 0.500000 0.000000 0.500000
O O8 0.330310 0.259036 0.839573
O O9 0.343724 0.469679 0.613576
O O10 0.351000 0.930771 0.114003
O O11 0.189189 0.812598 0.888850
O O12 0.124057 0.713913 0.606807
O O13 0.099803 0.210318 0.109727
O O14 0.309506 0.091109 0.920784
O O15 0.732464 0.434808 0.720937
#
# Coordination Sequence:
#
# PCOD9032326 Si02
#       7
#     2   2   2   2   2   2   2
#     4  10  26  41  66  97 140 174 215 268 336 388
#     4  11  23  43  68  95 134 170 223 270 332 389
#     4  10  26  42  66  96 132 176 217 269 334 387
#     4  10  24  46  64  98 136 177 216 272 326 387
#     4  10  22  43  70  97 133 172 229 264 319 393
#     4   9  24  38  70  98 125 168 222 274 320 381
#     4  10  23  41  68  99 130 174 223 268 322 389
#
# _framework density 23.076740000000001
#
# number of rings (size 3 to 8) (size 9 to 14) (size 15 to 20)
#    1.714    0.286    0.000    1.714   10.000    1.714 
#    0.000    1.429    0.000    0.000    0.000    0.000 
#    0.000    0.000    0.000    0.000    0.000    0.000 
#
# Total GULP energy -78057.241017 kJ/mol
# GULP energy per Si atom -5575.517216 kJ/mol
# Density = 2.302422 g / cm^3
# Si number density = 23.076740 Si / 1000 Ang^3
#
#
#
# Elastic Constant Matrix: (Units=GPa)
#
#
# Indices 1 2 3 4 5 6 
#
# 1 29.8278 27.0380 22.1885 1.6715 -13.9220 -10.5522
# 2 27.0380 119.2943 57.8531 21.1478 -2.9672 -18.7741
# 3 22.1885 57.8531 191.4163 6.8052 2.9505 -21.0157
# 4 1.6715 21.1478 6.8052 35.2023 -1.1109 1.8645
# 5 -13.9220 -2.9672 2.9505 -1.1109 19.6577 9.1865
# 6 -10.5522 -18.7741 -21.0157 1.8645 9.1865 44.6816
#
#
#
# Elastic Compliance Matrix: (Units=1/GPa)
#
#
# Indices 1 2 3 4 5 6 
#
# 1 0.074279 -0.014655 -0.005551 0.008146 0.052821 -0.002427
# 2 -0.014655 0.014407 -0.001738 -0.008177 -0.010393 0.004253
# 3 -0.005551 -0.001738 0.006775 -0.000335 -0.006385 0.002472
# 4 0.008146 -0.008177 -0.000335 0.033531 0.008755 -0.004869
# 5 0.052821 -0.010393 -0.006385 0.008755 0.095085 -0.014810
# 6 -0.002427 0.004253 0.002472 -0.004869 -0.014810 0.028005
#
#
# Mechanical properties :
#
#
# Convention : Reuss Voigt Hill
#
# Bulk Modulus (GPa) = 19.39010 61.63305 40.51158
# Shear Modulus (GPa) = 15.96616 35.47223 25.71920
#
# Velocity S-wave (km/s) = 2.63320 3.92489 3.34205
# Velocity P-wave (km/s) = 4.20306 6.87790 5.69962
#
# Compressibility (1/GPa) = 0.05157270
#
# Stress axis : x y z
#
# Youngs Moduli (GPa) = 13.46273 69.40884 147.61053
#
# Poissons Ratio (x) = 1.01721 0.81939
# Poissons Ratio (y) = 0.19730 0.25651
# Poissons Ratio (z) = 0.07473 0.12062
#
# Static dielectric constant tensor:
#      x y z
#    x 1.911580 0.043070 -0.012560 
#    y 0.043070 1.850080 0.030720 
#    z -0.012560 0.030720 1.927350 
# 
# From -- ./inp_files/427122.got.cif
#   From: 2010.05.17/outbox.cif.g08.bks.cpg/sg2_214_cif.got.tgz:427122.got - 2010.06.03 11:33:40.
