data_PCOD9032709
_publ_section_title
;
Structure prediction by ZEFSAII (Michael W. Deem and Ramdas Pophale) SiO2 
 PCOD9032709
Probable space group: P -1
;
_chemical_formula_sum "Si O2"
_cell_formula_units_Z 14
_cell_length_a 8.889032
_cell_length_b 7.956379
_cell_length_c 16.574691
_cell_angle_alpha 100.197334
_cell_angle_beta 30.125398
_cell_angle_gamma 88.924620
_cell_volume 542.854616
_symmetry_space_group_name_H-M "P -1"
_symmetry_group_IT_number 2
_symmetry_cell_setting 'triclinic'
loop_
_space_group_symop_operation_xyz
x,y,z
-x,-y,-z
loop_
_atom_site_type_symbol
_atom_site_label
_atom_site_fract_x
_atom_site_fract_y
_atom_site_fract_z
Si Si1 0.168207 0.746420 0.623951
Si Si2 0.731169 0.146836 0.583646
Si Si3 0.372402 0.949170 0.817998
Si Si4 0.345291 0.325148 0.472260
Si Si5 0.653963 0.538726 0.123628
Si Si6 0.310347 0.692813 0.148068
Si Si7 0.540773 0.193475 0.065570
O O1 0.194765 0.864250 0.544869
O O2 0.321036 0.534122 0.507447
O O3 0.361624 0.777690 0.612805
O O4 0.806416 0.762898 0.809162
O O5 0.634618 0.354978 0.673534
O O6 0.426707 0.096965 0.745655
O O7 0.000000 0.000000 0.500000
O O8 0.566198 0.763035 0.664471
O O9 0.467017 0.935917 0.867064
O O10 0.000000 0.000000 0.000000
O O11 0.017734 0.307737 0.658253
O O12 0.561623 0.679759 0.102490
O O13 0.611215 0.356262 0.094425
O O14 0.000000 0.500000 0.000000
O O15 0.500000 0.500000 0.000000
O O16 0.244962 0.837253 0.117286
#
# Coordination Sequence:
#
# PCOD9032709 Si02
#       7
#     2   2   2   2   2   2   2
#     4  11  25  44  78 110 141 191 249 310 367 436
#     4  12  26  44  70 108 152 192 245 301 381 439
#     4  12  28  49  68 106 149 201 241 298 370 451
#     4  11  25  49  79 106 146 188 255 305 369 433
#     4  11  24  42  75 104 143 193 247 306 359 434
#     4  10  22  43  73 110 140 180 243 317 360 418
#     4  11  24  47  73 105 148 187 254 301 361 437
#
# _framework density 25.789596
#
# number of rings (size 3 to 8) (size 9 to 14) (size 15 to 20)
#    0.000    0.857    4.286    2.571    6.000    4.000 
#    2.571    1.429    0.000    0.000    0.000    0.000 
#    0.000    0.000    0.000    0.000    0.000    0.000 
#
# Total GULP energy -78266.997763 kJ/mol
# GULP energy per Si atom -5590.499840 kJ/mol
# Density = 2.573090 g / cm^3
# Si number density = 25.789596 Si / 1000 Ang^3
#
#
#
# Elastic Constant Matrix: (Units=GPa)
#
#
# Indices 1 2 3 4 5 6 
#
# 1 165.5290 36.9058 70.6170 -19.7187 2.7925 -21.6593
# 2 36.9058 108.4590 25.9889 -13.6842 10.2016 -5.7331
# 3 70.6170 25.9889 161.9068 -17.3453 1.1056 -6.0991
# 4 -19.7187 -13.6842 -17.3453 44.1326 -2.3028 15.4669
# 5 2.7925 10.2016 1.1056 -2.3028 60.9806 -5.5103
# 6 -21.6593 -5.7331 -6.0991 15.4669 -5.5103 47.1921
#
#
#
# Elastic Compliance Matrix: (Units=1/GPa)
#
#
# Indices 1 2 3 4 5 6 
#
# 1 0.008254 -0.001824 -0.003104 0.000900 0.000280 0.002904
# 2 -0.001824 0.010403 -0.000641 0.002282 -0.001613 -0.000593
# 3 -0.003104 -0.000641 0.007791 0.001865 0.000079 -0.001097
# 4 0.000900 0.002282 0.001865 0.027311 -0.000152 -0.008037
# 5 0.000280 -0.001613 0.000079 -0.000152 0.016825 0.001957
# 6 0.002904 -0.000593 -0.001097 -0.008037 0.001957 0.025171
#
#
# Mechanical properties :
#
#
# Convention : Reuss Voigt Hill
#
# Bulk Modulus (GPa) = 65.31573 78.10204 71.70889
# Shear Modulus (GPa) = 44.64426 50.61992 47.63209
#
# Velocity S-wave (km/s) = 4.16516 4.43516 4.30228
# Velocity P-wave (km/s) = 6.96511 7.52181 7.24881
#
# Compressibility (1/GPa) = 0.01531025
#
# Stress axis : x y z
#
# Youngs Moduli (GPa) = 121.14770 96.12866 128.35559
#
# Poissons Ratio (x) = 0.17538 0.39835
# Poissons Ratio (y) = 0.22102 0.08227
# Poissons Ratio (z) = 0.37598 0.06161
#
# Static dielectric constant tensor:
#      x y z
#    x 2.046050 -0.013610 0.006230 
#    y -0.013610 2.220890 0.048690 
#    z 0.006230 0.048690 2.020420 
# 
# From -- ./inp_files/555354.got.cif
#   From: 2010.05.17/outbox.cif.g08.bks.cpg/sg2_278_cif.got.tgz:555354.got - 2010.06.03 11:33:40.
