data_PCOD9032234
_publ_section_title
;
Structure prediction by ZEFSAII (Michael W. Deem and Ramdas Pophale) SiO2 
 PCOD9032234
Probable space group: P -1
;
_chemical_formula_sum "Si O2"
_cell_formula_units_Z 14
_cell_length_a 11.117084
_cell_length_b 12.025790
_cell_length_c 9.350571
_cell_angle_alpha 50.186535
_cell_angle_beta 119.908410
_cell_angle_gamma 144.525791
_cell_volume 556.530546
_symmetry_space_group_name_H-M "P -1"
_symmetry_group_IT_number 2
_symmetry_cell_setting 'triclinic'
loop_
_space_group_symop_operation_xyz
x,y,z
-x,-y,-z
loop_
_atom_site_type_symbol
_atom_site_label
_atom_site_fract_x
_atom_site_fract_y
_atom_site_fract_z
Si Si1 0.265818 0.884023 0.939024
Si Si2 0.195356 0.086512 0.954679
Si Si3 0.494500 0.665803 0.827083
Si Si4 0.284564 0.754388 0.539552
Si Si5 0.221834 0.296332 0.544787
Si Si6 0.746905 0.910532 0.491866
Si Si7 0.129245 0.538000 0.322872
O O1 0.187429 0.952031 0.943464
O O2 0.254175 0.947089 0.724135
O O3 0.500000 0.000000 0.000000
O O4 0.122060 0.639267 0.101953
O O5 0.272844 0.281541 0.745217
O O6 0.363179 0.161753 0.104935
O O7 0.000000 0.000000 0.000000
O O8 0.284374 0.593965 0.746389
O O9 0.598771 0.785896 0.640606
O O10 0.500000 0.500000 0.000000
O O11 0.242378 0.703335 0.388139
O O12 0.089210 0.679689 0.558714
O O13 0.500000 0.000000 0.500000
O O14 0.318936 0.272674 0.499952
O O15 0.247760 0.486258 0.388644
O O16 0.977300 0.070372 0.560119
#
# Coordination Sequence:
#
# PCOD9032234 Si02
#       7
#     2   2   2   2   2   2   2
#     4  11  26  46  72 105 149 197 244 307 379 445
#     4  11  24  43  74 100 142 193 246 304 373 439
#     4  12  25  41  71 104 138 182 250 305 359 439
#     4  11  25  44  70 112 147 186 242 313 372 432
#     4  10  22  43  70 102 138 192 239 296 369 448
#     4  10  23  44  67  99 150 189 238 301 370 444
#     4  11  25  44  76 104 149 193 247 303 376 444
#
# _framework density 25.155850000000001
#
# number of rings (size 3 to 8) (size 9 to 14) (size 15 to 20)
#    0.000    1.143    1.429    3.429    6.000    2.857 
#    0.000    3.571    0.000    0.000    0.000    0.000 
#    0.000    0.000    0.000    0.000    0.000    0.000 
#
# Total GULP energy -78363.815416 kJ/mol
# GULP energy per Si atom -5597.415387 kJ/mol
# Density = 2.509859 g / cm^3
# Si number density = 25.155850 Si / 1000 Ang^3
#
#
#
# Elastic Constant Matrix: (Units=GPa)
#
#
# Indices 1 2 3 4 5 6 
#
# 1 102.6013 26.7448 40.6513 -1.3537 3.3996 -6.3314
# 2 26.7448 83.7545 33.6174 1.7663 -16.1913 -6.0035
# 3 40.6513 33.6174 191.8460 3.4893 -2.8311 -22.1521
# 4 -1.3537 1.7663 3.4893 47.4956 -5.1754 5.5195
# 5 3.3996 -16.1913 -2.8311 -5.1754 44.0388 -2.8433
# 6 -6.3314 -6.0035 -22.1521 5.5195 -2.8433 45.2812
#
#
#
# Elastic Compliance Matrix: (Units=1/GPa)
#
#
# Indices 1 2 3 4 5 6 
#
# 1 0.011435 -0.003325 -0.001872 0.000342 -0.002181 0.000064
# 2 -0.003325 0.014853 -0.001695 -0.000025 0.005672 0.001035
# 3 -0.001872 -0.001695 0.006226 -0.000755 0.000004 0.002652
# 4 0.000342 -0.000025 -0.000755 0.021698 0.002283 -0.002826
# 5 -0.002181 0.005672 0.000004 0.002283 0.025344 0.001762
# 6 0.000064 0.001035 0.002652 -0.002826 0.001762 0.023983
#
#
# Mechanical properties :
#
#
# Convention : Reuss Voigt Hill
#
# Bulk Modulus (GPa) = 53.38295 64.46985 58.92640
# Shear Modulus (GPa) = 40.46484 45.84235 43.15360
#
# Velocity S-wave (km/s) = 4.01504 4.27351 4.14629
# Velocity P-wave (km/s) = 6.53919 7.07350 6.81159
#
# Compressibility (1/GPa) = 0.01873257
#
# Stress axis : x y z
#
# Youngs Moduli (GPa) = 87.44825 67.32780 160.61599
#
# Poissons Ratio (x) = 0.22384 0.30060
# Poissons Ratio (y) = 0.29073 0.27217
# Poissons Ratio (z) = 0.16366 0.11409
#
# Static dielectric constant tensor:
#      x y z
#    x 2.066970 -0.017660 0.032720 
#    y -0.017660 2.050950 -0.026900 
#    z 0.032720 -0.026900 1.917690 
# 
# From -- ./inp_files/261782.got.cif
#   From: 2010.05.17/outbox.cif.g08.bks.cpg/sg2_131_cif.got.tgz:261782.got - 2010.06.03 11:33:40.
