data_PCOD9032136
_publ_section_title
;
Structure prediction by ZEFSAII (Michael W. Deem and Ramdas Pophale) SiO2 
 PCOD9032136
Probable space group: P -1
;
_chemical_formula_sum "Si O2"
_cell_formula_units_Z 16
_cell_length_a 26.388304
_cell_length_b 5.404409
_cell_length_c 11.678551
_cell_angle_alpha 114.557163
_cell_angle_beta 150.024092
_cell_angle_gamma 57.620201
_cell_volume 698.147504
_symmetry_space_group_name_H-M "P -1"
_symmetry_group_IT_number 2
_symmetry_cell_setting 'triclinic'
loop_
_space_group_symop_operation_xyz
x,y,z
-x,-y,-z
loop_
_atom_site_type_symbol
_atom_site_label
_atom_site_fract_x
_atom_site_fract_y
_atom_site_fract_z
Si Si1 0.770004 0.700452 0.426604
Si Si2 0.579473 0.673575 0.705630
Si Si3 0.897664 0.432363 0.836446
Si Si4 0.711919 0.288204 0.071660
Si Si5 0.048868 0.148287 0.529243
Si Si6 0.438135 0.768805 0.845751
Si Si7 0.970302 0.799657 0.752764
Si Si8 0.472603 0.288100 0.637767
O O1 0.796731 0.640454 0.602629
O O2 0.723638 0.472786 0.238815
O O3 0.880072 0.655399 0.561435
O O4 0.680763 0.026747 0.300212
O O5 0.500000 0.500000 0.500000
O O6 0.595127 0.723407 0.611121
O O7 0.504728 0.960503 0.689437
O O8 0.690230 0.492387 0.955362
O O9 0.915859 0.099949 0.775917
O O10 0.000000 0.500000 0.000000
O O11 0.917063 0.415706 0.007707
O O12 0.820077 0.995388 0.224169
O O13 0.598536 0.246113 0.850808
O O14 0.020377 0.088393 0.332964
O O15 0.000000 0.500000 0.500000
O O16 0.000000 0.000000 0.500000
O O17 0.425058 0.588442 0.673546
O O18 0.500000 0.500000 0.000000
O O19 0.500000 0.000000 0.000000
#
# Coordination Sequence:
#
# PCOD9032136 Si02
#       8
#     2   2   2   2   2   2   2   2
#     4  11  22  40  73 104 141 188 234 289 361 433
#     4   9  21  41  69  96 129 194 233 279 346 419
#     4   9  20  40  70  96 130 187 229 281 348 440
#     4  11  22  41  73  93 133 181 234 276 366 420
#     4  12  28  45  69 104 139 176 236 305 349 417
#     4  12  27  42  67 113 149 178 238 299 355 415
#     4  10  22  43  69  98 136 183 233 284 364 429
#     4  10  22  43  69  98 141 183 233 289 346 431
#
# _framework density 22.917795000000002
#
# number of rings (size 3 to 8) (size 9 to 14) (size 15 to 20)
#    0.000    1.500    2.500    1.500   10.500    0.000 
#    2.250    0.000    0.000    0.000    0.000    0.000 
#    0.000    0.000    0.000    0.000    0.000    0.000 
#
# Total GULP energy -89218.284242 kJ/mol
# GULP energy per Si atom -5576.142765 kJ/mol
# Density = 2.286563 g / cm^3
# Si number density = 22.917795 Si / 1000 Ang^3
#
#
#
# Elastic Constant Matrix: (Units=GPa)
#
#
# Indices 1 2 3 4 5 6 
#
# 1 67.5885 15.6860 34.7432 -7.5148 -20.3290 8.5123
# 2 15.6860 130.7697 39.1684 -14.1018 0.2831 -2.2928
# 3 34.7432 39.1684 130.0737 -23.6900 -27.6867 3.1119
# 4 -7.5148 -14.1018 -23.6900 51.6452 13.0157 -2.8624
# 5 -20.3290 0.2831 -27.6867 13.0157 27.9753 -6.6202
# 6 8.5123 -2.2928 3.1119 -2.8624 -6.6202 34.3200
#
#
#
# Elastic Compliance Matrix: (Units=1/GPa)
#
#
# Indices 1 2 3 4 5 6 
#
# 1 0.020485 -0.002022 -0.002449 -0.002072 0.012809 -0.002696
# 2 -0.002022 0.009026 -0.002930 0.002207 -0.005365 0.000519
# 3 -0.002449 -0.002930 0.011457 0.001900 0.009005 0.001268
# 4 -0.002072 0.002207 0.001900 0.023161 -0.010322 0.000430
# 5 0.012809 -0.005365 0.009005 -0.010322 0.060343 0.006427
# 6 -0.002696 0.000519 0.001268 0.000430 0.006427 0.031002
#
#
# Mechanical properties :
#
#
# Convention : Reuss Voigt Hill
#
# Bulk Modulus (GPa) = 38.21892 56.40299 47.31096
# Shear Modulus (GPa) = 27.93317 38.71039 33.32178
#
# Velocity S-wave (km/s) = 3.49498 4.11432 3.81723
# Velocity P-wave (km/s) = 5.74450 6.87274 6.33379
#
# Compressibility (1/GPa) = 0.02616505
#
# Stress axis : x y z
#
# Youngs Moduli (GPa) = 48.81502 110.79168 87.28383
#
# Poissons Ratio (x) = 0.22403 0.21379
# Poissons Ratio (y) = 0.09871 0.25576
# Poissons Ratio (z) = 0.11957 0.32464
#
# Static dielectric constant tensor:
#      x y z
#    x 2.065110 0.091320 -0.075040 
#    y 0.091320 2.125240 0.063960 
#    z -0.075040 0.063960 1.921940 
# 
# From -- ./inp_files/477370.got.cif
#   From: 2010.05.17/outbox.cif.g08.bks.cpg/sg2_239_cif.got.tgz:477370.got - 2010.06.03 11:33:40.
