data_PCOD9032801
_publ_section_title
;
Structure prediction by ZEFSAII (Michael W. Deem and Ramdas Pophale) SiO2 
 PCOD9032801
Probable space group: P -1
;
_chemical_formula_sum "Si O2"
_cell_formula_units_Z 13
_cell_length_a 8.113678
_cell_length_b 15.279674
_cell_length_c 14.259539
_cell_angle_alpha 35.510041
_cell_angle_beta 146.493035
_cell_angle_gamma 131.081529
_cell_volume 565.560400
_symmetry_space_group_name_H-M "P -1"
_symmetry_group_IT_number 2
_symmetry_cell_setting 'triclinic'
loop_
_space_group_symop_operation_xyz
x,y,z
-x,-y,-z
loop_
_atom_site_type_symbol
_atom_site_label
_atom_site_fract_x
_atom_site_fract_y
_atom_site_fract_z
Si Si1 0.801173 0.922724 0.894270
Si Si2 0.734289 0.039075 0.267707
Si Si3 0.344085 0.538825 0.629336
Si Si4 0.419153 0.362690 0.148906
Si Si5 0.246484 0.686629 0.082842
Si Si6 0.599488 0.248381 0.706066
Si Si7 0.500000 0.000000 0.500000
O O1 0.524102 0.878217 0.863604
O O2 0.669513 0.027171 0.656809
O O3 0.047411 0.802496 0.075021
O O4 0.000000 0.000000 0.000000
O O5 0.599529 0.891431 0.288013
O O6 0.835938 0.142223 0.141101
O O7 0.000000 0.000000 0.500000
O O8 0.415011 0.612849 0.696222
O O9 0.571985 0.395798 0.842429
O O10 0.419959 0.644412 0.485737
O O11 0.000000 0.500000 0.500000
O O12 0.492253 0.187088 0.306338
O O13 0.500000 0.500000 0.000000
O O14 0.063298 0.384262 0.981396
O O15 0.459620 0.684983 0.276836
#
# Coordination Sequence:
#
# PCOD9032801 Si02
#       7
#     2   2   2   2   2   2   1
#     4  10  22  43  75 106 151 201 257 318 381 463
#     4  11  24  42  70 108 151 193 255 318 388 461
#     4  12  27  50  73 109 154 205 253 325 404 460
#     4  12  28  51  79 114 153 202 263 324 389 478
#     4  12  25  48  72 109 153 199 256 322 392 472
#     4  11  23  46  70 107 148 200 258 313 388 471
#     4  12  24  48  84 112 152 204 264 316 398 462
#
# _framework density 22.986049999999999
#
# number of rings (size 3 to 8) (size 9 to 14) (size 15 to 20)
#    0.000    0.615    1.538    6.923    2.154    1.231 
#    8.308    0.000    0.000    0.000    0.000    0.000 
#    0.000    0.000    0.000    0.000    0.000    0.000 
#
# Total GULP energy -72428.061157 kJ/mol
# GULP energy per Si atom -5571.389320 kJ/mol
# Density = 2.293373 g / cm^3
# Si number density = 22.986050 Si / 1000 Ang^3
#
#
#
# Elastic Constant Matrix: (Units=GPa)
#
#
# Indices 1 2 3 4 5 6 
#
# 1 76.0803 59.9625 31.8362 -4.6884 -13.8036 15.4810
# 2 59.9625 154.2402 66.9207 4.5194 -9.4549 4.3255
# 3 31.8362 66.9207 102.9633 -2.7877 -47.1833 18.1380
# 4 -4.6884 4.5194 -2.7877 49.2271 0.6073 -9.7972
# 5 -13.8036 -9.4549 -47.1833 0.6073 54.5926 3.4510
# 6 15.4810 4.3255 18.1380 -9.7972 3.4510 49.8275
#
#
#
# Elastic Compliance Matrix: (Units=1/GPa)
#
#
# Indices 1 2 3 4 5 6 
#
# 1 0.022505 -0.010402 0.005544 0.001622 0.009195 -0.008425
# 2 -0.010402 0.015736 -0.014172 -0.001572 -0.012615 0.007589
# 3 0.005544 -0.014172 0.032526 0.000506 0.027949 -0.014169
# 4 0.001622 -0.001572 0.000506 0.021365 0.000108 0.003641
# 5 0.009195 -0.012615 0.027949 0.000108 0.043556 -0.014931
# 6 -0.008425 0.007589 -0.014169 0.003641 -0.014931 0.028936
#
#
# Mechanical properties :
#
#
# Convention : Reuss Voigt Hill
#
# Bulk Modulus (GPa) = 30.57405 72.30250 51.43828
# Shear Modulus (GPa) = 23.40970 42.36707 32.88839
#
# Velocity S-wave (km/s) = 3.19475 4.29787 3.78669
# Velocity P-wave (km/s) = 5.19024 7.49347 6.44557
#
# Compressibility (1/GPa) = 0.03270747
#
# Stress axis : x y z
#
# Youngs Moduli (GPa) = 44.43447 63.54885 30.74422
#
# Poissons Ratio (x) = 0.66103 -0.17044
# Poissons Ratio (y) = 0.46221 0.43570
# Poissons Ratio (z) = -0.24633 0.90060
#
# Static dielectric constant tensor:
#      x y z
#    x 1.656650 0.026570 -0.064700 
#    y 0.026570 1.834490 -0.013560 
#    z -0.064700 -0.013560 1.907410 
# 
# From -- ./inp_files/166924.got.cif
#   From: 2010.05.17/outbox.cif.g08.bks.cpg/sg2_84_cif.got.tgz:166924.got - 2010.06.03 11:33:40.
