data_PCOD9032507
_publ_section_title
;
Structure prediction by ZEFSAII (Michael W. Deem and Ramdas Pophale) SiO2 
 PCOD9032507
Probable space group: P -1
;
_chemical_formula_sum "Si O2"
_cell_formula_units_Z 16
_cell_length_a 14.590448
_cell_length_b 9.540967
_cell_length_c 14.276833
_cell_angle_alpha 84.784409
_cell_angle_beta 149.524587
_cell_angle_gamma 75.738673
_cell_volume 768.885422
_symmetry_space_group_name_H-M "P -1"
_symmetry_group_IT_number 2
_symmetry_cell_setting 'triclinic'
loop_
_space_group_symop_operation_xyz
x,y,z
-x,-y,-z
loop_
_atom_site_type_symbol
_atom_site_label
_atom_site_fract_x
_atom_site_fract_y
_atom_site_fract_z
Si Si1 0.365403 0.954368 0.991262
Si Si2 0.320168 0.089067 0.134281
Si Si3 0.889168 0.711341 0.401100
Si Si4 0.921106 0.516065 0.078773
Si Si5 0.894902 0.151067 0.318464
Si Si6 0.131391 0.144679 0.352928
Si Si7 0.637004 0.580469 0.637976
Si Si8 0.807873 0.994013 0.789725
O O1 0.330214 0.820980 0.918665
O O2 0.214368 0.149850 0.789572
O O3 0.270865 0.006623 0.011412
O O4 0.647389 0.837686 0.242475
O O5 0.597593 0.953004 0.396383
O O6 0.221424 0.107804 0.149591
O O7 0.228401 0.288386 0.015675
O O8 0.000000 0.500000 0.500000
O O9 0.090631 0.704124 0.629674
O O10 0.772865 0.523962 0.860682
O O11 0.981129 0.361701 0.211408
O O12 0.162217 0.469626 0.255925
O O13 0.057940 0.078340 0.374447
O O14 0.000000 0.000000 0.500000
O O15 0.104240 0.101380 0.226724
O O16 0.500000 0.500000 0.500000
O O17 0.436222 0.800461 0.448347
O O18 0.000000 0.000000 0.000000
#
# Coordination Sequence:
#
# PCOD9032507 Si02
#       8
#     2   2   2   2   2   2   2   2
#     4  10  23  42  67  97 134 172 220 277 340 402
#     4  12  23  41  66  97 136 178 221 271 336 407
#     4  10  22  43  71  98 129 171 221 281 344 403
#     4  11  24  40  62  94 134 174 225 280 327 397
#     4  10  23  45  70  99 133 171 226 290 335 401
#     4  12  23  43  67  94 136 178 226 276 342 402
#     4  11  22  40  61  95 134 175 233 278 323 396
#     4  12  23  40  66  96 136 185 221 270 337 401
#
# _framework density 20.809342000000001
#
# number of rings (size 3 to 8) (size 9 to 14) (size 15 to 20)
#    0.000    1.000    3.750    4.125    1.750    0.500 
#    0.000    2.500    0.000    0.000    0.000    0.000 
#    0.000    0.000    0.000    0.000    0.000    0.000 
#
# Total GULP energy -89246.542069 kJ/mol
# GULP energy per Si atom -5577.908879 kJ/mol
# Density = 2.076198 g / cm^3
# Si number density = 20.809342 Si / 1000 Ang^3
#
#
#
# Elastic Constant Matrix: (Units=GPa)
#
#
# Indices 1 2 3 4 5 6 
#
# 1 100.5410 20.3697 12.5964 5.2644 -26.6341 2.6123
# 2 20.3697 135.2040 41.0497 1.7159 -10.7176 -1.1830
# 3 12.5964 41.0497 83.4780 -2.8777 -4.8389 7.1740
# 4 5.2644 1.7159 -2.8777 35.3035 15.9097 6.1470
# 5 -26.6341 -10.7176 -4.8389 15.9097 -7.0072 3.2932
# 6 2.6123 -1.1830 7.1740 6.1470 3.2932 22.8969
#
#
#
# Elastic Compliance Matrix: (Units=1/GPa)
#
#
# Indices 1 2 3 4 5 6 
#
# 1 0.006885 -0.001879 -0.000663 0.004623 -0.012404 -0.000132
# 2 -0.001879 0.008864 -0.004400 0.000053 -0.002154 0.002347
# 3 -0.000663 -0.004400 0.014843 0.002023 0.001012 -0.005491
# 4 0.004623 0.000053 0.002023 0.019806 0.021427 -0.009558
# 5 -0.012404 -0.002154 0.001012 0.021427 -0.043609 0.001506
# 6 -0.000132 0.002347 -0.005491 -0.009558 0.001506 0.047880
#
#
# Mechanical properties :
#
#
# Convention : Reuss Voigt Hill
#
# Bulk Modulus (GPa) = 59.85091 51.91718 55.88404
# Shear Modulus (GPa) = 67.45406 26.58580 47.01993
#
# Velocity S-wave (km/s) = 5.69962 3.57822 4.75864
# Velocity P-wave (km/s) = 8.49342 6.48650 7.55688
#
# Compressibility (1/GPa) = 0.01670818
#
# Stress axis : x y z
#
# Youngs Moduli (GPa) = 145.23409 112.81115 67.37035
#
# Poissons Ratio (x) = 0.21198 0.04468
# Poissons Ratio (y) = 0.27291 0.29644
# Poissons Ratio (z) = 0.09632 0.49639
#
# Static dielectric constant tensor:
#      x y z
#    x 1.850150 -0.006270 -0.034330 
#    y -0.006270 1.755130 0.020610 
#    z -0.034330 0.020610 1.729240 
# 
# From -- ./inp_files/529715.got.cif
#   From: 2010.05.17/outbox.cif.g08.bks.cpg/sg2_265_cif.got.tgz:529715.got - 2010.06.03 11:33:40.
