data_PCOD9032551
_publ_section_title
;
Structure prediction by ZEFSAII (Michael W. Deem and Ramdas Pophale) SiO2 
 PCOD9032551
Probable space group: P -1
;
_chemical_formula_sum "Si O2"
_cell_formula_units_Z 16
_cell_length_a 13.825188
_cell_length_b 18.673005
_cell_length_c 8.349205
_cell_angle_alpha 119.153024
_cell_angle_beta 71.079048
_cell_angle_gamma 157.876288
_cell_volume 653.920275
_symmetry_space_group_name_H-M "P -1"
_symmetry_group_IT_number 2
_symmetry_cell_setting 'triclinic'
loop_
_space_group_symop_operation_xyz
x,y,z
-x,-y,-z
loop_
_atom_site_type_symbol
_atom_site_label
_atom_site_fract_x
_atom_site_fract_y
_atom_site_fract_z
Si Si1 0.166000 0.431166 0.592486
Si Si2 0.009599 0.514565 0.323881
Si Si3 0.810799 0.936245 0.503451
Si Si4 0.674460 0.532616 0.789071
Si Si5 0.260575 0.992499 0.130597
Si Si6 0.597829 0.992145 0.595880
Si Si7 0.693100 0.235289 0.941821
Si Si8 0.637554 0.564485 0.337257
O O1 0.216554 0.423450 0.389752
O O2 0.360419 0.532047 0.734161
O O3 0.134941 0.506191 0.665618
O O4 0.861835 0.183861 0.551933
O O5 0.000000 0.500000 0.500000
O O6 0.833060 0.310665 0.117280
O O7 0.338497 0.760083 0.388207
O O8 0.548190 0.703479 0.295416
O O9 0.712171 0.896291 0.686569
O O10 0.000000 0.000000 0.500000
O O11 0.037263 0.166361 0.557332
O O12 0.524343 0.507995 0.798190
O O13 0.936031 0.737620 0.987522
O O14 0.355403 0.013549 0.261400
O O15 0.439386 0.102492 0.996890
O O16 0.568135 0.065913 0.732105
O O17 0.000000 0.500000 0.000000
O O18 0.500000 0.500000 0.500000
#
# Coordination Sequence:
#
# PCOD9032551 Si02
#       8
#     2   2   2   2   2   2   2   2
#     4  11  22  43  69  98 138 190 229 290 362 414
#     4  12  26  44  70  96 136 190 240 294 361 419
#     4  10  22  43  72 102 138 184 239 286 352 425
#     4  10  24  41  74 103 141 187 239 286 359 419
#     4  12  25  44  70 107 144 186 239 295 353 418
#     4  12  26  44  66 101 143 186 240 295 350 426
#     4  12  27  45  68 106 146 186 246 297 347 431
#     4   9  20  43  70 102 138 179 231 294 350 422
#
# _framework density 24.467815000000002
#
# number of rings (size 3 to 8) (size 9 to 14) (size 15 to 20)
#    0.000    1.000    3.750    2.250    3.500    2.000 
#    0.000    0.000    0.000    9.750    0.000    0.000 
#    0.000    0.000    0.000    0.000    0.000    0.000 
#
# Total GULP energy -89173.787902 kJ/mol
# GULP energy per Si atom -5573.361744 kJ/mol
# Density = 2.441212 g / cm^3
# Si number density = 24.467815 Si / 1000 Ang^3
#
#
#
# Elastic Constant Matrix: (Units=GPa)
#
#
# Indices 1 2 3 4 5 6 
#
# 1 128.9597 26.5105 20.0544 2.6261 1.9676 7.7795
# 2 26.5105 110.8381 1.3912 2.2811 -3.9980 15.5490
# 3 20.0544 1.3912 82.8679 38.5530 7.0068 13.7336
# 4 2.6261 2.2811 38.5530 44.9353 8.0611 3.5152
# 5 1.9676 -3.9980 7.0068 8.0611 28.5012 -3.3326
# 6 7.7795 15.5490 13.7336 3.5152 -3.3326 36.0040
#
#
#
# Elastic Compliance Matrix: (Units=1/GPa)
#
#
# Indices 1 2 3 4 5 6 
#
# 1 0.008634 -0.002092 -0.003089 0.002407 -0.000822 -0.000095
# 2 -0.002092 0.010189 0.001799 -0.001801 0.001132 -0.004354
# 3 -0.003089 0.001799 0.022718 -0.018739 -0.000638 -0.007005
# 4 0.002407 -0.001801 -0.018739 0.039227 -0.006559 0.002969
# 5 -0.000822 0.001132 -0.000638 -0.006559 0.037790 0.004071
# 6 -0.000095 -0.004354 -0.007005 0.002969 0.004071 0.032434
#
#
# Mechanical properties :
#
#
# Convention : Reuss Voigt Hill
#
# Bulk Modulus (GPa) = 28.75519 46.50868 37.63193
# Shear Modulus (GPa) = 29.52502 40.20207 34.86354
#
# Velocity S-wave (km/s) = 3.47751 4.05786 3.77884
# Velocity P-wave (km/s) = 5.28222 6.40347 5.86968
#
# Compressibility (1/GPa) = 0.03477633
#
# Stress axis : x y z
#
# Youngs Moduli (GPa) = 115.82055 98.14842 44.01853
#
# Poissons Ratio (x) = 0.20535 0.13596
# Poissons Ratio (y) = 0.24232 -0.07918
# Poissons Ratio (z) = 0.35774 -0.17656
#
# Static dielectric constant tensor:
#      x y z
#    x 2.195000 -0.117320 -0.140380 
#    y -0.117320 2.150280 0.004270 
#    z -0.140380 0.004270 2.220990 
# 
# From -- ./inp_files/319427.got.cif
#   From: 2010.05.17/outbox.cif.g08.bks.cpg/sg2_160_cif.got.tgz:319427.got - 2010.06.03 11:33:40.
