data_PCOD9032859
_publ_section_title
;
Structure prediction by ZEFSAII (Michael W. Deem and Ramdas Pophale) SiO2 
 PCOD9032859
Probable space group: P -1
;
_chemical_formula_sum "Si O2"
_cell_formula_units_Z 13
_cell_length_a 8.300991
_cell_length_b 11.840839
_cell_length_c 6.556793
_cell_angle_alpha 62.018653
_cell_angle_beta 84.791606
_cell_angle_gamma 109.657483
_cell_volume 511.455424
_symmetry_space_group_name_H-M "P -1"
_symmetry_group_IT_number 2
_symmetry_cell_setting 'triclinic'
loop_
_space_group_symop_operation_xyz
x,y,z
-x,-y,-z
loop_
_atom_site_type_symbol
_atom_site_label
_atom_site_fract_x
_atom_site_fract_y
_atom_site_fract_z
Si Si1 0.483297 0.093014 0.237653
Si Si2 0.000000 0.500000 0.500000
Si Si3 0.919582 0.729202 0.076953
Si Si4 0.406945 0.599048 0.852811
Si Si5 0.909851 0.648709 0.715826
Si Si6 0.749685 0.034291 0.991171
Si Si7 0.649213 0.723845 0.389235
O O1 0.512543 0.245792 0.186444
O O2 0.637520 0.113233 0.035328
O O3 0.500000 0.000000 0.500000
O O4 0.302051 0.005843 0.204048
O O5 0.955248 0.600639 0.264053
O O6 0.043681 0.625009 0.568859
O O7 0.714676 0.695550 0.185682
O O8 0.969834 0.749706 0.817103
O O9 0.045340 0.869891 0.064250
O O10 0.452580 0.629311 0.580997
O O11 0.500000 0.500000 0.000000
O O12 0.209789 0.506969 0.040578
O O13 0.780335 0.693541 0.554956
O O14 0.681988 0.885132 0.241902
#
# Coordination Sequence:
#
# PCOD9032859 Si02
#       7
#     2   1   2   2   2   2   2
#     4  11  24  44  69  95 135 186 230 291 346 400
#     4  10  22  44  60 100 134 178 236 270 346 410
#     4  11  24  41  67 101 137 180 222 292 349 413
#     4  10  22  44  65  98 136 179 233 281 340 412
#     4  10  23  42  69  98 138 182 230 282 351 408
#     4  11  25  43  66 101 138 174 241 283 348 417
#     4  10  23  42  63 102 134 181 226 282 344 413
#
# _framework density 25.417660999999999
#
# number of rings (size 3 to 8) (size 9 to 14) (size 15 to 20)
#    0.000    1.538    1.538    1.846    4.308    4.923 
#    5.538    0.000    0.000    0.000    0.000    0.000 
#    0.000    0.000    0.000    0.000    0.000    0.000 
#
# Total GULP energy -72461.549133 kJ/mol
# GULP energy per Si atom -5573.965318 kJ/mol
# Density = 2.535981 g / cm^3
# Si number density = 25.417661 Si / 1000 Ang^3
#
#
#
# Elastic Constant Matrix: (Units=GPa)
#
#
# Indices 1 2 3 4 5 6 
#
# 1 48.2667 39.4417 26.7609 4.6184 -5.1252 -7.6492
# 2 39.4417 159.3868 44.1219 1.1951 7.4083 -0.9139
# 3 26.7609 44.1219 116.4127 4.7916 10.6576 5.1670
# 4 4.6184 1.1951 4.7916 42.9410 -7.8834 7.4629
# 5 -5.1252 7.4083 10.6576 -7.8834 39.0515 4.0235
# 6 -7.6492 -0.9139 5.1670 7.4629 4.0235 42.8173
#
#
#
# Elastic Compliance Matrix: (Units=1/GPa)
#
#
# Indices 1 2 3 4 5 6 
#
# 1 0.030571 -0.006302 -0.005304 -0.002527 0.005538 0.005887
# 2 -0.006302 0.008336 -0.001529 0.000392 -0.001844 -0.000658
# 3 -0.005304 -0.001529 0.010813 -0.000893 -0.003350 -0.001814
# 4 -0.002527 0.000392 -0.000893 0.025592 0.005552 -0.005318
# 5 0.005538 -0.001844 -0.003350 0.005552 0.028960 -0.002335
# 6 0.005887 -0.000658 -0.001814 -0.005318 -0.002335 0.025758
#
#
# Mechanical properties :
#
#
# Convention : Reuss Voigt Hill
#
# Bulk Modulus (GPa) = 42.64126 60.52390 51.58258
# Shear Modulus (GPa) = 30.46665 39.21141 34.83903
#
# Velocity S-wave (km/s) = 3.46590 3.93196 3.70626
# Velocity P-wave (km/s) = 5.72968 6.66912 6.21717
#
# Compressibility (1/GPa) = 0.02345147
#
# Stress axis : x y z
#
# Youngs Moduli (GPa) = 32.71064 119.96657 92.48331
#
# Poissons Ratio (x) = 0.75599 0.49049
# Poissons Ratio (y) = 0.20613 0.14139
# Poissons Ratio (z) = 0.17348 0.18340
#
# Static dielectric constant tensor:
#      x y z
#    x 2.182520 0.033540 -0.064920 
#    y 0.033540 1.989100 0.061990 
#    z -0.064920 0.061990 2.033220 
# 
# From -- ./inp_files/23474.got.cif
#   From: 2010.05.17/outbox.cif.g08.bks.cpg/sg2_12_cif.got.tgz:23474.got - 2010.06.03 11:33:40.
