data_PCOD9032621
_publ_section_title
;
Structure prediction by ZEFSAII (Michael W. Deem and Ramdas Pophale) SiO2 
 PCOD9032621
Probable space group: P -1
;
_chemical_formula_sum "Si O2"
_cell_formula_units_Z 12
_cell_length_a 8.501837
_cell_length_b 18.678510
_cell_length_c 5.139830
_cell_angle_alpha 115.898403
_cell_angle_beta 62.418169
_cell_angle_gamma 139.960533
_cell_volume 460.534762
_symmetry_space_group_name_H-M "P -1"
_symmetry_group_IT_number 2
_symmetry_cell_setting 'triclinic'
loop_
_space_group_symop_operation_xyz
x,y,z
-x,-y,-z
loop_
_atom_site_type_symbol
_atom_site_label
_atom_site_fract_x
_atom_site_fract_y
_atom_site_fract_z
Si Si1 0.387716 0.753144 0.516172
Si Si2 0.461812 0.898557 0.273176
Si Si3 0.163815 0.531087 0.168925
Si Si4 0.949026 0.680200 0.056524
Si Si5 0.782542 0.790991 0.531118
Si Si6 0.038408 0.935400 0.050805
O O1 0.528419 0.859717 0.393946
O O2 0.370919 0.665077 0.229588
O O3 0.119311 0.709005 0.719497
O O4 0.525086 0.760436 0.678188
O O5 0.500000 0.000000 0.500000
O O6 0.187622 0.784008 0.213334
O O7 0.661209 0.965681 0.993631
O O8 0.000000 0.500000 0.500000
O O9 0.204889 0.449811 0.986406
O O10 0.000000 0.500000 0.000000
O O11 0.767076 0.697240 0.273651
O O12 0.918849 0.833937 0.775336
O O13 0.935259 0.886143 0.337784
O O14 0.000000 0.000000 0.000000
#
# Coordination Sequence:
#
# PCOD9032621 Si02
#       6
#     2   2   2   2   2   2
#     4  11  25  44  70  97 135 183 223 279 345 397
#     4  12  23  39  68  95 134 180 224 269 339 404
#     4  10  22  43  72  97 130 178 225 279 337 396
#     4  11  25  44  69 100 138 174 234 280 333 406
#     4  12  27  43  68 101 138 176 227 280 336 399
#     4  12  25  42  64  98 138 180 224 271 333 406
#
# _framework density 26.056664999999999
#
# number of rings (size 3 to 8) (size 9 to 14) (size 15 to 20)
#    0.000    0.667    5.000    2.500    2.333    2.000 
#    0.000    0.000    0.000    6.000    0.000    0.000 
#    0.000    0.000    0.000    0.000    0.000    0.000 
#
# Total GULP energy -66914.511676 kJ/mol
# GULP energy per Si atom -5576.209306 kJ/mol
# Density = 2.599736 g / cm^3
# Si number density = 26.056665 Si / 1000 Ang^3
#
#
#
# Elastic Constant Matrix: (Units=GPa)
#
#
# Indices 1 2 3 4 5 6 
#
# 1 55.0816 25.4736 17.3018 16.9008 2.9070 -9.9617
# 2 25.4736 115.5808 46.6495 34.4761 -6.9503 -37.1267
# 3 17.3018 46.6495 94.6146 21.2368 12.8344 -14.8190
# 4 16.9008 34.4761 21.2368 60.6963 -12.0131 -6.3929
# 5 2.9070 -6.9503 12.8344 -12.0131 53.3344 15.3056
# 6 -9.9617 -37.1267 -14.8190 -6.3929 15.3056 36.7102
#
#
#
# Elastic Compliance Matrix: (Units=1/GPa)
#
#
# Indices 1 2 3 4 5 6 
#
# 1 0.021758 -0.001771 -0.000790 -0.005028 -0.003631 0.004432
# 2 -0.001771 0.017581 -0.003958 -0.007001 -0.002718 0.015616
# 3 -0.000790 -0.003958 0.014805 -0.003492 -0.005853 0.003591
# 4 -0.005028 -0.007001 -0.003492 0.023729 0.008166 -0.009127
# 5 -0.003631 -0.002718 -0.005853 0.008166 0.026333 -0.015654
# 6 0.004432 0.015616 0.003591 -0.009127 -0.015654 0.050623
#
#
# Mechanical properties :
#
#
# Convention : Reuss Voigt Hill
#
# Bulk Modulus (GPa) = 24.32810 49.34741 36.83775
# Shear Modulus (GPa) = 27.53734 41.87165 34.70450
#
# Velocity S-wave (km/s) = 3.25441 4.01302 3.65346
# Velocity P-wave (km/s) = 4.84546 6.36019 5.65378
#
# Compressibility (1/GPa) = 0.04110473
#
# Stress axis : x y z
#
# Youngs Moduli (GPa) = 45.95967 56.87936 67.54265
#
# Poissons Ratio (x) = 0.10076 0.05337
# Poissons Ratio (y) = 0.08142 0.26735
# Poissons Ratio (z) = 0.03632 0.22515
#
# Static dielectric constant tensor:
#      x y z
#    x 2.124070 0.130150 -0.023160 
#    y 0.130150 2.211590 0.152850 
#    z -0.023160 0.152850 2.210570 
# 
# From -- ./inp_files/19443.got.cif
#   From: 2010.05.17/outbox.cif.g08.bks.cpg/sg2_10_cif.got.tgz:19443.got - 2010.06.03 11:33:40.
