data_PCOD9032589
_publ_section_title
;
Structure prediction by ZEFSAII (Michael W. Deem and Ramdas Pophale) SiO2 
 PCOD9032589
Probable space group: P -1
;
_chemical_formula_sum "Si O2"
_cell_formula_units_Z 12
_cell_length_a 7.793239
_cell_length_b 5.355021
_cell_length_c 13.914046
_cell_angle_alpha 69.408997
_cell_angle_beta 52.432049
_cell_angle_gamma 63.255417
_cell_volume 408.562819
_symmetry_space_group_name_H-M "P -1"
_symmetry_group_IT_number 2
_symmetry_cell_setting 'triclinic'
loop_
_space_group_symop_operation_xyz
x,y,z
-x,-y,-z
loop_
_atom_site_type_symbol
_atom_site_label
_atom_site_fract_x
_atom_site_fract_y
_atom_site_fract_z
Si Si1 0.131491 0.690056 0.138062
Si Si2 0.775803 0.911217 0.605666
Si Si3 0.163090 0.527384 0.615295
Si Si4 0.434450 0.727088 0.636942
Si Si5 0.752710 0.470913 0.078262
Si Si6 0.644590 0.980563 0.850298
O O1 0.182880 0.912067 0.160079
O O2 0.882260 0.681504 0.258673
O O3 0.287738 0.358108 0.134313
O O4 0.201622 0.742883 0.998602
O O5 0.575789 0.932604 0.596200
O O6 0.924871 0.590633 0.628467
O O7 0.663620 0.054297 0.722083
O O8 0.000000 0.000000 0.500000
O O9 0.220718 0.757239 0.634052
O O10 0.359294 0.462269 0.476658
O O11 0.351155 0.634599 0.779261
O O12 0.589547 0.787383 0.068986
O O13 0.000000 0.500000 0.000000
#
# Coordination Sequence:
#
# PCOD9032589 Si02
#       6
#     2   2   2   2   2   2
#     4  11  24  49  74 108 146 200 246 308 372 449
#     4  11  23  43  71 108 148 196 249 305 381 443
#     4  10  22  43  72 105 147 192 247 309 373 440
#     4  11  23  43  72 108 148 191 252 309 370 443
#     4  12  24  45  71 109 147 195 248 307 372 444
#     4  11  25  46  75 105 147 197 253 304 372 444
#
# _framework density 29.371245999999999
#
# number of rings (size 3 to 8) (size 9 to 14) (size 15 to 20)
#    0.000    1.000    1.667    5.500    0.000    2.000 
#    6.000    4.167    0.000    0.000    0.000    0.000 
#    0.000    0.000    0.000    0.000    0.000    0.000 
#
# Total GULP energy -66961.562009 kJ/mol
# GULP energy per Si atom -5580.130167 kJ/mol
# Density = 2.930440 g / cm^3
# Si number density = 29.371246 Si / 1000 Ang^3
#
#
#
# Elastic Constant Matrix: (Units=GPa)
#
#
# Indices 1 2 3 4 5 6 
#
# 1 137.4385 43.0729 26.9910 21.4932 -10.3432 25.4234
# 2 43.0729 110.3023 52.2062 -3.6708 1.1158 8.4778
# 3 26.9910 52.2062 224.7176 5.6684 -4.6089 16.1522
# 4 21.4932 -3.6708 5.6684 60.3814 9.2567 -4.3663
# 5 -10.3432 1.1158 -4.6089 9.2567 58.9284 19.0405
# 6 25.4234 8.4778 16.1522 -4.3663 19.0405 67.1225
#
#
#
# Elastic Compliance Matrix: (Units=1/GPa)
#
#
# Indices 1 2 3 4 5 6 
#
# 1 0.010580 -0.004075 0.000264 -0.005087 0.004414 -0.005139
# 2 -0.004075 0.011834 -0.002473 0.002815 -0.002028 0.001402
# 3 0.000264 -0.002473 0.005142 -0.000998 0.001106 -0.001404
# 4 -0.005087 0.002815 -0.000998 0.019846 -0.005663 0.004709
# 5 0.004414 -0.002028 0.001106 -0.005663 0.021381 -0.008115
# 6 -0.005139 0.001402 -0.001404 0.004709 -0.008115 0.019614
#
#
# Mechanical properties :
#
#
# Convention : Reuss Voigt Hill
#
# Bulk Modulus (GPa) = 66.72457 79.66651 73.19554
# Shear Modulus (GPa) = 47.18746 60.63236 53.90991
#
# Velocity S-wave (km/s) = 4.01257 4.54843 4.28888
# Velocity P-wave (km/s) = 6.65091 7.40049 7.03569
#
# Compressibility (1/GPa) = 0.01498698
#
# Stress axis : x y z
#
# Youngs Moduli (GPa) = 94.52125 84.49940 194.49172
#
# Poissons Ratio (x) = 0.34437 -0.05140
# Poissons Ratio (y) = 0.38521 0.48103
# Poissons Ratio (z) = -0.02498 0.20899
#
# Static dielectric constant tensor:
#      x y z
#    x 2.440460 -0.240000 0.135180 
#    y -0.240000 2.565450 -0.186790 
#    z 0.135180 -0.186790 2.357600 
# 
# From -- ./inp_files/486486.got.cif
#   From: 2010.05.17/outbox.cif.g08.bks.cpg/sg2_244_cif.got.tgz:486486.got - 2010.06.03 11:33:40.
