data_PCOD9032073
_publ_section_title
;
Structure prediction by ZEFSAII (Michael W. Deem and Ramdas Pophale) SiO2 
 PCOD9032073
Probable space group: P -1
;
_chemical_formula_sum "Si O2"
_cell_formula_units_Z 16
_cell_length_a 18.097451
_cell_length_b 9.728211
_cell_length_c 11.757707
_cell_angle_alpha 39.032389
_cell_angle_beta 43.202531
_cell_angle_gamma 71.625960
_cell_volume 725.560155
_symmetry_space_group_name_H-M "P -1"
_symmetry_group_IT_number 2
_symmetry_cell_setting 'triclinic'
loop_
_space_group_symop_operation_xyz
x,y,z
-x,-y,-z
loop_
_atom_site_type_symbol
_atom_site_label
_atom_site_fract_x
_atom_site_fract_y
_atom_site_fract_z
Si Si1 0.500942 0.752592 0.206632
Si Si2 0.888119 0.282546 0.503580
Si Si3 0.242627 0.023187 0.358672
Si Si4 0.655786 0.750257 0.659184
Si Si5 0.337950 0.160796 0.815508
Si Si6 0.889225 0.685255 0.650739
Si Si7 0.350785 0.901461 0.746247
Si Si8 0.899954 0.725942 0.357190
O O1 0.374894 0.442670 0.543353
O O2 0.545643 0.794066 0.261391
O O3 0.618232 0.770606 0.994122
O O4 0.500000 0.000000 0.000000
O O5 0.883194 0.495716 0.445399
O O6 0.031732 0.349367 0.318818
O O7 0.831070 0.243808 0.465164
O O8 0.790653 0.995419 0.860264
O O9 0.290829 0.060814 0.409915
O O10 0.138575 0.098584 0.426384
O O11 0.756950 0.670164 0.575481
O O12 0.673923 0.932048 0.418350
O O13 0.500000 0.500000 0.000000
O O14 0.323003 0.967595 0.857850
O O15 0.953223 0.740768 0.416314
O O16 0.746288 0.407890 0.975361
O O17 0.500000 0.000000 0.500000
O O18 0.000000 0.000000 0.000000
#
# Coordination Sequence:
#
# PCOD9032073 Si02
#       8
#     2   2   2   2   2   2   2   2
#     4  10  22  43  69  94 144 179 226 288 358 413
#     4  11  23  44  72  95 137 182 229 290 350 418
#     4  10  24  45  63 102 135 176 228 283 351 419
#     4  11  25  43  68 101 142 180 230 295 352 423
#     4  10  23  40  64 105 129 177 239 283 338 429
#     4  11  23  45  67  97 140 178 230 287 345 424
#     4  12  24  40  70  97 133 181 230 282 359 413
#     4  11  24  44  70 103 136 182 241 287 348 430
#
# _framework density 22.051929000000001
#
# number of rings (size 3 to 8) (size 9 to 14) (size 15 to 20)
#    0.000    1.250    1.250    4.500    3.500    3.000 
#    0.000    5.625    0.000    0.000    0.000    0.000 
#    0.000    0.000    0.000    0.000    0.000    0.000 
#
# Total GULP energy -89358.714383 kJ/mol
# GULP energy per Si atom -5584.919649 kJ/mol
# Density = 2.200174 g / cm^3
# Si number density = 22.051929 Si / 1000 Ang^3
#
#
#
# Elastic Constant Matrix: (Units=GPa)
#
#
# Indices 1 2 3 4 5 6 
#
# 1 87.4862 20.9805 6.0131 -1.3074 -5.7175 8.0221
# 2 20.9805 79.6121 1.0433 -6.2287 -4.3565 15.0641
# 3 6.0131 1.0433 73.0388 -13.0044 -9.4990 -5.1468
# 4 -1.3074 -6.2287 -13.0044 28.5178 -5.5751 3.0846
# 5 -5.7175 -4.3565 -9.4990 -5.5751 32.9071 -2.0724
# 6 8.0221 15.0641 -5.1468 3.0846 -2.0724 31.1449
#
#
#
# Elastic Compliance Matrix: (Units=1/GPa)
#
#
# Indices 1 2 3 4 5 6 
#
# 1 0.012439 -0.002830 -0.000935 0.000004 0.001398 -0.001897
# 2 -0.002830 0.015047 0.000618 0.004566 0.002026 -0.006764
# 3 -0.000935 0.000618 0.016223 0.008460 0.006174 0.002196
# 4 0.000004 0.004566 0.008460 0.042335 0.009946 -0.004343
# 5 0.001398 0.002026 0.006174 0.009946 0.034429 0.000986
# 6 -0.001897 -0.006764 0.002196 -0.004343 0.000986 0.036727
#
#
# Mechanical properties :
#
#
# Convention : Reuss Voigt Hill
#
# Bulk Modulus (GPa) = 26.72711 32.91232 29.81971
# Shear Modulus (GPa) = 28.41477 32.65399 30.53438
#
# Velocity S-wave (km/s) = 3.59352 3.85226 3.72514
# Velocity P-wave (km/s) = 5.41887 5.89439 5.66163
#
# Compressibility (1/GPa) = 0.03741520
#
# Stress axis : x y z
#
# Youngs Moduli (GPa) = 80.39458 66.46011 61.63949
#
# Poissons Ratio (x) = 0.18808 0.05761
# Poissons Ratio (y) = 0.22751 -0.03809
# Poissons Ratio (z) = 0.07514 -0.04107
#
# Static dielectric constant tensor:
#      x y z
#    x 2.650690 -0.305300 -0.065670 
#    y -0.305300 1.969980 -0.001220 
#    z -0.065670 -0.001220 1.834480 
# 
# From -- ./inp_files/402950.got.cif
#   From: 2010.05.17/outbox.cif.g08.bks.cpg/sg2_202_cif.got.tgz:402950.got - 2010.06.03 11:33:40.
