data_PCOD9032685
_publ_section_title
;
Structure prediction by ZEFSAII (Michael W. Deem and Ramdas Pophale) SiO2 
 PCOD9032685
Probable space group: P -1
;
_chemical_formula_sum "Si O2"
_cell_formula_units_Z 12
_cell_length_a 9.944889
_cell_length_b 7.911552
_cell_length_c 9.276470
_cell_angle_alpha 99.110152
_cell_angle_beta 51.083340
_cell_angle_gamma 116.309319
_cell_volume 501.454434
_symmetry_space_group_name_H-M "P -1"
_symmetry_group_IT_number 2
_symmetry_cell_setting 'triclinic'
loop_
_space_group_symop_operation_xyz
x,y,z
-x,-y,-z
loop_
_atom_site_type_symbol
_atom_site_label
_atom_site_fract_x
_atom_site_fract_y
_atom_site_fract_z
Si Si1 0.835302 0.214955 0.367945
Si Si2 0.232353 0.072249 0.841021
Si Si3 0.694760 0.499712 0.423136
Si Si4 0.324986 0.856091 0.001883
Si Si5 0.998709 0.199421 0.559809
Si Si6 0.785892 0.565014 0.054953
O O1 0.684722 0.299120 0.452063
O O2 0.088389 0.752651 0.517319
O O3 0.751625 0.996275 0.340433
O O4 0.023433 0.339247 0.159081
O O5 0.314692 0.292366 0.864104
O O6 0.305658 0.956459 0.881930
O O7 0.000000 0.000000 0.000000
O O8 0.500000 0.500000 0.500000
O O9 0.827093 0.563666 0.197474
O O10 0.793488 0.643425 0.507219
O O11 0.139301 0.817210 0.217370
O O12 0.331219 0.655989 0.940071
O O13 0.500000 0.000000 0.000000
O O14 0.000000 0.000000 0.500000
#
# Coordination Sequence:
#
# PCOD9032685 Si02
#       6
#     2   2   2   2   2   2
#     4  11  22  46  76 102 142 188 238 296 365 424
#     4  10  22  43  73 104 132 188 236 285 359 429
#     4  12  26  44  72 107 143 189 238 297 358 427
#     4  12  27  46  72 102 146 192 240 292 351 429
#     4  12  26  46  71 106 149 184 241 298 358 425
#     4  11  23  47  73  99 145 187 238 288 363 420
#
# _framework density 23.930389000000002
#
# number of rings (size 3 to 8) (size 9 to 14) (size 15 to 20)
#    0.000    0.667    3.333    6.000    2.333    2.000 
#    0.000    2.500    0.000    0.000    0.000    0.000 
#    0.000    0.000    0.000    0.000    0.000    0.000 
#
# Total GULP energy -67174.278851 kJ/mol
# GULP energy per Si atom -5597.856571 kJ/mol
# Density = 2.387592 g / cm^3
# Si number density = 23.930389 Si / 1000 Ang^3
#
#
#
# Elastic Constant Matrix: (Units=GPa)
#
#
# Indices 1 2 3 4 5 6 
#
# 1 123.4939 47.8149 17.5031 17.5109 6.2063 16.5250
# 2 47.8149 170.7341 30.7230 59.2575 -7.8821 9.0253
# 3 17.5031 30.7230 63.5085 23.9964 11.0201 6.1287
# 4 17.5109 59.2575 23.9964 51.9801 -4.7863 4.3325
# 5 6.2063 -7.8821 11.0201 -4.7863 41.0549 5.2352
# 6 16.5250 9.0253 6.1287 4.3325 5.2352 45.3475
#
#
#
# Elastic Compliance Matrix: (Units=1/GPa)
#
#
# Indices 1 2 3 4 5 6 
#
# 1 0.009610 -0.002482 -0.001028 0.000177 -0.001284 -0.002738
# 2 -0.002482 0.010419 -0.000535 -0.010655 0.001306 -0.000230
# 3 -0.001028 -0.000535 0.021008 -0.009289 -0.006578 -0.000711
# 4 0.000177 -0.010655 -0.009289 0.036105 0.004717 -0.000682
# 5 -0.001284 0.001306 -0.006578 0.004717 0.027440 -0.002522
# 6 -0.002738 -0.000230 -0.000711 -0.000682 -0.002522 0.023548
#
#
# Mechanical properties :
#
#
# Convention : Reuss Voigt Hill
#
# Bulk Modulus (GPa) = 30.35105 61.09095 45.72100
# Shear Modulus (GPa) = 33.96711 45.12287 39.54499
#
# Velocity S-wave (km/s) = 3.77160 4.34705 4.06951
# Velocity P-wave (km/s) = 5.62825 7.12599 6.42094
#
# Compressibility (1/GPa) = 0.03294779
#
# Stress axis : x y z
#
# Youngs Moduli (GPa) = 104.05684 95.97754 47.60166
#
# Poissons Ratio (x) = 0.23825 0.04891
# Poissons Ratio (y) = 0.25831 0.02545
# Poissons Ratio (z) = 0.10692 0.05131
#
# Static dielectric constant tensor:
#      x y z
#    x 1.870920 0.000700 -0.035070 
#    y 0.000700 1.999100 -0.059620 
#    z -0.035070 -0.059620 1.951190 
# 
# From -- ./inp_files/413361.got.cif
#   From: 2010.05.17/outbox.cif.g08.bks.cpg/sg2_207_cif.got.tgz:413361.got - 2010.06.03 11:33:40.
