data_PCOD9032526
_publ_section_title
;
Structure prediction by ZEFSAII (Michael W. Deem and Ramdas Pophale) SiO2 
 PCOD9032526
Probable space group: P -1
;
_chemical_formula_sum "Si O2"
_cell_formula_units_Z 14
_cell_length_a 8.361464
_cell_length_b 17.169378
_cell_length_c 5.789945
_cell_angle_alpha 87.280715
_cell_angle_beta 90.412085
_cell_angle_gamma 44.675766
_cell_volume 582.769292
_symmetry_space_group_name_H-M "P -1"
_symmetry_group_IT_number 2
_symmetry_cell_setting 'triclinic'
loop_
_space_group_symop_operation_xyz
x,y,z
-x,-y,-z
loop_
_atom_site_type_symbol
_atom_site_label
_atom_site_fract_x
_atom_site_fract_y
_atom_site_fract_z
Si Si1 0.686297 0.943604 0.209602
Si Si2 0.511236 0.866005 0.509197
Si Si3 0.497487 0.613969 0.249224
Si Si4 0.935238 0.989685 0.749477
Si Si5 0.155505 0.637449 0.554778
Si Si6 0.177488 0.369076 0.578114
Si Si7 0.091123 0.771741 0.906852
O O1 0.654415 0.889996 0.413676
O O2 0.636089 0.045897 0.299403
O O3 0.928738 0.843016 0.113762
O O4 0.500000 0.000000 0.000000
O O5 0.656242 0.738086 0.576842
O O6 0.338535 0.911788 0.288256
O O7 0.313424 0.648700 0.436045
O O8 0.684163 0.481421 0.298274
O O9 0.633992 0.647988 0.272608
O O10 0.348097 0.669668 0.008944
O O11 0.046045 0.865939 0.755361
O O12 0.000000 0.000000 0.500000
O O13 0.000000 0.000000 0.000000
O O14 0.021931 0.724489 0.750687
O O15 0.000442 0.641099 0.372023
O O16 0.000000 0.500000 0.500000
#
# Coordination Sequence:
#
# PCOD9032526 Si02
#       7
#     2   2   2   2   2   2   2
#     4  11  23  42  68 105 139 193 238 308 375 444
#     4  11  24  42  69  98 146 186 247 302 374 451
#     4  10  23  45  72 104 144 191 244 304 376 443
#     4  12  28  45  68 107 149 196 248 314 379 451
#     4  10  23  44  72 106 142 190 244 309 368 452
#     4  10  22  43  71  99 137 186 242 307 373 443
#     4  12  24  42  74 101 147 190 250 305 380 444
#
# _framework density 24.023226999999999
#
# number of rings (size 3 to 8) (size 9 to 14) (size 15 to 20)
#    0.000    1.143    1.429    3.857    8.000    0.000 
#    0.000    2.857    0.000   12.857    0.000    0.000 
#    0.000    0.000    0.000    0.000    0.000    0.000 
#
# Total GULP energy -78009.742269 kJ/mol
# GULP energy per Si atom -5572.124448 kJ/mol
# Density = 2.396855 g / cm^3
# Si number density = 24.023227 Si / 1000 Ang^3
#
#
#
# Elastic Constant Matrix: (Units=GPa)
#
#
# Indices 1 2 3 4 5 6 
#
# 1 108.1314 32.3618 56.8324 -4.0555 23.6065 -7.7238
# 2 32.3618 147.3063 54.0329 -2.6982 16.6463 20.7631
# 3 56.8324 54.0329 93.7896 5.7084 15.9617 3.4467
# 4 -4.0555 -2.6982 5.7084 39.7059 -3.2005 10.4615
# 5 23.6065 16.6463 15.9617 -3.2005 52.9469 -5.7382
# 6 -7.7238 20.7631 3.4467 10.4615 -5.7382 28.5639
#
#
#
# Elastic Compliance Matrix: (Units=1/GPa)
#
#
# Indices 1 2 3 4 5 6 
#
# 1 0.014906 -0.000321 -0.008493 0.001364 -0.003459 0.004094
# 2 -0.000321 0.010342 -0.005277 0.003544 -0.002248 -0.008718
# 3 -0.008493 -0.005277 0.019167 -0.004197 -0.000515 0.000660
# 4 0.001364 0.003544 -0.004197 0.029459 -0.000031 -0.012496
# 5 -0.003459 -0.002248 -0.000515 -0.000031 0.021849 0.005162
# 6 0.004094 -0.008718 0.000660 -0.012496 0.005162 0.047987
#
#
# Mechanical properties :
#
#
# Convention : Reuss Voigt Hill
#
# Bulk Modulus (GPa) = 61.59311 70.63128 66.11220
# Shear Modulus (GPa) = 28.20043 37.97667 33.08855
#
# Velocity S-wave (km/s) = 3.42991 3.98028 3.71530
# Velocity P-wave (km/s) = 6.43276 7.11257 6.78119
#
# Compressibility (1/GPa) = 0.01623558
#
# Stress axis : x y z
#
# Youngs Moduli (GPa) = 67.08553 96.69013 52.17310
#
# Poissons Ratio (x) = 0.03103 0.44308
# Poissons Ratio (y) = 0.02153 0.27529
# Poissons Ratio (z) = 0.56973 0.51019
#
# Static dielectric constant tensor:
#      x y z
#    x 2.175750 -0.026390 0.001740 
#    y -0.026390 1.915890 0.004810 
#    z 0.001740 0.004810 1.894550 
# 
# From -- ./inp_files/48310.got.cif
#   From: 2010.05.17/outbox.cif.g08.bks.cpg/sg2_25_cif.got.tgz:48310.got - 2010.06.03 11:33:40.
