data_PCOD9032556
_publ_section_title
;
Structure prediction by ZEFSAII (Michael W. Deem and Ramdas Pophale) SiO2 
 PCOD9032556
Probable space group: P -1
;
_chemical_formula_sum "Si O2"
_cell_formula_units_Z 14
_cell_length_a 13.736047
_cell_length_b 26.786856
_cell_length_c 21.243067
_cell_angle_alpha 168.197782
_cell_angle_beta 23.066168
_cell_angle_gamma 156.119676
_cell_volume 617.015220
_symmetry_space_group_name_H-M "P -1"
_symmetry_group_IT_number 2
_symmetry_cell_setting 'triclinic'
loop_
_space_group_symop_operation_xyz
x,y,z
-x,-y,-z
loop_
_atom_site_type_symbol
_atom_site_label
_atom_site_fract_x
_atom_site_fract_y
_atom_site_fract_z
Si Si1 0.296005 0.584639 0.571368
Si Si2 0.226065 0.582033 0.262079
Si Si3 0.136653 0.771318 0.771853
Si Si4 0.841311 0.709122 0.425981
Si Si5 0.371459 0.019785 0.812061
Si Si6 0.060888 0.847533 0.336325
Si Si7 0.795480 0.105475 0.451025
O O1 0.304493 0.739270 0.693083
O O2 0.544325 0.682767 0.586190
O O3 0.025243 0.583338 0.763772
O O4 0.313465 0.299169 0.189588
O O5 0.173306 0.640807 0.293817
O O6 0.254291 0.834965 0.598884
O O7 0.500000 0.500000 0.000000
O O8 0.000000 0.500000 0.500000
O O9 0.279239 0.903862 0.791013
O O10 0.924844 0.919702 0.103829
O O11 0.874303 0.817226 0.469249
O O12 0.047918 0.857471 0.532301
O O13 0.906255 0.431833 0.045606
O O14 0.669387 0.031182 0.646652
O O15 0.000000 0.000000 0.500000
O O16 0.500000 0.000000 0.500000
#
# Coordination Sequence:
#
# PCOD9032556 Si02
#       7
#     2   2   2   2   2   2   2
#     4  11  23  46  72  99 141 185 236 288 351 424
#     4  12  25  43  68 103 141 182 231 293 353 411
#     4  12  24  43  73 103 137 188 234 289 353 420
#     4  10  25  46  68 103 144 185 233 297 353 416
#     4  11  23  45  69 103 136 183 238 285 348 422
#     4  10  22  43  72 102 141 187 230 285 354 426
#     4  12  27  46  68 104 144 180 240 302 349 418
#
# _framework density 22.689878
#
# number of rings (size 3 to 8) (size 9 to 14) (size 15 to 20)
#    0.000    0.857    2.857    3.857    2.000    3.429 
#    0.000    0.000    0.000    0.000    0.000    0.000 
#    0.000    0.000    0.000    0.000    0.000    0.000 
#
# Total GULP energy -78332.448780 kJ/mol
# GULP energy per Si atom -5595.174913 kJ/mol
# Density = 2.263823 g / cm^3
# Si number density = 22.689878 Si / 1000 Ang^3
#
#
#
# Elastic Constant Matrix: (Units=GPa)
#
#
# Indices 1 2 3 4 5 6 
#
# 1 134.2537 59.9903 41.3581 -2.3772 -25.4709 -0.7268
# 2 59.9903 153.3929 41.6118 -25.0241 -5.4268 15.5208
# 3 41.3581 41.6118 69.8655 -6.0498 -22.0114 -3.2782
# 4 -2.3772 -25.0241 -6.0498 30.5592 2.1589 -7.9830
# 5 -25.4709 -5.4268 -22.0114 2.1589 36.1266 10.6506
# 6 -0.7268 15.5208 -3.2782 -7.9830 10.6506 47.2070
#
#
#
# Elastic Compliance Matrix: (Units=1/GPa)
#
#
# Indices 1 2 3 4 5 6 
#
# 1 0.011089 -0.003891 -0.002687 -0.003456 0.006002 -0.000675
# 2 -0.003891 0.010516 -0.004651 0.007211 -0.003916 -0.001738
# 3 -0.002687 -0.004651 0.022045 -0.000261 0.010689 0.000563
# 4 -0.003456 0.007211 -0.000261 0.040165 -0.005566 0.005606
# 5 0.006002 -0.003916 0.010689 -0.005566 0.040516 -0.007960
# 6 -0.000675 -0.001738 0.000563 0.005606 -0.007960 0.024527
#
#
# Mechanical properties :
#
#
# Convention : Reuss Voigt Hill
#
# Bulk Modulus (GPa) = 47.18601 71.49249 59.33925
# Shear Modulus (GPa) = 28.03012 37.08202 32.55607
#
# Velocity S-wave (km/s) = 3.51858 4.04703 3.79202
# Velocity P-wave (km/s) = 6.11133 7.30855 6.73659
#
# Compressibility (1/GPa) = 0.02119272
#
# Stress axis : x y z
#
# Youngs Moduli (GPa) = 90.18099 95.09072 45.36176
#
# Poissons Ratio (x) = 0.37000 0.12187
# Poissons Ratio (y) = 0.35090 0.21098
# Poissons Ratio (z) = 0.24228 0.44227
#
# Static dielectric constant tensor:
#      x y z
#    x 1.852090 0.012940 0.004210 
#    y 0.012940 1.828840 -0.007090 
#    z 0.004210 -0.007090 1.851870 
# 
# From -- ./inp_files/612475.got.cif
#   From: 2010.05.17/outbox.cif.g08.bks.cpg/sg2_307_cif.got.tgz:612475.got - 2010.06.03 11:33:40.
