data_PCOD9032026
_publ_section_title
;
Structure prediction by ZEFSAII (Michael W. Deem and Ramdas Pophale) SiO2 
 PCOD9032026
Probable space group: P -1
;
_chemical_formula_sum "Si O2"
_cell_formula_units_Z 12
_cell_length_a 14.299968
_cell_length_b 11.836547
_cell_length_c 5.174738
_cell_angle_alpha 104.960708
_cell_angle_beta 76.200654
_cell_angle_gamma 48.691650
_cell_volume 525.110141
_symmetry_space_group_name_H-M "P -1"
_symmetry_group_IT_number 2
_symmetry_cell_setting 'triclinic'
loop_
_space_group_symop_operation_xyz
x,y,z
-x,-y,-z
loop_
_atom_site_type_symbol
_atom_site_label
_atom_site_fract_x
_atom_site_fract_y
_atom_site_fract_z
Si Si1 0.178183 0.817880 0.323318
Si Si2 0.325190 0.303437 0.231720
Si Si3 0.137218 0.103060 0.666764
Si Si4 0.955434 0.467301 0.758482
Si Si5 0.609991 0.967220 0.597381
Si Si6 0.825904 0.327488 0.246098
O O1 0.198027 0.726638 0.516059
O O2 0.224555 0.908573 0.387642
O O3 0.233132 0.691670 0.969946
O O4 0.000000 0.000000 0.500000
O O5 0.219768 0.393154 0.099899
O O6 0.257997 0.471967 0.540396
O O7 0.320004 0.189793 0.337449
O O8 0.497644 0.155289 0.944539
O O9 0.042071 0.263489 0.608665
O O10 0.261930 0.079476 0.660932
O O11 0.004847 0.186784 0.998768
O O12 0.000000 0.500000 0.500000
O O13 0.000000 0.500000 0.000000
O O14 0.500000 0.000000 0.500000
#
# Coordination Sequence:
#
# PCOD9032026 Si02
#       6
#     2   2   2   2   2   2
#     4  10  22  43  69 107 134 178 235 303 350 406
#     4  11  25  45  66 102 146 188 230 298 353 424
#     4  11  23  44  73 105 142 184 237 296 352 421
#     4  12  24  39  68 104 135 176 236 281 346 416
#     4  11  26  46  67 102 150 189 232 286 366 424
#     4  11  24  43  76 101 137 180 244 294 351 411
#
# _framework density 22.852346000000001
#
# number of rings (size 3 to 8) (size 9 to 14) (size 15 to 20)
#    0.000    1.000    1.667    6.000    4.667    1.333 
#   18.000    1.667    0.000    0.000    0.000    0.000 
#    0.000    0.000    0.000    0.000    0.000    0.000 
#
# Total GULP energy -67139.989619 kJ/mol
# GULP energy per Si atom -5594.999135 kJ/mol
# Density = 2.280033 g / cm^3
# Si number density = 22.852346 Si / 1000 Ang^3
#
#
#
# Elastic Constant Matrix: (Units=GPa)
#
#
# Indices 1 2 3 4 5 6 
#
# 1 109.0336 61.8762 45.2826 7.2686 20.9286 7.6831
# 2 61.8762 138.1732 62.7070 -9.0500 20.0800 4.3309
# 3 45.2826 62.7070 137.4537 8.2649 35.3236 2.5810
# 4 7.2686 -9.0500 8.2649 51.6423 -1.2643 4.8357
# 5 20.9286 20.0800 35.3236 -1.2643 33.7363 4.9384
# 6 7.6831 4.3309 2.5810 4.8357 4.9384 23.6254
#
#
#
# Elastic Compliance Matrix: (Units=1/GPa)
#
#
# Indices 1 2 3 4 5 6 
#
# 1 0.013601 -0.005212 -0.000801 -0.002623 -0.004311 -0.001942
# 2 -0.005212 0.011491 -0.003908 0.003471 0.000740 -0.000850
# 3 -0.000801 -0.003908 0.012109 -0.002990 -0.010322 0.002424
# 4 -0.002623 0.003471 -0.002990 0.021363 0.004181 -0.004703
# 5 -0.004311 0.000740 -0.010322 0.004181 0.043960 -0.007651
# 6 -0.001942 -0.000850 0.002424 -0.004703 -0.007651 0.045412
#
#
# Mechanical properties :
#
#
# Convention : Reuss Voigt Hill
#
# Bulk Modulus (GPa) = 57.60708 80.48803 69.04755
# Shear Modulus (GPa) = 28.80775 36.12042 32.46408
#
# Velocity S-wave (km/s) = 3.55435 3.97999 3.77318
# Velocity P-wave (km/s) = 6.48904 7.51118 7.01874
#
# Compressibility (1/GPa) = 0.01735898
#
# Stress axis : x y z
#
# Youngs Moduli (GPa) = 73.52441 87.02267 82.58248
#
# Poissons Ratio (x) = 0.45353 0.06616
# Poissons Ratio (y) = 0.38318 0.32276
# Poissons Ratio (z) = 0.05890 0.34012
#
# Static dielectric constant tensor:
#      x y z
#    x 1.933510 0.003070 0.006860 
#    y 0.003070 1.845980 0.045350 
#    z 0.006860 0.045350 1.973900 
# 
# From -- ./inp_files/91824.got.cif
#   From: 2010.05.17/outbox.cif.g08.bks.cpg/sg2_46_cif.got.tgz:91824.got - 2010.06.03 11:33:40.
