data_PCOD9032158
_publ_section_title
;
Structure prediction by ZEFSAII (Michael W. Deem and Ramdas Pophale) SiO2 
 PCOD9032158
Probable space group: P -1
;
_chemical_formula_sum "Si O2"
_cell_formula_units_Z 14
_cell_length_a 11.727536
_cell_length_b 7.480621
_cell_length_c 13.425031
_cell_angle_alpha 115.776026
_cell_angle_beta 31.264114
_cell_angle_gamma 113.943310
_cell_volume 548.954972
_symmetry_space_group_name_H-M "P -1"
_symmetry_group_IT_number 2
_symmetry_cell_setting 'triclinic'
loop_
_space_group_symop_operation_xyz
x,y,z
-x,-y,-z
loop_
_atom_site_type_symbol
_atom_site_label
_atom_site_fract_x
_atom_site_fract_y
_atom_site_fract_z
Si Si1 0.105093 0.151380 0.537781
Si Si2 0.054343 0.036133 0.777764
Si Si3 0.834706 0.433874 0.696297
Si Si4 0.459667 0.689065 0.702383
Si Si5 0.831362 0.621970 0.063842
Si Si6 0.715120 0.299606 0.366638
Si Si7 0.621764 0.765960 0.062259
O O1 0.366018 0.183138 0.331678
O O2 0.980941 0.347400 0.652941
O O3 0.073040 0.090580 0.661442
O O4 0.000000 0.000000 0.500000
O O5 0.207168 0.855497 0.648657
O O6 0.796851 0.960498 0.973847
O O7 0.143008 0.211622 0.828910
O O8 0.722404 0.623356 0.869539
O O9 0.000000 0.500000 0.500000
O O10 0.639914 0.268668 0.770084
O O11 0.241680 0.596565 0.895109
O O12 0.583437 0.484678 0.542906
O O13 0.423538 0.789028 0.646664
O O14 0.658145 0.681936 0.125117
O O15 0.060154 0.622460 0.836045
#
# Coordination Sequence:
#
# PCOD9032158 Si02
#       7
#     2   2   2   2   2   2   2
#     4  12  27  43  65  98 134 177 227 273 326 396
#     4  11  24  43  66 100 139 171 215 278 337 394
#     4  11  24  47  72  96 133 180 227 270 319 392
#     4  11  24  42  68  97 131 179 221 268 331 391
#     4  11  23  42  70 102 133 168 218 277 335 396
#     4  10  22  43  69  99 134 170 215 271 334 399
#     4  10  23  43  72 100 130 178 220 268 334 388
#
# _framework density 25.503003
#
# number of rings (size 3 to 8) (size 9 to 14) (size 15 to 20)
#    0.000    1.143    0.000    7.286    0.000    8.571 
#    0.000    1.429    0.000    0.857    0.000    0.000 
#    0.000    0.000    0.000    0.000    0.000    0.000 
#
# Total GULP energy -78449.462681 kJ/mol
# GULP energy per Si atom -5603.533049 kJ/mol
# Density = 2.544496 g / cm^3
# Si number density = 25.503003 Si / 1000 Ang^3
#
#
#
# Elastic Constant Matrix: (Units=GPa)
#
#
# Indices 1 2 3 4 5 6 
#
# 1 196.0330 58.4129 52.5985 -22.6444 -8.9299 -9.3291
# 2 58.4129 113.2185 32.9263 -22.1843 6.2018 4.6753
# 3 52.5985 32.9263 101.1387 -7.4995 -2.8071 -11.0851
# 4 -22.6444 -22.1843 -7.4995 33.8641 6.0418 -0.0299
# 5 -8.9299 6.2018 -2.8071 6.0418 55.2246 -4.8896
# 6 -9.3291 4.6753 -11.0851 -0.0299 -4.8896 69.3491
#
#
#
# Elastic Compliance Matrix: (Units=1/GPa)
#
#
# Indices 1 2 3 4 5 6 
#
# 1 0.006843 -0.002466 -0.002477 0.002219 0.001083 0.000768
# 2 -0.002466 0.012305 -0.002522 0.006344 -0.002758 -0.001756
# 3 -0.002477 -0.002522 0.012163 -0.000746 0.000745 0.001833
# 4 0.002219 0.006344 -0.000746 0.035780 -0.004354 -0.000540
# 5 0.001083 -0.002758 0.000745 -0.004354 0.019267 0.001807
# 6 0.000768 -0.001756 0.001833 -0.000540 0.001807 0.015062
#
#
# Mechanical properties :
#
#
# Convention : Reuss Voigt Hill
#
# Bulk Modulus (GPa) = 61.04932 77.58509 69.31720
# Shear Modulus (GPa) = 41.04725 49.45108 45.24916
#
# Velocity S-wave (km/s) = 4.01622 4.40822 4.21678
# Velocity P-wave (km/s) = 6.74513 7.50985 7.13774
#
# Compressibility (1/GPa) = 0.01638020
#
# Stress axis : x y z
#
# Youngs Moduli (GPa) = 146.13649 81.26743 82.21703
#
# Poissons Ratio (x) = 0.20043 0.20365
# Poissons Ratio (y) = 0.36042 0.20735
# Poissons Ratio (z) = 0.36198 0.20495
#
# Static dielectric constant tensor:
#      x y z
#    x 1.943820 0.020130 -0.049440 
#    y 0.020130 2.093270 0.046610 
#    z -0.049440 0.046610 2.054140 
# 
# From -- ./inp_files/515835.got.cif
#   From: 2010.05.17/outbox.cif.g08.bks.cpg/sg2_258_cif.got.tgz:515835.got - 2010.06.03 11:33:40.
