data_PCOD9032995
_publ_section_title
;
Structure prediction by ZEFSAII (Michael W. Deem and Ramdas Pophale) SiO2 
 PCOD9032995
Probable space group: P -1
;
_chemical_formula_sum "Si O2"
_cell_formula_units_Z 16
_cell_length_a 22.803001
_cell_length_b 9.322578
_cell_length_c 25.689989
_cell_angle_alpha 26.119309
_cell_angle_beta 161.530493
_cell_angle_gamma 153.427395
_cell_volume 725.032211
_symmetry_space_group_name_H-M "P -1"
_symmetry_group_IT_number 2
_symmetry_cell_setting 'triclinic'
loop_
_space_group_symop_operation_xyz
x,y,z
-x,-y,-z
loop_
_atom_site_type_symbol
_atom_site_label
_atom_site_fract_x
_atom_site_fract_y
_atom_site_fract_z
Si Si1 0.393703 0.884329 0.503283
Si Si2 0.534822 0.280659 0.806624
Si Si3 0.298317 0.837282 0.235781
Si Si4 0.261384 0.585786 0.836758
Si Si5 0.972748 0.684462 0.178124
Si Si6 0.948749 0.364370 0.153459
Si Si7 0.444528 0.004537 0.193780
Si Si8 0.829049 0.559226 0.306263
O O1 0.390717 0.489641 0.633368
O O2 0.174050 0.899037 0.306077
O O3 0.500000 0.000000 0.500000
O O4 0.532953 0.059682 0.611657
O O5 0.453638 0.910731 0.886721
O O6 0.539031 0.226086 0.765943
O O7 0.757828 0.482307 0.942967
O O8 0.129067 0.507253 0.220238
O O9 0.395743 0.817342 0.268525
O O10 0.172556 0.103765 0.032246
O O11 0.144015 0.593004 0.787586
O O12 0.164476 0.577256 0.702124
O O13 0.291504 0.210103 0.986217
O O14 0.019842 0.500583 0.226353
O O15 0.861859 0.960437 0.205138
O O16 0.638633 0.323909 0.251307
O O17 0.000000 0.500000 0.500000
#
# Coordination Sequence:
#
# PCOD9032995 Si02
#       8
#     2   2   2   2   2   2   2   2
#     4  12  25  44  64  92 137 176 214 274 324 382
#     4  11  22  42  70  93 130 174 218 268 327 387
#     4  11  25  44  68  98 132 173 220 267 329 386
#     4  10  22  44  64  96 127 169 219 269 325 388
#     4  11  25  42  67  97 133 170 221 269 325 389
#     4  12  22  43  66  98 129 175 221 261 330 394
#     4  10  22  45  66  95 128 170 218 270 323 390
#     4  11  24  41  65  94 134 171 216 269 325 384
#
# _framework density 22.067985
#
# number of rings (size 3 to 8) (size 9 to 14) (size 15 to 20)
#    0.000    1.000    5.000    1.875    5.250    2.500 
#    2.250    1.250    0.000    0.000    0.000    0.000 
#    0.000    0.000    0.000    0.000    0.000    0.000 
#
# Total GULP energy -89297.645214 kJ/mol
# GULP energy per Si atom -5581.102826 kJ/mol
# Density = 2.201776 g / cm^3
# Si number density = 22.067985 Si / 1000 Ang^3
#
#
#
# Elastic Constant Matrix: (Units=GPa)
#
#
# Indices 1 2 3 4 5 6 
#
# 1 63.6846 16.3148 58.3718 38.6154 25.6367 54.5767
# 2 16.3148 69.0311 41.0411 33.8115 15.6337 23.3891
# 3 58.3718 41.0411 60.0302 17.1033 -46.2588 -10.8364
# 4 38.6154 33.8115 17.1033 26.6375 -22.6397 -0.9043
# 5 25.6367 15.6337 -46.2588 -22.6397 -7.0936 -14.5080
# 6 54.5767 23.3891 -10.8364 -0.9043 -14.5080 20.8319
#
#
#
# Elastic Compliance Matrix: (Units=1/GPa)
#
#
# Indices 1 2 3 4 5 6 
#
# 1 0.014013 -0.007960 0.003903 0.003733 0.019825 -0.011777
# 2 -0.007960 0.015963 0.002330 -0.007473 0.002996 0.005905
# 3 0.003903 0.002330 0.014655 -0.019198 -0.001107 -0.006822
# 4 0.003733 -0.007473 -0.019198 0.048600 -0.005754 -0.013273
# 5 0.019825 0.002996 -0.001107 -0.005754 0.032032 -0.033819
# 6 -0.011777 0.005905 -0.006822 -0.013273 -0.033819 0.044551
#
#
# Mechanical properties :
#
#
# Convention : Reuss Voigt Hill
#
# Bulk Modulus (GPa) = 24.28494 47.13346 35.70920
# Shear Modulus (GPa) = 26.73856 13.20970 19.97413
#
# Velocity S-wave (km/s) = 3.48465 2.44927 3.01178
# Velocity P-wave (km/s) = 5.21717 5.42247 5.32081
#
# Compressibility (1/GPa) = 0.04117778
#
# Stress axis : x y z
#
# Youngs Moduli (GPa) = 71.36027 62.64296 68.23469
#
# Poissons Ratio (x) = 0.49863 -0.26632
# Poissons Ratio (y) = 0.56802 -0.15897
# Poissons Ratio (z) = -0.27852 -0.14594
#
# Static dielectric constant tensor:
#      x y z
#    x 1.737100 0.006930 -0.061320 
#    y 0.006930 1.799930 -0.020500 
#    z -0.061320 -0.020500 1.780820 
# 
# From -- ./inp_files/347653.got.cif
#   From: 2010.05.17/outbox.cif.g08.bks.cpg/sg2_174_cif.got.tgz:347653.got - 2010.06.03 11:33:40.
