data_PCOD9032788
_publ_section_title
;
Structure prediction by ZEFSAII (Michael W. Deem and Ramdas Pophale) SiO2 
 PCOD9032788
Probable space group: P -1
;
_chemical_formula_sum "Si O2"
_cell_formula_units_Z 14
_cell_length_a 13.555998
_cell_length_b 9.768716
_cell_length_c 7.539370
_cell_angle_alpha 99.507857
_cell_angle_beta 112.636377
_cell_angle_gamma 41.373554
_cell_volume 596.431972
_symmetry_space_group_name_H-M "P -1"
_symmetry_group_IT_number 2
_symmetry_cell_setting 'triclinic'
loop_
_space_group_symop_operation_xyz
x,y,z
-x,-y,-z
loop_
_atom_site_type_symbol
_atom_site_label
_atom_site_fract_x
_atom_site_fract_y
_atom_site_fract_z
Si Si1 0.353137 0.249510 0.501479
Si Si2 0.800154 0.042924 0.324096
Si Si3 0.985057 0.526868 0.712046
Si Si4 0.224401 0.820197 0.028645
Si Si5 0.008038 0.163496 0.243756
Si Si6 0.330011 0.125012 0.824549
Si Si7 0.560876 0.515074 0.368059
O O1 0.321329 0.240291 0.680947
O O2 0.398938 0.364567 0.540092
O O3 0.177753 0.391145 0.321459
O O4 0.500000 0.000000 0.500000
O O5 0.707660 0.276051 0.352090
O O6 0.950630 0.882508 0.528777
O O7 0.684011 0.023097 0.274244
O O8 0.839510 0.017296 0.138134
O O9 0.161558 0.306804 0.855633
O O10 0.000000 0.500000 0.500000
O O11 0.964369 0.708551 0.772665
O O12 0.414509 0.652873 0.154380
O O13 0.136610 0.942979 0.178793
O O14 0.166785 0.724398 0.907794
O O15 0.500000 0.000000 0.000000
O O16 0.500000 0.500000 0.500000
#
# Coordination Sequence:
#
# PCOD9032788 Si02
#       7
#     2   2   2   2   2   2   2
#     4  11  23  45  73  99 144 191 238 296 366 438
#     4  12  24  44  73 101 146 193 242 296 373 431
#     4  10  22  43  74  98 142 192 243 291 372 437
#     4  11  26  42  69 107 145 188 242 302 361 439
#     4  11  23  47  68 102 149 185 243 307 358 436
#     4  11  25  45  70 107 144 186 248 301 362 444
#     4  12  25  44  71 106 146 190 243 301 371 431
#
# _framework density 23.472922000000001
#
# number of rings (size 3 to 8) (size 9 to 14) (size 15 to 20)
#    0.000    0.857    4.286    3.429    6.000    1.143 
#    0.000    1.429    0.000    0.000    0.000    0.000 
#    0.000    0.000    0.000    0.000    0.000    0.000 
#
# Total GULP energy -78268.868399 kJ/mol
# GULP energy per Si atom -5590.633457 kJ/mol
# Density = 2.341950 g / cm^3
# Si number density = 23.472922 Si / 1000 Ang^3
#
#
#
# Elastic Constant Matrix: (Units=GPa)
#
#
# Indices 1 2 3 4 5 6 
#
# 1 150.9460 48.8300 59.2931 2.4559 41.2854 26.7111
# 2 48.8300 103.1856 36.3541 -10.0275 40.8278 10.3477
# 3 59.2931 36.3541 119.3549 -8.9865 34.2815 5.1229
# 4 2.4559 -10.0275 -8.9865 27.0871 -3.9355 14.8327
# 5 41.2854 40.8278 34.2815 -3.9355 65.1777 3.2693
# 6 26.7111 10.3477 5.1229 14.8327 3.2693 46.8659
#
#
#
# Elastic Compliance Matrix: (Units=1/GPa)
#
#
# Indices 1 2 3 4 5 6 
#
# 1 0.010358 -0.001987 -0.003448 -0.000776 -0.003319 -0.004611
# 2 -0.001987 0.014617 -0.000869 0.006210 -0.006891 -0.003485
# 3 -0.003448 -0.000869 0.011500 0.003315 -0.003124 0.000069
# 4 -0.000776 0.006210 0.003315 0.049418 -0.001313 -0.016840
# 5 -0.003319 -0.006891 -0.003124 -0.001313 0.023197 0.002552
# 6 -0.004611 -0.003485 0.000069 -0.016840 0.002552 0.029879
#
#
# Mechanical properties :
#
#
# Convention : Reuss Voigt Hill
#
# Bulk Modulus (GPa) = 41.89719 73.60455 57.75087
# Shear Modulus (GPa) = 31.34172 43.09344 37.21758
#
# Velocity S-wave (km/s) = 3.65804 4.28936 3.98622
# Velocity P-wave (km/s) = 5.97742 7.48043 6.77076
#
# Compressibility (1/GPa) = 0.02386795
#
# Stress axis : x y z
#
# Youngs Moduli (GPa) = 96.54107 68.41277 86.95952
#
# Poissons Ratio (x) = 0.13593 0.29983
# Poissons Ratio (y) = 0.19182 0.07555
# Poissons Ratio (z) = 0.33286 0.05943
#
# Static dielectric constant tensor:
#      x y z
#    x 1.918610 -0.044310 0.003550 
#    y -0.044310 1.907600 -0.014620 
#    z 0.003550 -0.014620 1.938090 
# 
# From -- ./inp_files/244691.got.cif
#   From: 2010.05.17/outbox.cif.g08.bks.cpg/sg2_123_cif.got.tgz:244691.got - 2010.06.03 11:33:40.
