data_PCOD9032071
_publ_section_title
;
Structure prediction by ZEFSAII (Michael W. Deem and Ramdas Pophale) SiO2 
 PCOD9032071
Probable space group: P -1
;
_chemical_formula_sum "Si O2"
_cell_formula_units_Z 16
_cell_length_a 18.127176
_cell_length_b 9.112573
_cell_length_c 8.452317
_cell_angle_alpha 48.586812
_cell_angle_beta 112.116371
_cell_angle_gamma 131.275555
_cell_volume 782.482942
_symmetry_space_group_name_H-M "P -1"
_symmetry_group_IT_number 2
_symmetry_cell_setting 'triclinic'
loop_
_space_group_symop_operation_xyz
x,y,z
-x,-y,-z
loop_
_atom_site_type_symbol
_atom_site_label
_atom_site_fract_x
_atom_site_fract_y
_atom_site_fract_z
Si Si1 0.419381 0.778960 0.491736
Si Si2 0.920578 0.003704 0.042183
Si Si3 0.562956 0.935525 0.998736
Si Si4 0.272678 0.947223 0.698128
Si Si5 0.056681 0.770241 0.775579
Si Si6 0.453807 0.407925 0.356412
Si Si7 0.069513 0.540488 0.383489
Si Si8 0.770825 0.458199 0.291762
O O1 0.474348 0.657421 0.594925
O O2 0.325894 0.627331 0.632715
O O3 0.500000 0.000000 0.500000
O O4 0.399557 0.887327 0.247015
O O5 0.943299 0.060576 0.209712
O O6 0.825328 0.740999 0.107405
O O7 0.905181 0.209654 0.843431
O O8 0.000000 0.000000 0.000000
O O9 0.484132 0.645015 0.113279
O O10 0.500000 0.000000 0.000000
O O11 0.654246 0.991998 0.138894
O O12 0.169394 0.887489 0.723618
O O13 0.247338 0.708927 0.754200
O O14 0.340237 0.175964 0.465985
O O15 0.990213 0.686449 0.623155
O O16 0.000000 0.500000 0.000000
O O17 0.500000 0.500000 0.500000
O O18 0.161319 0.564890 0.515579
O O19 0.000000 0.500000 0.500000
#
# Coordination Sequence:
#
# PCOD9032071 Si02
#       8
#     2   2   2   2   2   2   2   2
#     4  12  25  45  64 102 139 171 223 282 338 401
#     4  11  24  44  67  96 134 176 224 280 334 398
#     4  11  23  43  71  96 131 181 226 275 335 400
#     4  11  22  45  67  97 136 178 221 276 338 402
#     4  10  23  41  70  95 133 178 219 274 335 398
#     4  10  22  43  69  94 136 174 222 278 328 406
#     4  11  22  46  66  94 136 174 222 277 334 396
#     4  12  25  43  67  98 137 173 220 282 333 401
#
# _framework density 20.44773
#
# number of rings (size 3 to 8) (size 9 to 14) (size 15 to 20)
#    0.000    1.000    6.250    0.750    7.000    1.000 
#    4.500    0.000    0.000    0.000    0.000    0.000 
#    0.000    0.000    0.000    0.000    0.000    0.000 
#
# Total GULP energy -89097.929421 kJ/mol
# GULP energy per Si atom -5568.620589 kJ/mol
# Density = 2.040119 g / cm^3
# Si number density = 20.447730 Si / 1000 Ang^3
#
#
#
# Elastic Constant Matrix: (Units=GPa)
#
#
# Indices 1 2 3 4 5 6 
#
# 1 146.2145 43.0932 21.1324 -15.8460 -19.9181 1.5061
# 2 43.0932 113.6378 19.5883 -15.7282 -13.1743 -7.6453
# 3 21.1324 19.5883 61.0202 -20.7616 -0.1747 4.9349
# 4 -15.8460 -15.7282 -20.7616 35.6488 -0.7990 -4.7552
# 5 -19.9181 -13.1743 -0.1747 -0.7990 37.2259 -3.9578
# 6 1.5061 -7.6453 4.9349 -4.7552 -3.9578 48.2438
#
#
#
# Elastic Compliance Matrix: (Units=1/GPa)
#
#
# Indices 1 2 3 4 5 6 
#
# 1 0.008443 -0.002225 -0.001532 0.001969 0.003770 0.000044
# 2 -0.002225 0.010920 -0.001860 0.003153 0.003004 0.002547
# 3 -0.001532 -0.001860 0.021255 0.010651 -0.001307 -0.001478
# 4 0.001969 0.003153 0.010651 0.037033 0.003362 0.003275
# 5 0.003770 0.003004 -0.001307 0.003362 0.030362 0.003314
# 6 0.000044 0.002547 -0.001478 0.003275 0.003314 0.021876
#
#
# Mechanical properties :
#
#
# Convention : Reuss Voigt Hill
#
# Bulk Modulus (GPa) = 34.03162 54.27779 44.15471
# Shear Modulus (GPa) = 33.13045 40.02760 36.57902
#
# Velocity S-wave (km/s) = 4.02960 4.42923 4.23413
# Velocity P-wave (km/s) = 6.19109 7.26359 6.74868
#
# Compressibility (1/GPa) = 0.02938443
#
# Stress axis : x y z
#
# Youngs Moduli (GPa) = 118.44091 91.57292 47.04693
#
# Poissons Ratio (x) = 0.20375 0.07210
# Poissons Ratio (y) = 0.26353 0.08749
# Poissons Ratio (z) = 0.18151 0.17029
#
# Static dielectric constant tensor:
#      x y z
#    x 1.647710 -0.013720 -0.073700 
#    y -0.013720 1.739980 -0.005190 
#    z -0.073700 -0.005190 1.701670 
# 
# From -- ./inp_files/297350.got.cif
#   From: 2010.05.17/outbox.cif.g08.bks.cpg/sg2_149_cif.got.tgz:297350.got - 2010.06.03 11:33:40.
