data_PCOD9032210
_publ_section_title
;
Structure prediction by ZEFSAII (Michael W. Deem and Ramdas Pophale) SiO2 
 PCOD9032210
Probable space group: P -1
;
_chemical_formula_sum "Si O2"
_cell_formula_units_Z 12
_cell_length_a 16.581493
_cell_length_b 8.105582
_cell_length_c 9.269087
_cell_angle_alpha 51.298946
_cell_angle_beta 37.467088
_cell_angle_gamma 71.089543
_cell_volume 551.149418
_symmetry_space_group_name_H-M "P -1"
_symmetry_group_IT_number 2
_symmetry_cell_setting 'triclinic'
loop_
_space_group_symop_operation_xyz
x,y,z
-x,-y,-z
loop_
_atom_site_type_symbol
_atom_site_label
_atom_site_fract_x
_atom_site_fract_y
_atom_site_fract_z
Si Si1 0.640000 0.491795 0.227885
Si Si2 0.526368 0.574060 0.759193
Si Si3 0.109967 0.558432 0.444924
Si Si4 0.944397 0.755997 0.783577
Si Si5 0.836914 0.750420 0.244224
Si Si6 0.687142 0.086076 0.242619
O O1 0.500000 0.500000 0.500000
O O2 0.606760 0.560199 0.077018
O O3 0.656784 0.248720 0.314546
O O4 0.783079 0.645177 0.015943
O O5 0.682529 0.570162 0.506906
O O6 0.558463 0.843067 0.542683
O O7 0.500000 0.500000 0.000000
O O8 0.040045 0.633198 0.640665
O O9 0.000000 0.500000 0.500000
O O10 0.136988 0.342736 0.588891
O O11 0.248054 0.761255 0.075002
O O12 0.943203 0.767059 0.952498
O O13 0.000000 0.000000 0.500000
O O14 0.809322 0.985692 0.169481
#
# Coordination Sequence:
#
# PCOD9032210 Si02
#       6
#     2   2   2   2   2   2
#     4  12  23  44  72 101 143 184 233 283 352 416
#     4  10  22  43  70 101 137 181 231 284 345 418
#     4  12  24  45  74 100 139 187 237 290 348 418
#     4  12  24  46  69 107 142 187 229 295 343 413
#     4  10  24  44  68 103 138 180 238 285 348 411
#     4  10  23  44  73 100 138 185 228 291 348 406
#
# _framework density 21.772679
#
# number of rings (size 3 to 8) (size 9 to 14) (size 15 to 20)
#    1.000    0.000    5.000    2.000    0.000    0.667 
#    3.000    0.833    0.000    0.000    0.000    0.000 
#    0.000    0.000    0.000    0.000    0.000    0.000 
#
# Total GULP energy -66885.171110 kJ/mol
# GULP energy per Si atom -5573.764259 kJ/mol
# Density = 2.172312 g / cm^3
# Si number density = 21.772679 Si / 1000 Ang^3
#
#
#
# Elastic Constant Matrix: (Units=GPa)
#
#
# Indices 1 2 3 4 5 6 
#
# 1 81.5598 12.7390 38.6118 -14.4053 14.6709 1.7714
# 2 12.7390 113.8885 47.1298 23.3267 15.6783 -9.0903
# 3 38.6118 47.1298 150.2308 9.6135 18.3969 -1.8231
# 4 -14.4053 23.3267 9.6135 36.9395 -6.8534 2.4117
# 5 14.6709 15.6783 18.3969 -6.8534 50.1241 -6.5389
# 6 1.7714 -9.0903 -1.8231 2.4117 -6.5389 21.0401
#
#
#
# Elastic Compliance Matrix: (Units=1/GPa)
#
#
# Indices 1 2 3 4 5 6 
#
# 1 0.016426 -0.002016 -0.003931 0.008586 -0.002113 -0.004235
# 2 -0.002016 0.012754 -0.002462 -0.009123 -0.003015 0.005575
# 3 -0.003931 -0.002462 0.008808 -0.002571 -0.001690 -0.000200
# 4 0.008586 -0.009123 -0.002571 0.038372 0.005544 -0.007563
# 5 -0.002113 -0.003015 -0.001690 0.005544 0.023598 0.005427
# 6 -0.004235 0.005575 -0.000200 -0.007563 0.005427 0.052830
#
#
# Mechanical properties :
#
#
# Convention : Reuss Voigt Hill
#
# Bulk Modulus (GPa) = 47.24112 60.29337 53.76724
# Shear Modulus (GPa) = 28.30258 38.10066 33.20162
#
# Velocity S-wave (km/s) = 3.60934 4.18775 3.90926
# Velocity P-wave (km/s) = 6.25414 7.15090 6.71750
#
# Compressibility (1/GPa) = 0.02116800
#
# Stress axis : x y z
#
# Youngs Moduli (GPa) = 60.88077 78.40976 113.53021
#
# Poissons Ratio (x) = 0.15810 0.44631
# Poissons Ratio (y) = 0.12276 0.27952
# Poissons Ratio (z) = 0.23934 0.19305
#
# Static dielectric constant tensor:
#      x y z
#    x 1.874380 -0.027060 -0.029830 
#    y -0.027060 1.899720 -0.008670 
#    z -0.029830 -0.008670 1.759350 
# 
# From -- ./inp_files/326929.got.cif
#   From: 2010.05.17/outbox.cif.g08.bks.cpg/sg2_164_cif.got.tgz:326929.got - 2010.06.03 11:33:40.
