data_PCOD9032232
_publ_section_title
;
Structure prediction by ZEFSAII (Michael W. Deem and Ramdas Pophale) SiO2 
 PCOD9032232
Probable space group: P -1
;
_chemical_formula_sum "Si O2"
_cell_formula_units_Z 16
_cell_length_a 14.950081
_cell_length_b 13.836197
_cell_length_c 6.027992
_cell_angle_alpha 90.703587
_cell_angle_beta 108.660532
_cell_angle_gamma 38.379906
_cell_volume 670.455943
_symmetry_space_group_name_H-M "P -1"
_symmetry_group_IT_number 2
_symmetry_cell_setting 'triclinic'
loop_
_space_group_symop_operation_xyz
x,y,z
-x,-y,-z
loop_
_atom_site_type_symbol
_atom_site_label
_atom_site_fract_x
_atom_site_fract_y
_atom_site_fract_z
Si Si1 0.599369 0.053004 0.136185
Si Si2 0.319540 0.430104 0.017105
Si Si3 0.409720 0.646220 0.603491
Si Si4 0.413858 0.130767 0.628759
Si Si5 0.046611 0.502256 0.288007
Si Si6 0.014708 0.725446 0.100720
Si Si7 0.831672 0.296752 0.398495
Si Si8 0.837499 0.981935 0.605789
O O1 0.421948 0.244905 0.090694
O O2 0.634554 0.915624 0.243560
O O3 0.737057 0.010787 0.332564
O O4 0.551798 0.084512 0.842815
O O5 0.450084 0.401990 0.191291
O O6 0.164313 0.560684 0.061009
O O7 0.246532 0.534434 0.733199
O O8 0.500000 0.500000 0.500000
O O9 0.310030 0.664129 0.699218
O O10 0.269558 0.836130 0.400670
O O11 0.246479 0.327088 0.443594
O O12 0.500000 0.000000 0.500000
O O13 0.971292 0.673400 0.223294
O O14 0.000000 0.500000 0.500000
O O15 0.000000 0.500000 0.000000
O O16 0.086117 0.754240 0.299103
O O17 0.870426 0.881228 0.829128
O O18 0.980273 0.144659 0.345605
#
# Coordination Sequence:
#
# PCOD9032232 Si02
#       8
#     2   2   2   2   2   2   2   2
#     4  10  23  43  68  98 141 182 241 298 360 426
#     4  10  22  43  70 102 138 188 241 296 361 441
#     4  11  22  46  67 104 140 185 233 294 366 436
#     4  11  25  44  72 102 141 188 245 303 361 434
#     4  12  30  47  76 109 152 195 248 309 375 443
#     4  11  24  44  71 102 138 191 244 300 364 438
#     4  11  23  42  70  99 140 184 240 300 361 433
#     4  10  25  44  69 101 141 186 240 296 362 435
#
# _framework density 23.864356999999998
#
# number of rings (size 3 to 8) (size 9 to 14) (size 15 to 20)
#    0.000    1.250    1.250    3.000   10.500    1.500 
#    6.750    0.000    0.000    0.000    0.000    0.000 
#    0.000    0.000    0.000    0.000    0.000    0.000 
#
# Total GULP energy -89443.488005 kJ/mol
# GULP energy per Si atom -5590.218000 kJ/mol
# Density = 2.381004 g / cm^3
# Si number density = 23.864357 Si / 1000 Ang^3
#
#
#
# Elastic Constant Matrix: (Units=GPa)
#
#
# Indices 1 2 3 4 5 6 
#
# 1 105.4996 40.4460 35.9094 -10.1222 -11.1456 -6.9221
# 2 40.4460 141.2029 42.8212 -21.5833 -11.0549 7.5217
# 3 35.9094 42.8212 119.0347 -10.6773 -5.2621 5.7925
# 4 -10.1222 -21.5833 -10.6773 39.6614 10.6860 -1.9785
# 5 -11.1456 -11.0549 -5.2621 10.6860 28.7366 2.4949
# 6 -6.9221 7.5217 5.7925 -1.9785 2.4949 38.7384
#
#
#
# Elastic Compliance Matrix: (Units=1/GPa)
#
#
# Indices 1 2 3 4 5 6 
#
# 1 0.011845 -0.002462 -0.002671 0.000357 0.002779 0.002833
# 2 -0.002462 0.009122 -0.002100 0.003394 0.001063 -0.001792
# 3 -0.002671 -0.002100 0.010106 0.000870 -0.000184 -0.001524
# 4 0.000357 0.003394 0.000870 0.030072 -0.009704 0.001435
# 5 0.002779 0.001063 -0.000184 -0.009704 0.040100 -0.002760
# 6 0.002833 -0.001792 -0.001524 0.001435 -0.002760 0.027147
#
#
# Mechanical properties :
#
#
# Convention : Reuss Voigt Hill
#
# Bulk Modulus (GPa) = 60.21269 67.12116 63.66693
# Shear Modulus (GPa) = 33.69415 37.86464 35.77939
#
# Velocity S-wave (km/s) = 3.76161 3.98761 3.87626
# Velocity P-wave (km/s) = 6.64471 7.02770 6.83889
#
# Compressibility (1/GPa) = 0.01660779
#
# Stress axis : x y z
#
# Youngs Moduli (GPa) = 84.42130 109.63057 98.94975
#
# Poissons Ratio (x) = 0.26989 0.26428
# Poissons Ratio (y) = 0.20783 0.20780
# Poissons Ratio (z) = 0.22547 0.23023
#
# Static dielectric constant tensor:
#      x y z
#    x 1.949150 -0.021600 -0.037910 
#    y -0.021600 1.872850 0.025700 
#    z -0.037910 0.025700 1.962840 
# 
# From -- ./inp_files/98195.got.cif
#   From: 2010.05.17/outbox.cif.g08.bks.cpg/sg2_50_cif.got.tgz:98195.got - 2010.06.03 11:33:40.
