data_PCOD9032411
_publ_section_title
;
Structure prediction by ZEFSAII (Michael W. Deem and Ramdas Pophale) SiO2 
 PCOD9032411
Probable space group: P -1
;
_chemical_formula_sum "Si O2"
_cell_formula_units_Z 15
_cell_length_a 7.922306
_cell_length_b 10.553260
_cell_length_c 14.711893
_cell_angle_alpha 45.998202
_cell_angle_beta 127.162490
_cell_angle_gamma 95.718449
_cell_volume 585.005066
_symmetry_space_group_name_H-M "P -1"
_symmetry_group_IT_number 2
_symmetry_cell_setting 'triclinic'
loop_
_space_group_symop_operation_xyz
x,y,z
-x,-y,-z
loop_
_atom_site_type_symbol
_atom_site_label
_atom_site_fract_x
_atom_site_fract_y
_atom_site_fract_z
Si Si1 0.292224 0.068108 0.741404
Si Si2 0.002436 0.954034 0.828872
Si Si3 0.810267 0.447260 0.038729
Si Si4 0.032337 0.470548 0.654192
Si Si5 0.084719 0.624863 0.136823
Si Si6 0.725565 0.206034 0.277631
Si Si7 0.389181 0.574441 0.528689
Si Si8 0.500000 0.000000 0.000000
O O1 0.062602 0.284864 0.514336
O O2 0.213361 0.010626 0.844524
O O3 0.367106 0.888148 0.783227
O O4 0.524257 0.058281 0.868001
O O5 0.073585 0.767666 0.874250
O O6 0.969797 0.868266 0.955049
O O7 0.741472 0.177068 0.619651
O O8 0.774032 0.369495 0.163927
O O9 0.993850 0.524811 0.082688
O O10 0.527595 0.645827 0.817695
O O11 0.964910 0.437132 0.750756
O O12 0.838412 0.458839 0.529099
O O13 0.310847 0.268325 0.827705
O O14 0.381756 0.536248 0.272292
O O15 0.000000 0.000000 0.500000
O O16 0.500000 0.500000 0.500000
#
# Coordination Sequence:
#
# PCOD9032411 Si02
#       8
#     2   2   2   2   2   2   2   1
#     4  11  25  42  70 106 137 179 238 287 355 408
#     4  11  25  44  66 105 138 184 235 289 352 417
#     4  10  23  43  67 105 135 180 241 279 355 416
#     4  11  25  45  68 105 135 184 238 286 348 419
#     4  11  25  45  71  95 144 189 229 290 349 423
#     4  10  22  43  71 102 141 180 227 300 351 411
#     4  10  25  44  64  98 141 184 233 284 346 419
#     4  12  24  42  74  96 144 176 232 298 342 410
#
# _framework density 25.640802999999998
#
# number of rings (size 3 to 8) (size 9 to 14) (size 15 to 20)
#    0.000    1.333    1.333    2.400    1.867   12.267 
#    0.000    0.000    0.000    0.000    0.000    0.000 
#    0.000    0.000    0.000    0.000    0.000    0.000 
#
# Total GULP energy -83569.412944 kJ/mol
# GULP energy per Si atom -5571.294196 kJ/mol
# Density = 2.558244 g / cm^3
# Si number density = 25.640803 Si / 1000 Ang^3
#
#
#
# Elastic Constant Matrix: (Units=GPa)
#
#
# Indices 1 2 3 4 5 6 
#
# 1 80.7238 34.0234 13.4671 -7.4595 -5.1989 -0.0634
# 2 34.0234 113.6471 11.9037 -10.8833 8.9271 -1.3071
# 3 13.4671 11.9037 106.2788 -10.3046 2.2212 5.9313
# 4 -7.4595 -10.8833 -10.3046 44.2399 -0.9996 -1.1852
# 5 -5.1989 8.9271 2.2212 -0.9996 45.7936 -2.0067
# 6 -0.0634 -1.3071 5.9313 -1.1852 -2.0067 38.4152
#
#
#
# Elastic Compliance Matrix: (Units=1/GPa)
#
#
# Indices 1 2 3 4 5 6 
#
# 1 0.014725 -0.004360 -0.001334 0.001166 0.002623 0.000255
# 2 -0.004360 0.010510 -0.000427 0.001704 -0.002471 0.000340
# 3 -0.001334 -0.000427 0.009909 0.001925 -0.000573 -0.001517
# 4 0.001166 0.001704 0.001925 0.023687 0.000246 0.000506
# 5 0.002623 -0.002471 -0.000573 0.000246 0.022702 0.001202
# 6 0.000255 0.000340 -0.001517 0.000506 0.001202 0.026356
#
#
# Mechanical properties :
#
#
# Convention : Reuss Voigt Hill
#
# Bulk Modulus (GPa) = 43.66098 46.60424 45.13261
# Shear Modulus (GPa) = 39.13409 41.77345 40.45377
#
# Velocity S-wave (km/s) = 3.91095 4.04069 3.97635
# Velocity P-wave (km/s) = 6.12037 6.32335 6.22269
#
# Compressibility (1/GPa) = 0.02290375
#
# Stress axis : x y z
#
# Youngs Moduli (GPa) = 67.91205 95.14370 100.91565
#
# Poissons Ratio (x) = 0.41484 0.13457
# Poissons Ratio (y) = 0.29610 0.04307
# Poissons Ratio (z) = 0.09056 0.04061
#
# Static dielectric constant tensor:
#      x y z
#    x 2.195500 0.057030 0.001010 
#    y 0.057030 2.214190 0.072840 
#    z 0.001010 0.072840 2.115150 
# 
# From -- ./inp_files/558990.got.cif
#   From: 2010.05.17/outbox.cif.g08.bks.cpg/sg2_280_cif.got.tgz:558990.got - 2010.06.03 11:33:40.
