data_PCOD9032606
_publ_section_title
;
Structure prediction by ZEFSAII (Michael W. Deem and Ramdas Pophale) SiO2 
 PCOD9032606
Probable space group: P -1
;
_chemical_formula_sum "Si O2"
_cell_formula_units_Z 16
_cell_length_a 21.260056
_cell_length_b 5.128752
_cell_length_c 8.099396
_cell_angle_alpha 64.661535
_cell_angle_beta 56.720328
_cell_angle_gamma 55.793440
_cell_volume 601.403739
_symmetry_space_group_name_H-M "P -1"
_symmetry_group_IT_number 2
_symmetry_cell_setting 'triclinic'
loop_
_space_group_symop_operation_xyz
x,y,z
-x,-y,-z
loop_
_atom_site_type_symbol
_atom_site_label
_atom_site_fract_x
_atom_site_fract_y
_atom_site_fract_z
Si Si1 0.935489 0.787035 0.124974
Si Si2 0.679243 0.059695 0.764594
Si Si3 0.601236 0.757153 0.589269
Si Si4 0.846510 0.436101 0.939164
Si Si5 0.699821 0.391262 0.971612
Si Si6 0.554087 0.684893 0.325627
Si Si7 0.860067 0.906951 0.534555
Si Si8 0.787227 0.619944 0.339964
O O1 0.932496 0.751609 0.336984
O O2 0.843616 0.808359 0.211956
O O3 0.000000 0.500000 0.000000
O O4 0.926162 0.126869 0.976317
O O5 0.615885 0.391964 0.692174
O O6 0.696718 0.159391 0.896869
O O7 0.656761 0.765653 0.878769
O O8 0.770962 0.937147 0.586449
O O9 0.584632 0.815855 0.402927
O O10 0.690749 0.756716 0.493033
O O11 0.518074 0.996380 0.738297
O O12 0.790412 0.346031 0.914721
O O13 0.871616 0.692637 0.740096
O O14 0.791803 0.550372 0.154089
O O15 0.636993 0.416746 0.198919
O O16 0.500000 0.500000 0.500000
O O17 0.838280 0.286166 0.460135
#
# Coordination Sequence:
#
# PCOD9032606 Si02
#       8
#     2   2   2   2   2   2   2   2
#     4  11  26  44  71 107 140 179 231 294 360 427
#     4  10  25  43  71  98 139 179 243 287 352 414
#     4  10  24  43  64 100 132 190 229 289 354 414
#     4  10  23  41  70 101 138 183 237 286 356 419
#     4  11  25  44  68 103 134 187 237 294 343 423
#     4  11  26  39  65  98 144 180 236 289 350 417
#     4   9  23  42  66 105 132 182 232 285 351 429
#     4  10  22  43  72  93 140 185 234 289 350 435
#
# _framework density 26.604423000000001
#
# number of rings (size 3 to 8) (size 9 to 14) (size 15 to 20)
#    0.000    1.750    1.250    0.000   17.500    3.500 
#    0.000    1.250    0.000    0.000    0.000    0.000 
#    0.000    0.000    0.000    0.000    0.000    0.000 
#
# Total GULP energy -89422.999315 kJ/mol
# GULP energy per Si atom -5588.937457 kJ/mol
# Density = 2.654387 g / cm^3
# Si number density = 26.604423 Si / 1000 Ang^3
#
#
#
# Elastic Constant Matrix: (Units=GPa)
#
#
# Indices 1 2 3 4 5 6 
#
# 1 60.9550 -10.2198 17.5268 11.6878 4.4068 -6.2970
# 2 -10.2198 117.7531 51.7847 -17.9477 8.7631 -26.3976
# 3 17.5268 51.7847 127.6052 -2.2133 7.6095 1.6577
# 4 11.6878 -17.9477 -2.2133 66.4734 0.4588 3.6121
# 5 4.4068 8.7631 7.6095 0.4588 32.9115 -7.9001
# 6 -6.2970 -26.3976 1.6577 3.6121 -7.9001 37.3181
#
#
#
# Elastic Compliance Matrix: (Units=1/GPa)
#
#
# Indices 1 2 3 4 5 6 
#
# 1 0.020061 0.005242 -0.004956 -0.002667 -0.001139 0.007330
# 2 0.005242 0.014893 -0.006851 0.002253 -0.000372 0.011427
# 3 -0.004956 -0.006851 0.011482 -0.000229 -0.001733 -0.006537
# 4 -0.002667 0.002253 -0.000229 0.016145 -0.000541 -0.000523
# 5 -0.001139 -0.000372 -0.001733 -0.000541 0.032624 0.006580
# 6 0.007330 0.011427 -0.006537 -0.000523 0.006580 0.037851
#
#
# Mechanical properties :
#
#
# Convention : Reuss Voigt Hill
#
# Bulk Modulus (GPa) = 30.02519 47.16629 38.59574
# Shear Modulus (GPa) = 31.78888 43.82205 37.80546
#
# Velocity S-wave (km/s) = 3.46044 4.06294 3.77373
# Velocity P-wave (km/s) = 5.22269 6.30692 5.79024
#
# Compressibility (1/GPa) = 0.03330536
#
# Stress axis : x y z
#
# Youngs Moduli (GPa) = 49.84881 67.14574 87.09246
#
# Poissons Ratio (x) = -0.35200 0.43166
# Poissons Ratio (y) = -0.26132 0.59668
# Poissons Ratio (z) = 0.24707 0.46002
#
# Static dielectric constant tensor:
#      x y z
#    x 2.142780 0.053980 0.103150 
#    y 0.053980 2.220180 -0.024830 
#    z 0.103150 -0.024830 2.205930 
# 
# From -- ./inp_files/55297.got.cif
#   From: 2010.05.17/outbox.cif.g08.bks.cpg/sg2_28_cif.got.tgz:55297.got - 2010.06.03 11:33:40.
