data_PCOD9032679
_publ_section_title
;
Structure prediction by ZEFSAII (Michael W. Deem and Ramdas Pophale) SiO2 
 PCOD9032679
Probable space group: P -1
;
_chemical_formula_sum "Si O2"
_cell_formula_units_Z 15
_cell_length_a 21.832519
_cell_length_b 12.843318
_cell_length_c 9.701516
_cell_angle_alpha 141.326988
_cell_angle_beta 35.806857
_cell_angle_gamma 155.432789
_cell_volume 651.205538
_symmetry_space_group_name_H-M "P -1"
_symmetry_group_IT_number 2
_symmetry_cell_setting 'triclinic'
loop_
_space_group_symop_operation_xyz
x,y,z
-x,-y,-z
loop_
_atom_site_type_symbol
_atom_site_label
_atom_site_fract_x
_atom_site_fract_y
_atom_site_fract_z
Si Si1 0.912079 0.535308 0.897122
Si Si2 0.282065 0.369750 0.206850
Si Si3 0.128770 0.036682 0.872579
Si Si4 0.312473 0.042920 0.339945
Si Si5 0.000000 0.500000 0.000000
Si Si6 0.660078 0.216425 0.344705
Si Si7 0.380823 0.298773 0.194936
Si Si8 0.398664 0.667605 0.696705
O O1 0.054949 0.775077 0.792519
O O2 0.967032 0.556944 0.972776
O O3 0.819459 0.261016 0.728835
O O4 0.782962 0.530852 0.127104
O O5 0.249825 0.511475 0.476020
O O6 0.257868 0.208042 0.206990
O O7 0.467282 0.591149 0.049301
O O8 0.189934 0.208397 0.072009
O O9 0.259100 0.137173 0.626563
O O10 0.000000 0.000000 0.000000
O O11 0.330815 0.126365 0.236169
O O12 0.475513 0.172798 0.245045
O O13 0.199453 0.748479 0.868660
O O14 0.596668 0.181049 0.270214
O O15 0.500000 0.000000 0.500000
O O16 0.428013 0.532744 0.420519
#
# Coordination Sequence:
#
# PCOD9032679 Si02
#       8
#     2   2   2   2   1   2   2   2
#     4  11  27  44  68 103 144 188 237 297 367 418
#     4  10  24  43  72 104 139 188 239 292 351 441
#     4  12  28  46  67 102 149 187 232 295 363 434
#     4  12  25  43  74 101 140 188 239 298 360 427
#     4  10  26  46  68 110 146 182 242 304 356 428
#     4  10  24  44  74 105 145 189 239 297 364 430
#     4  10  22  43  73 103 132 180 245 288 357 421
#     4  10  22  45  65 106 134 181 239 296 353 435
#
# _framework density 23.034203999999999
#
# number of rings (size 3 to 8) (size 9 to 14) (size 15 to 20)
#    0.000    1.333    1.333    2.000   11.200    1.067 
#    0.000    2.667    0.000    0.000    0.000    0.000 
#    0.000    0.000    0.000    0.000    0.000    0.000 
#
# Total GULP energy -83622.460712 kJ/mol
# GULP energy per Si atom -5574.830714 kJ/mol
# Density = 2.298178 g / cm^3
# Si number density = 23.034204 Si / 1000 Ang^3
#
#
#
# Elastic Constant Matrix: (Units=GPa)
#
#
# Indices 1 2 3 4 5 6 
#
# 1 173.5408 48.1814 57.8998 6.5372 9.2860 20.0008
# 2 48.1814 51.4227 6.6871 -0.4725 8.8625 -2.0578
# 3 57.8998 6.6871 78.1715 2.6752 14.8754 6.4736
# 4 6.5372 -0.4725 2.6752 44.4828 1.7708 4.3909
# 5 9.2860 8.8625 14.8754 1.7708 34.3975 -4.2836
# 6 20.0008 -2.0578 6.4736 4.3909 -4.2836 35.3262
#
#
#
# Elastic Compliance Matrix: (Units=1/GPa)
#
#
# Indices 1 2 3 4 5 6 
#
# 1 0.011931 -0.010786 -0.007864 -0.000940 0.002317 -0.005545
# 2 -0.010786 0.030176 0.006202 0.001241 -0.006894 0.005738
# 3 -0.007864 0.006202 0.019564 0.000338 -0.007925 0.000225
# 4 -0.000940 0.001241 0.000338 0.022928 -0.001706 -0.002514
# 5 0.002317 -0.006894 -0.007925 -0.001706 0.034249 0.004104
# 6 -0.005545 0.005738 0.000225 -0.002514 0.004104 0.032550
#
#
# Mechanical properties :
#
#
# Convention : Reuss Voigt Hill
#
# Bulk Modulus (GPa) = 27.19242 58.74129 42.96686
# Shear Modulus (GPa) = 26.51783 35.53242 31.02513
#
# Velocity S-wave (km/s) = 3.39667 3.93185 3.67402
# Velocity P-wave (km/s) = 5.21671 6.79483 6.05738
#
# Compressibility (1/GPa) = 0.03677495
#
# Stress axis : x y z
#
# Youngs Moduli (GPa) = 83.81380 33.13912 51.11340
#
# Poissons Ratio (x) = 0.35745 0.40196
# Poissons Ratio (y) = 0.90404 -0.31701
# Poissons Ratio (z) = 0.65911 -0.20553
#
# Static dielectric constant tensor:
#      x y z
#    x 1.802540 -0.028330 -0.006310 
#    y -0.028330 1.882530 0.007750 
#    z -0.006310 0.007750 1.937300 
# 
# From -- ./inp_files/200795.got.cif
#   From: 2010.05.17/outbox.cif.g08.bks.cpg/sg2_101_cif.got.tgz:200795.got - 2010.06.03 11:33:40.
