data_PCOD9032670
_publ_section_title
;
Structure prediction by ZEFSAII (Michael W. Deem and Ramdas Pophale) SiO2 
 PCOD9032670
Probable space group: P -1
;
_chemical_formula_sum "Si O2"
_cell_formula_units_Z 12
_cell_length_a 17.577421
_cell_length_b 4.959670
_cell_length_c 5.394997
_cell_angle_alpha 90.579458
_cell_angle_beta 108.730573
_cell_angle_gamma 76.666224
_cell_volume 432.365475
_symmetry_space_group_name_H-M "P -1"
_symmetry_group_IT_number 2
_symmetry_cell_setting 'triclinic'
loop_
_space_group_symop_operation_xyz
x,y,z
-x,-y,-z
loop_
_atom_site_type_symbol
_atom_site_label
_atom_site_fract_x
_atom_site_fract_y
_atom_site_fract_z
Si Si1 0.438070 0.302198 0.436275
Si Si2 0.989937 0.272578 0.772035
Si Si3 0.827728 0.570241 0.533571
Si Si4 0.859817 0.146745 0.951830
Si Si5 0.259170 0.868052 0.789708
Si Si6 0.597997 0.859443 0.099994
O O1 0.500000 0.500000 0.500000
O O2 0.386205 0.312227 0.631288
O O3 0.500000 0.000000 0.500000
O O4 0.385523 0.324178 0.132048
O O5 0.921728 0.468824 0.524177
O O6 0.927727 0.079645 0.799428
O O7 0.000000 0.500000 0.000000
O O8 0.074092 0.050225 0.791440
O O9 0.789148 0.887577 0.441914
O O10 0.831537 0.469820 0.825903
O O11 0.771743 0.398140 0.331401
O O12 0.775588 0.087785 0.965824
O O13 0.351455 0.905623 0.864113
O O14 0.500000 0.000000 0.000000
#
# Coordination Sequence:
#
# PCOD9032670 Si02
#       6
#     2   2   2   2   2   2
#     4  10  22  43  73 101 136 176 237 293 352 427
#     4   9  19  42  67  92 139 180 227 285 349 427
#     4  10  25  42  64 101 135 173 234 282 354 421
#     4   9  23  41  64  96 140 175 225 292 346 415
#     4  12  26  42  68 101 135 185 230 293 360 416
#     4  10  25  48  74 106 143 192 244 296 365 436
#
# _framework density 27.754296
#
# number of rings (size 3 to 8) (size 9 to 14) (size 15 to 20)
#    1.000    1.000    0.000    1.500    4.667    6.667 
#    3.000    0.000    0.000    0.000    0.000    0.000 
#    0.000    0.000    0.000    0.000    0.000    0.000 
#
# Total GULP energy -66808.811737 kJ/mol
# GULP energy per Si atom -5567.400978 kJ/mol
# Density = 2.769113 g / cm^3
# Si number density = 27.754296 Si / 1000 Ang^3
#
#
#
# Elastic Constant Matrix: (Units=GPa)
#
#
# Indices 1 2 3 4 5 6 
#
# 1 147.0796 8.6423 25.6160 12.1272 15.7111 20.7441
# 2 8.6423 105.5442 34.0694 12.5605 -8.2712 13.8432
# 3 25.6160 34.0694 141.2971 12.2579 -20.4739 14.2995
# 4 12.1272 12.5605 12.2579 53.0431 14.1560 10.1509
# 5 15.7111 -8.2712 -20.4739 14.1560 51.6374 -6.1025
# 6 20.7441 13.8432 14.2995 10.1509 -6.1025 45.1388
#
#
#
# Elastic Compliance Matrix: (Units=1/GPa)
#
#
# Indices 1 2 3 4 5 6 
#
# 1 0.007959 0.000052 -0.001612 0.000190 -0.003540 -0.003684
# 2 0.000052 0.010732 -0.002041 -0.002009 0.001202 -0.002054
# 3 -0.001612 -0.002041 0.008691 -0.002209 0.004177 -0.000325
# 4 0.000190 -0.002009 -0.002209 0.022929 -0.008136 -0.005028
# 5 -0.003540 0.001202 0.004177 -0.008136 0.025132 0.005162
# 6 -0.003684 -0.002054 -0.000325 -0.005028 0.005162 0.026409
#
#
# Mechanical properties :
#
#
# Convention : Reuss Voigt Hill
#
# Bulk Modulus (GPa) = 49.55293 58.95289 54.25291
# Shear Modulus (GPa) = 43.18542 51.67008 47.42775
#
# Velocity S-wave (km/s) = 3.94888 4.31942 4.13830
# Velocity P-wave (km/s) = 6.21969 6.79438 6.51337
#
# Compressibility (1/GPa) = 0.02018044
#
# Stress axis : x y z
#
# Youngs Moduli (GPa) = 125.64701 93.17975 115.05688
#
# Poissons Ratio (x) = -0.00483 0.18547
# Poissons Ratio (y) = -0.00651 0.23479
# Poissons Ratio (z) = 0.20254 0.19015
#
# Static dielectric constant tensor:
#      x y z
#    x 2.232930 -0.130370 -0.172900 
#    y -0.130370 2.357660 0.026150 
#    z -0.172900 0.026150 2.767340 
# 
# From -- ./inp_files/102505.got.cif
#   From: 2010.05.17/outbox.cif.g08.bks.cpg/sg2_52_cif.got.tgz:102505.got - 2010.06.03 11:33:40.
