data_PCOD9032820
_publ_section_title
;
Structure prediction by ZEFSAII (Michael W. Deem and Ramdas Pophale) SiO2 
 PCOD9032820
Probable space group: P -1
;
_chemical_formula_sum "Si O2"
_cell_formula_units_Z 14
_cell_length_a 6.754828
_cell_length_b 10.597953
_cell_length_c 14.399892
_cell_angle_alpha 52.895755
_cell_angle_beta 127.577887
_cell_angle_gamma 134.581465
_cell_volume 553.153102
_symmetry_space_group_name_H-M "P -1"
_symmetry_group_IT_number 2
_symmetry_cell_setting 'triclinic'
loop_
_space_group_symop_operation_xyz
x,y,z
-x,-y,-z
loop_
_atom_site_type_symbol
_atom_site_label
_atom_site_fract_x
_atom_site_fract_y
_atom_site_fract_z
Si Si1 0.851442 0.652973 0.232914
Si Si2 0.110058 0.816225 0.039280
Si Si3 0.799573 0.517436 0.816974
Si Si4 0.364564 0.885190 0.828708
Si Si5 0.220091 0.060069 0.240179
Si Si6 0.021074 0.965644 0.412159
Si Si7 0.837194 0.577672 0.585812
O O1 0.506501 0.524728 0.210890
O O2 0.896551 0.722958 0.108316
O O3 0.008447 0.838381 0.258547
O O4 0.029418 0.548848 0.342482
O O5 0.214417 0.675644 0.108563
O O6 0.620901 0.988864 0.931372
O O7 0.947913 0.849966 0.895054
O O8 0.838309 0.595847 0.688913
O O9 0.105834 0.680346 0.874900
O O10 0.499385 0.872391 0.774901
O O11 0.247413 0.023882 0.714005
O O12 0.268114 0.093108 0.349527
O O13 0.006681 0.772782 0.495444
O O14 0.000000 0.000000 0.500000
O O15 0.500000 0.500000 0.500000
#
# Coordination Sequence:
#
# PCOD9032820 Si02
#       7
#     2   2   2   2   2   2   2
#     4  10  22  43  76 109 143 194 244 302 375 437
#     4  10  24  48  75 109 150 191 247 305 375 448
#     4  11  24  44  72 111 150 191 242 306 371 441
#     4  11  24  47  73 110 151 190 246 309 371 445
#     4  11  25  47  77 107 146 199 242 305 379 435
#     4  12  26  46  69 105 145 191 242 303 363 440
#     4  11  23  44  72 103 146 191 253 303 358 439
#
# _framework density 25.309449999999998
#
# number of rings (size 3 to 8) (size 9 to 14) (size 15 to 20)
#    0.000    1.143    1.429    6.000    0.000   10.286 
#    0.000    5.000    0.000    0.000    0.000    0.000 
#    0.000    0.000    0.000    0.000    0.000    0.000 
#
# Total GULP energy -78449.365221 kJ/mol
# GULP energy per Si atom -5603.526087 kJ/mol
# Density = 2.525184 g / cm^3
# Si number density = 25.309450 Si / 1000 Ang^3
#
#
#
# Elastic Constant Matrix: (Units=GPa)
#
#
# Indices 1 2 3 4 5 6 
#
# 1 175.4718 76.3717 60.9717 -6.1999 -4.4399 11.8503
# 2 76.3717 117.5666 29.3033 -16.7457 -1.0361 26.4171
# 3 60.9717 29.3033 113.2406 -8.6375 -13.7520 -5.9919
# 4 -6.1999 -16.7457 -8.6375 29.3263 -10.1788 5.3416
# 5 -4.4399 -1.0361 -13.7520 -10.1788 50.6766 2.5231
# 6 11.8503 26.4171 -5.9919 5.3416 2.5231 40.8817
#
#
#
# Elastic Compliance Matrix: (Units=1/GPa)
#
#
# Indices 1 2 3 4 5 6 
#
# 1 0.009342 -0.005734 -0.003841 -0.002928 -0.000973 0.000877
# 2 -0.005734 0.016257 -0.000581 0.010611 0.002324 -0.010458
# 3 -0.003841 -0.000581 0.011824 0.003019 0.003336 0.002622
# 4 -0.002928 0.010611 0.003019 0.046383 0.010708 -0.012287
# 5 -0.000973 0.002324 0.003336 0.010708 0.022928 -0.003545
# 6 0.000877 -0.010458 0.002622 -0.012287 -0.003545 0.033173
#
#
# Mechanical properties :
#
#
# Convention : Reuss Voigt Hill
#
# Bulk Modulus (GPa) = 58.44578 82.17470 70.31024
# Shear Modulus (GPa) = 30.13447 40.15240 35.14344
#
# Velocity S-wave (km/s) = 3.45431 3.98736 3.73037
# Velocity P-wave (km/s) = 6.24918 7.33056 6.81137
#
# Compressibility (1/GPa) = 0.01710987
#
# Stress axis : x y z
#
# Youngs Moduli (GPa) = 107.04448 61.51099 84.57681
#
# Poissons Ratio (x) = 0.35268 0.32489
# Poissons Ratio (y) = 0.61376 0.04918
# Poissons Ratio (z) = 0.41119 0.03577
#
# Static dielectric constant tensor:
#      x y z
#    x 2.132630 0.014520 -0.031310 
#    y 0.014520 2.041830 0.034170 
#    z -0.031310 0.034170 1.947410 
# 
# From -- ./inp_files/482687.got.cif
#   From: 2010.05.17/outbox.cif.g08.bks.cpg/sg2_242_cif.got.tgz:482687.got - 2010.06.03 11:33:40.
