data_PCOD9032991
_publ_section_title
;
Structure prediction by ZEFSAII (Michael W. Deem and Ramdas Pophale) SiO2 
 PCOD9032991
Probable space group: P -1
;
_chemical_formula_sum "Si O2"
_cell_formula_units_Z 16
_cell_length_a 9.126478
_cell_length_b 15.419357
_cell_length_c 11.913644
_cell_angle_alpha 153.302285
_cell_angle_beta 68.276185
_cell_angle_gamma 108.456604
_cell_volume 699.347062
_symmetry_space_group_name_H-M "P -1"
_symmetry_group_IT_number 2
_symmetry_cell_setting 'triclinic'
loop_
_space_group_symop_operation_xyz
x,y,z
-x,-y,-z
loop_
_atom_site_type_symbol
_atom_site_label
_atom_site_fract_x
_atom_site_fract_y
_atom_site_fract_z
Si Si1 0.681538 0.701146 0.901307
Si Si2 0.398511 0.692515 0.654313
Si Si3 0.875246 0.269845 0.619745
Si Si4 0.295152 0.481272 0.650856
Si Si5 0.893393 0.002369 0.643600
Si Si6 0.821663 0.056278 0.152119
Si Si7 0.972041 0.601854 0.859219
Si Si8 0.653737 0.219702 0.833269
O O1 0.630168 0.511193 0.633377
O O2 0.838417 0.637220 0.848318
O O3 0.535110 0.769437 0.100695
O O4 0.728065 0.870725 0.002282
O O5 0.364148 0.645905 0.739088
O O6 0.587270 0.705354 0.600094
O O7 0.279394 0.841483 0.800406
O O8 0.832595 0.189497 0.415556
O O9 0.892184 0.500051 0.870334
O O10 0.741820 0.213170 0.681493
O O11 0.042263 0.175323 0.506105
O O12 0.120260 0.456416 0.623571
O O13 0.290332 0.584680 0.893102
O O14 0.719350 0.043695 0.690941
O O15 0.000000 0.000000 0.500000
O O16 0.949225 0.194650 0.911384
O O17 0.000000 0.000000 0.000000
#
# Coordination Sequence:
#
# PCOD9032991 Si02
#       8
#     2   2   2   2   2   2   2   2
#     4  11  23  42  65  97 125 169 208 262 324 370
#     4  10  22  44  64  94 128 167 210 261 322 374
#     4  11  23  41  64  96 128 167 215 260 315 379
#     4   9  21  41  66  91 130 166 208 262 315 383
#     4   9  20  40  60  90 128 167 207 257 307 374
#     4  12  26  40  65  99 127 163 216 268 314 380
#     4  11  21  38  66  92 126 170 209 258 321 371
#     4   9  22  42  65  92 130 165 210 262 315 379
#
# _framework density 22.878481000000001
#
# number of rings (size 3 to 8) (size 9 to 14) (size 15 to 20)
#    0.000    1.750    2.500    0.750    3.500    7.500 
#    0.000    5.625    0.000    0.000    0.000    0.000 
#    0.000    0.000    0.000    0.000    0.000    0.000 
#
# Total GULP energy -89325.282579 kJ/mol
# GULP energy per Si atom -5582.830161 kJ/mol
# Density = 2.282641 g / cm^3
# Si number density = 22.878481 Si / 1000 Ang^3
#
#
#
# Elastic Constant Matrix: (Units=GPa)
#
#
# Indices 1 2 3 4 5 6 
#
# 1 137.9713 28.3941 32.5464 -3.5693 -43.2574 -14.9782
# 2 28.3941 90.3337 28.7849 11.5478 -20.0653 -15.7400
# 3 32.5464 28.7849 58.5815 -7.6372 -26.2178 -4.7242
# 4 -3.5693 11.5478 -7.6372 45.2904 -2.2660 -7.0527
# 5 -43.2574 -20.0653 -26.2178 -2.2660 32.6586 2.3825
# 6 -14.9782 -15.7400 -4.7242 -7.0527 2.3825 38.6286
#
#
#
# Elastic Compliance Matrix: (Units=1/GPa)
#
#
# Indices 1 2 3 4 5 6 
#
# 1 0.013406 -0.000170 0.001982 0.003132 0.019113 0.004764
# 2 -0.000170 0.015084 -0.005770 -0.003954 0.003814 0.004418
# 3 0.001982 -0.005770 0.030996 0.008423 0.024385 0.002242
# 4 0.003132 -0.003954 0.008423 0.025995 0.009938 0.004767
# 5 0.019113 0.003814 0.024385 0.009938 0.077891 0.008958
# 6 0.004764 0.004418 0.002242 0.004767 0.008958 0.030127
#
#
# Mechanical properties :
#
#
# Convention : Reuss Voigt Hill
#
# Bulk Modulus (GPa) = 19.39069 51.81526 35.60297
# Shear Modulus (GPa) = 22.87233 36.45961 29.66597
#
# Velocity S-wave (km/s) = 3.16528 3.99635 3.60484
# Velocity P-wave (km/s) = 4.67468 6.63262 5.73778
#
# Compressibility (1/GPa) = 0.05157114
#
# Stress axis : x y z
#
# Youngs Moduli (GPa) = 74.59335 66.29362 32.26205
#
# Poissons Ratio (x) = 0.01129 -0.06395
# Poissons Ratio (y) = 0.01270 0.18614
# Poissons Ratio (z) = -0.14786 0.38249
#
# Static dielectric constant tensor:
#      x y z
#    x 1.907120 0.039750 -0.085990 
#    y 0.039750 1.811620 0.074380 
#    z -0.085990 0.074380 1.695980 
# 
# From -- ./inp_files/399935.got.cif
#   From: 2010.05.17/outbox.cif.g08.bks.cpg/sg2_200_cif.got.tgz:399935.got - 2010.06.03 11:33:40.
