data_PCOD9032869
_publ_section_title
;
Structure prediction by ZEFSAII (Michael W. Deem and Ramdas Pophale) SiO2 
 PCOD9032869
Probable space group: P -1
;
_chemical_formula_sum "Si O2"
_cell_formula_units_Z 12
_cell_length_a 6.063853
_cell_length_b 13.629605
_cell_length_c 6.383686
_cell_angle_alpha 100.307850
_cell_angle_beta 109.837098
_cell_angle_gamma 99.219409
_cell_volume 474.163600
_symmetry_space_group_name_H-M "P -1"
_symmetry_group_IT_number 2
_symmetry_cell_setting 'triclinic'
loop_
_space_group_symop_operation_xyz
x,y,z
-x,-y,-z
loop_
_atom_site_type_symbol
_atom_site_label
_atom_site_fract_x
_atom_site_fract_y
_atom_site_fract_z
Si Si1 0.983563 0.081760 0.201286
Si Si2 0.246730 0.960284 0.514765
Si Si3 0.823196 0.267343 0.687065
Si Si4 0.345813 0.285786 0.290064
Si Si5 0.244397 0.425698 0.638205
Si Si6 0.640295 0.370445 0.034174
O O1 0.113624 0.193823 0.215037
O O2 0.732065 0.060983 0.237159
O O3 0.129035 0.052887 0.437495
O O4 0.000000 0.000000 0.000000
O O5 0.137742 0.847074 0.340181
O O6 0.500000 0.000000 0.500000
O O7 0.566320 0.262235 0.488517
O O8 0.029073 0.342735 0.647364
O O9 0.802624 0.313393 0.928045
O O10 0.284976 0.389130 0.403072
O O11 0.443264 0.298055 0.090857
O O12 0.220235 0.539580 0.731238
O O13 0.490947 0.417639 0.832405
#
# Coordination Sequence:
#
# PCOD9032869 Si02
#       6
#     2   2   2   2   2   2
#     4  11  26  40  64  91 121 161 206 246 302 363
#     4  11  24  44  62  88 126 159 197 256 302 357
#     4  11  23  40  64  90 125 159 202 248 305 357
#     4  11  23  40  61  95 122 157 205 251 298 359
#     4  10  22  44  61  89 125 164 198 249 307 351
#     4  10  24  39  66  91 122 159 206 248 298 366
#
# _framework density 25.30772
#
# number of rings (size 3 to 8) (size 9 to 14) (size 15 to 20)
#    0.000    1.333    3.333    1.000    4.667    4.000 
#    0.000    0.000    0.000    0.000    0.000    0.000 
#    0.000    0.000    0.000    0.000    0.000    0.000 
#
# Total GULP energy -67113.714206 kJ/mol
# GULP energy per Si atom -5592.809517 kJ/mol
# Density = 2.525012 g / cm^3
# Si number density = 25.307720 Si / 1000 Ang^3
#
#
#
# Elastic Constant Matrix: (Units=GPa)
#
#
# Indices 1 2 3 4 5 6 
#
# 1 52.7502 28.2520 24.7831 12.8395 -26.1165 2.3803
# 2 28.2520 121.6667 17.8975 18.4364 -17.7371 4.5259
# 3 24.7831 17.8975 84.2819 19.9981 -26.1578 -7.8428
# 4 12.8395 18.4364 19.9981 37.0067 -10.1306 -8.7141
# 5 -26.1165 -17.7371 -26.1578 -10.1306 57.5111 -3.3365
# 6 2.3803 4.5259 -7.8428 -8.7141 -3.3365 55.1778
#
#
#
# Elastic Compliance Matrix: (Units=1/GPa)
#
#
# Indices 1 2 3 4 5 6 
#
# 1 0.028475 -0.004105 -0.003956 -0.003532 0.009158 -0.001458
# 2 -0.004105 0.009832 0.000017 -0.003631 0.000468 -0.001172
# 3 -0.003956 0.000017 0.015938 -0.005562 0.004584 0.001833
# 4 -0.003532 -0.003631 -0.005562 0.034597 0.001142 0.005193
# 5 0.009158 0.000468 0.004584 0.001142 0.024085 0.001855
# 6 -0.001458 -0.001172 0.001833 0.005193 0.001855 0.019475
#
#
# Mechanical properties :
#
#
# Convention : Reuss Voigt Hill
#
# Bulk Modulus (GPa) = 26.20882 44.50712 35.35797
# Shear Modulus (GPa) = 31.01548 42.45685 36.73616
#
# Velocity S-wave (km/s) = 3.50456 4.10032 3.81409
# Velocity P-wave (km/s) = 5.17247 6.32783 5.77910
#
# Compressibility (1/GPa) = 0.03815509
#
# Stress axis : x y z
#
# Youngs Moduli (GPa) = 35.11897 101.70842 62.74405
#
# Poissons Ratio (x) = 0.41756 0.24824
# Poissons Ratio (y) = 0.14418 -0.00107
# Poissons Ratio (z) = 0.13894 -0.00174
#
# Static dielectric constant tensor:
#      x y z
#    x 0.940290 0.019480 0.590440 
#    y 0.019480 1.965120 -0.003770 
#    z 0.590440 -0.003770 1.800960 
# 
# From -- ./inp_files/3038.got.cif
#   From: 2010.05.17/outbox.cif.g08.bks.cpg/sg2_2_cif.got.tgz:3038.got - 2010.06.03 11:33:40.
