data_PCOD9032815
_publ_section_title
;
Structure prediction by ZEFSAII (Michael W. Deem and Ramdas Pophale) SiO2 
 PCOD9032815
Probable space group: P -1
;
_chemical_formula_sum "Si O2"
_cell_formula_units_Z 14
_cell_length_a 9.733186
_cell_length_b 8.798150
_cell_length_c 11.880885
_cell_angle_alpha 139.318984
_cell_angle_beta 71.761795
_cell_angle_gamma 123.153267
_cell_volume 545.495929
_symmetry_space_group_name_H-M "P -1"
_symmetry_group_IT_number 2
_symmetry_cell_setting 'triclinic'
loop_
_space_group_symop_operation_xyz
x,y,z
-x,-y,-z
loop_
_atom_site_type_symbol
_atom_site_label
_atom_site_fract_x
_atom_site_fract_y
_atom_site_fract_z
Si Si1 0.489156 0.712511 0.846344
Si Si2 0.570978 0.068269 0.647288
Si Si3 0.899209 0.444527 0.674455
Si Si4 0.135816 0.329072 0.655079
Si Si5 0.643007 0.779455 0.075883
Si Si6 0.023804 0.906238 0.718437
Si Si7 0.286823 0.194687 0.364566
O O1 0.295999 0.469738 0.776915
O O2 0.573160 0.680214 0.694450
O O3 0.615246 0.755828 0.938067
O O4 0.500000 0.000000 0.000000
O O5 0.732308 0.352593 0.735441
O O6 0.422659 0.030901 0.745498
O O7 0.500000 0.000000 0.500000
O O8 0.657747 0.927033 0.615470
O O9 0.902537 0.210005 0.463031
O O10 0.036823 0.489114 0.758423
O O11 0.936280 0.675004 0.705442
O O12 0.236873 0.395744 0.548631
O O13 0.000000 0.000000 0.500000
O O14 0.819823 0.863342 0.128075
O O15 0.500000 0.500000 0.000000
O O16 0.893229 0.993559 0.754809
#
# Coordination Sequence:
#
# PCOD9032815 Si02
#       7
#     2   2   2   2   2   2   2
#     4  12  27  50  72 109 158 196 247 311 381 443
#     4  12  25  46  77 109 146 191 255 305 372 444
#     4  10  22  43  76 104 143 188 247 309 356 438
#     4  11  24  45  77 112 145 197 258 309 368 447
#     4  12  29  47  72 109 154 196 240 312 379 447
#     4  10  24  48  70 108 145 192 246 302 376 438
#     4  11  26  47  78 108 143 201 253 310 367 457
#
# _framework density 25.664719999999999
#
# number of rings (size 3 to 8) (size 9 to 14) (size 15 to 20)
#    0.000    0.857    4.286    1.286    8.000    1.714 
#    2.571    2.143    0.000    0.000    0.000    0.000 
#    0.000    0.000    0.000    0.000    0.000    0.000 
#
# Total GULP energy -78119.082458 kJ/mol
# GULP energy per Si atom -5579.934461 kJ/mol
# Density = 2.560631 g / cm^3
# Si number density = 25.664720 Si / 1000 Ang^3
#
#
#
# Elastic Constant Matrix: (Units=GPa)
#
#
# Indices 1 2 3 4 5 6 
#
# 1 193.7434 41.3098 48.1273 7.3199 47.7952 1.1041
# 2 41.3098 115.0750 39.6254 -9.0279 14.6434 -7.8018
# 3 48.1273 39.6254 74.2821 1.5943 28.2071 5.7356
# 4 7.3199 -9.0279 1.5943 38.8802 3.9877 3.5354
# 5 47.7952 14.6434 28.2071 3.9877 47.4172 -1.6078
# 6 1.1041 -7.8018 5.7356 3.5354 -1.6078 52.5286
#
#
#
# Elastic Compliance Matrix: (Units=1/GPa)
#
#
# Indices 1 2 3 4 5 6 
#
# 1 0.007391 -0.001395 -0.001762 -0.001013 -0.005895 -0.000282
# 2 -0.001395 0.011437 -0.005891 0.002834 0.001215 0.002218
# 3 -0.001762 -0.005891 0.021552 -0.000655 -0.009286 -0.003431
# 4 -0.001013 0.002834 -0.000655 0.026900 -0.001772 -0.001351
# 5 -0.005895 0.001215 -0.009286 -0.001772 0.032412 0.002430
# 6 -0.000282 0.002218 -0.003431 -0.001351 0.002430 0.019913
#
#
# Mechanical properties :
#
#
# Convention : Reuss Voigt Hill
#
# Bulk Modulus (GPa) = 44.87615 71.24727 58.06171
# Shear Modulus (GPa) = 34.45235 44.70107 39.57671
#
# Velocity S-wave (km/s) = 3.66785 4.17793 3.93118
# Velocity P-wave (km/s) = 5.95492 7.14805 6.57859
#
# Compressibility (1/GPa) = 0.02228355
#
# Stress axis : x y z
#
# Youngs Moduli (GPa) = 135.30395 87.43384 46.39992
#
# Poissons Ratio (x) = 0.12195 0.08178
# Poissons Ratio (y) = 0.18871 0.27334
# Poissons Ratio (z) = 0.23846 0.51507
#
# Static dielectric constant tensor:
#      x y z
#    x 2.155430 -0.005020 -0.029080 
#    y -0.005020 1.996790 0.099560 
#    z -0.029080 0.099560 2.099540 
# 
# From -- ./inp_files/383520.got.cif
#   From: 2010.05.17/outbox.cif.g08.bks.cpg/sg2_192_cif.got.tgz:383520.got - 2010.06.03 11:33:40.
