data_PCOD9032473
_publ_section_title
;
Structure prediction by ZEFSAII (Michael W. Deem and Ramdas Pophale) SiO2 
 PCOD9032473
Probable space group: P -1
;
_chemical_formula_sum "Si O2"
_cell_formula_units_Z 12
_cell_length_a 12.618939
_cell_length_b 10.017027
_cell_length_c 13.328190
_cell_angle_alpha 49.103028
_cell_angle_beta 32.391370
_cell_angle_gamma 33.928813
_cell_volume 497.770657
_symmetry_space_group_name_H-M "P -1"
_symmetry_group_IT_number 2
_symmetry_cell_setting 'triclinic'
loop_
_space_group_symop_operation_xyz
x,y,z
-x,-y,-z
loop_
_atom_site_type_symbol
_atom_site_label
_atom_site_fract_x
_atom_site_fract_y
_atom_site_fract_z
Si Si1 0.749100 0.913856 0.211444
Si Si2 0.149027 0.230173 0.483219
Si Si3 0.011254 0.954759 0.169455
Si Si4 0.523159 0.495013 0.362897
Si Si5 0.058303 0.175196 0.367457
Si Si6 0.842734 0.596214 0.973700
O O1 0.967103 0.636671 0.136816
O O2 0.441295 0.035956 0.399722
O O3 0.878540 0.921186 0.202963
O O4 0.748042 0.075657 0.051838
O O5 0.000000 0.500000 0.500000
O O6 0.203852 0.159155 0.357666
O O7 0.943193 0.203661 0.697720
O O8 0.787034 0.227884 0.252527
O O9 0.500000 0.500000 0.500000
O O10 0.254742 0.568118 0.500365
O O11 0.570471 0.657886 0.192893
O O12 0.174885 0.200880 0.162824
O O13 0.000000 0.000000 0.500000
O O14 0.000000 0.500000 0.000000
#
# Coordination Sequence:
#
# PCOD9032473 Si02
#       6
#     2   2   2   2   2   2
#     4  10  23  43  70  97 126 176 232 264 325 406
#     4  12  25  41  66  99 141 169 214 280 344 387
#     4  10  22  43  71  94 128 178 226 271 322 402
#     4  11  22  43  69  94 129 177 230 272 323 402
#     4  12  27  41  63 103 139 171 218 279 345 386
#     4  11  24  43  72  91 128 182 230 268 323 400
#
# _framework density 24.107488
#
# number of rings (size 3 to 8) (size 9 to 14) (size 15 to 20)
#    0.000    1.000    1.667    4.500    4.667    2.667 
#    0.000    0.000    0.000    0.000    0.000    0.000 
#    0.000    0.000    0.000    0.000    0.000    0.000 
#
# Total GULP energy -67086.395494 kJ/mol
# GULP energy per Si atom -5590.532958 kJ/mol
# Density = 2.405262 g / cm^3
# Si number density = 24.107488 Si / 1000 Ang^3
#
#
#
# Elastic Constant Matrix: (Units=GPa)
#
#
# Indices 1 2 3 4 5 6 
#
# 1 79.9136 13.6652 14.7830 -1.8231 7.2314 19.9402
# 2 13.6652 90.2503 39.3698 -20.5851 14.6077 18.8917
# 3 14.7830 39.3698 156.2388 -42.0573 -2.7173 7.6624
# 4 -1.8231 -20.5851 -42.0573 58.3038 -4.3291 6.3203
# 5 7.2314 14.6077 -2.7173 -4.3291 44.8847 7.7405
# 6 19.9402 18.8917 7.6624 6.3203 7.7405 28.1903
#
#
#
# Elastic Compliance Matrix: (Units=1/GPa)
#
#
# Indices 1 2 3 4 5 6 
#
# 1 0.015451 0.000803 -0.000735 0.001420 -0.000693 -0.011395
# 2 0.000803 0.015833 -0.002262 0.004929 -0.003077 -0.010824
# 3 -0.000735 -0.002262 0.008799 0.005955 0.002365 -0.002340
# 4 0.001420 0.004929 0.005955 0.024793 0.003044 -0.012320
# 5 -0.000693 -0.003077 0.002365 0.003044 0.024791 -0.005580
# 6 -0.011395 -0.010824 -0.002340 -0.012320 -0.005580 0.055717
#
#
# Mechanical properties :
#
#
# Convention : Reuss Voigt Hill
#
# Bulk Modulus (GPa) = 28.01563 51.33763 39.67663
# Shear Modulus (GPa) = 30.92694 43.51475 37.22084
#
# Velocity S-wave (km/s) = 3.58561 4.25317 3.93358
# Velocity P-wave (km/s) = 5.36549 6.74247 6.09300
#
# Compressibility (1/GPa) = 0.03569435
#
# Stress axis : x y z
#
# Youngs Moduli (GPa) = 64.72210 63.15805 113.65209
#
# Poissons Ratio (x) = -0.05069 0.08354
# Poissons Ratio (y) = -0.05194 0.25704
# Poissons Ratio (z) = 0.04758 0.14284
#
# Static dielectric constant tensor:
#      x y z
#    x 1.875190 -0.020450 -0.018040 
#    y -0.020450 2.022370 -0.068060 
#    z -0.018040 -0.068060 1.904700 
# 
# From -- ./inp_files/419044.got.cif
#   From: 2010.05.17/outbox.cif.g08.bks.cpg/sg2_210_cif.got.tgz:419044.got - 2010.06.03 11:33:40.
