data_PCOD9032673
_publ_section_title
;
Structure prediction by ZEFSAII (Michael W. Deem and Ramdas Pophale) SiO2 
 PCOD9032673
Probable space group: P -1
;
_chemical_formula_sum "Si O2"
_cell_formula_units_Z 14
_cell_length_a 13.984545
_cell_length_b 25.645130
_cell_length_c 17.681288
_cell_angle_alpha 163.336868
_cell_angle_beta 23.197321
_cell_angle_gamma 156.462390
_cell_volume 678.347567
_symmetry_space_group_name_H-M "P -1"
_symmetry_group_IT_number 2
_symmetry_cell_setting 'triclinic'
loop_
_space_group_symop_operation_xyz
x,y,z
-x,-y,-z
loop_
_atom_site_type_symbol
_atom_site_label
_atom_site_fract_x
_atom_site_fract_y
_atom_site_fract_z
Si Si1 0.361316 0.115067 0.813147
Si Si2 0.967334 0.945043 0.169297
Si Si3 0.488576 0.072814 0.418389
Si Si4 0.258547 0.679316 0.556450
Si Si5 0.247037 0.694062 0.970829
Si Si6 0.669880 0.659271 0.500292
Si Si7 0.348654 0.433990 0.783571
O O1 0.109340 0.092582 0.915460
O O2 0.500000 0.000000 0.500000
O O3 0.349770 0.017949 0.768314
O O4 0.528376 0.337826 0.002092
O O5 0.718540 0.870550 0.300205
O O6 0.083973 0.169725 0.413269
O O7 0.183779 0.846237 0.887147
O O8 0.656803 0.246858 0.487069
O O9 0.338621 0.902229 0.232735
O O10 0.488423 0.627121 0.356090
O O11 0.000000 0.500000 0.500000
O O12 0.431799 0.680271 0.749224
O O13 0.282281 0.539720 0.791190
O O14 0.953228 0.628248 0.067271
O O15 0.629757 0.667358 0.452001
#
# Coordination Sequence:
#
# PCOD9032673 Si02
#       7
#     2   2   2   2   2   2   2
#     4  10  22  43  73 102 129 181 228 278 342 396
#     4  11  23  46  70 100 139 176 230 281 338 402
#     4  11  23  45  74  96 138 180 224 287 339 397
#     4  12  28  48  64  98 142 184 231 274 336 414
#     4  11  22  41  71 106 133 173 227 280 345 395
#     4  11  23  42  72 106 136 169 229 288 330 405
#     4  12  24  45  71  96 145 178 219 284 340 398
#
# _framework density 20.638387999999999
#
# number of rings (size 3 to 8) (size 9 to 14) (size 15 to 20)
#    0.000    0.857    5.714    2.143    0.000    3.429 
#   10.286    0.000    0.000    0.000    0.000    0.000 
#    0.000    0.000    0.000    0.000    0.000    0.000 
#
# Total GULP energy -78246.480827 kJ/mol
# GULP energy per Si atom -5589.034345 kJ/mol
# Density = 2.059141 g / cm^3
# Si number density = 20.638388 Si / 1000 Ang^3
#
#
#
# Elastic Constant Matrix: (Units=GPa)
#
#
# Indices 1 2 3 4 5 6 
#
# 1 87.1467 89.3350 27.0115 -14.9634 -30.1177 37.4317
# 2 89.3350 125.0258 28.7689 4.2076 -2.8334 -30.7103
# 3 27.0115 28.7689 54.7300 -12.2481 -14.5934 -3.7455
# 4 -14.9634 4.2076 -12.2481 34.9746 2.9478 14.2556
# 5 -30.1177 -2.8334 -14.5934 2.9478 26.7818 19.1153
# 6 37.4317 -30.7103 -3.7455 14.2556 19.1153 2.1036
#
#
#
# Elastic Compliance Matrix: (Units=1/GPa)
#
#
# Indices 1 2 3 4 5 6 
#
# 1 0.004091 0.000938 -0.004103 -0.004151 -0.005513 0.011817
# 2 0.000938 0.005751 -0.001895 0.001973 0.006498 -0.008525
# 3 -0.004103 -0.001895 0.024136 0.005172 0.005513 0.003161
# 4 -0.004151 0.001973 0.005172 0.026949 -0.008366 0.005266
# 5 -0.005513 0.006498 0.005513 -0.008366 0.027242 0.011923
# 6 0.011817 -0.008525 0.003161 0.005266 0.011923 0.002251
#
#
# Mechanical properties :
#
#
# Convention : Reuss Voigt Hill
#
# Bulk Modulus (GPa) = 41.91265 61.90369 51.90817
# Shear Modulus (GPa) = 46.08597 20.89115 33.48856
#
# Velocity S-wave (km/s) = 4.73061 3.18503 4.03256
# Velocity P-wave (km/s) = 7.08452 6.60193 6.84748
#
# Compressibility (1/GPa) = 0.02385914
#
# Stress axis : x y z
#
# Youngs Moduli (GPa) = 244.42749 173.88144 41.43142
#
# Poissons Ratio (x) = -0.16312 0.16997
# Poissons Ratio (y) = -0.22930 0.07852
# Poissons Ratio (z) = 1.00276 0.32955
#
# Static dielectric constant tensor:
#      x y z
#    x 1.753410 0.008880 -0.029000 
#    y 0.008880 1.747430 0.002430 
#    z -0.029000 0.002430 1.746200 
# 
# From -- ./inp_files/188631.got.cif
#   From: 2010.05.17/outbox.cif.g08.bks.cpg/sg2_95_cif.got.tgz:188631.got - 2010.06.03 11:33:40.
