data_PCOD9032742
_publ_section_title
;
Structure prediction by ZEFSAII (Michael W. Deem and Ramdas Pophale) SiO2 
 PCOD9032742
Probable space group: P -1
;
_chemical_formula_sum "Si O2"
_cell_formula_units_Z 16
_cell_length_a 20.707707
_cell_length_b 15.908268
_cell_length_c 6.805707
_cell_angle_alpha 97.015656
_cell_angle_beta 106.886692
_cell_angle_gamma 21.037801
_cell_volume 693.927392
_symmetry_space_group_name_H-M "P -1"
_symmetry_group_IT_number 2
_symmetry_cell_setting 'triclinic'
loop_
_space_group_symop_operation_xyz
x,y,z
-x,-y,-z
loop_
_atom_site_type_symbol
_atom_site_label
_atom_site_fract_x
_atom_site_fract_y
_atom_site_fract_z
Si Si1 0.133411 0.612703 0.697216
Si Si2 0.173660 0.298761 0.434020
Si Si3 0.810736 0.894398 0.766847
Si Si4 0.460401 0.551032 0.207696
Si Si5 0.593489 0.537879 0.581195
Si Si6 0.436741 0.164066 0.090230
Si Si7 0.897901 0.434454 0.745587
Si Si8 0.015256 0.881949 0.974326
O O1 0.123534 0.608980 0.457076
O O2 0.963785 0.752740 0.694856
O O3 0.358801 0.317011 0.891364
O O4 0.082169 0.763557 0.791474
O O5 0.155163 0.246918 0.244899
O O6 0.159014 0.409123 0.363272
O O7 0.000000 0.500000 0.500000
O O8 0.374379 0.037552 0.662483
O O9 0.583518 0.192198 0.585508
O O10 0.879821 0.838481 0.030838
O O11 0.614657 0.436183 0.411955
O O12 0.479613 0.434998 0.291432
O O13 0.500000 0.500000 0.000000
O O14 0.221328 0.865302 0.121310
O O15 0.792340 0.356832 0.772646
O O16 0.250391 0.387730 0.145506
O O17 0.500000 0.000000 0.000000
O O18 0.000000 0.000000 0.000000
#
# Coordination Sequence:
#
# PCOD9032742 Si02
#       8
#     2   2   2   2   2   2   2   2
#     4  11  22  44  68  97 136 178 232 291 343 415
#     4  12  22  42  65  96 134 179 230 284 340 410
#     4  11  23  41  65  98 137 178 226 283 343 410
#     4  10  22  43  74 101 136 177 223 289 358 414
#     4  10  22  44  67 101 137 176 226 283 346 417
#     4  11  23  42  69  97 137 181 232 287 347 407
#     4  11  24  43  68  96 137 191 228 280 354 407
#     4  10  22  45  73 100 137 180 227 289 352 413
#
# _framework density 23.057168000000001
#
# number of rings (size 3 to 8) (size 9 to 14) (size 15 to 20)
#    0.000    1.250    3.750    2.250    0.000    1.500 
#    0.000    7.500    0.000    0.000    0.000    0.000 
#    0.000    0.000    0.000    0.000    0.000    0.000 
#
# Total GULP energy -89338.587547 kJ/mol
# GULP energy per Si atom -5583.661722 kJ/mol
# Density = 2.300469 g / cm^3
# Si number density = 23.057168 Si / 1000 Ang^3
#
#
#
# Elastic Constant Matrix: (Units=GPa)
#
#
# Indices 1 2 3 4 5 6 
#
# 1 42.8140 23.9059 34.1129 17.1087 10.9035 28.7453
# 2 23.9059 98.1005 65.9155 0.9470 -1.9722 27.2159
# 3 34.1129 65.9155 188.5579 12.1415 -2.4932 8.1013
# 4 17.1087 0.9470 12.1415 59.3831 3.5899 8.8049
# 5 10.9035 -1.9722 -2.4932 3.5899 28.7276 1.1668
# 6 28.7453 27.2159 8.1013 8.8049 1.1668 35.9575
#
#
#
# Elastic Compliance Matrix: (Units=1/GPa)
#
#
# Indices 1 2 3 4 5 6 
#
# 1 0.094165 0.008029 -0.016385 -0.010998 -0.032234 -0.073924
# 2 0.008029 0.018269 -0.007162 0.001791 -0.001867 -0.019010
# 3 -0.016385 -0.007162 0.010160 0.000020 0.005955 0.016032
# 4 -0.010998 0.001791 0.000020 0.019483 0.001759 0.002604
# 5 -0.032234 -0.001867 0.005955 0.001759 0.046242 0.023909
# 6 -0.073924 -0.019010 0.016032 0.002604 0.023909 0.096271
#
#
# Mechanical properties :
#
#
# Convention : Reuss Voigt Hill
#
# Bulk Modulus (GPa) = 10.92200 64.14903 37.53552
# Shear Modulus (GPa) = 14.44483 38.51617 26.48050
#
# Velocity S-wave (km/s) = 2.50567 4.09157 3.39259
# Velocity P-wave (km/s) = 3.62193 7.08543 5.62680
#
# Compressibility (1/GPa) = 0.09155833
#
# Stress axis : x y z
#
# Youngs Moduli (GPa) = 10.61965 54.73878 98.42572
#
# Poissons Ratio (x) = -0.43950 1.61266
# Poissons Ratio (y) = -0.08526 0.70493
# Poissons Ratio (z) = 0.17400 0.39204
#
# Static dielectric constant tensor:
#      x y z
#    x 1.957420 0.072140 0.094730 
#    y 0.072140 1.925230 -0.208790 
#    z 0.094730 -0.208790 2.603880 
# 
# From -- ./inp_files/124833.got.cif
#   From: 2010.05.17/outbox.cif.g08.bks.cpg/sg2_63_cif.got.tgz:124833.got - 2010.06.03 11:33:40.
