data_PCOD9032667
_publ_section_title
;
Structure prediction by ZEFSAII (Michael W. Deem and Ramdas Pophale) SiO2 
 PCOD9032667
Probable space group: P -1
;
_chemical_formula_sum "Si O2"
_cell_formula_units_Z 14
_cell_length_a 11.329451
_cell_length_b 8.638402
_cell_length_c 16.590652
_cell_angle_alpha 69.600357
_cell_angle_beta 34.885316
_cell_angle_gamma 49.817698
_cell_volume 645.969860
_symmetry_space_group_name_H-M "P -1"
_symmetry_group_IT_number 2
_symmetry_cell_setting 'triclinic'
loop_
_space_group_symop_operation_xyz
x,y,z
-x,-y,-z
loop_
_atom_site_type_symbol
_atom_site_label
_atom_site_fract_x
_atom_site_fract_y
_atom_site_fract_z
Si Si1 0.446387 0.648836 0.671865
Si Si2 0.195336 0.676433 0.176114
Si Si3 0.890847 0.919158 0.138432
Si Si4 0.048265 0.417890 0.395520
Si Si5 0.571834 0.973986 0.851190
Si Si6 0.079859 0.078258 0.198829
Si Si7 0.792933 0.513332 0.057503
O O1 0.371264 0.540823 0.793702
O O2 0.771067 0.480664 0.504032
O O3 0.224979 0.745722 0.704113
O O4 0.398052 0.846035 0.713470
O O5 0.113724 0.548069 0.284472
O O6 0.024894 0.827806 0.167274
O O7 0.133824 0.861616 0.236867
O O8 0.500000 0.500000 0.000000
O O9 0.991895 0.693593 0.084953
O O10 0.000000 0.000000 0.000000
O O11 0.301274 0.155818 0.280746
O O12 0.000000 0.500000 0.500000
O O13 0.823066 0.847912 0.798721
O O14 0.424736 0.230906 0.893540
O O15 0.321302 0.985411 0.013941
O O16 0.000000 0.500000 0.000000
#
# Coordination Sequence:
#
# PCOD9032667 Si02
#       7
#     2   2   2   2   2   2   2
#     4  10  24  45  65 101 146 182 223 292 357 417
#     4  11  22  43  74  98 128 192 241 281 344 415
#     4   9  22  39  71 101 135 174 238 290 334 415
#     4  12  30  44  68 105 153 184 232 290 362 421
#     4  11  24  43  70 106 137 185 233 295 345 418
#     4  10  22  43  73 101 133 176 252 290 338 416
#     4  11  22  38  72 105 133 183 234 286 346 414
#
# _framework density 21.672837999999999
#
# number of rings (size 3 to 8) (size 9 to 14) (size 15 to 20)
#    0.000    1.429    2.857    0.857   10.000    3.429 
#    0.000    0.000    0.000    0.000    0.000    0.000 
#    0.000    0.000    0.000    0.000    0.000    0.000 
#
# Total GULP energy -77941.120675 kJ/mol
# GULP energy per Si atom -5567.222905 kJ/mol
# Density = 2.162351 g / cm^3
# Si number density = 21.672838 Si / 1000 Ang^3
#
#
#
# Elastic Constant Matrix: (Units=GPa)
#
#
# Indices 1 2 3 4 5 6 
#
# 1 101.2635 13.3543 30.9648 3.2662 -3.3100 7.8814
# 2 13.3543 99.3814 16.8301 5.0843 -1.2845 10.7009
# 3 30.9648 16.8301 95.7565 4.9184 -10.1372 2.0630
# 4 3.2662 5.0843 4.9184 32.9977 9.0895 2.9935
# 5 -3.3100 -1.2845 -10.1372 9.0895 35.4319 3.2824
# 6 7.8814 10.7009 2.0630 2.9935 3.2824 30.9906
#
#
#
# Elastic Compliance Matrix: (Units=1/GPa)
#
#
# Indices 1 2 3 4 5 6 
#
# 1 0.011212 -0.000647 -0.003401 -0.000388 0.000373 -0.002404
# 2 -0.000647 0.010841 -0.001504 -0.001219 0.000532 -0.003417
# 3 -0.003401 -0.001504 0.012311 -0.002324 0.003710 0.000396
# 4 -0.000388 -0.001219 -0.002324 0.033558 -0.009207 -0.001592
# 5 0.000373 0.000532 0.003710 -0.009207 0.031981 -0.003023
# 6 -0.002404 -0.003417 0.000396 -0.001592 -0.003023 0.034507
#
#
# Mechanical properties :
#
#
# Convention : Reuss Voigt Hill
#
# Bulk Modulus (GPa) = 42.99087 46.52223 44.75655
# Shear Modulus (GPa) = 32.62292 35.56750 34.09521
#
# Velocity S-wave (km/s) = 3.88396 4.05546 3.97063
# Velocity P-wave (km/s) = 6.32399 6.59100 6.45887
#
# Compressibility (1/GPa) = 0.02326075
#
# Stress axis : x y z
#
# Youngs Moduli (GPa) = 89.18803 92.24228 81.23015
#
# Poissons Ratio (x) = 0.05970 0.27624
# Poissons Ratio (y) = 0.05773 0.12214
# Poissons Ratio (z) = 0.30331 0.13870
#
# Static dielectric constant tensor:
#      x y z
#    x 1.962080 0.208970 0.095460 
#    y 0.208970 1.861360 0.109280 
#    z 0.095460 0.109280 1.814880 
# 
# From -- ./inp_files/156865.got.cif
#   From: 2010.05.17/outbox.cif.g08.bks.cpg/sg2_79_cif.got.tgz:156865.got - 2010.06.03 11:33:40.
