data_PCOD9032168
_publ_section_title
;
Structure prediction by ZEFSAII (Michael W. Deem and Ramdas Pophale) SiO2 
 PCOD9032168
Probable space group: P -1
;
_chemical_formula_sum "Si O2"
_cell_formula_units_Z 16
_cell_length_a 9.582068
_cell_length_b 13.066430
_cell_length_c 15.344230
_cell_angle_alpha 153.915857
_cell_angle_beta 61.799324
_cell_angle_gamma 109.565921
_cell_volume 724.295828
_symmetry_space_group_name_H-M "P -1"
_symmetry_group_IT_number 2
_symmetry_cell_setting 'triclinic'
loop_
_space_group_symop_operation_xyz
x,y,z
-x,-y,-z
loop_
_atom_site_type_symbol
_atom_site_label
_atom_site_fract_x
_atom_site_fract_y
_atom_site_fract_z
Si Si1 0.814410 0.176442 0.980359
Si Si2 0.054930 0.188985 0.190053
Si Si3 0.821597 0.074766 0.570792
Si Si4 0.641352 0.577865 0.963340
Si Si5 0.594925 0.089559 0.816997
Si Si6 0.457014 0.434524 0.559679
Si Si7 0.761261 0.436654 0.584589
Si Si8 0.820601 0.929084 0.271288
O O1 0.718544 0.412892 0.239819
O O2 0.993728 0.183070 0.898315
O O3 0.842388 0.957170 0.872705
O O4 0.708103 0.125900 0.891409
O O5 0.163287 0.350883 0.237144
O O6 0.888922 0.348174 0.399772
O O7 0.000000 0.000000 0.000000
O O8 0.786353 0.344568 0.749849
O O9 0.699330 0.061486 0.675317
O O10 0.803037 0.917899 0.371968
O O11 0.000000 0.000000 0.500000
O O12 0.500000 0.500000 0.000000
O O13 0.700411 0.792920 0.155605
O O14 0.553190 0.679395 0.977551
O O15 0.533789 0.847523 0.659062
O O16 0.500000 0.500000 0.500000
O O17 0.586789 0.498893 0.638009
O O18 0.778387 0.204019 0.461920
#
# Coordination Sequence:
#
# PCOD9032168 Si02
#       8
#     2   2   2   2   2   2   2   2
#     4  11  26  42  71 106 144 188 242 296 359 429
#     4  10  22  43  69  99 138 187 241 295 354 420
#     4  11  25  46  75 106 142 189 240 299 356 432
#     4  10  25  45  72 104 144 191 239 293 361 428
#     4  11  25  47  69 108 148 185 241 296 360 430
#     4  12  26  45  72 104 145 190 237 301 362 422
#     4  10  23  42  67 100 137 185 238 291 350 430
#     4  11  24  46  73 106 143 193 241 294 361 431
#
# _framework density 22.090422
#
# number of rings (size 3 to 8) (size 9 to 14) (size 15 to 20)
#    0.000    1.250    2.500    1.500    3.500   11.500 
#    0.000    0.000    0.000    0.000    0.000    0.000 
#    0.000    0.000    0.000    0.000    0.000    0.000 
#
# Total GULP energy -89500.197254 kJ/mol
# GULP energy per Si atom -5593.762328 kJ/mol
# Density = 2.204014 g / cm^3
# Si number density = 22.090422 Si / 1000 Ang^3
#
#
#
# Elastic Constant Matrix: (Units=GPa)
#
#
# Indices 1 2 3 4 5 6 
#
# 1 148.1672 57.8569 41.1125 15.4708 9.9853 -16.5742
# 2 57.8569 119.7784 39.4587 1.6049 6.2441 -4.9045
# 3 41.1125 39.4587 76.4024 13.0623 -7.1823 -0.5614
# 4 15.4708 1.6049 13.0623 39.6027 -0.2901 6.9863
# 5 9.9853 6.2441 -7.1823 -0.2901 51.8814 6.0587
# 6 -16.5742 -4.9045 -0.5614 6.9863 6.0587 34.1732
#
#
#
# Elastic Compliance Matrix: (Units=1/GPa)
#
#
# Indices 1 2 3 4 5 6 
#
# 1 0.010208 -0.003425 -0.003289 -0.003781 -0.002689 0.005655
# 2 -0.003425 0.011566 -0.004679 0.002464 -0.001326 -0.000346
# 3 -0.003289 -0.004679 0.018354 -0.004234 0.003923 -0.001795
# 4 -0.003781 0.002464 -0.004234 0.029393 0.000911 -0.007721
# 5 -0.002689 -0.001326 0.003923 0.000911 0.021126 -0.005362
# 6 0.005655 -0.000346 -0.001795 -0.007721 -0.005362 0.034455
#
#
# Mechanical properties :
#
#
# Convention : Reuss Voigt Hill
#
# Bulk Modulus (GPa) = 57.66023 69.02270 63.34147
# Shear Modulus (GPa) = 32.53723 38.85943 35.69833
#
# Velocity S-wave (km/s) = 3.84202 4.19872 4.02432
# Velocity P-wave (km/s) = 6.77053 7.40399 7.09433
#
# Compressibility (1/GPa) = 0.01734298
#
# Stress axis : x y z
#
# Youngs Moduli (GPa) = 97.96549 86.45682 54.48282
#
# Poissons Ratio (x) = 0.29610 0.17918
# Poissons Ratio (y) = 0.33551 0.25494
# Poissons Ratio (z) = 0.32219 0.40455
#
# Static dielectric constant tensor:
#      x y z
#    x 1.758530 -0.002040 -0.017750 
#    y -0.002040 1.804780 -0.025810 
#    z -0.017750 -0.025810 1.833040 
# 
# From -- ./inp_files/494645.got.cif
#   From: 2010.05.17/outbox.cif.g08.bks.cpg/sg2_248_cif.got.tgz:494645.got - 2010.06.03 11:33:40.
