data_PCOD9032095
_publ_section_title
;
Structure prediction by ZEFSAII (Michael W. Deem and Ramdas Pophale) SiO2 
 PCOD9032095
Probable space group: P -1
;
_chemical_formula_sum "Si O2"
_cell_formula_units_Z 14
_cell_length_a 5.146065
_cell_length_b 25.405176
_cell_length_c 18.124130
_cell_angle_alpha 15.225383
_cell_angle_beta 105.881692
_cell_angle_gamma 104.776840
_cell_volume 598.135201
_symmetry_space_group_name_H-M "P -1"
_symmetry_group_IT_number 2
_symmetry_cell_setting 'triclinic'
loop_
_space_group_symop_operation_xyz
x,y,z
-x,-y,-z
loop_
_atom_site_type_symbol
_atom_site_label
_atom_site_fract_x
_atom_site_fract_y
_atom_site_fract_z
Si Si1 0.662414 0.569516 0.847655
Si Si2 0.832480 0.238107 0.528464
Si Si3 0.555263 0.135952 0.156303
Si Si4 0.379088 0.793842 0.293370
Si Si5 0.702352 0.497681 0.449848
Si Si6 0.027289 0.914497 0.403682
Si Si7 0.243293 0.560140 0.123824
O O1 0.461224 0.737010 0.565407
O O2 0.696320 0.417004 0.988542
O O3 0.933144 0.691448 0.718813
O O4 0.500000 0.500000 0.000000
O O5 0.828241 0.165283 0.710400
O O6 0.949511 0.462512 0.236050
O O7 0.984420 0.095569 0.673305
O O8 0.803622 0.058391 0.229848
O O9 0.327053 0.973073 0.373058
O O10 0.383640 0.308215 0.867078
O O11 0.689735 0.242631 0.092662
O O12 0.296190 0.687525 0.355840
O O13 0.580743 0.624662 0.575572
O O14 0.500000 0.000000 0.000000
O O15 0.500000 0.500000 0.500000
O O16 0.000000 0.500000 0.500000
#
# Coordination Sequence:
#
# PCOD9032095 Si02
#       7
#     2   2   2   2   2   2   2
#     4  10  22  45  72 102 134 170 223 277 333 408
#     4  10  22  43  69  96 131 179 225 266 344 392
#     4  11  24  43  67  94 139 174 223 276 333 398
#     4  10  24  42  63  96 133 174 229 276 323 392
#     4  11  26  42  63  94 130 177 224 278 333 380
#     4  11  23  42  70  99 128 177 219 270 335 395
#     4   9  23  40  67  96 132 180 219 273 339 390
#
# _framework density 23.406078999999998
#
# number of rings (size 3 to 8) (size 9 to 14) (size 15 to 20)
#    0.000    1.714    1.429    0.857   12.000    6.286 
#    0.000    1.429    0.000    0.000    0.000    0.000 
#    0.000    0.000    0.000    0.000    0.000    0.000 
#
# Total GULP energy -78228.122165 kJ/mol
# GULP energy per Si atom -5587.723012 kJ/mol
# Density = 2.335281 g / cm^3
# Si number density = 23.406079 Si / 1000 Ang^3
#
#
#
# Elastic Constant Matrix: (Units=GPa)
#
#
# Indices 1 2 3 4 5 6 
#
# 1 138.3861 101.2590 28.3680 -16.2384 -31.2786 -18.1401
# 2 101.2590 255.0725 81.6381 -25.5110 -29.0240 -25.1040
# 3 28.3680 81.6381 82.4495 -16.4118 -23.8548 -15.8710
# 4 -16.2384 -25.5110 -16.4118 41.6417 -0.4531 -5.3848
# 5 -31.2786 -29.0240 -23.8548 -0.4531 42.7469 4.5889
# 6 -18.1401 -25.1040 -15.8710 -5.3848 4.5889 47.4962
#
#
#
# Elastic Compliance Matrix: (Units=1/GPa)
#
#
# Indices 1 2 3 4 5 6 
#
# 1 0.012494 -0.004595 0.004037 0.004174 0.007955 0.003397
# 2 -0.004595 0.007659 -0.006345 0.000431 -0.001740 0.000390
# 3 0.004037 -0.006345 0.022709 0.007476 0.010799 0.005581
# 4 0.004174 0.000431 0.007476 0.029837 0.007082 0.007019
# 5 0.007955 -0.001740 0.010799 0.007082 0.033783 0.003266
# 6 0.003397 0.000390 0.005581 0.007019 0.003266 0.024903
#
#
# Mechanical properties :
#
#
# Convention : Reuss Voigt Hill
#
# Bulk Modulus (GPa) = 34.41626 99.82650 67.12138
# Shear Modulus (GPa) = 32.28377 44.01983 38.15180
#
# Velocity S-wave (km/s) = 3.71791 4.34141 4.04170
# Velocity P-wave (km/s) = 5.75902 8.23850 7.10771
#
# Compressibility (1/GPa) = 0.02905603
#
# Stress axis : x y z
#
# Youngs Moduli (GPa) = 80.03956 130.56694 44.03493
#
# Poissons Ratio (x) = 0.59997 -0.17779
# Poissons Ratio (y) = 0.36779 0.27941
# Poissons Ratio (z) = -0.32315 0.82848
#
# Static dielectric constant tensor:
#      x y z
#    x 1.964820 -0.032450 0.046130 
#    y -0.032450 1.753930 0.040860 
#    z 0.046130 0.040860 1.919450 
# 
# From -- ./inp_files/49387.got.cif
#   From: 2010.05.17/outbox.cif.g08.bks.cpg/sg2_25_cif.got.tgz:49387.got - 2010.06.03 11:33:40.
