data_PCOD9032342
_publ_section_title
;
Structure prediction by ZEFSAII (Michael W. Deem and Ramdas Pophale) SiO2 
 PCOD9032342
Probable space group: P -1
;
_chemical_formula_sum "Si O2"
_cell_formula_units_Z 16
_cell_length_a 9.823548
_cell_length_b 11.205618
_cell_length_c 9.029913
_cell_angle_alpha 53.018267
_cell_angle_beta 100.123716
_cell_angle_gamma 95.680805
_cell_volume 781.645306
_symmetry_space_group_name_H-M "P -1"
_symmetry_group_IT_number 2
_symmetry_cell_setting 'triclinic'
loop_
_space_group_symop_operation_xyz
x,y,z
-x,-y,-z
loop_
_atom_site_type_symbol
_atom_site_label
_atom_site_fract_x
_atom_site_fract_y
_atom_site_fract_z
Si Si1 0.874277 0.026165 0.069962
Si Si2 0.183750 0.307863 0.587601
Si Si3 0.337160 0.467478 0.769722
Si Si4 0.940415 0.420962 0.275096
Si Si5 0.409058 0.938477 0.163535
Si Si6 0.561753 0.695799 0.561806
Si Si7 0.971301 0.739400 0.885900
Si Si8 0.348195 0.196298 0.193338
O O1 0.924430 0.141764 0.115828
O O2 0.833248 0.867193 0.250695
O O3 0.743183 0.088630 0.908795
O O4 0.000000 0.000000 0.000000
O O5 0.257752 0.381779 0.687157
O O6 0.285506 0.334512 0.448888
O O7 0.035914 0.377533 0.464273
O O8 0.222481 0.585897 0.717459
O O9 0.474470 0.547978 0.683396
O O10 0.370653 0.348787 0.992233
O O11 0.983964 0.314555 0.227339
O O12 0.967472 0.590987 0.099200
O O13 0.481484 0.793105 0.352263
O O14 0.395811 0.061258 0.199198
O O15 0.500000 0.000000 0.000000
O O16 0.575817 0.787617 0.648148
O O17 0.816993 0.808689 0.806712
#
# Coordination Sequence:
#
# PCOD9032342 Si02
#       8
#     2   2   2   2   2   2   2   2
#     4  12  24  43  71  94 133 181 220 273 337 391
#     4  12  24  45  66 100 139 172 222 279 330 399
#     4  11  24  43  69 100 132 176 228 274 333 395
#     4  10  23  42  67 100 132 170 223 276 327 393
#     4  12  25  45  65  98 137 176 225 275 331 396
#     4  12  26  43  68  99 135 182 220 273 341 399
#     4  10  22  43  70  98 134 171 219 278 333 389
#     4  11  22  48  67  96 140 175 220 281 332 400
#
# _framework density 20.469643000000001
#
# number of rings (size 3 to 8) (size 9 to 14) (size 15 to 20)
#    0.000    0.750    5.000    2.250    3.500    1.500 
#    2.250    0.000    0.000    0.000    0.000    0.000 
#    0.000    0.000    0.000    0.000    0.000    0.000 
#
# Total GULP energy -89543.467079 kJ/mol
# GULP energy per Si atom -5596.466692 kJ/mol
# Density = 2.042305 g / cm^3
# Si number density = 20.469643 Si / 1000 Ang^3
#
#
#
# Elastic Constant Matrix: (Units=GPa)
#
#
# Indices 1 2 3 4 5 6 
#
# 1 68.7483 9.7187 7.8538 -4.4743 -10.8389 5.4415
# 2 9.7187 88.0854 1.2907 14.6370 -12.3998 8.1466
# 3 7.8538 1.2907 50.1508 13.9879 2.4638 15.0256
# 4 -4.4743 14.6370 13.9879 23.4466 -1.0116 1.6133
# 5 -10.8389 -12.3998 2.4638 -1.0116 38.8011 5.1884
# 6 5.4415 8.1466 15.0256 1.6133 5.1884 36.8213
#
#
#
# Elastic Compliance Matrix: (Units=1/GPa)
#
#
# Indices 1 2 3 4 5 6 
#
# 1 0.016695 -0.002303 -0.004590 0.007631 0.004560 -0.001062
# 2 -0.002303 0.014481 0.004456 -0.011638 0.004032 -0.004740
# 3 -0.004590 0.004456 0.029774 -0.020666 -0.000757 -0.011445
# 4 0.007631 -0.011638 -0.020666 0.063234 0.000431 0.007049
# 5 0.004560 0.004032 -0.000757 0.000431 0.029113 -0.005378
# 6 -0.001062 -0.004740 -0.011445 0.007049 -0.005378 0.033483
#
#
# Mechanical properties :
#
#
# Convention : Reuss Voigt Hill
#
# Bulk Modulus (GPa) = 17.83231 27.19011 22.51121
# Shear Modulus (GPa) = 23.77025 32.35522 28.06273
#
# Velocity S-wave (km/s) = 3.41140 3.98004 3.70664
# Velocity P-wave (km/s) = 4.92416 5.86796 5.41666
#
# Compressibility (1/GPa) = 0.05607800
#
# Stress axis : x y z
#
# Youngs Moduli (GPa) = 59.89693 69.05476 33.58606
#
# Poissons Ratio (x) = 0.15902 0.15415
# Poissons Ratio (y) = 0.13793 -0.14966
# Poissons Ratio (z) = 0.27491 -0.30771
#
# Static dielectric constant tensor:
#      x y z
#    x 1.730590 -0.019020 -0.011830 
#    y -0.019020 1.708970 0.011030 
#    z -0.011830 0.011030 1.701050 
# 
# From -- ./inp_files/184411.got.cif
#   From: 2010.05.17/outbox.cif.g08.bks.cpg/sg2_93_cif.got.tgz:184411.got - 2010.06.03 11:33:40.
