data_PCOD9032542
_publ_section_title
;
Structure prediction by ZEFSAII (Michael W. Deem and Ramdas Pophale) SiO2 
 PCOD9032542
Probable space group: P -1
;
_chemical_formula_sum "Si O2"
_cell_formula_units_Z 15
_cell_length_a 9.166403
_cell_length_b 7.584854
_cell_length_c 15.832107
_cell_angle_alpha 89.823517
_cell_angle_beta 134.549161
_cell_angle_gamma 60.428628
_cell_volume 563.614028
_symmetry_space_group_name_H-M "P -1"
_symmetry_group_IT_number 2
_symmetry_cell_setting 'triclinic'
loop_
_space_group_symop_operation_xyz
x,y,z
-x,-y,-z
loop_
_atom_site_type_symbol
_atom_site_label
_atom_site_fract_x
_atom_site_fract_y
_atom_site_fract_z
Si Si1 0.793126 0.922372 0.686247
Si Si2 0.163421 0.140203 0.006662
Si Si3 0.243142 0.069826 0.691464
Si Si4 0.648975 0.519384 0.425632
Si Si5 0.500000 0.500000 0.000000
Si Si6 0.228900 0.942601 0.866218
Si Si7 0.611227 0.381636 0.856533
Si Si8 0.412032 0.849848 0.576035
O O1 0.566272 0.202560 0.629216
O O2 0.759034 0.955326 0.571390
O O3 0.705106 0.787574 0.688575
O O4 0.100891 0.819003 0.839192
O O5 0.437485 0.074368 0.152081
O O6 0.247087 0.890325 0.065664
O O7 0.123813 0.147825 0.889765
O O8 0.863549 0.359314 0.927510
O O9 0.980681 0.363036 0.575706
O O10 0.146412 0.031239 0.738323
O O11 0.272854 0.963140 0.611586
O O12 0.597751 0.525811 0.305628
O O13 0.572542 0.369700 0.431264
O O14 0.454909 0.301411 0.980506
O O15 0.525272 0.470639 0.114869
#
# Coordination Sequence:
#
# PCOD9032542 Si02
#       8
#     2   2   2   2   1   2   2   2
#     4  11  25  47  74 104 150 194 242 305 368 441
#     4  10  23  45  70 100 148 199 240 298 362 442
#     4  12  26  43  73 111 151 185 250 311 365 434
#     4  12  24  47  76 108 145 197 243 307 370 435
#     4  10  24  40  70  98 136 194 234 296 366 426
#     4  11  23  48  69 101 150 194 246 305 366 432
#     4  10  22  43  72 101 143 191 245 295 365 432
#     4  11  26  44  69 111 145 188 245 305 369 430
#
# _framework density 26.613956000000002
#
# number of rings (size 3 to 8) (size 9 to 14) (size 15 to 20)
#    0.000    1.067    2.667    2.800    5.600    2.133 
#    9.600    1.333    0.000    0.000    0.000    0.000 
#    0.000    0.000    0.000    0.000    0.000    0.000 
#
# Total GULP energy -83689.733162 kJ/mol
# GULP energy per Si atom -5579.315544 kJ/mol
# Density = 2.655338 g / cm^3
# Si number density = 26.613956 Si / 1000 Ang^3
#
#
#
# Elastic Constant Matrix: (Units=GPa)
#
#
# Indices 1 2 3 4 5 6 
#
# 1 114.0001 45.5348 62.2096 22.5380 -13.8705 -5.7506
# 2 45.5348 98.0625 28.2413 -6.6730 -4.8423 -16.2152
# 3 62.2096 28.2413 143.3329 8.9913 -7.1896 -27.3900
# 4 22.5380 -6.6730 8.9913 32.0063 -5.2506 2.2270
# 5 -13.8705 -4.8423 -7.1896 -5.2506 62.3547 15.6632
# 6 -5.7506 -16.2152 -27.3900 2.2270 15.6632 33.1519
#
#
#
# Elastic Compliance Matrix: (Units=1/GPa)
#
#
# Indices 1 2 3 4 5 6 
#
# 1 0.018066 -0.008277 -0.006718 -0.011479 0.003478 -0.007337
# 2 -0.008277 0.015319 0.001437 0.007812 -0.001720 0.007532
# 3 -0.006718 0.001437 0.011363 0.000720 -0.002544 0.010079
# 4 -0.011479 0.007812 0.000720 0.041155 0.001914 -0.001245
# 5 0.003478 -0.001720 -0.002544 0.001914 0.019477 -0.011670
# 6 -0.007337 0.007532 0.010079 -0.001245 -0.011670 0.046500
#
#
# Mechanical properties :
#
#
# Convention : Reuss Voigt Hill
#
# Bulk Modulus (GPa) = 56.71293 69.70744 63.21018
# Shear Modulus (GPa) = 27.04552 40.12989 33.58771
#
# Velocity S-wave (km/s) = 3.19127 3.88732 3.55637
# Velocity P-wave (km/s) = 5.91056 6.81155 6.37699
#
# Compressibility (1/GPa) = 0.01763266
#
# Stress axis : x y z
#
# Youngs Moduli (GPa) = 55.35119 65.27704 88.00795
#
# Poissons Ratio (x) = 0.54030 0.59123
# Poissons Ratio (y) = 0.45814 -0.12647
# Poissons Ratio (z) = 0.37184 -0.09380
#
# Static dielectric constant tensor:
#      x y z
#    x 2.256200 -0.068560 0.148590 
#    y -0.068560 2.386550 -0.252470 
#    z 0.148590 -0.252470 2.248730 
# 
# From -- ./inp_files/397619.got.cif
#   From: 2010.05.17/outbox.cif.g08.bks.cpg/sg2_199_cif.got.tgz:397619.got - 2010.06.03 11:33:40.
