data_PCOD9032364
_publ_section_title
;
Structure prediction by ZEFSAII (Michael W. Deem and Ramdas Pophale) SiO2 
 PCOD9032364
Probable space group: P -1
;
_chemical_formula_sum "Si O2"
_cell_formula_units_Z 16
_cell_length_a 15.132746
_cell_length_b 10.993691
_cell_length_c 8.880175
_cell_angle_alpha 100.671938
_cell_angle_beta 55.447610
_cell_angle_gamma 56.488748
_cell_volume 698.032948
_symmetry_space_group_name_H-M "P -1"
_symmetry_group_IT_number 2
_symmetry_cell_setting 'triclinic'
loop_
_space_group_symop_operation_xyz
x,y,z
-x,-y,-z
loop_
_atom_site_type_symbol
_atom_site_label
_atom_site_fract_x
_atom_site_fract_y
_atom_site_fract_z
Si Si1 0.211781 0.345041 0.779820
Si Si2 0.705878 0.270955 0.289906
Si Si3 0.168557 0.964411 0.399550
Si Si4 0.813152 0.369949 0.989563
Si Si5 0.585282 0.930545 0.173292
Si Si6 0.802260 0.309381 0.517112
Si Si7 0.192983 0.036388 0.068803
Si Si8 0.548724 0.690947 0.061535
O O1 0.199997 0.502666 0.855990
O O2 0.305295 0.199516 0.806101
O O3 0.370418 0.165863 0.462886
O O4 0.000000 0.500000 0.000000
O O5 0.500000 0.500000 0.500000
O O6 0.827702 0.233925 0.044277
O O7 0.756079 0.275747 0.404825
O O8 0.733344 0.102053 0.183201
O O9 0.150712 0.839045 0.437627
O O10 0.334060 0.868053 0.311847
O O11 0.221466 0.928567 0.166542
O O12 0.988326 0.209831 0.674628
O O13 0.638552 0.544113 0.088699
O O14 0.592833 0.794872 0.045311
O O15 0.699268 0.938428 0.000021
O O16 0.972719 0.242263 0.311663
O O17 0.634274 0.543545 0.800476
#
# Coordination Sequence:
#
# PCOD9032364 Si02
#       8
#     2   2   2   2   2   2   2   2
#     4  10  22  43  70  99 137 184 227 282 346 410
#     4  12  25  42  68 103 136 177 232 293 345 409
#     4  12  24  45  71  98 141 185 230 287 345 411
#     4  11  23  43  68 100 134 177 230 281 349 406
#     4  10  25  45  68 104 142 180 231 287 337 414
#     4  12  25  44  70 102 140 185 229 287 351 407
#     4  12  25  45  68 101 146 179 231 288 340 418
#     4  11  24  46  70  99 136 186 232 279 347 411
#
# _framework density 22.921555999999999
#
# number of rings (size 3 to 8) (size 9 to 14) (size 15 to 20)
#    0.000    0.750    2.500    4.875    1.750    3.000 
#    0.000    0.000    0.000    0.000    0.000    0.000 
#    0.000    0.000    0.000    0.000    0.000    0.000 
#
# Total GULP energy -89542.232203 kJ/mol
# GULP energy per Si atom -5596.389513 kJ/mol
# Density = 2.286939 g / cm^3
# Si number density = 22.921556 Si / 1000 Ang^3
#
#
#
# Elastic Constant Matrix: (Units=GPa)
#
#
# Indices 1 2 3 4 5 6 
#
# 1 101.0928 42.1962 25.1117 -2.7479 -3.6455 -1.0598
# 2 42.1962 55.0366 32.9008 -0.4154 3.7710 11.5430
# 3 25.1117 32.9008 60.3363 0.6569 4.1571 -2.4630
# 4 -2.7479 -0.4154 0.6569 28.9616 -2.0450 -8.9026
# 5 -3.6455 3.7710 4.1571 -2.0450 50.1482 7.9561
# 6 -1.0598 11.5430 -2.4630 -8.9026 7.9561 39.2779
#
#
#
# Elastic Compliance Matrix: (Units=1/GPa)
#
#
# Indices 1 2 3 4 5 6 
#
# 1 0.015479 -0.013568 0.001025 0.002834 0.001410 0.004826
# 2 -0.013568 0.042512 -0.018058 -0.004916 -0.000506 -0.015003
# 3 0.001025 -0.018058 0.026426 0.001475 -0.001922 0.007715
# 4 0.002834 -0.004916 0.001475 0.037828 0.000392 0.010108
# 5 0.001410 -0.000506 -0.001922 0.000392 0.020904 -0.004079
# 6 0.004826 -0.015003 0.007715 0.010108 -0.004079 0.033600
#
#
# Mechanical properties :
#
#
# Convention : Reuss Voigt Hill
#
# Bulk Modulus (GPa) = 43.07763 46.32033 44.69898
# Shear Modulus (GPa) = 20.35094 31.42802 25.88948
#
# Velocity S-wave (km/s) = 2.98292 3.70687 3.36442
# Velocity P-wave (km/s) = 5.54058 6.21074 5.88520
#
# Compressibility (1/GPa) = 0.02321390
#
# Stress axis : x y z
#
# Youngs Moduli (GPa) = 64.60381 23.52293 37.84213
#
# Poissons Ratio (x) = 0.31915 -0.03879
# Poissons Ratio (y) = 0.87653 0.68337
# Poissons Ratio (z) = -0.06623 0.42479
#
# Static dielectric constant tensor:
#      x y z
#    x 1.875370 -0.007150 -0.005900 
#    y -0.007150 1.870230 -0.017980 
#    z -0.005900 -0.017980 1.849300 
# 
# From -- ./inp_files/307938.got.cif
#   From: 2010.05.17/outbox.cif.g08.bks.cpg/sg2_154_cif.got.tgz:307938.got - 2010.06.03 11:33:40.
