data_PCOD9032536
_publ_section_title
;
Structure prediction by ZEFSAII (Michael W. Deem and Ramdas Pophale) SiO2 
 PCOD9032536
Probable space group: P -1
;
_chemical_formula_sum "Si O2"
_cell_formula_units_Z 16
_cell_length_a 8.330995
_cell_length_b 7.886237
_cell_length_c 17.743298
_cell_angle_alpha 117.669187
_cell_angle_beta 54.490223
_cell_angle_gamma 127.706160
_cell_volume 739.899107
_symmetry_space_group_name_H-M "P -1"
_symmetry_group_IT_number 2
_symmetry_cell_setting 'triclinic'
loop_
_space_group_symop_operation_xyz
x,y,z
-x,-y,-z
loop_
_atom_site_type_symbol
_atom_site_label
_atom_site_fract_x
_atom_site_fract_y
_atom_site_fract_z
Si Si1 0.367100 0.475910 0.839559
Si Si2 0.899787 0.069131 0.306801
Si Si3 0.450725 0.095032 0.766298
Si Si4 0.545896 0.799706 0.460916
Si Si5 0.242179 0.059046 0.412529
Si Si6 0.731992 0.598700 0.638888
Si Si7 0.588654 0.057954 0.088783
Si Si8 0.861947 0.127141 0.891164
O O1 0.431086 0.313295 0.836100
O O2 0.522202 0.501210 0.731256
O O3 0.411088 0.719445 0.892525
O O4 0.100276 0.341140 0.871983
O O5 0.032820 0.300418 0.360157
O O6 0.724262 0.028920 0.279468
O O7 0.771091 0.880310 0.365364
O O8 0.090149 0.037825 0.205556
O O9 0.683146 0.119334 0.672051
O O10 0.387177 0.955477 0.831452
O O11 0.594381 0.798122 0.535133
O O12 0.335822 0.587524 0.442969
O O13 0.500000 0.000000 0.500000
O O14 0.267044 0.199261 0.361635
O O15 0.000000 0.000000 0.500000
O O16 0.344684 0.865435 0.092450
O O17 0.778453 0.050482 0.983204
#
# Coordination Sequence:
#
# PCOD9032536 Si02
#       8
#     2   2   2   2   2   2   2   2
#     4  11  22  43  70  97 138 177 224 278 338 399
#     4  11  22  42  67  94 140 176 224 281 337 398
#     4  11  24  45  69 102 138 178 228 284 333 407
#     4  12  24  45  65  98 135 174 228 284 331 404
#     4  12  24  43  69 101 137 178 232 278 340 406
#     4  12  23  43  69  93 137 182 220 282 341 394
#     4  11  23  45  72 101 139 178 226 278 345 399
#     4  10  22  43  72 101 138 181 219 286 337 400
#
# _framework density 21.624569999999999
#
# number of rings (size 3 to 8) (size 9 to 14) (size 15 to 20)
#    0.000    0.750    7.500    0.750    0.000    2.500 
#    4.500    2.500    2.750    0.000    0.000    0.000 
#    0.000    0.000    0.000    0.000    0.000    0.000 
#
# Total GULP energy -89143.596017 kJ/mol
# GULP energy per Si atom -5571.474751 kJ/mol
# Density = 2.157535 g / cm^3
# Si number density = 21.624570 Si / 1000 Ang^3
#
#
#
# Elastic Constant Matrix: (Units=GPa)
#
#
# Indices 1 2 3 4 5 6 
#
# 1 69.8796 21.9996 29.6587 -7.8195 11.0094 -5.7547
# 2 21.9996 60.5283 10.3816 -0.9322 -10.5396 -4.0285
# 3 29.6587 10.3816 95.9344 -6.6250 -3.1235 -1.7236
# 4 -7.8195 -0.9322 -6.6250 35.9239 3.0899 -10.3589
# 5 11.0094 -10.5396 -3.1235 3.0899 36.3740 1.7324
# 6 -5.7547 -4.0285 -1.7236 -10.3589 1.7324 20.0138
#
#
#
# Elastic Compliance Matrix: (Units=1/GPa)
#
#
# Indices 1 2 3 4 5 6 
#
# 1 0.022670 -0.008425 -0.005793 0.007166 -0.010836 0.008971
# 2 -0.008425 0.021015 0.000486 -0.001936 0.008842 0.000082
# 3 -0.005793 0.000486 0.012294 0.000645 0.002916 -0.000428
# 4 0.007166 -0.001936 0.000645 0.036099 -0.006741 0.020994
# 5 -0.010836 0.008842 0.002916 -0.006741 0.034517 -0.007562
# 6 0.008971 0.000082 -0.000428 0.020994 -0.007562 0.064045
#
#
# Mechanical properties :
#
#
# Convention : Reuss Voigt Hill
#
# Bulk Modulus (GPa) = 35.07068 38.93582 37.00325
# Shear Modulus (GPa) = 21.96742 29.41581 25.69162
#
# Velocity S-wave (km/s) = 3.19070 3.69222 3.45059
# Velocity P-wave (km/s) = 5.46144 6.01840 5.74667
#
# Compressibility (1/GPa) = 0.02851384
#
# Stress axis : x y z
#
# Youngs Moduli (GPa) = 44.11205 47.58438 81.34043
#
# Poissons Ratio (x) = 0.40091 0.47124
# Poissons Ratio (y) = 0.37166 -0.03955
# Poissons Ratio (z) = 0.25556 -0.02314
#
# Static dielectric constant tensor:
#      x y z
#    x 1.808540 0.022320 -0.038320 
#    y 0.022320 1.914620 -0.018630 
#    z -0.038320 -0.018630 1.882820 
# 
# From -- ./inp_files/557435.got.cif
#   From: 2010.05.17/outbox.cif.g08.bks.cpg/sg2_279_cif.got.tgz:557435.got - 2010.06.03 11:33:40.
