data_PCOD9032632
_publ_section_title
;
Structure prediction by ZEFSAII (Michael W. Deem and Ramdas Pophale) SiO2 
 PCOD9032632
Probable space group: P -1
;
_chemical_formula_sum "Si O2"
_cell_formula_units_Z 14
_cell_length_a 12.228549
_cell_length_b 9.862122
_cell_length_c 9.049239
_cell_angle_alpha 73.871948
_cell_angle_beta 141.912432
_cell_angle_gamma 107.642823
_cell_volume 640.109985
_symmetry_space_group_name_H-M "P -1"
_symmetry_group_IT_number 2
_symmetry_cell_setting 'triclinic'
loop_
_space_group_symop_operation_xyz
x,y,z
-x,-y,-z
loop_
_atom_site_type_symbol
_atom_site_label
_atom_site_fract_x
_atom_site_fract_y
_atom_site_fract_z
Si Si1 0.910620 0.011230 0.240543
Si Si2 0.489278 0.977478 0.173239
Si Si3 0.779453 0.791499 0.652402
Si Si4 0.110499 0.262498 0.889293
Si Si5 0.408844 0.477193 0.567458
Si Si6 0.338674 0.542095 0.918992
Si Si7 0.295421 0.733454 0.558460
O O1 0.050063 0.105184 0.255445
O O2 0.871148 0.853413 0.180344
O O3 0.000000 0.000000 0.500000
O O4 0.721325 0.067912 0.015155
O O5 0.568731 0.124816 0.299463
O O6 0.611153 0.865976 0.399322
O O7 0.500000 0.000000 0.000000
O O8 0.766571 0.637655 0.605894
O O9 0.786981 0.767834 0.842713
O O10 0.195279 0.413018 0.863464
O O11 0.900083 0.244323 0.711865
O O12 0.500000 0.500000 0.500000
O O13 0.373170 0.623081 0.563945
O O14 0.548042 0.403162 0.835422
O O15 0.255695 0.654078 0.698105
O O16 0.500000 0.500000 0.000000
#
# Coordination Sequence:
#
# PCOD9032632 Si02
#       7
#     2   2   2   2   2   2   2
#     4  12  26  45  77 106 146 189 243 304 359 438
#     4  12  25  50  78 109 143 194 248 297 370 433
#     4  12  27  47  74 108 153 184 243 306 363 437
#     4  12  25  48  70 110 146 189 248 302 366 429
#     4  11  24  47  71 107 145 190 241 300 368 430
#     4  10  22  43  72  97 139 191 242 292 354 431
#     4  11  25  45  77 104 146 196 246 297 364 437
#
# _framework density 21.871241999999999
#
# number of rings (size 3 to 8) (size 9 to 14) (size 15 to 20)
#    0.000    0.571    4.286    3.429    4.000    2.286 
#    5.143    0.000    0.000    0.000    0.000    0.000 
#    0.000    0.000    0.000    0.000    0.000    0.000 
#
# Total GULP energy -78243.956026 kJ/mol
# GULP energy per Si atom -5588.854002 kJ/mol
# Density = 2.182146 g / cm^3
# Si number density = 21.871242 Si / 1000 Ang^3
#
#
#
# Elastic Constant Matrix: (Units=GPa)
#
#
# Indices 1 2 3 4 5 6 
#
# 1 70.5357 17.3037 48.4396 -3.2020 -0.8281 0.4134
# 2 17.3037 92.3269 35.0041 22.8415 -10.6205 -7.6122
# 3 48.4396 35.0041 153.0052 1.3673 -0.7644 -8.8628
# 4 -3.2020 22.8415 1.3673 37.3186 -1.7301 -0.9322
# 5 -0.8281 -10.6205 -0.7644 -1.7301 52.8530 4.8229
# 6 0.4134 -7.6122 -8.8628 -0.9322 4.8229 37.2627
#
#
#
# Elastic Compliance Matrix: (Units=1/GPa)
#
#
# Indices 1 2 3 4 5 6 
#
# 1 0.018706 -0.002362 -0.005522 0.003206 0.000019 -0.001926
# 2 -0.002362 0.014887 -0.002452 -0.009063 0.002445 0.001941
# 3 -0.005522 -0.002452 0.008939 0.000717 -0.000589 0.001780
# 4 0.003206 -0.009063 0.000717 0.032543 -0.000620 -0.000822
# 5 0.000019 0.002445 -0.000589 -0.000620 0.019583 -0.002191
# 6 -0.001926 0.001941 0.001780 -0.000822 -0.002191 0.027941
#
#
# Mechanical properties :
#
#
# Convention : Reuss Voigt Hill
#
# Bulk Modulus (GPa) = 45.74748 57.48474 51.61611
# Shear Modulus (GPa) = 33.21007 39.82821 36.51914
#
# Velocity S-wave (km/s) = 3.90094 4.27198 4.09067
# Velocity P-wave (km/s) = 6.42276 7.11853 6.77958
#
# Compressibility (1/GPa) = 0.02185913
#
# Stress axis : x y z
#
# Youngs Moduli (GPa) = 53.45968 67.17293 111.87340
#
# Poissons Ratio (x) = 0.15866 0.61773
# Poissons Ratio (y) = 0.12627 0.27436
# Poissons Ratio (z) = 0.29519 0.16473
#
# Static dielectric constant tensor:
#      x y z
#    x 1.800240 -0.016320 0.026380 
#    y -0.016320 1.826050 0.005800 
#    z 0.026380 0.005800 1.807890 
# 
# From -- ./inp_files/243767.got.cif
#   From: 2010.05.17/outbox.cif.g08.bks.cpg/sg2_122_cif.got.tgz:243767.got - 2010.06.03 11:33:40.
