data_PCOD9032825
_publ_section_title
;
Structure prediction by ZEFSAII (Michael W. Deem and Ramdas Pophale) SiO2 
 PCOD9032825
Probable space group: P -1
;
_chemical_formula_sum "Si O2"
_cell_formula_units_Z 14
_cell_length_a 7.529862
_cell_length_b 11.680717
_cell_length_c 7.732384
_cell_angle_alpha 100.569364
_cell_angle_beta 69.247527
_cell_angle_gamma 125.042941
_cell_volume 520.505135
_symmetry_space_group_name_H-M "P -1"
_symmetry_group_IT_number 2
_symmetry_cell_setting 'triclinic'
loop_
_space_group_symop_operation_xyz
x,y,z
-x,-y,-z
loop_
_atom_site_type_symbol
_atom_site_label
_atom_site_fract_x
_atom_site_fract_y
_atom_site_fract_z
Si Si1 0.267126 0.788798 0.801702
Si Si2 0.210374 0.120387 0.852810
Si Si3 0.593584 0.694058 0.643547
Si Si4 0.095696 0.516051 0.276348
Si Si5 0.122974 0.904641 0.574705
Si Si6 0.303556 0.821626 0.180881
Si Si7 0.419144 0.413237 0.769252
O O1 0.490830 0.786349 0.708101
O O2 0.236465 0.865466 0.675508
O O3 0.067578 0.625361 0.808726
O O4 0.283160 0.853075 0.999784
O O5 0.450132 0.149867 0.848109
O O6 0.232765 0.268023 0.885297
O O7 0.168477 0.052367 0.657393
O O8 0.000000 0.000000 0.000000
O O9 0.434722 0.556776 0.780566
O O10 0.578243 0.636795 0.440634
O O11 0.854907 0.784315 0.636219
O O12 0.127518 0.654755 0.225296
O O13 0.341405 0.540490 0.215393
O O14 0.000000 0.500000 0.500000
O O15 0.231232 0.897224 0.358282
#
# Coordination Sequence:
#
# PCOD9032825 Si02
#       7
#     2   2   2   2   2   2   2
#     4  12  24  44  77 114 152 190 253 314 379 452
#     4  11  26  51  75 108 157 206 256 307 373 462
#     4  11  23  44  80 115 146 192 253 321 383 444
#     4  11  18  43  71 107 155 187 243 317 379 443
#     4  12  26  49  79 110 157 199 247 319 381 449
#     4  11  25  44  73 110 147 200 253 305 382 450
#     4  10  22  43  76 111 151 194 252 314 382 448
#
# _framework density 26.896947999999998
#
# number of rings (size 3 to 8) (size 9 to 14) (size 15 to 20)
#    0.000    0.857    4.286    2.571    2.000    2.286 
#    2.571    5.000    0.000    0.000    0.000    0.000 
#    0.000    0.000    0.000    0.000    0.000    0.000 
#
# Total GULP energy -78680.260850 kJ/mol
# GULP energy per Si atom -5620.018632 kJ/mol
# Density = 2.683573 g / cm^3
# Si number density = 26.896948 Si / 1000 Ang^3
#
#
#
# Elastic Constant Matrix: (Units=GPa)
#
#
# Indices 1 2 3 4 5 6 
#
# 1 117.5995 48.3714 56.6942 4.1204 -4.1842 -0.2004
# 2 48.3714 184.8751 58.7098 -17.9760 2.3262 5.9336
# 3 56.6942 58.7098 131.2591 4.6399 17.4262 17.7564
# 4 4.1204 -17.9760 4.6399 48.7453 12.1276 8.5961
# 5 -4.1842 2.3262 17.4262 12.1276 40.7596 0.7905
# 6 -0.2004 5.9336 17.7564 8.5961 0.7905 44.7186
#
#
#
# Elastic Compliance Matrix: (Units=1/GPa)
#
#
# Indices 1 2 3 4 5 6 
#
# 1 0.012068 -0.001921 -0.005218 -0.002819 0.004363 0.002846
# 2 -0.001921 0.006960 -0.002231 0.003200 -0.000580 -0.000651
# 3 -0.005218 -0.002231 0.012235 0.000701 -0.005758 -0.004618
# 4 -0.002819 0.003200 0.000701 0.024812 -0.008050 -0.005343
# 5 0.004363 -0.000580 -0.005758 -0.008050 0.029806 0.003403
# 6 0.002846 -0.000651 -0.004618 -0.005343 0.003403 0.025262
#
#
# Mechanical properties :
#
#
# Convention : Reuss Voigt Hill
#
# Bulk Modulus (GPa) = 79.85765 84.58715 82.22240
# Shear Modulus (GPa) = 37.29797 44.84192 41.06994
#
# Velocity S-wave (km/s) = 3.72788 4.08753 3.91184
# Velocity P-wave (km/s) = 6.94868 7.33445 7.14417
#
# Compressibility (1/GPa) = 0.01252228
#
# Stress axis : x y z
#
# Youngs Moduli (GPa) = 82.86489 143.68677 81.73510
#
# Poissons Ratio (x) = 0.27600 0.42648
# Poissons Ratio (y) = 0.15917 0.18238
# Poissons Ratio (z) = 0.43237 0.32061
#
# Static dielectric constant tensor:
#      x y z
#    x 2.029660 -0.008810 -0.003610 
#    y -0.008810 2.064880 -0.042850 
#    z -0.003610 -0.042850 2.125940 
# 
# From -- ./inp_files/277796.got.cif
#   From: 2010.05.17/outbox.cif.g08.bks.cpg/sg2_139_cif.got.tgz:277796.got - 2010.06.03 11:33:40.
