data_PCOD9032166
_publ_section_title
;
Structure prediction by ZEFSAII (Michael W. Deem and Ramdas Pophale) SiO2 
 PCOD9032166
Probable space group: P -1
;
_chemical_formula_sum "Si O2"
_cell_formula_units_Z 15
_cell_length_a 18.315388
_cell_length_b 9.931021
_cell_length_c 15.393611
_cell_angle_alpha 131.554873
_cell_angle_beta 160.713636
_cell_angle_gamma 47.588897
_cell_volume 678.681399
_symmetry_space_group_name_H-M "P -1"
_symmetry_group_IT_number 2
_symmetry_cell_setting 'triclinic'
loop_
_space_group_symop_operation_xyz
x,y,z
-x,-y,-z
loop_
_atom_site_type_symbol
_atom_site_label
_atom_site_fract_x
_atom_site_fract_y
_atom_site_fract_z
Si Si1 0.655749 0.921597 0.060968
Si Si2 0.862887 0.251731 0.457942
Si Si3 0.445419 0.397422 0.809715
Si Si4 0.805033 0.931592 0.597826
Si Si5 0.433542 0.188083 0.396999
Si Si6 0.000000 0.500000 0.000000
Si Si7 0.766829 0.190855 0.525548
Si Si8 0.287601 0.809524 0.126581
O O1 0.872361 0.778050 0.274956
O O2 0.755624 0.099457 0.219668
O O3 0.497002 0.827742 0.781383
O O4 0.500000 0.000000 0.000000
O O5 0.733296 0.453641 0.379503
O O6 0.840890 0.207996 0.516604
O O7 0.337478 0.225079 0.640547
O O8 0.650635 0.322122 0.943076
O O9 0.500000 0.500000 0.000000
O O10 0.642932 0.104754 0.534201
O O11 0.881718 0.004183 0.623734
O O12 0.022376 0.849015 0.864087
O O13 0.549250 0.267413 0.643559
O O14 0.344689 0.007681 0.252731
O O15 0.223003 0.326990 0.181093
O O16 0.837211 0.358319 0.725939
#
# Coordination Sequence:
#
# PCOD9032166 Si02
#       8
#     2   2   2   2   2   1   2   2
#     4   9  21  41  68  95 134 178 225 283 351 406
#     4  10  22  43  69  99 138 177 227 291 349 407
#     4  11  25  42  69 102 132 178 233 287 342 419
#     4  11  24  43  71  99 135 185 232 280 350 419
#     4  10  23  43  68  99 137 183 228 287 346 408
#     4  12  24  42  64 100 142 178 234 284 336 418
#     4  11  24  41  64 101 138 179 223 284 350 402
#     4  10  22  46  66  94 143 181 227 284 352 408
#
# _framework density 22.101680000000002
#
# number of rings (size 3 to 8) (size 9 to 14) (size 15 to 20)
#    0.000    1.600    1.333    2.000    1.867    7.467 
#    2.400    0.000    0.000    0.000    0.000    0.000 
#    0.000    0.000    0.000    0.000    0.000    0.000 
#
# Total GULP energy -83516.698046 kJ/mol
# GULP energy per Si atom -5567.779870 kJ/mol
# Density = 2.205138 g / cm^3
# Si number density = 22.101680 Si / 1000 Ang^3
#
#
#
# Elastic Constant Matrix: (Units=GPa)
#
#
# Indices 1 2 3 4 5 6 
#
# 1 67.2736 34.4479 29.0505 -0.9033 -5.8160 -8.1434
# 2 34.4479 112.3844 39.7848 -13.7071 -1.6876 -20.4709
# 3 29.0505 39.7848 155.3446 0.3209 -3.3481 -26.0572
# 4 -0.9033 -13.7071 0.3209 52.0842 -11.6627 2.5769
# 5 -5.8160 -1.6876 -3.3481 -11.6627 20.2178 -2.7565
# 6 -8.1434 -20.4709 -26.0572 2.5769 -2.7565 26.1560
#
#
#
# Elastic Compliance Matrix: (Units=1/GPa)
#
#
# Indices 1 2 3 4 5 6 
#
# 1 0.018704 -0.004827 -0.002082 0.000110 0.004759 0.000462
# 2 -0.004827 0.012505 -0.001055 0.003401 0.002418 0.007153
# 3 -0.002082 -0.001055 0.008299 -0.000394 0.001412 0.006982
# 4 0.000110 0.003401 -0.000394 0.023113 0.013784 0.001479
# 5 0.004759 0.002418 0.001412 0.013784 0.060554 0.009804
# 6 0.000462 0.007153 0.006982 0.001479 0.009804 0.051817
#
#
# Mechanical properties :
#
#
# Convention : Reuss Voigt Hill
#
# Bulk Modulus (GPa) = 42.40749 60.17433 51.29091
# Shear Modulus (GPa) = 25.15335 35.13956 30.14646
#
# Velocity S-wave (km/s) = 3.37720 3.99169 3.69723
# Velocity P-wave (km/s) = 5.86825 6.96635 6.44074
#
# Compressibility (1/GPa) = 0.02358074
#
# Stress axis : x y z
#
# Youngs Moduli (GPa) = 53.46366 79.96664 120.49488
#
# Poissons Ratio (x) = 0.38602 0.25083
# Poissons Ratio (y) = 0.25808 0.12713
# Poissons Ratio (z) = 0.11129 0.08437
#
# Static dielectric constant tensor:
#      x y z
#    x 1.870770 0.020420 -0.020110 
#    y 0.020420 1.793410 -0.012340 
#    z -0.020110 -0.012340 1.835840 
# 
# From -- ./inp_files/537662.got.cif
#   From: 2010.05.17/outbox.cif.g08.bks.cpg/sg2_269_cif.got.tgz:537662.got - 2010.06.03 11:33:40.
