data_PCOD9032325
_publ_section_title
;
Structure prediction by ZEFSAII (Michael W. Deem and Ramdas Pophale) SiO2 
 PCOD9032325
Probable space group: P -1
;
_chemical_formula_sum "Si O2"
_cell_formula_units_Z 14
_cell_length_a 12.056745
_cell_length_b 8.381396
_cell_length_c 12.165211
_cell_angle_alpha 122.809655
_cell_angle_beta 49.724188
_cell_angle_gamma 142.351623
_cell_volume 571.695474
_symmetry_space_group_name_H-M "P -1"
_symmetry_group_IT_number 2
_symmetry_cell_setting 'triclinic'
loop_
_space_group_symop_operation_xyz
x,y,z
-x,-y,-z
loop_
_atom_site_type_symbol
_atom_site_label
_atom_site_fract_x
_atom_site_fract_y
_atom_site_fract_z
Si Si1 0.479906 0.919075 0.676759
Si Si2 0.423422 0.175031 0.192263
Si Si3 0.809526 0.025167 0.135389
Si Si4 0.253189 0.436433 0.038125
Si Si5 0.828439 0.490454 0.643648
Si Si6 0.354805 0.270733 0.641682
Si Si7 0.025474 0.985133 0.349430
O O1 0.546125 0.932589 0.763408
O O2 0.522822 0.770769 0.523645
O O3 0.269478 0.835314 0.783873
O O4 0.621141 0.206257 0.638282
O O5 0.493264 0.441563 0.297405
O O6 0.193611 0.974433 0.225661
O O7 0.577644 0.301826 0.039956
O O8 0.765069 0.939003 0.260277
O O9 0.699735 0.747165 0.041617
O O10 0.042934 0.231587 0.030907
O O11 0.193739 0.489945 0.206063
O O12 0.875215 0.733780 0.653943
O O13 0.000000 0.500000 0.500000
O O14 0.185270 0.219641 0.655507
O O15 0.000000 0.000000 0.500000
#
# Coordination Sequence:
#
# PCOD9032325 Si02
#       7
#     2   2   2   2   2   2   2
#     4  12  24  42  68 104 141 182 236 288 344 410
#     4  11  26  45  68 106 143 189 230 285 356 407
#     4  10  22  43  70  97 132 186 237 284 348 411
#     4  10  23  45  67  97 139 184 231 283 354 422
#     4  12  23  44  70 102 137 174 235 293 345 414
#     4  11  22  47  70 101 143 183 236 289 345 411
#     4  12  24  44  72 103 139 185 230 286 352 413
#
# _framework density 24.48856
#
# number of rings (size 3 to 8) (size 9 to 14) (size 15 to 20)
#    0.000    0.857    4.286    2.571    0.000    4.571 
#    2.571    1.429    0.000    0.000    0.000    0.000 
#    0.000    0.000    0.000    0.000    0.000    0.000 
#
# Total GULP energy -78375.608726 kJ/mol
# GULP energy per Si atom -5598.257766 kJ/mol
# Density = 2.443282 g / cm^3
# Si number density = 24.488560 Si / 1000 Ang^3
#
#
#
# Elastic Constant Matrix: (Units=GPa)
#
#
# Indices 1 2 3 4 5 6 
#
# 1 108.5200 -3.2470 43.7440 -4.2872 -19.6211 5.2512
# 2 -3.2470 59.1714 15.9005 -6.6263 2.9533 2.6294
# 3 43.7440 15.9005 171.4979 -0.3275 -6.1007 -4.0498
# 4 -4.2872 -6.6263 -0.3275 37.2055 7.1782 7.8873
# 5 -19.6211 2.9533 -6.1007 7.1782 32.0357 -13.0191
# 6 5.2512 2.6294 -4.0498 7.8873 -13.0191 30.7507
#
#
#
# Elastic Compliance Matrix: (Units=1/GPa)
#
#
# Indices 1 2 3 4 5 6 
#
# 1 0.011550 0.001071 -0.002807 0.000182 0.006513 0.000277
# 2 0.001071 0.018715 -0.002312 0.005619 -0.005076 -0.005678
# 3 -0.002807 -0.002312 0.006854 -0.001392 0.001085 0.002396
# 4 0.000182 0.005619 -0.001392 0.034024 -0.014644 -0.015622
# 5 0.006513 -0.005076 0.001085 -0.014644 0.048879 0.023915
# 6 0.000277 -0.005678 0.002396 -0.015622 0.023915 0.047405
#
#
# Mechanical properties :
#
#
# Convention : Reuss Voigt Hill
#
# Bulk Modulus (GPa) = 34.45602 50.22049 42.33825
# Shear Modulus (GPa) = 26.99820 38.85115 32.92468
#
# Velocity S-wave (km/s) = 3.32397 3.98741 3.67071
# Velocity P-wave (km/s) = 5.36959 6.46154 5.94071
#
# Compressibility (1/GPa) = 0.02902250
#
# Stress axis : x y z
#
# Youngs Moduli (GPa) = 86.58327 53.43258 145.90479
#
# Poissons Ratio (x) = -0.05722 0.40951
# Poissons Ratio (y) = -0.09273 0.33738
# Poissons Ratio (z) = 0.24301 0.12355
#
# Static dielectric constant tensor:
#      x y z
#    x 2.019050 0.022200 -0.037410 
#    y 0.022200 1.968120 0.017330 
#    z -0.037410 0.017330 1.854680 
# 
# From -- ./inp_files/298531.got.cif
#   From: 2010.05.17/outbox.cif.g08.bks.cpg/sg2_150_cif.got.tgz:298531.got - 2010.06.03 11:33:40.
