data_PCOD9032790
_publ_section_title
;
Structure prediction by ZEFSAII (Michael W. Deem and Ramdas Pophale) SiO2 
 PCOD9032790
Probable space group: P -1
;
_chemical_formula_sum "Si O2"
_cell_formula_units_Z 16
_cell_length_a 10.903372
_cell_length_b 12.771716
_cell_length_c 11.144560
_cell_angle_alpha 51.789949
_cell_angle_beta 127.153856
_cell_angle_gamma 85.286465
_cell_volume 666.585660
_symmetry_space_group_name_H-M "P -1"
_symmetry_group_IT_number 2
_symmetry_cell_setting 'triclinic'
loop_
_space_group_symop_operation_xyz
x,y,z
-x,-y,-z
loop_
_atom_site_type_symbol
_atom_site_label
_atom_site_fract_x
_atom_site_fract_y
_atom_site_fract_z
Si Si1 0.796104 0.927766 0.486900
Si Si2 0.741821 0.666216 0.686111
Si Si3 0.060964 0.987743 0.908027
Si Si4 0.557244 0.726105 0.788800
Si Si5 0.760721 0.364067 0.889583
Si Si6 0.397137 0.568563 0.716712
Si Si7 0.281220 0.046727 0.832780
Si Si8 0.885828 0.492999 0.330082
O O1 0.708996 0.830383 0.493261
O O2 0.750478 0.016674 0.264969
O O3 0.050895 0.760752 0.803689
O O4 0.653289 0.088192 0.392933
O O5 0.580914 0.757289 0.643325
O O6 0.726143 0.536542 0.699366
O O7 0.000000 0.500000 0.000000
O O8 0.246422 0.977336 0.979122
O O9 0.828918 0.200231 0.575373
O O10 0.143374 0.798132 0.034540
O O11 0.000000 0.000000 0.000000
O O12 0.557299 0.564190 0.893705
O O13 0.773695 0.642821 0.048596
O O14 0.523773 0.478776 0.728432
O O15 0.317396 0.471053 0.768929
O O16 0.072861 0.278415 0.541788
O O17 0.500000 0.000000 0.000000
O O18 0.000000 0.500000 0.500000
#
# Coordination Sequence:
#
# PCOD9032790 Si02
#       8
#     2   2   2   2   2   2   2   2
#     4  11  22  42  70 105 138 180 239 300 356 429
#     4   9  20  39  62 104 135 176 234 291 356 417
#     4  11  26  49  71 105 144 187 241 294 363 432
#     4  11  21  40  71 101 140 188 237 302 352 425
#     4  10  22  43  75 100 139 184 238 293 358 421
#     4  10  23  44  69 105 135 184 244 296 350 430
#     4  11  26  46  67 103 142 187 237 296 362 437
#     4  11  24  43  63  99 143 186 236 290 366 421
#
# _framework density 24.002915999999999
#
# number of rings (size 3 to 8) (size 9 to 14) (size 15 to 20)
#    0.000    1.500    1.250    3.750    3.500    4.000 
#   18.000    0.000    0.000    0.000    0.000    0.000 
#    0.000    0.000    0.000    0.000    0.000    0.000 
#
# Total GULP energy -89374.253421 kJ/mol
# GULP energy per Si atom -5585.890839 kJ/mol
# Density = 2.394828 g / cm^3
# Si number density = 24.002916 Si / 1000 Ang^3
#
#
#
# Elastic Constant Matrix: (Units=GPa)
#
#
# Indices 1 2 3 4 5 6 
#
# 1 129.7766 55.9639 10.3868 -0.1446 13.4233 -9.0548
# 2 55.9639 139.5679 24.8793 -19.5878 7.2415 -17.0848
# 3 10.3868 24.8793 63.3494 -11.7974 13.9433 -1.9043
# 4 -0.1446 -19.5878 -11.7974 48.9003 -6.7926 10.3242
# 5 13.4233 7.2415 13.9433 -6.7926 32.3075 -7.0010
# 6 -9.0548 -17.0848 -1.9043 10.3242 -7.0010 24.0666
#
#
#
# Elastic Compliance Matrix: (Units=1/GPa)
#
#
# Indices 1 2 3 4 5 6 
#
# 1 0.009842 -0.004041 0.000397 -0.002155 -0.003650 0.000728
# 2 -0.004041 0.010222 -0.003258 0.002561 0.002435 0.005088
# 3 0.000397 -0.003258 0.019215 0.003131 -0.008004 -0.004315
# 4 -0.002155 0.002561 0.003131 0.024337 0.002237 -0.008534
# 5 -0.003650 0.002435 -0.008004 0.002237 0.037974 0.009809
# 6 0.000728 0.005088 -0.004315 -0.008534 0.009809 0.051611
#
#
# Mechanical properties :
#
#
# Convention : Reuss Voigt Hill
#
# Bulk Modulus (GPa) = 39.25310 57.23932 48.24621
# Shear Modulus (GPa) = 28.49050 37.15247 32.82148
#
# Velocity S-wave (km/s) = 3.44897 3.93852 3.70184
# Velocity P-wave (km/s) = 5.67886 6.67691 6.19801
#
# Compressibility (1/GPa) = 0.02547569
#
# Stress axis : x y z
#
# Youngs Moduli (GPa) = 101.60057 97.82670 52.04271
#
# Poissons Ratio (x) = 0.39535 -0.02069
# Poissons Ratio (y) = 0.41060 0.16956
# Poissons Ratio (z) = -0.04038 0.31873
#
# Static dielectric constant tensor:
#      x y z
#    x 2.071120 0.034410 -0.050500 
#    y 0.034410 2.028290 0.097880 
#    z -0.050500 0.097880 1.969210 
# 
# From -- ./inp_files/427886.got.cif
#   From: 2010.05.17/outbox.cif.g08.bks.cpg/sg2_214_cif.got.tgz:427886.got - 2010.06.03 11:33:40.
