data_PCOD9032320
_publ_section_title
;
Structure prediction by ZEFSAII (Michael W. Deem and Ramdas Pophale) SiO2 
 PCOD9032320
Probable space group: P -1
;
_chemical_formula_sum "Si O2"
_cell_formula_units_Z 15
_cell_length_a 14.389934
_cell_length_b 12.796646
_cell_length_c 9.036925
_cell_angle_alpha 109.288778
_cell_angle_beta 120.378923
_cell_angle_gamma 121.799119
_cell_volume 708.771179
_symmetry_space_group_name_H-M "P -1"
_symmetry_group_IT_number 2
_symmetry_cell_setting 'triclinic'
loop_
_space_group_symop_operation_xyz
x,y,z
-x,-y,-z
loop_
_atom_site_type_symbol
_atom_site_label
_atom_site_fract_x
_atom_site_fract_y
_atom_site_fract_z
Si Si1 0.976031 0.133257 0.678423
Si Si2 0.229199 0.735559 0.748591
Si Si3 0.342036 0.948500 0.652328
Si Si4 0.039285 0.164642 0.085835
Si Si5 0.345623 0.048601 0.185102
Si Si6 0.706895 0.697874 0.165258
Si Si7 0.485799 0.586281 0.650480
Si Si8 0.500000 0.000000 0.500000
O O1 0.161468 0.291779 0.782400
O O2 0.807245 0.077374 0.476642
O O3 0.860115 0.913607 0.474797
O O4 0.052729 0.209576 0.944379
O O5 0.000000 0.500000 0.500000
O O6 0.253255 0.779061 0.614640
O O7 0.418380 0.823390 0.997039
O O8 0.280683 0.897561 0.945004
O O9 0.357420 0.917485 0.485166
O O10 0.257225 0.382411 0.435620
O O11 0.857187 0.073016 0.969134
O O12 0.000000 0.000000 0.000000
O O13 0.472709 0.259186 0.315190
O O14 0.464411 0.087764 0.426721
O O15 0.500000 0.500000 0.000000
O O16 0.644375 0.701946 0.962979
O O17 0.500000 0.500000 0.500000
#
# Coordination Sequence:
#
# PCOD9032320 Si02
#       8
#     2   2   2   2   2   2   2   1
#     4  11  23  42  64 100 137 182 230 301 346 424
#     4  10  24  46  71 101 138 191 240 302 367 430
#     4  10  22  43  70  96 142 174 243 297 359 427
#     4  12  23  41  71 101 144 187 237 290 364 433
#     4  11  24  44  69 101 141 182 243 293 357 433
#     4  11  25  41  66 100 140 185 238 288 367 432
#     4  12  24  43  68 101 142 189 232 294 365 429
#     4  10  22  44  68  98 136 196 230 300 354 416
#
# _framework density 21.163388999999999
#
# number of rings (size 3 to 8) (size 9 to 14) (size 15 to 20)
#    0.000    1.067    4.000    1.600    0.000    8.533 
#    4.800    3.333    0.000    0.000    0.000    0.000 
#    0.000    0.000    0.000    0.000    0.000    0.000 
#
# Total GULP energy -83571.401277 kJ/mol
# GULP energy per Si atom -5571.426752 kJ/mol
# Density = 2.111522 g / cm^3
# Si number density = 21.163389 Si / 1000 Ang^3
#
#
#
# Elastic Constant Matrix: (Units=GPa)
#
#
# Indices 1 2 3 4 5 6 
#
# 1 142.2165 48.2805 22.9241 0.1951 37.7954 2.1611
# 2 48.2805 106.4876 26.0548 8.0908 15.0055 0.6919
# 3 22.9241 26.0548 68.9241 11.9457 22.3143 -6.5590
# 4 0.1951 8.0908 11.9457 37.0718 4.2140 10.6569
# 5 37.7954 15.0055 22.3143 4.2140 45.2326 -4.2716
# 6 2.1611 0.6919 -6.5590 10.6569 -4.2716 42.4493
#
#
#
# Elastic Compliance Matrix: (Units=1/GPa)
#
#
# Indices 1 2 3 4 5 6 
#
# 1 0.010417 -0.003762 -0.000072 0.002198 -0.007797 -0.001817
# 2 -0.003762 0.011885 -0.003272 -0.001629 0.000967 -0.000002
# 3 -0.000072 -0.003272 0.019608 -0.005824 -0.007628 0.003781
# 4 0.002198 -0.001629 -0.005824 0.032124 -0.002292 -0.009280
# 5 -0.007797 0.000967 -0.007628 -0.002292 0.032567 0.003055
# 6 -0.001817 -0.000002 0.003781 -0.009280 0.003055 0.026872
#
#
# Mechanical properties :
#
#
# Convention : Reuss Voigt Hill
#
# Bulk Modulus (GPa) = 36.10422 56.90521 46.50472
# Shear Modulus (GPa) = 31.86396 39.64200 35.75298
#
# Velocity S-wave (km/s) = 3.88444 4.33267 4.11466
# Velocity P-wave (km/s) = 6.10043 7.20946 6.67801
#
# Compressibility (1/GPa) = 0.02769759
#
# Stress axis : x y z
#
# Youngs Moduli (GPa) = 95.99752 84.14307 50.99858
#
# Poissons Ratio (x) = 0.31653 0.00368
# Poissons Ratio (y) = 0.36112 0.16688
# Poissons Ratio (z) = 0.00693 0.27533
#
# Static dielectric constant tensor:
#      x y z
#    x 1.695900 0.119290 0.149940 
#    y 0.119290 1.596300 -0.188820 
#    z 0.149940 -0.188820 1.555060 
# 
# From -- ./inp_files/305431.got.cif
#   From: 2010.05.17/outbox.cif.g08.bks.cpg/sg2_153_cif.got.tgz:305431.got - 2010.06.03 11:33:40.
