data_PCOD9032881
_publ_section_title
;
Structure prediction by ZEFSAII (Michael W. Deem and Ramdas Pophale) SiO2 
 PCOD9032881
Probable space group: P -1
;
_chemical_formula_sum "Si O2"
_cell_formula_units_Z 14
_cell_length_a 4.869117
_cell_length_b 11.294480
_cell_length_c 12.162064
_cell_angle_alpha 116.194680
_cell_angle_beta 78.450426
_cell_angle_gamma 116.570176
_cell_volume 536.764858
_symmetry_space_group_name_H-M "P -1"
_symmetry_group_IT_number 2
_symmetry_cell_setting 'triclinic'
loop_
_space_group_symop_operation_xyz
x,y,z
-x,-y,-z
loop_
_atom_site_type_symbol
_atom_site_label
_atom_site_fract_x
_atom_site_fract_y
_atom_site_fract_z
Si Si1 0.106143 0.290573 0.725571
Si Si2 0.407508 0.647329 0.639184
Si Si3 0.637960 0.926431 0.120832
Si Si4 0.709753 0.456924 0.620836
Si Si5 0.208064 0.352932 0.979628
Si Si6 0.476531 0.106041 0.636368
Si Si7 0.774842 0.191218 0.106830
O O1 0.433070 0.410072 0.710973
O O2 0.031337 0.331554 0.869572
O O3 0.190617 0.150492 0.664346
O O4 0.798284 0.248760 0.663679
O O5 0.672614 0.594563 0.622930
O O6 0.398917 0.666886 0.516614
O O7 0.428271 0.772833 0.772159
O O8 0.071640 0.517908 0.636609
O O9 0.720419 0.789111 0.071972
O O10 0.538172 0.950399 0.260560
O O11 0.879563 0.079796 0.116854
O O12 0.387552 0.879056 0.023720
O O13 0.500000 0.500000 0.000000
O O14 0.026637 0.341998 0.102110
O O15 0.500000 0.000000 0.500000
#
# Coordination Sequence:
#
# PCOD9032881 Si02
#       7
#     2   2   2   2   2   2   2
#     4  11  23  42  67  98 137 173 234 292 344 414
#     4  10  23  40  68  96 137 181 230 284 346 417
#     4  10  25  45  65 102 138 181 238 290 347 423
#     4  10  22  44  62 103 136 175 235 286 344 417
#     4  11  24  42  69 103 139 187 229 293 356 422
#     4  11  24  45  67  99 133 184 232 288 351 415
#     4  11  23  44  70  97 140 183 234 287 354 418
#
# _framework density 26.082187000000001
#
# number of rings (size 3 to 8) (size 9 to 14) (size 15 to 20)
#    0.000    1.429    1.429    2.571    6.000    1.714 
#    0.000    0.000    0.000    0.000    0.000    0.000 
#    0.000    0.000    0.000    0.000    0.000    0.000 
#
# Total GULP energy -78240.546949 kJ/mol
# GULP energy per Si atom -5588.610496 kJ/mol
# Density = 2.602282 g / cm^3
# Si number density = 26.082187 Si / 1000 Ang^3
#
#
#
# Elastic Constant Matrix: (Units=GPa)
#
#
# Indices 1 2 3 4 5 6 
#
# 1 95.0674 -2.3911 -1.1503 7.7062 -4.4593 4.0363
# 2 -2.3911 65.8477 0.1700 -20.3212 9.8979 10.8586
# 3 -1.1503 0.1700 150.9546 -4.1699 -8.3345 -6.0967
# 4 7.7062 -20.3212 -4.1699 34.1111 4.8536 -8.0813
# 5 -4.4593 9.8979 -8.3345 4.8536 32.0714 3.0920
# 6 4.0363 10.8586 -6.0967 -8.0813 3.0920 26.7986
#
#
#
# Elastic Compliance Matrix: (Units=1/GPa)
#
#
# Indices 1 2 3 4 5 6 
#
# 1 0.011072 -0.000763 0.000005 -0.004015 0.002661 -0.002875
# 2 -0.000763 0.021000 -0.000273 0.012977 -0.008276 -0.003588
# 3 0.000005 -0.000273 0.006805 0.000858 0.001556 0.001737
# 4 -0.004015 0.012977 0.000858 0.041971 -0.011612 0.009538
# 5 0.002661 -0.008276 0.001556 -0.011612 0.036693 -0.004429
# 6 -0.002875 -0.003588 0.001737 0.009538 -0.004429 0.042985
#
#
# Mechanical properties :
#
#
# Convention : Reuss Voigt Hill
#
# Bulk Modulus (GPa) = 27.16242 33.90298 30.53270
# Shear Modulus (GPa) = 28.59454 39.61228 34.10341
#
# Velocity S-wave (km/s) = 3.31467 3.90134 3.61991
# Velocity P-wave (km/s) = 5.00861 5.77241 5.40402
#
# Compressibility (1/GPa) = 0.03681558
#
# Stress axis : x y z
#
# Youngs Moduli (GPa) = 90.31722 47.61880 146.95879
#
# Poissons Ratio (x) = 0.03633 -0.00075
# Poissons Ratio (y) = 0.06890 0.04010
# Poissons Ratio (z) = -0.00046 0.01299
#
# Static dielectric constant tensor:
#      x y z
#    x 2.024740 0.009830 0.018930 
#    y 0.009830 2.203790 -0.015560 
#    z 0.018930 -0.015560 2.055860 
# 
# From -- ./inp_files/65590.got.cif
#   From: 2010.05.17/outbox.cif.g08.bks.cpg/sg2_33_cif.got.tgz:65590.got - 2010.06.03 11:33:40.
