data_PCOD9032254
_publ_section_title
;
Structure prediction by ZEFSAII (Michael W. Deem and Ramdas Pophale) SiO2 
 PCOD9032254
Probable space group: P -1
;
_chemical_formula_sum "Si O2"
_cell_formula_units_Z 16
_cell_length_a 11.288200
_cell_length_b 17.290796
_cell_length_c 7.117287
_cell_angle_alpha 73.013739
_cell_angle_beta 65.441304
_cell_angle_gamma 28.440522
_cell_volume 593.052125
_symmetry_space_group_name_H-M "P -1"
_symmetry_group_IT_number 2
_symmetry_cell_setting 'triclinic'
loop_
_space_group_symop_operation_xyz
x,y,z
-x,-y,-z
loop_
_atom_site_type_symbol
_atom_site_label
_atom_site_fract_x
_atom_site_fract_y
_atom_site_fract_z
Si Si1 0.478667 0.649453 0.807846
Si Si2 0.691973 0.500780 0.373205
Si Si3 0.413076 0.254351 0.783488
Si Si4 0.950723 0.002320 0.744299
Si Si5 0.797666 0.798632 0.982073
Si Si6 0.780909 0.269655 0.739530
Si Si7 0.289001 0.310648 0.402767
Si Si8 0.805909 0.814894 0.407605
O O1 0.663133 0.518860 0.607864
O O2 0.432031 0.615031 0.033401
O O3 0.576485 0.685294 0.789197
O O4 0.192108 0.820142 0.786022
O O5 0.680405 0.602650 0.251379
O O6 0.408739 0.623356 0.392007
O O7 0.947037 0.320960 0.233461
O O8 0.228016 0.284392 0.957112
O O9 0.447951 0.217580 0.562571
O O10 0.678253 0.101662 0.838894
O O11 0.910623 0.110354 0.791213
O O12 0.000000 0.000000 0.500000
O O13 0.868125 0.773366 0.173421
O O14 0.500000 0.000000 0.000000
O O15 0.016429 0.206031 0.629974
O O16 0.213866 0.261800 0.419920
O O17 0.000000 0.500000 0.500000
O O18 0.500000 0.000000 0.500000
#
# Coordination Sequence:
#
# PCOD9032254 Si02
#       8
#     2   2   2   2   2   2   2   2
#     4  11  23  43  79 112 143 200 261 306 372 457
#     4  10  23  48  75 106 149 197 254 326 365 443
#     4   9  21  41  76  99 139 195 250 308 369 441
#     4  11  19  42  73 104 149 192 246 313 373 442
#     4  11  26  47  69 104 151 201 246 306 396 458
#     4  11  25  44  78 114 151 198 255 316 379 451
#     4  10  22  43  70 104 144 195 246 302 370 446
#     4  11  27  48  72 108 157 196 241 318 388 442
#
# _framework density 26.979081999999998
#
# number of rings (size 3 to 8) (size 9 to 14) (size 15 to 20)
#    0.000    1.500    3.750    1.500    7.000    2.500 
#    4.500    0.625    0.000    0.750    0.000    0.000 
#    0.000    0.000    0.000    0.000    0.000    0.000 
#
# Total GULP energy -89538.088920 kJ/mol
# GULP energy per Si atom -5596.130558 kJ/mol
# Density = 2.691768 g / cm^3
# Si number density = 26.979082 Si / 1000 Ang^3
#
#
#
# Elastic Constant Matrix: (Units=GPa)
#
#
# Indices 1 2 3 4 5 6 
#
# 1 170.9181 11.9374 53.1793 17.4733 -33.6369 -12.4078
# 2 11.9374 67.0048 -5.8324 21.0818 -8.0302 9.8549
# 3 53.1793 -5.8324 144.9056 20.0571 -5.1570 3.3322
# 4 17.4733 21.0818 20.0571 45.3431 -3.4794 -4.6800
# 5 -33.6369 -8.0302 -5.1570 -3.4794 46.2213 3.3613
# 6 -12.4078 9.8549 3.3322 -4.6800 3.3613 34.2680
#
#
#
# Elastic Compliance Matrix: (Units=1/GPa)
#
#
# Indices 1 2 3 4 5 6 
#
# 1 0.008106 -0.001362 -0.002845 -0.000529 0.005085 0.003033
# 2 -0.001362 0.020490 0.003146 -0.011060 0.002703 -0.008467
# 3 -0.002845 0.003146 0.008768 -0.004642 -0.000651 -0.003358
# 4 -0.000529 -0.011060 -0.004642 0.030159 -0.001111 0.007668
# 5 0.005085 0.002703 -0.000651 -0.001111 0.025761 -0.001552
# 6 0.003033 -0.008467 -0.003358 0.007668 -0.001552 0.034241
#
#
# Mechanical properties :
#
#
# Convention : Reuss Voigt Hill
#
# Bulk Modulus (GPa) = 28.37501 55.71078 42.04290
# Shear Modulus (GPa) = 35.36183 46.73609 41.04896
#
# Velocity S-wave (km/s) = 3.62430 4.16662 3.90489
# Velocity P-wave (km/s) = 5.29664 6.62133 5.99568
#
# Compressibility (1/GPa) = 0.03524227
#
# Stress axis : x y z
#
# Youngs Moduli (GPa) = 123.36512 48.80444 114.04594
#
# Poissons Ratio (x) = 0.06648 0.32449
# Poissons Ratio (y) = 0.16804 -0.35883
# Poissons Ratio (z) = 0.35101 -0.15356
#
# Static dielectric constant tensor:
#      x y z
#    x 2.244640 -0.023000 0.020880 
#    y -0.023000 2.130730 0.005520 
#    z 0.020880 0.005520 2.217520 
# 
# From -- ./inp_files/277676.got.cif
#   From: 2010.05.17/outbox.cif.g08.bks.cpg/sg2_139_cif.got.tgz:277676.got - 2010.06.03 11:33:40.
