data_PCOD9032180
_publ_section_title
;
Structure prediction by ZEFSAII (Michael W. Deem and Ramdas Pophale) SiO2 
 PCOD9032180
Probable space group: P -1
;
_chemical_formula_sum "Si O2"
_cell_formula_units_Z 16
_cell_length_a 12.659936
_cell_length_b 9.087697
_cell_length_c 5.766353
_cell_angle_alpha 102.067895
_cell_angle_beta 76.659429
_cell_angle_gamma 96.626362
_cell_volume 629.675550
_symmetry_space_group_name_H-M "P -1"
_symmetry_group_IT_number 2
_symmetry_cell_setting 'triclinic'
loop_
_space_group_symop_operation_xyz
x,y,z
-x,-y,-z
loop_
_atom_site_type_symbol
_atom_site_label
_atom_site_fract_x
_atom_site_fract_y
_atom_site_fract_z
Si Si1 0.766591 0.037778 0.541084
Si Si2 0.457943 0.844435 0.358071
Si Si3 0.124746 0.354645 0.293500
Si Si4 0.126082 0.015388 0.030220
Si Si5 0.917986 0.455964 0.232689
Si Si6 0.509362 0.652963 0.901094
Si Si7 0.271284 0.553644 0.949310
Si Si8 0.639739 0.711467 0.461204
O O1 0.839949 0.052552 0.750184
O O2 0.703411 0.870835 0.523402
O O3 0.670019 0.153291 0.621025
O O4 0.816837 0.037508 0.254281
O O5 0.525870 0.810583 0.081665
O O6 0.511924 0.726935 0.462357
O O7 0.500000 0.000000 0.500000
O O8 0.153055 0.194621 0.128716
O O9 0.125435 0.394997 0.577531
O O10 0.994233 0.362785 0.321653
O O11 0.196189 0.495271 0.185835
O O12 0.000000 0.000000 0.000000
O O13 0.812617 0.371413 0.152895
O O14 0.000000 0.500000 0.000000
O O15 0.500000 0.500000 0.000000
O O16 0.381891 0.655763 0.909788
O O17 0.615881 0.633118 0.690967
O O18 0.307821 0.394469 0.779959
#
# Coordination Sequence:
#
# PCOD9032180 Si02
#       8
#     2   2   2   2   2   2   2   2
#     4  11  27  48  79 105 148 206 250 309 386 446
#     4  10  26  47  68 104 149 198 255 300 372 443
#     4  10  22  43  69  99 142 188 239 300 380 449
#     4  12  27  49  76 110 145 191 257 318 374 457
#     4   9  21  40  66  99 132 184 231 294 368 450
#     4  12  27  41  69 110 145 191 254 312 368 443
#     4  11  22  40  67 101 141 182 239 300 377 432
#     4  11  24  44  74 101 152 196 252 308 373 455
#
# _framework density 25.40991
#
# number of rings (size 3 to 8) (size 9 to 14) (size 15 to 20)
#    0.000    1.250    2.500    1.500   10.500    2.000 
#    6.750    0.000    0.000    0.000    0.000    0.000 
#    0.000    0.000    0.000    0.000    0.000    0.000 
#
# Total GULP energy -89074.683097 kJ/mol
# GULP energy per Si atom -5567.167694 kJ/mol
# Density = 2.535208 g / cm^3
# Si number density = 25.409910 Si / 1000 Ang^3
#
#
#
# Elastic Constant Matrix: (Units=GPa)
#
#
# Indices 1 2 3 4 5 6 
#
# 1 147.4240 -2.0791 46.6922 -3.7398 18.7490 -11.1175
# 2 -2.0791 42.0137 21.9473 3.7005 0.9367 8.6750
# 3 46.6922 21.9473 148.9040 6.2644 -16.6415 7.3622
# 4 -3.7398 3.7005 6.2644 27.2454 3.8438 -2.1826
# 5 18.7490 0.9367 -16.6415 3.8438 43.5968 0.0149
# 6 -11.1175 8.6750 7.3622 -2.1826 0.0149 30.5486
#
#
#
# Elastic Compliance Matrix: (Units=1/GPa)
#
#
# Indices 1 2 3 4 5 6 
#
# 1 0.009254 0.001616 -0.004134 0.003161 -0.005872 0.004134
# 2 0.001616 0.027851 -0.004492 -0.002652 -0.002772 -0.006426
# 3 -0.004134 -0.004492 0.009597 -0.003207 0.005821 -0.002773
# 4 0.003161 -0.002652 -0.003207 0.039524 -0.006013 0.005503
# 5 -0.005872 -0.002772 0.005821 -0.006013 0.028276 -0.003196
# 6 0.004134 -0.006426 -0.002773 0.005503 -0.003196 0.037127
#
#
# Mechanical properties :
#
#
# Convention : Reuss Voigt Hill
#
# Bulk Modulus (GPa) = 30.59798 52.38472 41.49135
# Shear Modulus (GPa) = 28.32198 38.39692 33.35945
#
# Velocity S-wave (km/s) = 3.34219 3.89150 3.62726
# Velocity P-wave (km/s) = 5.19245 6.39159 5.82297
#
# Compressibility (1/GPa) = 0.03268190
#
# Stress axis : x y z
#
# Youngs Moduli (GPa) = 108.06247 35.90573 104.20255
#
# Poissons Ratio (x) = -0.05803 0.43074
# Poissons Ratio (y) = -0.17466 0.46812
# Poissons Ratio (z) = 0.44669 0.16130
#
# Static dielectric constant tensor:
#      x y z
#    x 2.441210 -0.068140 0.161180 
#    y -0.068140 1.990910 -0.025890 
#    z 0.161180 -0.025890 2.313780 
# 
# From -- ./inp_files/71691.got.cif
#   From: 2010.05.17/outbox.cif.g08.bks.cpg/sg2_36_cif.got.tgz:71691.got - 2010.06.03 11:33:40.
