data_PCOD9032997
_publ_section_title
;
Structure prediction by ZEFSAII (Michael W. Deem and Ramdas Pophale) SiO2 
 PCOD9032997
Probable space group: P -1
;
_chemical_formula_sum "Si O2"
_cell_formula_units_Z 16
_cell_length_a 8.965845
_cell_length_b 12.260654
_cell_length_c 22.427425
_cell_angle_alpha 29.559135
_cell_angle_beta 140.744229
_cell_angle_gamma 145.842720
_cell_volume 669.505730
_symmetry_space_group_name_H-M "P -1"
_symmetry_group_IT_number 2
_symmetry_cell_setting 'triclinic'
loop_
_space_group_symop_operation_xyz
x,y,z
-x,-y,-z
loop_
_atom_site_type_symbol
_atom_site_label
_atom_site_fract_x
_atom_site_fract_y
_atom_site_fract_z
Si Si1 0.113698 0.678460 0.543622
Si Si2 0.418602 0.074046 0.088090
Si Si3 0.252574 0.781735 0.668431
Si Si4 0.247931 0.549149 0.245757
Si Si5 0.000092 0.128040 0.270625
Si Si6 0.681503 0.777124 0.895986
Si Si7 0.194988 0.395464 0.088835
Si Si8 0.598386 0.327651 0.483843
O O1 0.228495 0.669945 0.647726
O O2 0.317202 0.731072 0.526478
O O3 0.846296 0.422239 0.561578
O O4 0.028412 0.897207 0.415882
O O5 0.247064 0.046166 0.108173
O O6 0.695203 0.080823 0.193153
O O7 0.281600 0.826859 0.122447
O O8 0.520906 0.344555 0.958478
O O9 0.487544 0.803049 0.774905
O O10 0.973219 0.607199 0.698033
O O11 0.338305 0.075736 0.546041
O O12 0.148728 0.380004 0.236728
O O13 0.524617 0.549928 0.347468
O O14 0.153876 0.198155 0.221523
O O15 0.894043 0.755695 0.929099
O O16 0.500000 0.500000 0.000000
O O17 0.000000 0.500000 0.000000
#
# Coordination Sequence:
#
# PCOD9032997 Si02
#       8
#     2   2   2   2   2   2   2   2
#     4  11  25  42  67  98 136 178 222 275 328 393
#     4  10  22  44  64  96 133 172 221 273 326 392
#     4  12  25  41  68  99 131 180 218 268 336 393
#     4  12  25  39  67  99 137 177 217 272 326 394
#     4  11  21  42  66  95 135 171 222 276 328 385
#     4  10  22  44  69  92 130 169 215 276 327 386
#     4   9  21  41  74  93 123 177 218 270 339 381
#     4  11  25  43  64  99 139 176 223 271 330 391
#
# _framework density 23.898226000000001
#
# number of rings (size 3 to 8) (size 9 to 14) (size 15 to 20)
#    0.000    1.250    3.750    1.500    3.500    1.000 
#    0.000    2.500    0.000    0.000    0.000    0.000 
#    0.000    0.000    0.000    0.000    0.000    0.000 
#
# Total GULP energy -89433.343587 kJ/mol
# GULP energy per Si atom -5589.583974 kJ/mol
# Density = 2.384383 g / cm^3
# Si number density = 23.898226 Si / 1000 Ang^3
#
#
#
# Elastic Constant Matrix: (Units=GPa)
#
#
# Indices 1 2 3 4 5 6 
#
# 1 103.4272 19.8415 9.9786 -0.9790 -5.3295 -21.5976
# 2 19.8415 80.8521 7.8676 0.0657 -8.3673 -23.1877
# 3 9.9786 7.8676 65.1821 3.1942 -3.2820 -11.7933
# 4 -0.9790 0.0657 3.1942 36.1488 -2.9427 0.5459
# 5 -5.3295 -8.3673 -3.2820 -2.9427 36.1943 1.9877
# 6 -21.5976 -23.1877 -11.7933 0.5459 1.9877 37.5186
#
#
#
# Elastic Compliance Matrix: (Units=1/GPa)
#
#
# Indices 1 2 3 4 5 6 
#
# 1 0.011130 -0.000967 -0.000541 0.000355 0.001089 0.005577
# 2 -0.000967 0.015443 0.000029 0.000050 0.002949 0.008840
# 3 -0.000541 0.000029 0.016419 -0.001454 0.001032 0.004834
# 4 0.000355 0.000050 -0.001454 0.027996 0.002249 -0.000748
# 5 0.001089 0.002949 0.001032 0.002249 0.028680 0.001222
# 6 0.005577 0.008840 0.004834 -0.000748 0.001222 0.036793
#
#
# Mechanical properties :
#
#
# Convention : Reuss Voigt Hill
#
# Bulk Modulus (GPa) = 24.97787 36.09297 30.53542
# Shear Modulus (GPa) = 32.73046 36.09058 34.41052
#
# Velocity S-wave (km/s) = 3.70479 3.89032 3.79869
# Velocity P-wave (km/s) = 5.36424 5.94264 5.66084
#
# Compressibility (1/GPa) = 0.04003545
#
# Stress axis : x y z
#
# Youngs Moduli (GPa) = 89.84460 64.75394 60.90584
#
# Poissons Ratio (x) = 0.06262 0.03294
# Poissons Ratio (y) = 0.08689 -0.00180
# Poissons Ratio (z) = 0.04859 -0.00191
#
# Static dielectric constant tensor:
#      x y z
#    x 1.944370 0.007690 0.038790 
#    y 0.007690 1.933960 0.017760 
#    z 0.038790 0.017760 1.914510 
# 
# From -- ./inp_files/589399.got.cif
#   From: 2010.05.17/outbox.cif.g08.bks.cpg/sg2_295_cif.got.tgz:589399.got - 2010.06.03 11:33:40.
