data_PCOD9032219
_publ_section_title
;
Structure prediction by ZEFSAII (Michael W. Deem and Ramdas Pophale) SiO2 
 PCOD9032219
Probable space group: P -1
;
_chemical_formula_sum "Si O2"
_cell_formula_units_Z 16
_cell_length_a 9.344707
_cell_length_b 13.680660
_cell_length_c 7.836993
_cell_angle_alpha 84.005820
_cell_angle_beta 70.088927
_cell_angle_gamma 48.289449
_cell_volume 692.486136
_symmetry_space_group_name_H-M "P -1"
_symmetry_group_IT_number 2
_symmetry_cell_setting 'triclinic'
loop_
_space_group_symop_operation_xyz
x,y,z
-x,-y,-z
loop_
_atom_site_type_symbol
_atom_site_label
_atom_site_fract_x
_atom_site_fract_y
_atom_site_fract_z
Si Si1 0.760380 0.328608 0.888183
Si Si2 0.414683 0.486085 0.754682
Si Si3 0.057891 0.524374 0.799039
Si Si4 0.760200 0.105810 0.028997
Si Si5 0.480910 0.891132 0.559941
Si Si6 0.177651 0.992885 0.358061
Si Si7 0.955307 0.653320 0.379843
Si Si8 0.914127 0.301730 0.359688
O O1 0.648426 0.371671 0.739519
O O2 0.719997 0.240498 0.004260
O O3 0.986540 0.273739 0.766528
O O4 0.674949 0.446032 0.034460
O O5 0.305016 0.438529 0.728431
O O6 0.312875 0.613377 0.646784
O O7 0.983165 0.476166 0.704148
O O8 0.972525 0.673338 0.822682
O O9 0.000000 0.500000 0.000000
O O10 0.633320 0.101038 0.224952
O O11 0.744141 0.069203 0.850971
O O12 0.000000 0.000000 0.000000
O O13 0.715043 0.753266 0.495025
O O14 0.500000 0.000000 0.500000
O O15 0.354862 0.911856 0.441523
O O16 0.057818 0.149017 0.367480
O O17 0.000000 0.000000 0.500000
O O18 0.082056 0.618924 0.506107
#
# Coordination Sequence:
#
# PCOD9032219 Si02
#       8
#     2   2   2   2   2   2   2   2
#     4  11  23  47  72 106 143 195 243 307 367 442
#     4   9  23  43  69 102 142 188 250 292 367 442
#     4  10  22  43  70 101 141 194 239 299 366 443
#     4  12  26  47  81 107 148 201 248 311 375 436
#     4  12  28  49  71 115 151 196 254 308 377 446
#     4  12  25  50  79 111 148 197 251 311 373 449
#     4  12  23  46  72 104 156 186 240 315 368 444
#     4  10  23  44  68 106 144 184 240 302 372 426
#
# _framework density 23.105156000000001
#
# number of rings (size 3 to 8) (size 9 to 14) (size 15 to 20)
#    0.750    0.250    3.750    2.625    1.750    3.000 
#    6.750    0.000    0.000    0.000    0.000    0.000 
#    0.000    0.000    0.000    0.000    0.000    0.000 
#
# Total GULP energy -89097.392780 kJ/mol
# GULP energy per Si atom -5568.587049 kJ/mol
# Density = 2.305257 g / cm^3
# Si number density = 23.105156 Si / 1000 Ang^3
#
#
#
# Elastic Constant Matrix: (Units=GPa)
#
#
# Indices 1 2 3 4 5 6 
#
# 1 147.8043 45.9600 69.8491 -11.2407 0.4792 -2.5391
# 2 45.9600 77.6599 23.7492 -17.2143 -6.5640 6.4927
# 3 69.8491 23.7492 123.5222 -16.8294 7.6003 -2.4389
# 4 -11.2407 -17.2143 -16.8294 31.7212 1.7136 0.7504
# 5 0.4792 -6.5640 7.6003 1.7136 56.9220 -11.1675
# 6 -2.5391 6.4927 -2.4389 0.7504 -11.1675 48.8278
#
#
#
# Elastic Compliance Matrix: (Units=1/GPa)
#
#
# Indices 1 2 3 4 5 6 
#
# 1 0.010799 -0.005241 -0.005354 -0.001899 0.000290 0.001087
# 2 -0.005241 0.017947 0.000491 0.008130 0.001321 -0.002457
# 3 -0.005354 0.000491 0.011768 0.004706 -0.001652 -0.000206
# 4 -0.001899 0.008130 0.004706 0.037866 -0.001167 -0.001793
# 5 0.000290 0.001321 -0.001652 -0.001167 0.018772 0.004068
# 6 0.001087 -0.002457 -0.000206 -0.001793 0.004068 0.021811
#
#
# Mechanical properties :
#
#
# Convention : Reuss Voigt Hill
#
# Bulk Modulus (GPa) = 49.24760 69.78920 59.51840
# Shear Modulus (GPa) = 34.26082 41.45608 37.85845
#
# Velocity S-wave (km/s) = 3.85492 4.24044 4.05227
# Velocity P-wave (km/s) = 6.41675 7.36517 6.90726
#
# Compressibility (1/GPa) = 0.02030556
#
# Stress axis : x y z
#
# Youngs Moduli (GPa) = 92.60251 55.71850 84.97814
#
# Poissons Ratio (x) = 0.29202 0.45497
# Poissons Ratio (y) = 0.48532 -0.04170
# Poissons Ratio (z) = 0.49580 -0.02734
#
# Static dielectric constant tensor:
#      x y z
#    x 1.635980 0.044410 -0.028150 
#    y 0.044410 1.948450 -0.099470 
#    z -0.028150 -0.099470 2.043710 
# 
# From -- ./inp_files/196888.got.cif
#   From: 2010.05.17/outbox.cif.g08.bks.cpg/sg2_99_cif.got.tgz:196888.got - 2010.06.03 11:33:40.
