data_PCOD9032971
_publ_section_title
;
Structure prediction by ZEFSAII (Michael W. Deem and Ramdas Pophale) SiO2 
 PCOD9032971
Probable space group: P -1
;
_chemical_formula_sum "Si O2"
_cell_formula_units_Z 14
_cell_length_a 9.105668
_cell_length_b 9.361840
_cell_length_c 12.291852
_cell_angle_alpha 110.286184
_cell_angle_beta 49.605225
_cell_angle_gamma 131.246075
_cell_volume 594.056632
_symmetry_space_group_name_H-M "P -1"
_symmetry_group_IT_number 2
_symmetry_cell_setting 'triclinic'
loop_
_space_group_symop_operation_xyz
x,y,z
-x,-y,-z
loop_
_atom_site_type_symbol
_atom_site_label
_atom_site_fract_x
_atom_site_fract_y
_atom_site_fract_z
Si Si1 0.805751 0.512021 0.660006
Si Si2 0.281291 0.870169 0.784778
Si Si3 0.270678 0.081753 0.424689
Si Si4 0.014640 0.566155 0.263797
Si Si5 0.371981 0.437984 0.429827
Si Si6 0.219216 0.877790 0.066741
Si Si7 0.073347 0.955104 0.712522
O O1 0.585189 0.439164 0.664004
O O2 0.000000 0.500000 0.500000
O O3 0.770584 0.414388 0.766966
O O4 0.928428 0.735791 0.681411
O O5 0.573225 0.993547 0.688763
O O6 0.176218 0.662529 0.727788
O O7 0.199008 0.962326 0.766023
O O8 0.185240 0.838892 0.944309
O O9 0.405517 0.277821 0.342784
O O10 0.263707 0.088315 0.560989
O O11 0.000000 0.000000 0.500000
O O12 0.893021 0.633356 0.419402
O O13 0.085120 0.685684 0.152412
O O14 0.500000 0.500000 0.500000
O O15 0.104655 0.987435 0.176587
O O16 0.500000 0.000000 0.000000
#
# Coordination Sequence:
#
# PCOD9032971 Si02
#       7
#     2   2   2   2   2   2   2
#     4   9  21  39  65  95 132 167 214 271 328 388
#     4  11  25  43  66  96 133 180 224 267 334 399
#     4  12  22  39  69  99 134 169 219 278 332 387
#     4  10  22  44  64  91 133 179 217 270 324 404
#     4  11  20  37  66 100 131 166 218 269 331 391
#     4  12  26  44  68  96 133 178 225 276 336 391
#     4  11  23  44  67  97 136 173 222 278 328 395
#
# _framework density 23.566775
#
# number of rings (size 3 to 8) (size 9 to 14) (size 15 to 20)
#    0.000    1.143    4.286    2.143    0.000    0.000 
#    2.571    2.857    0.000    0.000    0.000    0.000 
#    0.000    0.000    0.000    0.000    0.000    0.000 
#
# Total GULP energy -78080.318063 kJ/mol
# GULP energy per Si atom -5577.165576 kJ/mol
# Density = 2.351314 g / cm^3
# Si number density = 23.566775 Si / 1000 Ang^3
#
#
#
# Elastic Constant Matrix: (Units=GPa)
#
#
# Indices 1 2 3 4 5 6 
#
# 1 212.0744 50.0385 42.4700 -15.0384 27.0431 -51.6963
# 2 50.0385 94.1785 22.6533 8.5202 -0.9436 -28.1255
# 3 42.4700 22.6533 95.2726 2.1922 12.6240 -27.3939
# 4 -15.0384 8.5202 2.1922 28.6428 -6.8136 4.4669
# 5 27.0431 -0.9436 12.6240 -6.8136 47.5165 -4.3400
# 6 -51.6963 -28.1255 -27.3939 4.4669 -4.3400 37.5230
#
#
#
# Elastic Compliance Matrix: (Units=1/GPa)
#
#
# Indices 1 2 3 4 5 6 
#
# 1 0.007912 -0.001823 -0.000215 0.002568 -0.003320 0.008687
# 2 -0.001823 0.015119 0.000013 -0.006677 0.001269 0.009772
# 3 -0.000215 0.000013 0.013950 -0.003491 -0.003176 0.009946
# 4 0.002568 -0.006677 -0.003491 0.040874 0.004430 -0.008369
# 5 -0.003320 0.001269 -0.003176 0.004430 0.024103 -0.003681
# 6 0.008687 0.009772 0.009946 -0.008369 -0.003681 0.053775
#
#
# Mechanical properties :
#
#
# Convention : Reuss Voigt Hill
#
# Bulk Modulus (GPa) = 30.36714 70.20546 50.28630
# Shear Modulus (GPa) = 29.28124 41.82737 35.55430
#
# Velocity S-wave (km/s) = 3.52871 4.21746 3.88836
# Velocity P-wave (km/s) = 5.43285 7.31920 6.44541
#
# Compressibility (1/GPa) = 0.03293033
#
# Stress axis : x y z
#
# Youngs Moduli (GPa) = 126.39780 66.14302 71.68549
#
# Poissons Ratio (x) = 0.12060 0.01539
# Poissons Ratio (y) = 0.23046 -0.00093
# Poissons Ratio (z) = 0.02713 -0.00086
#
# Static dielectric constant tensor:
#      x y z
#    x 2.576360 0.313780 0.015680 
#    y 0.313780 2.114510 0.011000 
#    z 0.015680 0.011000 1.866540 
# 
# From -- ./inp_files/158408.got.cif
#   From: 2010.05.17/outbox.cif.g08.bks.cpg/sg2_80_cif.got.tgz:158408.got - 2010.06.03 11:33:40.
