data_PCOD9032027
_publ_section_title
;
Structure prediction by ZEFSAII (Michael W. Deem and Ramdas Pophale) SiO2 
 PCOD9032027
Probable space group: P -1
;
_chemical_formula_sum "Si O2"
_cell_formula_units_Z 16
_cell_length_a 19.570767
_cell_length_b 12.870185
_cell_length_c 9.550027
_cell_angle_alpha 140.066917
_cell_angle_beta 132.541126
_cell_angle_gamma 26.095719
_cell_volume 678.514778
_symmetry_space_group_name_H-M "P -1"
_symmetry_group_IT_number 2
_symmetry_cell_setting 'triclinic'
loop_
_space_group_symop_operation_xyz
x,y,z
-x,-y,-z
loop_
_atom_site_type_symbol
_atom_site_label
_atom_site_fract_x
_atom_site_fract_y
_atom_site_fract_z
Si Si1 0.525145 0.653358 0.156792
Si Si2 0.578255 0.088143 0.002589
Si Si3 0.332084 0.555687 0.348392
Si Si4 0.134022 0.902442 0.997632
Si Si5 0.458106 0.897461 0.607938
Si Si6 0.025399 0.817964 0.234756
Si Si7 0.868140 0.838186 0.262158
Si Si8 0.119984 0.245495 0.504741
O O1 0.489003 0.815489 0.405394
O O2 0.500000 0.500000 0.000000
O O3 0.414263 0.860627 0.091855
O O4 0.705778 0.420385 0.124109
O O5 0.447977 0.380830 0.199128
O O6 0.742554 0.881206 0.089570
O O7 0.517924 0.990497 0.825617
O O8 0.440264 0.373003 0.443245
O O9 0.239162 0.852578 0.535675
O O10 0.203271 0.593898 0.204562
O O11 0.167028 0.016791 0.251654
O O12 0.075737 0.021481 0.881197
O O13 0.000000 0.000000 0.000000
O O14 0.276382 0.128562 0.622676
O O15 0.975550 0.734020 0.171565
O O16 0.000000 0.000000 0.500000
O O17 0.948534 0.691673 0.370710
O O18 0.000000 0.500000 0.500000
#
# Coordination Sequence:
#
# PCOD9032027 Si02
#       8
#     2   2   2   2   2   2   2   2
#     4  12  24  46  73 105 144 188 247 300 351 432
#     4  12  25  43  73 104 144 189 241 299 365 427
#     4  11  23  45  78 101 142 187 249 300 348 437
#     4  12  25  46  77 108 143 196 245 297 363 434
#     4  12  27  47  70 109 147 191 241 302 373 427
#     4  10  22  43  69 107 141 177 239 303 354 417
#     4  11  24  47  74 108 138 196 250 296 362 431
#     4  12  29  48  70 105 155 191 236 301 378 445
#
# _framework density 23.580915999999998
#
# number of rings (size 3 to 8) (size 9 to 14) (size 15 to 20)
#    0.000    0.500    2.500    7.125    3.500    0.000 
#    2.250    1.250    0.000    0.000    0.000    0.000 
#    0.000    0.000    0.000    0.000    0.000    0.000 
#
# Total GULP energy -89677.046655 kJ/mol
# GULP energy per Si atom -5604.815416 kJ/mol
# Density = 2.352724 g / cm^3
# Si number density = 23.580916 Si / 1000 Ang^3
#
#
#
# Elastic Constant Matrix: (Units=GPa)
#
#
# Indices 1 2 3 4 5 6 
#
# 1 107.7513 30.2636 42.1371 -21.8169 2.0099 7.1194
# 2 30.2636 94.7130 15.3554 -21.6804 -10.5998 13.9478
# 3 42.1371 15.3554 103.9176 -21.1003 -6.4213 8.6410
# 4 -21.8169 -21.6804 -21.1003 43.4183 7.3693 -8.6659
# 5 2.0099 -10.5998 -6.4213 7.3693 52.1579 -19.8588
# 6 7.1194 13.9478 8.6410 -8.6659 -19.8588 43.6714
#
#
#
# Elastic Compliance Matrix: (Units=1/GPa)
#
#
# Indices 1 2 3 4 5 6 
#
# 1 0.012350 -0.002719 -0.004051 0.003112 -0.002252 -0.000750
# 2 -0.002719 0.012890 0.000398 0.004597 0.001261 -0.002267
# 3 -0.004051 0.000398 0.012081 0.003738 0.000933 -0.000691
# 4 0.003112 0.004597 0.003738 0.029496 -0.002054 0.002204
# 5 -0.002252 0.001261 0.000933 -0.002054 0.023803 0.010196
# 6 -0.000750 -0.002267 -0.000691 0.002204 0.010196 0.028955
#
#
# Mechanical properties :
#
#
# Convention : Reuss Voigt Hill
#
# Bulk Modulus (GPa) = 40.68939 53.54378 47.11659
# Shear Modulus (GPa) = 35.58445 42.42459 39.00452
#
# Velocity S-wave (km/s) = 3.88885 4.24619 4.07144
# Velocity P-wave (km/s) = 6.12020 6.84075 6.49048
#
# Compressibility (1/GPa) = 0.02457643
#
# Stress axis : x y z
#
# Youngs Moduli (GPa) = 80.97114 77.58177 82.77513
#
# Poissons Ratio (x) = 0.21092 0.33532
# Poissons Ratio (y) = 0.22014 -0.03291
# Poissons Ratio (z) = 0.32801 -0.03084
#
# Static dielectric constant tensor:
#      x y z
#    x 1.939380 0.021020 0.010760 
#    y 0.021020 1.904620 0.012800 
#    z 0.010760 0.012800 1.897060 
# 
# From -- ./inp_files/333820.got.cif
#   From: 2010.05.17/outbox.cif.g08.bks.cpg/sg2_167_cif.got.tgz:333820.got - 2010.06.03 11:33:40.
