data_PCOD9032126
_publ_section_title
;
Structure prediction by ZEFSAII (Michael W. Deem and Ramdas Pophale) SiO2 
 PCOD9032126
Probable space group: P -1
;
_chemical_formula_sum "Si O2"
_cell_formula_units_Z 14
_cell_length_a 5.469184
_cell_length_b 14.849180
_cell_length_c 9.824688
_cell_angle_alpha 117.003226
_cell_angle_beta 125.864470
_cell_angle_gamma 75.259309
_cell_volume 576.047985
_symmetry_space_group_name_H-M "P -1"
_symmetry_group_IT_number 2
_symmetry_cell_setting 'triclinic'
loop_
_space_group_symop_operation_xyz
x,y,z
-x,-y,-z
loop_
_atom_site_type_symbol
_atom_site_label
_atom_site_fract_x
_atom_site_fract_y
_atom_site_fract_z
Si Si1 0.969860 0.620469 0.589681
Si Si2 0.266658 0.132438 0.883041
Si Si3 0.315732 0.060573 0.147693
Si Si4 0.415913 0.401552 0.316866
Si Si5 0.411948 0.889807 0.448304
Si Si6 0.229468 0.356962 0.947343
Si Si7 0.520484 0.326211 0.747126
O O1 0.878331 0.643851 0.732049
O O2 0.684927 0.652076 0.433110
O O3 0.000000 0.500000 0.500000
O O4 0.276643 0.661143 0.646296
O O5 0.356990 0.245908 0.949575
O O6 0.948854 0.115772 0.689914
O O7 0.452406 0.032127 0.844787
O O8 0.282661 0.129725 0.051266
O O9 0.426588 0.119976 0.358856
O O10 0.000000 0.000000 0.000000
O O11 0.500000 0.500000 0.500000
O O12 0.332410 0.428379 0.153378
O O13 0.512800 0.795211 0.325721
O O14 0.500000 0.000000 0.500000
O O15 0.374186 0.381817 0.866581
O O16 0.867798 0.348630 0.837262
#
# Coordination Sequence:
#
# PCOD9032126 Si02
#       7
#     2   2   2   2   2   2   2
#     4  10  22  44  67  99 133 165 221 277 336 407
#     4  10  24  40  61  94 136 176 234 275 340 394
#     4  11  22  39  62  96 126 185 229 275 342 398
#     4  10  22  43  69  98 132 172 211 279 341 398
#     4  11  22  41  65  92 142 175 229 284 331 396
#     4  11  24  44  68  96 138 175 222 283 330 413
#     4  11  25  43  68 101 130 183 227 270 350 397
#
# _framework density 24.303529999999999
#
# number of rings (size 3 to 8) (size 9 to 14) (size 15 to 20)
#    0.000    1.429    1.429    3.000    4.000    2.286 
#    0.000   17.143    0.000    0.000    0.000    0.000 
#    0.000    0.000    0.000    0.000    0.000    0.000 
#
# Total GULP energy -78164.137358 kJ/mol
# GULP energy per Si atom -5583.152668 kJ/mol
# Density = 2.424821 g / cm^3
# Si number density = 24.303530 Si / 1000 Ang^3
#
#
#
# Elastic Constant Matrix: (Units=GPa)
#
#
# Indices 1 2 3 4 5 6 
#
# 1 132.1907 6.7874 51.0022 2.4983 -22.7243 -23.5135
# 2 6.7874 68.8540 11.9120 6.7637 2.3313 -0.4056
# 3 51.0022 11.9120 153.9328 -0.5068 -3.2899 -25.2460
# 4 2.4983 6.7637 -0.5068 37.9351 1.7407 0.3187
# 5 -22.7243 2.3313 -3.2899 1.7407 43.3184 -0.9606
# 6 -23.5135 -0.4056 -25.2460 0.3187 -0.9606 19.6348
#
#
#
# Elastic Compliance Matrix: (Units=1/GPa)
#
#
# Indices 1 2 3 4 5 6 
#
# 1 0.011453 -0.000887 -0.001644 -0.001004 0.006235 0.011905
# 2 -0.000887 0.015122 -0.001318 -0.002574 -0.001331 -0.002468
# 3 -0.001644 -0.001318 0.008639 0.000380 0.000052 0.009109
# 4 -0.001004 -0.002574 0.000380 0.026969 -0.001471 -0.001277
# 5 0.006235 -0.001331 0.000052 -0.001471 0.026686 0.008835
# 6 0.011905 -0.002468 0.009109 -0.001277 0.008835 0.077301
#
#
# Mechanical properties :
#
#
# Convention : Reuss Voigt Hill
#
# Bulk Modulus (GPa) = 36.34069 54.93119 45.63594
# Shear Modulus (GPa) = 27.31635 39.19604 33.25620
#
# Velocity S-wave (km/s) = 3.35620 4.02029 3.70316
# Velocity P-wave (km/s) = 5.47760 6.64842 6.09121
#
# Compressibility (1/GPa) = 0.02751736
#
# Stress axis : x y z
#
# Youngs Moduli (GPa) = 87.31330 66.12764 115.75187
#
# Poissons Ratio (x) = 0.05865 0.19025
# Poissons Ratio (y) = 0.07745 0.15256
# Poissons Ratio (z) = 0.14351 0.08715
#
# Static dielectric constant tensor:
#      x y z
#    x 2.186260 0.048580 0.041160 
#    y 0.048580 2.043430 0.000990 
#    z 0.041160 0.000990 1.994190 
# 
# From -- ./inp_files/48720.got.cif
#   From: 2010.05.17/outbox.cif.g08.bks.cpg/sg2_25_cif.got.tgz:48720.got - 2010.06.03 11:33:40.
