data_PCOD9032847
_publ_section_title
;
Structure prediction by ZEFSAII (Michael W. Deem and Ramdas Pophale) SiO2 
 PCOD9032847
Probable space group: P -1
;
_chemical_formula_sum "Si O2"
_cell_formula_units_Z 10
_cell_length_a 11.858173
_cell_length_b 6.469943
_cell_length_c 15.583415
_cell_angle_alpha 56.983285
_cell_angle_beta 152.347943
_cell_angle_gamma 129.155681
_cell_volume 429.920909
_symmetry_space_group_name_H-M "P -1"
_symmetry_group_IT_number 2
_symmetry_cell_setting 'triclinic'
loop_
_space_group_symop_operation_xyz
x,y,z
-x,-y,-z
loop_
_atom_site_type_symbol
_atom_site_label
_atom_site_fract_x
_atom_site_fract_y
_atom_site_fract_z
Si Si1 0.634288 0.212024 0.826603
Si Si2 0.557216 0.736013 0.653856
Si Si3 0.207513 0.884771 0.866605
Si Si4 0.185536 0.693486 0.266904
Si Si5 0.848359 0.201694 0.497328
O O1 0.602937 0.481059 0.775438
O O2 0.780393 0.290643 0.816088
O O3 0.353017 0.983067 0.667247
O O4 0.770284 0.115766 0.015411
O O5 0.439792 0.680259 0.491371
O O6 0.332721 0.777351 0.550759
O O7 0.802661 0.016075 0.763194
O O8 0.053354 0.574199 0.807525
O O9 0.043033 0.057154 0.686827
O O10 0.500000 0.000000 0.000000
O O11 0.000000 0.500000 0.500000
#
# Coordination Sequence:
#
# PCOD9032847 Si02
#       5
#     2   2   2   2   2
#     4  11  24  47  72 101 137 180 226 285 342 396
#     4  10  22  43  78  96 135 184 225 282 340 397
#     4  12  27  45  70 102 142 182 224 281 341 409
#     4  10  23  44  70 106 136 176 230 278 341 405
#     4  11  26  46  69 101 140 181 230 281 338 406
#
# _framework density 23.260090999999999
#
# number of rings (size 3 to 8) (size 9 to 14) (size 15 to 20)
#    0.000    1.200    2.000    2.400    8.400    3.200 
#    7.200    0.000    0.000    0.000    0.000    0.000 
#    0.000    0.000    0.000    0.000    0.000    0.000 
#
# Total GULP energy -56002.472031 kJ/mol
# GULP energy per Si atom -5600.247203 kJ/mol
# Density = 2.320715 g / cm^3
# Si number density = 23.260091 Si / 1000 Ang^3
#
#
#
# Elastic Constant Matrix: (Units=GPa)
#
#
# Indices 1 2 3 4 5 6 
#
# 1 81.9232 53.5281 29.5460 12.7260 10.7029 2.6796
# 2 53.5281 226.0619 83.7628 36.8225 19.7402 26.9078
# 3 29.5460 83.7628 119.7013 17.1568 -5.1267 3.2679
# 4 12.7260 36.8225 17.1568 25.4042 9.2109 2.1142
# 5 10.7029 19.7402 -5.1267 9.2109 33.9953 0.6684
# 6 2.6796 26.9078 3.2679 2.1142 0.6684 38.3545
#
#
#
# Elastic Compliance Matrix: (Units=1/GPa)
#
#
# Indices 1 2 3 4 5 6 
#
# 1 0.015146 -0.002415 -0.001975 -0.001660 -0.003233 0.000952
# 2 -0.002415 0.008608 -0.004447 -0.006762 -0.002977 -0.005067
# 3 -0.001975 -0.004447 0.012647 -0.003473 0.006008 0.002267
# 4 -0.001660 -0.006762 -0.003473 0.056276 -0.011366 0.002252
# 5 -0.003233 -0.002977 0.006008 -0.011366 0.036112 0.001800
# 6 0.000952 -0.005067 0.002267 0.002252 0.001800 0.029212
#
#
# Mechanical properties :
#
#
# Convention : Reuss Voigt Hill
#
# Bulk Modulus (GPa) = 53.40265 84.59561 68.99913
# Shear Modulus (GPa) = 27.48505 36.94078 32.21291
#
# Velocity S-wave (km/s) = 3.44123 3.98950 3.72546
# Velocity P-wave (km/s) = 6.22882 7.59407 6.94507
#
# Compressibility (1/GPa) = 0.01872566
#
# Stress axis : x y z
#
# Youngs Moduli (GPa) = 66.02414 116.17383 79.07198
#
# Poissons Ratio (x) = 0.28059 0.15616
# Poissons Ratio (y) = 0.15947 0.35165
# Poissons Ratio (z) = 0.13039 0.51665
#
# Static dielectric constant tensor:
#      x y z
#    x 1.892830 -0.002990 -0.002860 
#    y -0.002990 1.867630 0.013840 
#    z -0.002860 0.013840 1.899540 
# 
# From -- ./inp_files/28975.got.cif
#   From: 2010.05.17/outbox.cif.g08.bks.cpg/sg2_15_cif.got.tgz:28975.got - 2010.06.03 11:33:40.
