data_PCOD9032643
_publ_section_title
;
Structure prediction by ZEFSAII (Michael W. Deem and Ramdas Pophale) SiO2 
 PCOD9032643
Probable space group: P -1
;
_chemical_formula_sum "Si O2"
_cell_formula_units_Z 14
_cell_length_a 11.196476
_cell_length_b 5.160471
_cell_length_c 9.248433
_cell_angle_alpha 91.745251
_cell_angle_beta 111.504343
_cell_angle_gamma 99.135662
_cell_volume 488.570646
_symmetry_space_group_name_H-M "P -1"
_symmetry_group_IT_number 2
_symmetry_cell_setting 'triclinic'
loop_
_space_group_symop_operation_xyz
x,y,z
-x,-y,-z
loop_
_atom_site_type_symbol
_atom_site_label
_atom_site_fract_x
_atom_site_fract_y
_atom_site_fract_z
Si Si1 0.500000 0.000000 0.500000
Si Si2 0.185778 0.385187 0.040261
Si Si3 0.793229 0.130312 0.669334
Si Si4 0.119252 0.335893 0.454584
Si Si5 0.000000 0.000000 0.000000
Si Si6 0.859256 0.937721 0.260099
Si Si7 0.538787 0.768616 0.800685
Si Si8 0.344765 0.784965 0.922886
O O1 0.357072 0.873160 0.361032
O O2 0.474389 0.792694 0.619751
O O3 0.120150 0.127317 0.903194
O O4 0.223384 0.609029 0.945424
O O5 0.328234 0.344388 0.153319
O O6 0.071004 0.305427 0.099140
O O7 0.848750 0.374735 0.593322
O O8 0.790186 0.857604 0.576111
O O9 0.879725 0.123230 0.850350
O O10 0.136765 0.303388 0.634422
O O11 0.973984 0.172347 0.359108
O O12 0.719507 0.021161 0.203751
O O13 0.571498 0.378485 0.140546
O O14 0.575696 0.041404 0.912689
#
# Coordination Sequence:
#
# PCOD9032643 Si02
#       8
#     1   2   2   2   1   2   2   2
#     4  12  26  48  72 110 156 196 256 314 390 442
#     4  11  22  43  70 102 135 200 243 313 364 463
#     4  12  28  49  74 108 152 202 245 313 379 456
#     4  11  26  46  73 110 148 193 249 315 383 443
#     4  12  24  48  70 106 150 194 256 300 376 454
#     4  10  23  40  71 105 141 183 251 305 381 444
#     4  10  23  44  64 106 140 196 249 309 375 456
#     4  10  22  43  72  98 145 192 255 306 375 452
#
# _framework density 28.655018999999999
#
# number of rings (size 3 to 8) (size 9 to 14) (size 15 to 20)
#    0.000    1.143    2.857    2.143    4.000    3.429 
#    2.571    0.000    0.000    0.000    0.000    0.000 
#    0.000    0.000    0.000    0.000    0.000    0.000 
#
# Total GULP energy -78044.803436 kJ/mol
# GULP energy per Si atom -5574.628817 kJ/mol
# Density = 2.858980 g / cm^3
# Si number density = 28.655019 Si / 1000 Ang^3
#
#
#
# Elastic Constant Matrix: (Units=GPa)
#
#
# Indices 1 2 3 4 5 6 
#
# 1 104.6006 23.6340 49.4381 9.3855 1.2734 32.0885
# 2 23.6340 129.0827 35.7993 -32.7757 -6.7689 22.6382
# 3 49.4381 35.7993 230.6732 -28.6357 8.1311 -2.7460
# 4 9.3855 -32.7757 -28.6357 48.0903 12.3996 -7.4755
# 5 1.2734 -6.7689 8.1311 12.3996 46.6141 11.2692
# 6 32.0885 22.6382 -2.7460 -7.4755 11.2692 36.5498
#
#
#
# Elastic Compliance Matrix: (Units=1/GPa)
#
#
# Indices 1 2 3 4 5 6 
#
# 1 0.023250 -0.001038 -0.007689 -0.017124 0.011752 -0.027473
# 2 -0.001038 0.010570 -0.000802 0.005817 0.001345 -0.004921
# 3 -0.007689 -0.000802 0.007580 0.008927 -0.006412 0.011620
# 4 -0.017124 0.005817 0.008927 0.042068 -0.017765 0.026183
# 5 0.011752 0.001345 -0.006412 -0.017765 0.033347 -0.025548
# 6 -0.027473 -0.004921 0.011620 0.026183 -0.025548 0.068632
#
#
# Mechanical properties :
#
#
# Convention : Reuss Voigt Hill
#
# Bulk Modulus (GPa) = 44.75784 75.78880 60.27332
# Shear Modulus (GPa) = 23.59010 49.94985 36.76997
#
# Velocity S-wave (km/s) = 2.87234 4.17963 3.58606
# Velocity P-wave (km/s) = 5.16274 7.05681 6.18273
#
# Compressibility (1/GPa) = 0.02234245
#
# Stress axis : x y z
#
# Youngs Moduli (GPa) = 43.01034 94.60716 131.92469
#
# Poissons Ratio (x) = 0.09822 1.01437
# Poissons Ratio (y) = 0.04465 0.10577
# Poissons Ratio (z) = 0.33071 0.07585
#
# Static dielectric constant tensor:
#      x y z
#    x 2.473460 -0.039460 -0.077640 
#    y -0.039460 2.522910 -0.085990 
#    z -0.077640 -0.085990 2.171960 
# 
# From -- ./inp_files/440966.got.cif
#   From: 2010.05.17/outbox.cif.g08.bks.cpg/sg2_221_cif.got.tgz:440966.got - 2010.06.03 11:33:40.
