data_PCOD9032906
_publ_section_title
;
Structure prediction by ZEFSAII (Michael W. Deem and Ramdas Pophale) SiO2 
 PCOD9032906
Probable space group: P -1
;
_chemical_formula_sum "Si O2"
_cell_formula_units_Z 15
_cell_length_a 10.373231
_cell_length_b 20.179073
_cell_length_c 8.336845
_cell_angle_alpha 138.558282
_cell_angle_beta 135.760489
_cell_angle_gamma 33.462320
_cell_volume 616.712816
_symmetry_space_group_name_H-M "P -1"
_symmetry_group_IT_number 2
_symmetry_cell_setting 'triclinic'
loop_
_space_group_symop_operation_xyz
x,y,z
-x,-y,-z
loop_
_atom_site_type_symbol
_atom_site_label
_atom_site_fract_x
_atom_site_fract_y
_atom_site_fract_z
Si Si1 0.148521 0.318627 0.992523
Si Si2 0.864896 0.208681 0.043397
Si Si3 0.324929 0.036878 0.558833
Si Si4 0.503871 0.663256 0.518662
Si Si5 0.533221 0.777013 0.439274
Si Si6 0.763134 0.375110 0.560013
Si Si7 0.000000 0.000000 0.000000
Si Si8 0.944381 0.376718 0.264633
O O1 0.248152 0.170573 0.803126
O O2 0.952483 0.392846 0.812352
O O3 0.368994 0.319148 0.192163
O O4 0.014079 0.381939 0.156440
O O5 0.856132 0.283852 0.324671
O O6 0.919255 0.265455 0.051953
O O7 0.605628 0.245756 0.851822
O O8 0.041846 0.059802 0.986729
O O9 0.500000 0.000000 0.500000
O O10 0.451624 0.918150 0.583283
O O11 0.115480 0.044156 0.303231
O O12 0.451425 0.761453 0.510510
O O13 0.285218 0.677942 0.424563
O O14 0.700295 0.515992 0.356029
O O15 0.823046 0.673381 0.513052
O O16 0.500000 0.500000 0.500000
#
# Coordination Sequence:
#
# PCOD9032906 Si02
#       8
#     2   2   2   2   2   2   1   2
#     4  11  26  44  67  99 129 175 217 271 332 388
#     4  11  23  42  66  95 130 175 218 271 326 384
#     4  11  24  43  68  97 134 167 219 277 324 389
#     4  11  26  44  66  97 137 173 218 274 320 396
#     4  10  24  42  68  95 127 179 215 266 334 384
#     4  12  26  41  66 100 131 173 222 266 330 386
#     4  10  22  44  62  96 130 166 214 270 330 378
#     4  11  24  45  66  95 137 173 219 270 326 391
#
# _framework density 24.322505
#
# number of rings (size 3 to 8) (size 9 to 14) (size 15 to 20)
#    0.000    1.067    2.667    3.200    7.467    3.733 
#    2.400    2.000    0.000    0.000    0.000    0.000 
#    0.000    0.000    0.000    0.000    0.000    0.000 
#
# Total GULP energy -83636.834702 kJ/mol
# GULP energy per Si atom -5575.788980 kJ/mol
# Density = 2.426715 g / cm^3
# Si number density = 24.322505 Si / 1000 Ang^3
#
#
#
# Elastic Constant Matrix: (Units=GPa)
#
#
# Indices 1 2 3 4 5 6 
#
# 1 62.1724 6.8830 -3.0852 13.8838 3.7503 10.8468
# 2 6.8830 84.7961 8.7592 0.5174 -1.8363 22.4485
# 3 -3.0852 8.7592 106.7067 -10.0520 12.6586 -9.8047
# 4 13.8838 0.5174 -10.0520 32.3978 9.2958 4.5179
# 5 3.7503 -1.8363 12.6586 9.2958 33.4233 6.5114
# 6 10.8468 22.4485 -9.8047 4.5179 6.5114 34.5876
#
#
#
# Elastic Compliance Matrix: (Units=1/GPa)
#
#
# Indices 1 2 3 4 5 6 
#
# 1 0.018659 0.000092 -0.000895 -0.007956 0.001517 -0.005411
# 2 0.000092 0.015213 -0.002897 -0.000844 0.004386 -0.011439
# 3 -0.000895 -0.002897 0.011457 0.005151 -0.007010 0.006055
# 4 -0.007956 -0.000844 0.005151 0.039189 -0.012337 0.001707
# 5 0.001517 0.004386 -0.007010 -0.012337 0.038198 -0.010889
# 6 -0.005411 -0.011439 0.006055 0.001707 -0.010889 0.041577
#
#
# Mechanical properties :
#
#
# Convention : Reuss Voigt Hill
#
# Bulk Modulus (GPa) = 26.36516 30.97657 28.67086
# Shear Modulus (GPa) = 27.12435 36.15628 31.64031
#
# Velocity S-wave (km/s) = 3.34308 3.85975 3.61066
# Velocity P-wave (km/s) = 5.07591 5.71200 5.40332
#
# Compressibility (1/GPa) = 0.03792885
#
# Stress axis : x y z
#
# Youngs Moduli (GPa) = 53.59368 65.73167 87.28491
#
# Poissons Ratio (x) = -0.00603 0.07809
# Poissons Ratio (y) = -0.00492 0.25288
# Poissons Ratio (z) = 0.04795 0.19043
#
# Static dielectric constant tensor:
#      x y z
#    x 1.889140 -0.003200 -0.000850 
#    y -0.003200 1.953700 -0.060170 
#    z -0.000850 -0.060170 1.903390 
# 
# From -- ./inp_files/282478.got.cif
#   From: 2010.05.17/outbox.cif.g08.bks.cpg/sg2_142_cif.got.tgz:282478.got - 2010.06.03 11:33:40.
