data_PCOD9032241
_publ_section_title
;
Structure prediction by ZEFSAII (Michael W. Deem and Ramdas Pophale) SiO2 
 PCOD9032241
Probable space group: P -1
;
_chemical_formula_sum "Si O2"
_cell_formula_units_Z 12
_cell_length_a 15.541338
_cell_length_b 12.471088
_cell_length_c 9.012772
_cell_angle_alpha 134.700389
_cell_angle_beta 35.501234
_cell_angle_gamma 153.855174
_cell_volume 444.424927
_symmetry_space_group_name_H-M "P -1"
_symmetry_group_IT_number 2
_symmetry_cell_setting 'triclinic'
loop_
_space_group_symop_operation_xyz
x,y,z
-x,-y,-z
loop_
_atom_site_type_symbol
_atom_site_label
_atom_site_fract_x
_atom_site_fract_y
_atom_site_fract_z
Si Si1 0.317666 0.901204 0.030320
Si Si2 0.785052 0.469683 0.383150
Si Si3 0.901724 0.179516 0.262104
Si Si4 0.263892 0.235911 0.725514
Si Si5 0.268223 0.271434 0.428240
Si Si6 0.649586 0.290465 0.706540
O O1 0.261740 0.723264 0.819897
O O2 0.434427 0.115715 0.960273
O O3 0.059778 0.715916 0.288612
O O4 0.500000 0.000000 0.000000
O O5 0.767779 0.576847 0.380870
O O6 0.621109 0.346400 0.640595
O O7 0.728922 0.177933 0.453693
O O8 0.119788 0.446678 0.288420
O O9 0.782520 0.962132 0.327838
O O10 0.033702 0.162061 0.954664
O O11 0.332594 0.254167 0.479075
O O12 0.460582 0.490491 0.790490
O O13 0.000000 0.000000 0.500000
#
# Coordination Sequence:
#
# PCOD9032241 Si02
#       6
#     2   2   2   2   2   2
#     4  11  25  42  70 101 140 184 223 291 352 413
#     4  11  26  44  67 108 138 177 238 287 350 414
#     4  10  22  43  70 103 132 189 232 282 354 419
#     4  10  24  45  70  94 143 185 231 283 349 416
#     4  11  25  44  69  99 139 184 234 284 345 421
#     4  11  23  43  73 103 144 177 236 291 354 411
#
# _framework density 27.001185
#
# number of rings (size 3 to 8) (size 9 to 14) (size 15 to 20)
#    0.000    1.333    0.000    4.500    9.333    1.333 
#    3.000    4.167    0.000    0.000    0.000    0.000 
#    0.000    0.000    0.000    0.000    0.000    0.000 
#
# Total GULP energy -66911.518197 kJ/mol
# GULP energy per Si atom -5575.959850 kJ/mol
# Density = 2.693973 g / cm^3
# Si number density = 27.001185 Si / 1000 Ang^3
#
#
#
# Elastic Constant Matrix: (Units=GPa)
#
#
# Indices 1 2 3 4 5 6 
#
# 1 118.1816 47.9390 17.9746 -19.5747 12.6332 -6.2567
# 2 47.9390 214.7947 15.7479 -14.0298 10.5137 -15.2090
# 3 17.9746 15.7479 66.0287 -16.6913 5.5446 -7.6024
# 4 -19.5747 -14.0298 -16.6913 44.3953 -8.8569 -7.8946
# 5 12.6332 10.5137 5.5446 -8.8569 45.6155 -10.3765
# 6 -6.2567 -15.2090 -7.6024 -7.8946 -10.3765 58.4333
#
#
#
# Elastic Compliance Matrix: (Units=1/GPa)
#
#
# Indices 1 2 3 4 5 6 
#
# 1 0.010127 -0.001840 -0.001315 0.003206 -0.001460 0.000608
# 2 -0.001840 0.005246 -0.000372 0.000878 -0.000211 0.001201
# 3 -0.001315 -0.000372 0.017550 0.006478 0.000249 0.002965
# 4 0.003206 0.000878 0.006478 0.028778 0.005123 0.006213
# 5 -0.001460 -0.000211 0.000249 0.005123 0.024444 0.004854
# 6 0.000608 0.001201 0.002965 0.006213 0.004854 0.019578
#
#
# Mechanical properties :
#
#
# Convention : Reuss Voigt Hill
#
# Bulk Modulus (GPa) = 38.65645 62.48088 50.56866
# Shear Modulus (GPa) = 41.18579 50.84505 46.01542
#
# Velocity S-wave (km/s) = 3.90979 4.34414 4.13267
# Velocity P-wave (km/s) = 5.89318 6.95359 6.44523
#
# Compressibility (1/GPa) = 0.02586891
#
# Stress axis : x y z
#
# Youngs Moduli (GPa) = 98.74390 190.61128 56.98128
#
# Poissons Ratio (x) = 0.35070 0.07492
# Poissons Ratio (y) = 0.18168 0.02122
# Poissons Ratio (z) = 0.12984 0.07098
#
# Static dielectric constant tensor:
#      x y z
#    x 2.127480 0.038470 -0.100630 
#    y 0.038470 2.209280 -0.075850 
#    z -0.100630 -0.075850 2.288540 
# 
# From -- ./inp_files/308454.got.cif
#   From: 2010.05.17/outbox.cif.g08.bks.cpg/sg2_155_cif.got.tgz:308454.got - 2010.06.03 11:33:40.
