data_PCOD9032785
_publ_section_title
;
Structure prediction by ZEFSAII (Michael W. Deem and Ramdas Pophale) SiO2 
 PCOD9032785
Probable space group: P -1
;
_chemical_formula_sum "Si O2"
_cell_formula_units_Z 14
_cell_length_a 22.965924
_cell_length_b 9.343811
_cell_length_c 9.233191
_cell_angle_alpha 105.698238
_cell_angle_beta 131.806181
_cell_angle_gamma 34.690399
_cell_volume 635.727587
_symmetry_space_group_name_H-M "P -1"
_symmetry_group_IT_number 2
_symmetry_cell_setting 'triclinic'
loop_
_space_group_symop_operation_xyz
x,y,z
-x,-y,-z
loop_
_atom_site_type_symbol
_atom_site_label
_atom_site_fract_x
_atom_site_fract_y
_atom_site_fract_z
Si Si1 0.146997 0.717340 0.044127
Si Si2 0.423919 0.526945 0.751153
Si Si3 0.854666 0.175432 0.447861
Si Si4 0.750848 0.777394 0.003895
Si Si5 0.668442 0.294945 0.658861
Si Si6 0.137644 0.534657 0.591487
Si Si7 0.967890 0.628025 0.135177
O O1 0.297304 0.585777 0.259973
O O2 0.233001 0.406591 0.105830
O O3 0.000000 0.000000 0.000000
O O4 0.026352 0.927786 0.757732
O O5 0.288922 0.647154 0.637843
O O6 0.323231 0.772394 0.514623
O O7 0.500000 0.500000 0.000000
O O8 0.576951 0.172542 0.829074
O O9 0.787740 0.432965 0.322062
O O10 0.935624 0.913076 0.405125
O O11 0.779575 0.683093 0.192579
O O12 0.900228 0.626873 0.141808
O O13 0.500000 0.500000 0.500000
O O14 0.816385 0.997378 0.936479
O O15 0.130671 0.439574 0.417236
O O16 0.000000 0.500000 0.000000
#
# Coordination Sequence:
#
# PCOD9032785 Si02
#       7
#     2   2   2   2   2   2   2
#     4  11  22  46  75  99 138 186 240 292 344 414
#     4  12  27  45  69 101 148 190 226 288 363 426
#     4  10  22  43  74  97 132 189 238 279 353 417
#     4  11  26  44  68 108 140 181 233 293 352 419
#     4  12  26  47  69 102 145 185 227 294 360 410
#     4  10  23  43  70  99 134 179 240 291 336 423
#     4  12  25  42  70 104 136 182 236 290 346 416
#
# _framework density 22.022012
#
# number of rings (size 3 to 8) (size 9 to 14) (size 15 to 20)
#    0.000    0.857    4.286    2.143    4.000    1.143 
#    2.571    0.000    0.000    0.000    0.000    0.000 
#    0.000    0.000    0.000    0.000    0.000    0.000 
#
# Total GULP energy -78121.779220 kJ/mol
# GULP energy per Si atom -5580.127087 kJ/mol
# Density = 2.197189 g / cm^3
# Si number density = 22.022012 Si / 1000 Ang^3
#
#
#
# Elastic Constant Matrix: (Units=GPa)
#
#
# Indices 1 2 3 4 5 6 
#
# 1 126.7113 6.2117 21.3629 6.8190 1.9324 -3.4013
# 2 6.2117 84.6660 15.5483 16.7943 11.2701 2.7069
# 3 21.3629 15.5483 82.9323 26.4293 -7.2760 4.5547
# 4 6.8190 16.7943 26.4293 30.6815 -4.6804 -1.9391
# 5 1.9324 11.2701 -7.2760 -4.6804 45.9235 1.2202
# 6 -3.4013 2.7069 4.5547 -1.9391 1.2202 37.9172
#
#
#
# Elastic Compliance Matrix: (Units=1/GPa)
#
#
# Indices 1 2 3 4 5 6 
#
# 1 0.008315 -0.000169 -0.002284 0.000175 -0.000681 0.001063
# 2 -0.000169 0.014111 -0.000312 -0.008155 -0.004303 -0.001264
# 3 -0.002284 -0.000312 0.017619 -0.014454 0.001573 -0.003089
# 4 0.000175 -0.008155 -0.014454 0.050490 0.004723 0.004764
# 5 -0.000681 -0.004303 0.001573 0.004723 0.023603 -0.000461
# 6 0.001063 -0.001264 -0.003089 0.004764 -0.000461 0.027188
#
#
# Mechanical properties :
#
#
# Convention : Reuss Voigt Hill
#
# Bulk Modulus (GPa) = 28.97198 42.28393 35.62795
# Shear Modulus (GPa) = 31.57357 39.65023 35.61190
#
# Velocity S-wave (km/s) = 3.79057 4.24781 4.02569
# Velocity P-wave (km/s) = 5.68703 6.58035 6.14993
#
# Compressibility (1/GPa) = 0.03451611
#
# Stress axis : x y z
#
# Youngs Moduli (GPa) = 120.26721 70.86459 56.75771
#
# Poissons Ratio (x) = 0.01196 0.12965
# Poissons Ratio (y) = 0.02029 0.01768
# Poissons Ratio (z) = 0.27472 0.02207
#
# Static dielectric constant tensor:
#      x y z
#    x 1.784240 0.047750 -0.036750 
#    y 0.047750 1.887520 0.075530 
#    z -0.036750 0.075530 1.772180 
# 
# From -- ./inp_files/155268.got.cif
#   From: 2010.05.17/outbox.cif.g08.bks.cpg/sg2_78_cif.got.tgz:155268.got - 2010.06.03 11:33:40.
