data_PCOD9032187
_publ_section_title
;
Structure prediction by ZEFSAII (Michael W. Deem and Ramdas Pophale) SiO2 
 PCOD9032187
Probable space group: P -1
;
_chemical_formula_sum "Si O2"
_cell_formula_units_Z 12
_cell_length_a 11.679878
_cell_length_b 18.047479
_cell_length_c 20.318063
_cell_angle_alpha 159.415573
_cell_angle_beta 160.225767
_cell_angle_gamma 31.189364
_cell_volume 497.600509
_symmetry_space_group_name_H-M "P -1"
_symmetry_group_IT_number 2
_symmetry_cell_setting 'triclinic'
loop_
_space_group_symop_operation_xyz
x,y,z
-x,-y,-z
loop_
_atom_site_type_symbol
_atom_site_label
_atom_site_fract_x
_atom_site_fract_y
_atom_site_fract_z
Si Si1 0.571165 0.338487 0.760197
Si Si2 0.677202 0.158458 0.284029
Si Si3 0.844322 0.407772 0.103939
Si Si4 0.026055 0.000299 0.887501
Si Si5 0.093786 0.884016 0.356042
Si Si6 0.528019 0.209503 0.961144
O O1 0.746824 0.274345 0.735287
O O2 0.226070 0.151866 0.426368
O O3 0.832180 0.344406 0.967112
O O4 0.457884 0.565806 0.880998
O O5 0.826025 0.402234 0.545797
O O6 0.997064 0.068437 0.410914
O O7 0.500000 0.000000 0.000000
O O8 0.387050 0.127589 0.157966
O O9 0.500000 0.500000 0.000000
O O10 0.842758 0.194603 0.968072
O O11 0.121319 0.843246 0.864030
O O12 0.734029 0.778520 0.109596
O O13 0.346025 0.002990 0.648090
#
# Coordination Sequence:
#
# PCOD9032187 Si02
#       6
#     2   2   2   2   2   2
#     4  12  23  44  71  98 135 181 224 272 341 393
#     4  11  22  44  67  99 135 173 230 278 333 399
#     4  12  25  45  70  98 136 180 224 282 335 395
#     4  11  25  41  66 103 134 174 225 278 331 401
#     4  10  22  43  70 100 133 181 222 276 332 403
#     4  10  23  45  67  99 141 173 227 271 336 398
#
# _framework density 24.115729000000002
#
# number of rings (size 3 to 8) (size 9 to 14) (size 15 to 20)
#    0.000    1.000    1.667    5.000    0.000    0.667 
#    9.000    0.000    0.000    0.000    0.000    0.000 
#    0.000    0.000    0.000    0.000    0.000    0.000 
#
# Total GULP energy -67188.769757 kJ/mol
# GULP energy per Si atom -5599.064146 kJ/mol
# Density = 2.406084 g / cm^3
# Si number density = 24.115729 Si / 1000 Ang^3
#
#
#
# Elastic Constant Matrix: (Units=GPa)
#
#
# Indices 1 2 3 4 5 6 
#
# 1 76.7103 22.3676 7.1883 -0.7925 -12.6294 -19.1962
# 2 22.3676 134.4046 27.2406 15.6973 -1.0306 -7.0130
# 3 7.1883 27.2406 114.0591 5.4566 -5.8337 0.9468
# 4 -0.7925 15.6973 5.4566 41.2789 5.5980 2.1599
# 5 -12.6294 -1.0306 -5.8337 5.5980 40.7232 1.2882
# 6 -19.1962 -7.0130 0.9468 2.1599 1.2882 37.9624
#
#
#
# Elastic Compliance Matrix: (Units=1/GPa)
#
#
# Indices 1 2 3 4 5 6 
#
# 1 0.016438 -0.002249 -0.000329 0.000169 0.004726 0.007735
# 2 -0.002249 0.008565 -0.001780 -0.003054 -0.000337 0.000675
# 3 -0.000329 -0.001780 0.009320 -0.000700 0.001307 -0.000732
# 4 0.000169 -0.003054 -0.000700 0.026073 -0.003652 -0.001821
# 5 0.004726 -0.000337 0.001307 -0.003652 0.026652 0.001598
# 6 0.007735 0.000675 -0.000732 -0.001821 0.001598 0.030445
#
#
# Mechanical properties :
#
#
# Convention : Reuss Voigt Hill
#
# Bulk Modulus (GPa) = 39.05462 48.75189 43.90326
# Shear Modulus (GPa) = 37.10702 41.88474 39.49588
#
# Velocity S-wave (km/s) = 3.92689 4.17204 4.05132
# Velocity P-wave (km/s) = 6.06551 6.59300 6.33475
#
# Compressibility (1/GPa) = 0.02560517
#
# Stress axis : x y z
#
# Youngs Moduli (GPa) = 60.83452 116.75905 107.29814
#
# Poissons Ratio (x) = 0.26256 0.03535
# Poissons Ratio (y) = 0.13680 0.19104
# Poissons Ratio (z) = 0.02004 0.20789
#
# Static dielectric constant tensor:
#      x y z
#    x 1.983970 -0.028700 0.005770 
#    y -0.028700 1.930560 -0.002270 
#    z 0.005770 -0.002270 1.898690 
# 
# From -- ./inp_files/22674.got.cif
#   From: 2010.05.17/outbox.cif.g08.bks.cpg/sg2_12_cif.got.tgz:22674.got - 2010.06.03 11:33:40.
