data_PCOD9032148
_publ_section_title
;
Structure prediction by ZEFSAII (Michael W. Deem and Ramdas Pophale) SiO2 
 PCOD9032148
Probable space group: P -1
;
_chemical_formula_sum "Si O2"
_cell_formula_units_Z 16
_cell_length_a 10.058459
_cell_length_b 9.883901
_cell_length_c 15.507486
_cell_angle_alpha 150.328043
_cell_angle_beta 71.200724
_cell_angle_gamma 98.079359
_cell_volume 689.750958
_symmetry_space_group_name_H-M "P -1"
_symmetry_group_IT_number 2
_symmetry_cell_setting 'triclinic'
loop_
_space_group_symop_operation_xyz
x,y,z
-x,-y,-z
loop_
_atom_site_type_symbol
_atom_site_label
_atom_site_fract_x
_atom_site_fract_y
_atom_site_fract_z
Si Si1 0.550326 0.209461 0.972511
Si Si2 0.675972 0.739497 0.829737
Si Si3 0.982364 0.185024 0.822567
Si Si4 0.690988 0.211558 0.418611
Si Si5 0.769676 0.965103 0.638772
Si Si6 0.118572 0.968856 0.065810
Si Si7 0.512159 0.129248 0.661592
Si Si8 0.193833 0.683776 0.723928
O O1 0.615514 0.026572 0.942948
O O2 0.638470 0.050077 0.784537
O O3 0.380203 0.239879 0.048920
O O4 0.554863 0.531192 0.140915
O O5 0.641439 0.483732 0.643855
O O6 0.844839 0.730477 0.783552
O O7 0.880275 0.145085 0.901377
O O8 0.893943 0.115346 0.720318
O O9 0.144800 0.963917 0.680109
O O10 0.000000 0.500000 0.000000
O O11 0.695845 0.314774 0.376316
O O12 0.584366 0.015312 0.338995
O O13 0.832681 0.623926 0.441574
O O14 0.679581 0.055301 0.619177
O O15 0.219286 0.751941 0.855447
O O16 0.947412 0.050210 0.122224
O O17 0.500000 0.000000 0.500000
#
# Coordination Sequence:
#
# PCOD9032148 Si02
#       8
#     2   2   2   2   2   2   2   2
#     4  11  24  43  64 102 135 185 232 283 349 414
#     4  11  22  41  74  95 136 186 233 286 342 420
#     4  11  24  46  75 103 142 184 235 288 358 417
#     4  11  23  45  74 101 139 187 231 289 351 420
#     4  12  25  44  73 100 141 187 235 289 352 417
#     4  10  22  43  69  98 145 174 233 297 344 407
#     4  12  28  47  67 103 149 184 232 293 354 416
#     4  10  23  42  68 109 132 183 238 288 345 420
#
# _framework density 23.19678
#
# number of rings (size 3 to 8) (size 9 to 14) (size 15 to 20)
#    0.000    1.000    3.750    1.875    3.500    2.500 
#    4.500    1.250    0.000    0.000    0.000    0.000 
#    0.000    0.000    0.000    0.000    0.000    0.000 
#
# Total GULP energy -89305.635103 kJ/mol
# GULP energy per Si atom -5581.602194 kJ/mol
# Density = 2.314398 g / cm^3
# Si number density = 23.196780 Si / 1000 Ang^3
#
#
#
# Elastic Constant Matrix: (Units=GPa)
#
#
# Indices 1 2 3 4 5 6 
#
# 1 109.2291 25.4250 28.1541 11.3034 21.0534 -8.0934
# 2 25.4250 23.3701 31.3271 14.9396 11.8869 0.4770
# 3 28.1541 31.3271 106.4681 22.7810 13.3770 -5.8062
# 4 11.3034 14.9396 22.7810 37.8953 2.9867 9.9734
# 5 21.0534 11.8869 13.3770 2.9867 31.2942 2.7223
# 6 -8.0934 0.4770 -5.8062 9.9734 2.7223 36.2594
#
#
#
# Elastic Compliance Matrix: (Units=1/GPa)
#
#
# Indices 1 2 3 4 5 6 
#
# 1 0.013197 -0.014183 0.001392 0.000212 -0.004422 0.003629
# 2 -0.014183 0.116185 -0.021753 -0.026948 -0.022802 0.000947
# 3 0.001392 -0.021753 0.016149 -0.002592 0.000334 0.003871
# 4 0.000212 -0.026948 -0.002592 0.040986 0.008326 -0.011912
# 5 -0.004422 -0.022802 0.000334 0.008326 0.043190 -0.006166
# 6 0.003629 0.000947 0.003871 -0.011912 -0.006166 0.032736
#
#
# Mechanical properties :
#
#
# Convention : Reuss Voigt Hill
#
# Bulk Modulus (GPa) = 13.08186 45.43106 29.25646
# Shear Modulus (GPa) = 14.00510 31.36720 22.68615
#
# Velocity S-wave (km/s) = 2.45980 3.68125 3.13067
# Velocity P-wave (km/s) = 3.70395 6.13974 5.07029
#
# Compressibility (1/GPa) = 0.07644172
#
# Stress axis : x y z
#
# Youngs Moduli (GPa) = 75.77482 8.60695 61.92403
#
# Poissons Ratio (x) = 0.12208 -0.08617
# Poissons Ratio (y) = 1.07474 1.34702
# Poissons Ratio (z) = -0.10545 0.18723
#
# Static dielectric constant tensor:
#      x y z
#    x 2.207560 0.001210 -0.043370 
#    y 0.001210 1.895130 -0.038780 
#    z -0.043370 -0.038780 1.861980 
# 
# From -- ./inp_files/516451.got.cif
#   From: 2010.05.17/outbox.cif.g08.bks.cpg/sg2_259_cif.got.tgz:516451.got - 2010.06.03 11:33:40.
