data_PCOD9032593
_publ_section_title
;
Structure prediction by ZEFSAII (Michael W. Deem and Ramdas Pophale) SiO2 
 PCOD9032593
Probable space group: P -1
;
_chemical_formula_sum "Si O2"
_cell_formula_units_Z 16
_cell_length_a 23.193667
_cell_length_b 16.152910
_cell_length_c 8.288662
_cell_angle_alpha 93.989669
_cell_angle_beta 77.791036
_cell_angle_gamma 162.547270
_cell_volume 812.503489
_symmetry_space_group_name_H-M "P -1"
_symmetry_group_IT_number 2
_symmetry_cell_setting 'triclinic'
loop_
_space_group_symop_operation_xyz
x,y,z
-x,-y,-z
loop_
_atom_site_type_symbol
_atom_site_label
_atom_site_fract_x
_atom_site_fract_y
_atom_site_fract_z
Si Si1 0.316705 0.873759 0.945904
Si Si2 0.685639 0.946487 0.177888
Si Si3 0.836866 0.347264 0.504371
Si Si4 0.013912 0.355727 0.259176
Si Si5 0.328561 0.603463 0.664252
Si Si6 0.783311 0.656215 0.624165
Si Si7 0.896029 0.530893 0.197296
Si Si8 0.765662 0.518183 0.930662
O O1 0.315882 0.793453 0.818037
O O2 0.299302 0.936133 0.868729
O O3 0.520647 0.156330 0.981361
O O4 0.110527 0.565467 0.130963
O O5 0.433934 0.583036 0.244920
O O6 0.756971 0.021998 0.329947
O O7 0.872409 0.152820 0.991190
O O8 0.874517 0.478545 0.613633
O O9 0.928931 0.504148 0.303516
O O10 0.586830 0.977283 0.582626
O O11 0.088025 0.366586 0.152286
O O12 0.000000 0.500000 0.500000
O O13 0.288065 0.491369 0.515960
O O14 0.184896 0.490823 0.698390
O O15 0.245737 0.463697 0.875435
O O16 0.822134 0.654890 0.764639
O O17 0.000000 0.000000 0.500000
#
# Coordination Sequence:
#
# PCOD9032593 Si02
#       8
#     2   2   2   2   2   2   2   2
#     4  10  17  32  54  89 129 167 182 215 291 371
#     4  10  21  39  60  86 124 169 196 241 305 355
#     4  12  22  31  55 100 134 165 199 229 283 380
#     4  11  18  33  57  93 132 157 185 236 297 370
#     4  12  23  41  63  92 123 161 210 246 298 372
#     4  11  27  48  65  82 113 159 217 275 316 347
#     4  11  21  35  59  89 135 163 195 237 296 369
#     4  11  21  38  66  89 122 162 203 244 309 363
#
# _framework density 19.692222000000001
#
# number of rings (size 3 to 8) (size 9 to 14) (size 15 to 20)
#    0.000    1.000    3.750    7.500    1.750    0.500 
#    0.000    1.250    0.000    0.000    0.000    0.000 
#    0.000    0.000    0.000    0.000    0.000    0.000 
#
# Total GULP energy -89073.011816 kJ/mol
# GULP energy per Si atom -5567.063239 kJ/mol
# Density = 1.964740 g / cm^3
# Si number density = 19.692222 Si / 1000 Ang^3
#
#
#
# Elastic Constant Matrix: (Units=GPa)
#
#
# Indices 1 2 3 4 5 6 
#
# 1 97.5056 42.0455 35.0865 -12.3437 1.4753 28.3837
# 2 42.0455 71.4212 37.8818 -20.3153 5.8783 15.4478
# 3 35.0865 37.8818 92.1902 0.6326 11.7795 3.3439
# 4 -12.3437 -20.3153 0.6326 35.5539 5.4830 -1.0717
# 5 1.4753 5.8783 11.7795 5.4830 37.7874 0.0404
# 6 28.3837 15.4478 3.3439 -1.0717 0.0404 17.0986
#
#
#
# Elastic Compliance Matrix: (Units=1/GPa)
#
#
# Indices 1 2 3 4 5 6 
#
# 1 0.026656 0.000620 -0.008977 0.008412 0.000486 -0.042527
# 2 0.000620 0.030545 -0.011516 0.017686 -0.003725 -0.025255
# 3 -0.008977 -0.011516 0.018595 -0.009027 -0.002367 0.021110
# 4 0.008412 0.017686 -0.009027 0.041508 -0.006261 -0.025560
# 5 0.000486 -0.003725 -0.002367 -0.006261 0.028668 0.002561
# 6 -0.042527 -0.025255 0.021110 -0.025560 0.002561 0.146160
#
#
# Mechanical properties :
#
#
# Convention : Reuss Voigt Hill
#
# Bulk Modulus (GPa) = 27.74049 54.57162 41.15606
# Shear Modulus (GPa) = 14.53935 27.82819 21.18377
#
# Velocity S-wave (km/s) = 2.72017 3.76328 3.28341
# Velocity P-wave (km/s) = 4.89728 6.83048 5.94301
#
# Compressibility (1/GPa) = 0.03604838
#
# Stress axis : x y z
#
# Youngs Moduli (GPa) = 37.51527 32.73903 53.77905
#
# Poissons Ratio (x) = -0.02030 0.48277
# Poissons Ratio (y) = -0.02326 0.61934
# Poissons Ratio (z) = 0.33677 0.37703
#
# Static dielectric constant tensor:
#      x y z
#    x 1.700200 0.046670 0.034270 
#    y 0.046670 1.735320 0.095930 
#    z 0.034270 0.095930 1.873150 
# 
# From -- ./inp_files/180167.got.cif
#   From: 2010.05.17/outbox.cif.g08.bks.cpg/sg2_91_cif.got.tgz:180167.got - 2010.06.03 11:33:40.
