data_PCOD9032489
_publ_section_title
;
Structure prediction by ZEFSAII (Michael W. Deem and Ramdas Pophale) SiO2 
 PCOD9032489
Probable space group: P -1
;
_chemical_formula_sum "Si O2"
_cell_formula_units_Z 16
_cell_length_a 18.644838
_cell_length_b 16.673507
_cell_length_c 11.793765
_cell_angle_alpha 28.578160
_cell_angle_beta 41.118270
_cell_angle_gamma 23.927051
_cell_volume 687.919323
_symmetry_space_group_name_H-M "P -1"
_symmetry_group_IT_number 2
_symmetry_cell_setting 'triclinic'
loop_
_space_group_symop_operation_xyz
x,y,z
-x,-y,-z
loop_
_atom_site_type_symbol
_atom_site_label
_atom_site_fract_x
_atom_site_fract_y
_atom_site_fract_z
Si Si1 0.500059 0.746062 0.498968
Si Si2 0.342610 0.801921 0.962658
Si Si3 0.014083 0.783254 0.262806
Si Si4 0.564675 0.675918 0.262268
Si Si5 0.924748 0.381240 0.123351
Si Si6 0.271469 0.897873 0.182912
Si Si7 0.586661 0.756532 0.617317
Si Si8 0.085720 0.205070 0.390176
O O1 0.549320 0.768722 0.292052
O O2 0.505059 0.860838 0.457954
O O3 0.301729 0.907207 0.515994
O O4 0.633395 0.427747 0.767797
O O5 0.521263 0.660851 0.868042
O O6 0.170064 0.059252 0.770657
O O7 0.308169 0.909939 0.996532
O O8 0.017451 0.731693 0.454768
O O9 0.196376 0.498393 0.336679
O O10 0.000000 0.000000 0.000000
O O11 0.717944 0.573966 0.130681
O O12 0.371980 0.896132 0.154772
O O13 0.636701 0.397368 0.544343
O O14 0.007542 0.229452 0.336118
O O15 0.930062 0.574750 0.868815
O O16 0.059050 0.147028 0.158005
O O17 0.500000 0.000000 0.500000
#
# Coordination Sequence:
#
# PCOD9032489 Si02
#       8
#     2   2   2   2   2   2   2   2
#     4  11  21  47  72  99 139 184 237 290 344 427
#     4  11  25  45  72 102 141 185 236 290 350 427
#     4  12  25  48  77 102 136 193 241 287 351 429
#     4  10  22  43  71  96 134 184 228 288 346 410
#     4  11  24  44  65 103 140 185 221 291 352 418
#     4  10  23  42  67 104 135 172 239 289 337 419
#     4  12  27  43  70 108 142 183 232 295 358 414
#     4  11  25  42  72 101 139 180 238 284 348 427
#
# _framework density 23.258541999999998
#
# number of rings (size 3 to 8) (size 9 to 14) (size 15 to 20)
#    0.000    1.000    3.750    2.250    3.500    4.000 
#    0.000    0.000    0.000    0.000    0.000    0.000 
#    0.000    0.000    0.000    0.000    0.000    0.000 
#
# Total GULP energy -89624.212542 kJ/mol
# GULP energy per Si atom -5601.513284 kJ/mol
# Density = 2.320560 g / cm^3
# Si number density = 23.258542 Si / 1000 Ang^3
#
#
#
# Elastic Constant Matrix: (Units=GPa)
#
#
# Indices 1 2 3 4 5 6 
#
# 1 64.9573 12.3534 17.7650 5.1798 12.1094 17.2808
# 2 12.3534 149.5694 24.0096 10.9007 16.3969 5.0579
# 3 17.7650 24.0096 64.6147 15.1609 16.9478 1.9232
# 4 5.1798 10.9007 15.1609 37.0215 3.3462 6.8639
# 5 12.1094 16.3969 16.9478 3.3462 19.3305 7.8205
# 6 17.2808 5.0579 1.9232 6.8639 7.8205 40.1712
#
#
#
# Elastic Compliance Matrix: (Units=1/GPa)
#
#
# Indices 1 2 3 4 5 6 
#
# 1 0.019377 -0.000163 -0.003621 0.000681 -0.006082 -0.007074
# 2 -0.000163 0.007535 -0.001057 -0.001365 -0.005304 0.000438
# 3 -0.003621 -0.001057 0.023365 -0.008130 -0.018135 0.005492
# 4 0.000681 -0.001365 -0.008130 0.031325 0.004877 -0.006034
# 5 -0.006082 -0.005304 -0.018135 0.004877 0.080059 -0.012267
# 6 -0.007074 0.000438 0.005492 -0.006034 -0.012267 0.031038
#
#
# Mechanical properties :
#
#
# Convention : Reuss Voigt Hill
#
# Bulk Modulus (GPa) = 24.63270 43.04414 33.83842
# Shear Modulus (GPa) = 23.15749 34.30554 28.73152
#
# Velocity S-wave (km/s) = 3.15882 3.84469 3.51851
# Velocity P-wave (km/s) = 4.89061 6.18513 5.57557
#
# Compressibility (1/GPa) = 0.04059644
#
# Stress axis : x y z
#
# Youngs Moduli (GPa) = 51.60629 132.71284 42.79852
#
# Poissons Ratio (x) = 0.02161 0.15498
# Poissons Ratio (y) = 0.00840 0.04523
# Poissons Ratio (z) = 0.18687 0.14024
#
# Static dielectric constant tensor:
#      x y z
#    x 1.884690 -0.002470 -0.018900 
#    y -0.002470 1.856550 -0.014950 
#    z -0.018900 -0.014950 1.869900 
# 
# From -- ./inp_files/307010.got.cif
#   From: 2010.05.17/outbox.cif.g08.bks.cpg/sg2_154_cif.got.tgz:307010.got - 2010.06.03 11:33:40.
