data_PCOD9032466
_publ_section_title
;
Structure prediction by ZEFSAII (Michael W. Deem and Ramdas Pophale) SiO2 
 PCOD9032466
Probable space group: P -1
;
_chemical_formula_sum "Si O2"
_cell_formula_units_Z 15
_cell_length_a 8.788366
_cell_length_b 11.397677
_cell_length_c 9.375726
_cell_angle_alpha 63.818451
_cell_angle_beta 44.824716
_cell_angle_gamma 70.257425
_cell_volume 593.652846
_symmetry_space_group_name_H-M "P -1"
_symmetry_group_IT_number 2
_symmetry_cell_setting 'triclinic'
loop_
_space_group_symop_operation_xyz
x,y,z
-x,-y,-z
loop_
_atom_site_type_symbol
_atom_site_label
_atom_site_fract_x
_atom_site_fract_y
_atom_site_fract_z
Si Si1 0.224489 0.672156 0.409761
Si Si2 0.938953 0.872347 0.995805
Si Si3 0.407654 0.803353 0.661246
Si Si4 0.059860 0.362395 0.104735
Si Si5 0.887398 0.837454 0.387618
Si Si6 0.000000 0.000000 0.500000
Si Si7 0.532572 0.099503 0.752520
Si Si8 0.545755 0.495688 0.138558
O O1 0.401809 0.783630 0.246949
O O2 0.344606 0.539218 0.350028
O O3 0.108073 0.672236 0.641508
O O4 0.032311 0.710620 0.408135
O O5 0.926858 0.851455 0.185238
O O6 0.711472 0.947412 0.064278
O O7 0.919995 0.747607 0.969768
O O8 0.197474 0.891181 0.797171
O O9 0.630094 0.829106 0.580002
O O10 0.444401 0.835300 0.454473
O O11 0.371669 0.649747 0.793488
O O12 0.282416 0.393459 0.014087
O O13 0.000000 0.500000 0.000000
O O14 0.975035 0.942891 0.384230
O O15 0.733181 0.997783 0.694463
O O16 0.500000 0.500000 0.000000
#
# Coordination Sequence:
#
# PCOD9032466 Si02
#       8
#     2   2   2   2   2   1   2   2
#     4  11  23  40  65  95 136 187 218 272 325 387
#     4  11  22  42  66 100 129 178 215 276 326 396
#     4  11  23  41  65  99 138 170 222 269 321 403
#     4  12  24  38  63  96 142 182 228 260 317 402
#     4  10  25  45  70  91 135 171 221 287 340 392
#     4  10  24  52  70  98 122 170 222 290 354 398
#     4  10  22  43  71  91 129 170 219 277 340 392
#     4  12  25  38  63 103 141 185 227 264 316 397
#
# _framework density 25.267294
#
# number of rings (size 3 to 8) (size 9 to 14) (size 15 to 20)
#    0.000    1.067    4.000    1.600    3.733    4.267 
#    0.000    4.000    0.000    0.000    0.000    0.000 
#    0.000    0.000    0.000    0.000    0.000    0.000 
#
# Total GULP energy -83582.667835 kJ/mol
# GULP energy per Si atom -5572.177856 kJ/mol
# Density = 2.520978 g / cm^3
# Si number density = 25.267294 Si / 1000 Ang^3
#
#
#
# Elastic Constant Matrix: (Units=GPa)
#
#
# Indices 1 2 3 4 5 6 
#
# 1 189.8273 42.3290 52.5249 18.1436 -30.4531 15.5657
# 2 42.3290 75.6089 43.4147 22.3349 -0.7950 16.9489
# 3 52.5249 43.4147 111.0698 20.5269 -11.7441 6.3279
# 4 18.1436 22.3349 20.5269 39.9898 1.9879 1.8300
# 5 -30.4531 -0.7950 -11.7441 1.9879 59.1357 8.8792
# 6 15.5657 16.9489 6.3279 1.8300 8.8792 49.5852
#
#
#
# Elastic Compliance Matrix: (Units=1/GPa)
#
#
# Indices 1 2 3 4 5 6 
#
# 1 0.007083 -0.002113 -0.001819 -0.001193 0.003578 -0.001866
# 2 -0.002113 0.021093 -0.005614 -0.007651 -0.000852 -0.005395
# 3 -0.001819 -0.005614 0.012664 -0.002646 0.001486 0.000705
# 4 -0.001193 -0.007651 -0.002646 0.031191 -0.002690 0.002658
# 5 0.003578 -0.000852 0.001486 -0.002690 0.019798 -0.004468
# 6 -0.001866 -0.005395 0.000705 0.002658 -0.004468 0.023209
#
#
# Mechanical properties :
#
#
# Convention : Reuss Voigt Hill
#
# Bulk Modulus (GPa) = 45.98083 72.56035 59.27059
# Shear Modulus (GPa) = 35.36565 45.62462 40.49513
#
# Velocity S-wave (km/s) = 3.74526 4.25394 4.00768
# Velocity P-wave (km/s) = 6.07782 7.27375 6.70251
#
# Compressibility (1/GPa) = 0.02174820
#
# Stress axis : x y z
#
# Youngs Moduli (GPa) = 141.17430 47.40843 78.96510
#
# Poissons Ratio (x) = 0.10018 0.14362
# Poissons Ratio (y) = 0.29832 0.44334
# Poissons Ratio (z) = 0.25676 0.26617
#
# Static dielectric constant tensor:
#      x y z
#    x 1.999260 -0.059390 0.053880 
#    y -0.059390 1.987520 -0.015780 
#    z 0.053880 -0.015780 1.922860 
# 
# From -- ./inp_files/186378.got.cif
#   From: 2010.05.17/outbox.cif.g08.bks.cpg/sg2_94_cif.got.tgz:186378.got - 2010.06.03 11:33:40.
