data_PCOD9032573
_publ_section_title
;
Structure prediction by ZEFSAII (Michael W. Deem and Ramdas Pophale) SiO2 
 PCOD9032573
Probable space group: P -1
;
_chemical_formula_sum "Si O2"
_cell_formula_units_Z 14
_cell_length_a 10.360605
_cell_length_b 5.576092
_cell_length_c 21.274151
_cell_angle_alpha 108.083983
_cell_angle_beta 145.369199
_cell_angle_gamma 93.576034
_cell_volume 536.913240
_symmetry_space_group_name_H-M "P -1"
_symmetry_group_IT_number 2
_symmetry_cell_setting 'triclinic'
loop_
_space_group_symop_operation_xyz
x,y,z
-x,-y,-z
loop_
_atom_site_type_symbol
_atom_site_label
_atom_site_fract_x
_atom_site_fract_y
_atom_site_fract_z
Si Si1 0.689770 0.904246 0.379931
Si Si2 0.155262 0.246551 0.287258
Si Si3 0.838073 0.656399 0.935541
Si Si4 0.358938 0.099263 0.030902
Si Si5 0.289626 0.655762 0.492641
Si Si6 0.764053 0.648455 0.165634
Si Si7 0.723668 0.083348 0.274224
O O1 0.432372 0.552983 0.234527
O O2 0.655064 0.018629 0.441706
O O3 0.658766 0.066014 0.319834
O O4 0.000000 0.000000 0.500000
O O5 0.235466 0.526688 0.389458
O O6 0.438067 0.325094 0.376403
O O7 0.020490 0.924778 0.248359
O O8 0.917659 0.174848 0.137345
O O9 0.731191 0.686075 0.962468
O O10 0.000000 0.500000 0.000000
O O11 0.000000 0.000000 0.000000
O O12 0.647250 0.316536 0.124640
O O13 0.458893 0.002626 0.121594
O O14 0.006967 0.416303 0.398423
O O15 0.785856 0.848309 0.250904
O O16 0.500000 0.500000 0.000000
#
# Coordination Sequence:
#
# PCOD9032573 Si02
#       7
#     2   2   2   2   2   2   2
#     4  12  26  47  74 109 151 201 252 313 392 479
#     4   9  21  42  71 106 145 193 251 313 378 451
#     4  12  27  47  77 115 155 201 254 327 393 455
#     4  11  22  43  73 104 143 192 257 316 377 450
#     4  10  22  43  72 103 151 194 244 309 380 463
#     4   9  20  39  68  99 141 182 247 307 369 445
#     4  11  23  43  72 106 142 195 256 311 380 457
#
# _framework density 26.074974999999998
#
# number of rings (size 3 to 8) (size 9 to 14) (size 15 to 20)
#    0.000    1.429    1.429    3.000    0.000    7.429 
#    0.000    0.714    6.286    0.000    0.000    0.000 
#    0.000    0.000    0.000    0.000    0.000    0.000 
#
# Total GULP energy -78246.926470 kJ/mol
# GULP energy per Si atom -5589.066176 kJ/mol
# Density = 2.601563 g / cm^3
# Si number density = 26.074975 Si / 1000 Ang^3
#
#
#
# Elastic Constant Matrix: (Units=GPa)
#
#
# Indices 1 2 3 4 5 6 
#
# 1 92.8096 33.1892 54.7044 -3.6352 3.1289 -24.8305
# 2 33.1892 60.8113 62.5606 -8.3361 -2.8532 -0.3396
# 3 54.7044 62.5606 202.1941 2.1277 -1.9550 -23.5351
# 4 -3.6352 -8.3361 2.1277 52.0888 -5.8471 -4.2279
# 5 3.1289 -2.8532 -1.9550 -5.8471 40.5596 6.0113
# 6 -24.8305 -0.3396 -23.5351 -4.2279 6.0113 48.4987
#
#
#
# Elastic Compliance Matrix: (Units=1/GPa)
#
#
# Indices 1 2 3 4 5 6 
#
# 1 0.016627 -0.008034 -0.001074 0.000247 -0.003100 0.008341
# 2 -0.008034 0.029766 -0.007962 0.004350 0.004128 -0.007901
# 3 -0.001074 -0.007962 0.008091 -0.001502 -0.000791 0.003288
# 4 0.000247 0.004350 -0.001502 0.020380 0.003030 0.000830
# 5 -0.003100 0.004128 -0.000791 0.003030 0.026315 -0.004940
# 6 0.008341 -0.007901 0.003288 0.000830 -0.004940 0.027114
#
#
# Mechanical properties :
#
#
# Convention : Reuss Voigt Hill
#
# Bulk Modulus (GPa) = 49.15729 72.96927 61.06328
# Shear Modulus (GPa) = 29.54835 41.92013 35.73424
#
# Velocity S-wave (km/s) = 3.36997 4.01393 3.70596
# Velocity P-wave (km/s) = 5.83399 7.03757 6.46385
#
# Compressibility (1/GPa) = 0.02034286
#
# Stress axis : x y z
#
# Youngs Moduli (GPa) = 60.14385 33.59564 123.60007
#
# Poissons Ratio (x) = 0.26992 0.13278
# Poissons Ratio (y) = 0.48321 0.98406
# Poissons Ratio (z) = 0.06461 0.26748
#
# Static dielectric constant tensor:
#      x y z
#    x 2.123030 -0.005310 -0.005740 
#    y -0.005310 2.142820 -0.053540 
#    z -0.005740 -0.053540 2.039220 
# 
# From -- ./inp_files/609227.got.cif
#   From: 2010.05.17/outbox.cif.g08.bks.cpg/sg2_305_cif.got.tgz:609227.got - 2010.06.03 11:33:40.
