data_PCOD9032746
_publ_section_title
;
Structure prediction by ZEFSAII (Michael W. Deem and Ramdas Pophale) SiO2 
 PCOD9032746
Probable space group: P -1
;
_chemical_formula_sum "Si O2"
_cell_formula_units_Z 14
_cell_length_a 15.658417
_cell_length_b 14.329237
_cell_length_c 5.479516
_cell_angle_alpha 124.336243
_cell_angle_beta 107.637536
_cell_angle_gamma 39.995399
_cell_volume 632.898463
_symmetry_space_group_name_H-M "P -1"
_symmetry_group_IT_number 2
_symmetry_cell_setting 'triclinic'
loop_
_space_group_symop_operation_xyz
x,y,z
-x,-y,-z
loop_
_atom_site_type_symbol
_atom_site_label
_atom_site_fract_x
_atom_site_fract_y
_atom_site_fract_z
Si Si1 0.418696 0.549454 0.251699
Si Si2 0.722862 0.542039 0.140026
Si Si3 0.877263 0.111557 0.367696
Si Si4 0.957558 0.232372 0.264691
Si Si5 0.858688 0.754072 0.682551
Si Si6 0.416879 0.092041 0.313909
Si Si7 0.951703 0.450368 0.060936
O O1 0.500000 0.500000 0.500000
O O2 0.272169 0.753341 0.444503
O O3 0.500000 0.500000 0.000000
O O4 0.375643 0.459380 0.052115
O O5 0.836398 0.381658 0.189961
O O6 0.640659 0.724100 0.455709
O O7 0.822519 0.498357 0.950730
O O8 0.887880 0.217177 0.379030
O O9 0.000000 0.000000 0.500000
O O10 0.921460 0.963677 0.024750
O O11 0.048960 0.257350 0.436977
O O12 0.696187 0.901705 0.761539
O O13 0.886501 0.594150 0.427516
O O14 0.921376 0.729590 0.961965
O O15 0.500000 0.000000 0.500000
O O16 0.500000 0.000000 0.000000
O O17 0.000000 0.500000 0.000000
#
# Coordination Sequence:
#
# PCOD9032746 Si02
#       7
#     2   2   2   2   2   2   2
#     4  12  28  48  73 110 152 201 251 303 379 456
#     4  10  23  47  72 104 141 198 242 306 377 438
#     4  11  24  44  71 105 143 185 256 316 360 431
#     4  10  22  43  74 102 140 186 249 318 377 426
#     4   9  21  38  61  99 129 176 233 291 361 435
#     4  11  27  47  68 102 152 196 242 298 374 461
#     4   9  19  36  67 100 127 164 233 302 354 425
#
# _framework density 22.120453999999999
#
# number of rings (size 3 to 8) (size 9 to 14) (size 15 to 20)
#    0.000    1.714    1.429    1.714    8.000    4.571 
#    2.571    0.000    0.000    0.000    0.000    0.000 
#    0.000    0.000    0.000    0.000    0.000    0.000 
#
# Total GULP energy -77990.924871 kJ/mol
# GULP energy per Si atom -5570.780348 kJ/mol
# Density = 2.207011 g / cm^3
# Si number density = 22.120454 Si / 1000 Ang^3
#
#
#
# Elastic Constant Matrix: (Units=GPa)
#
#
# Indices 1 2 3 4 5 6 
#
# 1 181.6631 66.6502 56.4489 -11.5171 -0.5379 -21.0539
# 2 66.6502 116.3054 51.6495 -6.7379 -14.1193 -13.2753
# 3 56.4489 51.6495 109.8712 13.3947 5.9568 -11.5402
# 4 -11.5171 -6.7379 13.3947 39.4215 1.8839 5.5892
# 5 -0.5379 -14.1193 5.9568 1.8839 53.5715 1.9050
# 6 -21.0539 -13.2753 -11.5402 5.5892 1.9050 42.0767
#
#
#
# Elastic Compliance Matrix: (Units=1/GPa)
#
#
# Indices 1 2 3 4 5 6 
#
# 1 0.007809 -0.003000 -0.002664 0.002427 -0.000570 0.001934
# 2 -0.003000 0.013372 -0.005237 0.002898 0.003949 0.000718
# 3 -0.002664 -0.005237 0.014085 -0.006592 -0.002808 0.001881
# 4 0.002427 0.002898 -0.006592 0.029292 0.000619 -0.003598
# 5 -0.000570 0.003949 -0.002808 0.000619 0.020021 -0.000798
# 6 0.001934 0.000718 0.001881 -0.003598 -0.000798 0.025990
#
#
# Mechanical properties :
#
#
# Convention : Reuss Voigt Hill
#
# Bulk Modulus (GPa) = 74.26384 84.14854 79.20619
# Shear Modulus (GPa) = 36.53395 42.55334 39.54365
#
# Velocity S-wave (km/s) = 4.06839 4.39077 4.23265
# Velocity P-wave (km/s) = 7.46421 7.98929 7.73121
#
# Compressibility (1/GPa) = 0.01346550
#
# Stress axis : x y z
#
# Youngs Moduli (GPa) = 128.04953 74.78229 70.99638
#
# Poissons Ratio (x) = 0.22437 0.18911
# Poissons Ratio (y) = 0.38419 0.37178
# Poissons Ratio (z) = 0.34109 0.39161
#
# Static dielectric constant tensor:
#      x y z
#    x 1.893700 -0.022110 -0.020450 
#    y -0.022110 1.785430 0.024660 
#    z -0.020450 0.024660 2.010250 
# 
# From -- ./inp_files/98698.got.cif
#   From: 2010.05.17/outbox.cif.g08.bks.cpg/sg2_50_cif.got.tgz:98698.got - 2010.06.03 11:33:40.
