data_PCOD9032843
_publ_section_title
;
Structure prediction by ZEFSAII (Michael W. Deem and Ramdas Pophale) SiO2 
 PCOD9032843
Probable space group: P -1
;
_chemical_formula_sum "Si O2"
_cell_formula_units_Z 10
_cell_length_a 14.245154
_cell_length_b 8.852443
_cell_length_c 9.491699
_cell_angle_alpha 132.057266
_cell_angle_beta 28.120437
_cell_angle_gamma 135.987594
_cell_volume 389.660706
_symmetry_space_group_name_H-M "P -1"
_symmetry_group_IT_number 2
_symmetry_cell_setting 'triclinic'
loop_
_space_group_symop_operation_xyz
x,y,z
-x,-y,-z
loop_
_atom_site_type_symbol
_atom_site_label
_atom_site_fract_x
_atom_site_fract_y
_atom_site_fract_z
Si Si1 0.864999 0.120138 0.334004
Si Si2 0.575526 0.329395 0.710076
Si Si3 0.126554 0.038128 0.502889
Si Si4 0.311762 0.505520 0.651091
Si Si5 0.613962 0.058183 0.109094
O O1 0.794198 0.301958 0.462868
O O2 0.951711 0.157886 0.403081
O O3 0.626043 0.947127 0.571713
O O4 0.000000 0.000000 0.000000
O O5 0.601934 0.397558 0.556506
O O6 0.392484 0.090569 0.838319
O O7 0.500000 0.500000 0.000000
O O8 0.144460 0.262550 0.694283
O O9 0.000000 0.000000 0.500000
O O10 0.353850 0.064705 0.148306
O O11 0.500000 0.500000 0.500000
O O12 0.232922 0.690367 0.934948
#
# Coordination Sequence:
#
# PCOD9032843 Si02
#       5
#     2   2   2   2   2
#     4  10  24  47  73 109 150 189 247 305 366 437
#     4  10  22  43  78 106 144 196 245 297 372 437
#     4  12  27  47  72 111 151 192 249 305 367 438
#     4  12  23  44  77 107 141 196 247 301 367 434
#     4  10  24  45  78  99 153 191 248 292 376 432
#
# _framework density 25.663354000000002
#
# number of rings (size 3 to 8) (size 9 to 14) (size 15 to 20)
#    1.200    0.000    4.000    1.200    5.600    0.800 
#    0.000    1.000    0.000    0.000    0.000    0.000 
#    0.000    0.000    0.000    0.000    0.000    0.000 
#
# Total GULP energy -55773.710281 kJ/mol
# GULP energy per Si atom -5577.371028 kJ/mol
# Density = 2.560494 g / cm^3
# Si number density = 25.663354 Si / 1000 Ang^3
#
#
#
# Elastic Constant Matrix: (Units=GPa)
#
#
# Indices 1 2 3 4 5 6 
#
# 1 216.1319 30.8699 42.3044 3.2844 -8.7014 -40.8060
# 2 30.8699 98.1224 8.7866 34.3514 -3.3160 -11.4881
# 3 42.3044 8.7866 135.5907 13.0077 -12.2264 -13.8388
# 4 3.2844 34.3514 13.0077 37.3746 -6.3426 4.2517
# 5 -8.7014 -3.3160 -12.2264 -6.3426 51.9001 -6.8961
# 6 -40.8060 -11.4881 -13.8388 4.2517 -6.8961 44.1092
#
#
#
# Elastic Compliance Matrix: (Units=1/GPa)
#
#
# Indices 1 2 3 4 5 6 
#
# 1 0.006064 -0.001505 -0.001255 0.000962 0.001400 0.004950
# 2 -0.001505 0.016895 0.001455 -0.016505 -0.000179 0.005027
# 3 -0.001255 0.001455 0.008488 -0.004181 0.001710 0.002551
# 4 0.000962 -0.016505 -0.004181 0.044694 0.002435 -0.008648
# 5 0.001400 -0.000179 0.001710 0.002435 0.020830 0.004807
# 6 0.004950 0.005027 0.002551 -0.008648 0.004807 0.030945
#
#
# Mechanical properties :
#
#
# Convention : Reuss Voigt Hill
#
# Bulk Modulus (GPa) = 34.67786 68.19631 51.43709
# Shear Modulus (GPa) = 35.67871 51.20240 43.44056
#
# Velocity S-wave (km/s) = 3.73266 4.47156 4.11872
# Velocity P-wave (km/s) = 5.66736 7.30006 6.53490
#
# Compressibility (1/GPa) = 0.02883684
#
# Stress axis : x y z
#
# Youngs Moduli (GPa) = 164.91325 59.18768 117.81086
#
# Poissons Ratio (x) = 0.08909 0.14787
# Poissons Ratio (y) = 0.24823 -0.17143
# Poissons Ratio (z) = 0.20700 -0.08612
#
# Static dielectric constant tensor:
#      x y z
#    x 2.219550 0.033290 -0.143640 
#    y 0.033290 2.107990 -0.008930 
#    z -0.143640 -0.008930 2.192990 
# 
# From -- ./inp_files/232837.got.cif
#   From: 2010.05.17/outbox.cif.g08.bks.cpg/sg2_117_cif.got.tgz:232837.got - 2010.06.03 11:33:40.
