data_PCOD9032099
_publ_section_title
;
Structure prediction by ZEFSAII (Michael W. Deem and Ramdas Pophale) SiO2 
 PCOD9032099
Probable space group: P -1
;
_chemical_formula_sum "Si O2"
_cell_formula_units_Z 16
_cell_length_a 10.939584
_cell_length_b 9.112402
_cell_length_c 17.621474
_cell_angle_alpha 66.174386
_cell_angle_beta 53.085296
_cell_angle_gamma 110.066706
_cell_volume 769.401511
_symmetry_space_group_name_H-M "P -1"
_symmetry_group_IT_number 2
_symmetry_cell_setting 'triclinic'
loop_
_space_group_symop_operation_xyz
x,y,z
-x,-y,-z
loop_
_atom_site_type_symbol
_atom_site_label
_atom_site_fract_x
_atom_site_fract_y
_atom_site_fract_z
Si Si1 0.251208 0.811554 0.475065
Si Si2 0.652571 0.745806 0.665543
Si Si3 0.046868 0.724025 0.728252
Si Si4 0.260926 0.841015 0.038207
Si Si5 0.091006 0.049029 0.327482
Si Si6 0.181414 0.789345 0.835805
Si Si7 0.197209 0.815087 0.242726
Si Si8 0.063721 0.233201 0.947581
O O1 0.230985 0.815875 0.573183
O O2 0.042631 0.506500 0.592641
O O3 0.224745 0.974037 0.427474
O O4 0.524507 0.992634 0.303602
O O5 0.365119 0.516121 0.789784
O O6 0.831856 0.809168 0.524322
O O7 0.689235 0.711524 0.744163
O O8 0.157818 0.784411 0.756363
O O9 0.806269 0.403884 0.878619
O O10 0.972879 0.846997 0.719967
O O11 0.227774 0.880854 0.127407
O O12 0.068427 0.763993 0.067221
O O13 0.552744 0.080814 0.852220
O O14 0.163444 0.949964 0.275027
O O15 0.000000 0.500000 0.000000
O O16 0.076593 0.856067 0.902057
O O17 0.000000 0.000000 0.000000
#
# Coordination Sequence:
#
# PCOD9032099 Si02
#       8
#     2   2   2   2   2   2   2   2
#     4  10  22  43  69  96 134 181 220 273 331 402
#     4  10  23  46  64  99 135 175 222 276 336 389
#     4  10  22  43  69  96 134 181 220 273 331 402
#     4  10  23  46  64  99 135 175 222 276 336 389
#     4  10  24  41  70  99 134 177 224 274 326 400
#     4  12  23  42  70  99 129 180 226 269 338 403
#     4  10  24  41  70  99 134 177 224 274 326 400
#     4  12  28  42  67  96 136 171 220 290 328 393
#
# _framework density 20.795382
#
# number of rings (size 3 to 8) (size 9 to 14) (size 15 to 20)
#    0.000    1.500    2.500    0.375    7.000    9.000 
#    0.000    1.250    0.000    0.000    0.000    0.000 
#    0.000    0.000    0.000    0.000    0.000    0.000 
#
# Total GULP energy -89283.685312 kJ/mol
# GULP energy per Si atom -5580.230332 kJ/mol
# Density = 2.074805 g / cm^3
# Si number density = 20.795382 Si / 1000 Ang^3
#
#
#
# Elastic Constant Matrix: (Units=GPa)
#
#
# Indices 1 2 3 4 5 6 
#
# 1 104.3708 32.2889 56.6066 -8.6609 -21.0767 10.4463
# 2 32.2889 116.3760 46.2060 5.3278 -17.3570 -16.3693
# 3 56.6066 46.2060 121.2926 -6.4556 -33.9259 -4.0472
# 4 -8.6609 5.3278 -6.4556 23.6188 -4.9172 2.5253
# 5 -21.0767 -17.3570 -33.9259 -4.9172 34.9987 -1.1513
# 6 10.4463 -16.3693 -4.0472 2.5253 -1.1513 29.6611
#
#
#
# Elastic Compliance Matrix: (Units=1/GPa)
#
#
# Indices 1 2 3 4 5 6 
#
# 1 0.015315 -0.003271 -0.004817 0.006672 0.003596 -0.008284
# 2 -0.003271 0.012132 -0.002919 -0.005434 0.000714 0.007939
# 3 -0.004817 -0.002919 0.015019 0.005058 0.010991 0.002130
# 4 0.006672 -0.005434 0.005058 0.051033 0.013116 -0.008494
# 5 0.003596 0.000714 0.010991 0.013116 0.043629 0.001204
# 6 -0.008284 0.007939 0.002130 -0.008494 0.001204 0.042074
#
#
# Mechanical properties :
#
#
# Convention : Reuss Voigt Hill
#
# Bulk Modulus (GPa) = 48.89724 68.02693 58.46209
# Shear Modulus (GPa) = 24.03482 31.45158 27.74320
#
# Velocity S-wave (km/s) = 3.40336 3.89322 3.65650
# Velocity P-wave (km/s) = 6.24567 7.27963 6.78238
#
# Compressibility (1/GPa) = 0.02045105
#
# Stress axis : x y z
#
# Youngs Moduli (GPa) = 65.29734 82.42969 66.58243
#
# Poissons Ratio (x) = 0.26963 0.32070
# Poissons Ratio (y) = 0.21359 0.19438
# Poissons Ratio (z) = 0.31451 0.24065
#
# Static dielectric constant tensor:
#      x y z
#    x 1.810100 0.036760 0.011140 
#    y 0.036760 1.844630 0.015320 
#    z 0.011140 0.015320 1.769480 
# 
# From -- ./inp_files/566687.got.cif
#   From: 2010.05.17/outbox.cif.g08.bks.cpg/sg2_284_cif.got.tgz:566687.got - 2010.06.03 11:33:40.
