data_PCOD9032703
_publ_section_title
;
Structure prediction by ZEFSAII (Michael W. Deem and Ramdas Pophale) SiO2 
 PCOD9032703
Probable space group: P -1
;
_chemical_formula_sum "Si O2"
_cell_formula_units_Z 16
_cell_length_a 23.482846
_cell_length_b 23.720047
_cell_length_c 10.710190
_cell_angle_alpha 29.360619
_cell_angle_beta 151.462655
_cell_angle_gamma 167.751258
_cell_volume 599.620562
_symmetry_space_group_name_H-M "P -1"
_symmetry_group_IT_number 2
_symmetry_cell_setting 'triclinic'
loop_
_space_group_symop_operation_xyz
x,y,z
-x,-y,-z
loop_
_atom_site_type_symbol
_atom_site_label
_atom_site_fract_x
_atom_site_fract_y
_atom_site_fract_z
Si Si1 0.748136 0.627163 0.694693
Si Si2 0.282044 0.669554 0.716455
Si Si3 0.830037 0.924319 0.717811
Si Si4 0.741707 0.541827 0.565506
Si Si5 0.936934 0.831464 0.913413
Si Si6 0.525672 0.272136 0.269992
Si Si7 0.875664 0.414258 0.791930
Si Si8 0.568280 0.138209 0.108904
O O1 0.500000 0.500000 0.500000
O O2 0.745820 0.615318 0.563490
O O3 0.749680 0.491995 0.992964
O O4 0.985208 0.873391 0.776215
O O5 0.411975 0.767996 0.640429
O O6 0.477672 0.888008 0.781342
O O7 0.000000 0.500000 0.500000
O O8 0.969627 0.170899 0.497348
O O9 0.501257 0.632511 0.660494
O O10 0.866207 0.892046 0.716679
O O11 0.000000 0.000000 0.000000
O O12 0.658000 0.339859 0.834393
O O13 0.687130 0.528017 0.050427
O O14 0.205256 0.019516 0.138810
O O15 0.660425 0.331401 0.534948
O O16 0.142004 0.677165 0.711925
O O17 0.694806 0.148531 0.909094
O O18 0.000000 0.500000 0.000000
#
# Coordination Sequence:
#
# PCOD9032703 Si02
#       8
#     2   2   2   2   2   2   2   2
#     4  10  22  43  73 108 148 189 242 300 380 445
#     4  10  22  43  73 108 148 189 242 300 380 445
#     4  12  26  45  70 100 140 191 248 294 362 432
#     4  11  25  45  71 104 142 184 235 307 367 437
#     4  11  25  44  69 102 141 187 238 301 366 438
#     4  11  25  44  69 102 141 187 238 301 366 438
#     4  12  26  45  70 100 140 191 248 294 362 432
#     4  11  25  45  71 104 142 184 235 307 367 437
#
# _framework density 26.683541000000002
#
# number of rings (size 3 to 8) (size 9 to 14) (size 15 to 20)
#    0.000    1.000    2.500    3.000    3.500   10.000 
#    0.000    0.000    0.000    0.000    0.000    0.000 
#    0.000    0.000    0.000    0.000    0.000    0.000 
#
# Total GULP energy -89556.835762 kJ/mol
# GULP energy per Si atom -5597.302235 kJ/mol
# Density = 2.662281 g / cm^3
# Si number density = 26.683541 Si / 1000 Ang^3
#
#
#
# Elastic Constant Matrix: (Units=GPa)
#
#
# Indices 1 2 3 4 5 6 
#
# 1 111.7524 48.1892 15.1842 1.3889 0.8914 -19.1310
# 2 48.1892 136.7661 37.5073 0.5419 -0.9977 -31.3400
# 3 15.1842 37.5073 127.6062 0.7528 3.5855 -19.0791
# 4 1.3889 0.5419 0.7528 52.6407 -6.5059 2.8644
# 5 0.8914 -0.9977 3.5855 -6.5059 44.0507 11.9427
# 6 -19.1310 -31.3400 -19.0791 2.8644 11.9427 40.2730
#
#
#
# Elastic Compliance Matrix: (Units=1/GPa)
#
#
# Indices 1 2 3 4 5 6 
#
# 1 0.010845 -0.003136 0.000148 -0.000585 -0.001255 0.003195
# 2 -0.003136 0.010277 -0.001692 -0.000493 -0.001300 0.006127
# 3 0.000148 -0.001692 0.008900 -0.000529 -0.001804 0.003542
# 4 -0.000585 -0.000493 -0.000529 0.019695 0.003893 -0.003467
# 5 -0.001255 -0.001300 -0.001804 0.003893 0.026274 -0.010531
# 6 0.003195 0.006127 0.003542 -0.003467 -0.010531 0.036163
#
#
# Mechanical properties :
#
#
# Convention : Reuss Voigt Hill
#
# Bulk Modulus (GPa) = 48.40149 64.20956 56.30553
# Shear Modulus (GPa) = 38.94006 45.74248 42.34127
#
# Velocity S-wave (km/s) = 3.82426 4.14485 3.98778
# Velocity P-wave (km/s) = 6.13827 6.85726 6.50770
#
# Compressibility (1/GPa) = 0.02066052
#
# Stress axis : x y z
#
# Youngs Moduli (GPa) = 92.20875 97.30140 112.36139
#
# Poissons Ratio (x) = 0.30519 -0.01661
# Poissons Ratio (y) = 0.28921 0.19013
# Poissons Ratio (z) = -0.01363 0.16465
#
# Static dielectric constant tensor:
#      x y z
#    x 2.172250 0.025830 0.033400 
#    y 0.025830 2.045190 0.009860 
#    z 0.033400 0.009860 2.159940 
# 
# From -- ./inp_files/477207.got.cif
#   From: 2010.05.17/outbox.cif.g08.bks.cpg/sg2_239_cif.got.tgz:477207.got - 2010.06.03 11:33:40.
