data_PCOD9032741
_publ_section_title
;
Structure prediction by ZEFSAII (Michael W. Deem and Ramdas Pophale) SiO2 
 PCOD9032741
Probable space group: P -1
;
_chemical_formula_sum "Si O2"
_cell_formula_units_Z 12
_cell_length_a 18.981514
_cell_length_b 13.574801
_cell_length_c 15.935724
_cell_angle_alpha 159.417092
_cell_angle_beta 21.026186
_cell_angle_gamma 155.845962
_cell_volume 493.075978
_symmetry_space_group_name_H-M "P -1"
_symmetry_group_IT_number 2
_symmetry_cell_setting 'triclinic'
loop_
_space_group_symop_operation_xyz
x,y,z
-x,-y,-z
loop_
_atom_site_type_symbol
_atom_site_label
_atom_site_fract_x
_atom_site_fract_y
_atom_site_fract_z
Si Si1 0.839343 0.670689 0.592133
Si Si2 0.550006 0.450215 0.576001
Si Si3 0.866413 0.710611 0.016006
Si Si4 0.496674 0.831140 0.204921
Si Si5 0.082287 0.219099 0.664719
Si Si6 0.778975 0.776491 0.976168
O O1 0.714587 0.547951 0.547022
O O2 0.971618 0.468714 0.315548
O O3 0.659160 0.692862 0.870366
O O4 0.998668 0.992765 0.652576
O O5 0.674423 0.627270 0.500478
O O6 0.492690 0.096828 0.361745
O O7 0.328366 0.484287 0.870335
O O8 0.786230 0.791008 0.080382
O O9 0.006893 0.027062 0.145101
O O10 0.606536 0.905599 0.231666
O O11 0.286583 0.572491 0.243580
O O12 0.000000 0.000000 0.500000
O O13 0.000000 0.500000 0.000000
#
# Coordination Sequence:
#
# PCOD9032741 Si02
#       6
#     2   2   2   2   2   2
#     4  11  23  43  67  97 135 174 228 281 350 401
#     4  11  23  43  67  97 135 174 228 281 350 401
#     4  11  24  41  66  98 138 175 226 283 340 404
#     4  11  22  41  70  90 132 185 228 271 344 410
#     4  10  22  43  74 101 135 182 229 285 358 419
#     4  10  24  40  62 100 132 182 226 276 335 409
#
# _framework density 24.337019999999999
#
# number of rings (size 3 to 8) (size 9 to 14) (size 15 to 20)
#    0.000    1.333    5.000    0.000    0.000   10.000 
#    0.000    0.000    0.000    6.000    0.000    0.000 
#    0.000    0.000    0.000    0.000    0.000    0.000 
#
# Total GULP energy -66989.991152 kJ/mol
# GULP energy per Si atom -5582.499263 kJ/mol
# Density = 2.428163 g / cm^3
# Si number density = 24.337020 Si / 1000 Ang^3
#
#
#
# Elastic Constant Matrix: (Units=GPa)
#
#
# Indices 1 2 3 4 5 6 
#
# 1 36.1788 21.0623 6.9886 0.2801 0.7023 5.7207
# 2 21.0623 183.8777 21.0927 3.9746 5.5000 -15.7609
# 3 6.9886 21.0927 110.5449 0.5783 -2.3148 -4.6293
# 4 0.2801 3.9746 0.5783 37.6322 -10.0495 -0.1724
# 5 0.7023 5.5000 -2.3148 -10.0495 21.8650 -4.8873
# 6 5.7207 -15.7609 -4.6293 -0.1724 -4.8873 35.8390
#
#
#
# Elastic Compliance Matrix: (Units=1/GPa)
#
#
# Indices 1 2 3 4 5 6 
#
# 1 0.031444 -0.003976 -0.001571 -0.000345 -0.001952 -0.007239
# 2 -0.003976 0.006318 -0.000845 -0.000955 -0.001292 0.003123
# 3 -0.001571 -0.000845 0.009397 0.000431 0.001754 0.001334
# 4 -0.000345 -0.000955 0.000431 0.030628 0.014788 0.001854
# 5 -0.001952 -0.001292 0.001754 0.014788 0.054785 0.007512
# 6 -0.007239 0.003123 0.001334 0.001854 0.007512 0.031637
#
#
# Mechanical properties :
#
#
# Convention : Reuss Voigt Hill
#
# Bulk Modulus (GPa) = 29.09254 47.65428 38.37341
# Shear Modulus (GPa) = 26.53201 37.83112 32.18156
#
# Velocity S-wave (km/s) = 3.30539 3.94695 3.64033
# Velocity P-wave (km/s) = 5.15242 6.35568 5.78542
#
# Compressibility (1/GPa) = 0.03437307
#
# Stress axis : x y z
#
# Youngs Moduli (GPa) = 31.80260 158.28291 106.41586
#
# Poissons Ratio (x) = 0.62935 0.16722
# Poissons Ratio (y) = 0.12645 0.08996
# Poissons Ratio (z) = 0.04998 0.13381
#
# Static dielectric constant tensor:
#      x y z
#    x 2.110130 0.084640 0.103250 
#    y 0.084640 1.959560 0.032230 
#    z 0.103250 0.032230 1.982410 
# 
# From -- ./inp_files/33466.got.cif
#   From: 2010.05.17/outbox.cif.g08.bks.cpg/sg2_17_cif.got.tgz:33466.got - 2010.06.03 11:33:40.
