data_PCOD9032483
_publ_section_title
;
Structure prediction by ZEFSAII (Michael W. Deem and Ramdas Pophale) SiO2 
 PCOD9032483
Probable space group: P -1
;
_chemical_formula_sum "Si O2"
_cell_formula_units_Z 13
_cell_length_a 6.930585
_cell_length_b 9.815113
_cell_length_c 14.839331
_cell_angle_alpha 60.795231
_cell_angle_beta 76.219511
_cell_angle_gamma 119.576070
_cell_volume 594.478635
_symmetry_space_group_name_H-M "P -1"
_symmetry_group_IT_number 2
_symmetry_cell_setting 'triclinic'
loop_
_space_group_symop_operation_xyz
x,y,z
-x,-y,-z
loop_
_atom_site_type_symbol
_atom_site_label
_atom_site_fract_x
_atom_site_fract_y
_atom_site_fract_z
Si Si1 0.076335 0.176019 0.362284
Si Si2 0.991876 0.949024 0.151012
Si Si3 0.823216 0.621130 0.416037
Si Si4 0.000000 0.500000 0.000000
Si Si5 0.770778 0.066557 0.257888
Si Si6 0.267584 0.371632 0.889080
Si Si7 0.162968 0.719733 0.519797
O O1 0.411314 0.399073 0.245703
O O2 0.947682 0.072725 0.311805
O O3 0.912496 0.237176 0.394724
O O4 0.000000 0.000000 0.500000
O O5 0.753305 0.939524 0.215089
O O6 0.250611 0.211425 0.010957
O O7 0.024885 0.849480 0.262321
O O8 0.891530 0.788900 0.129346
O O9 0.500000 0.500000 0.500000
O O10 0.828253 0.460386 0.415063
O O11 0.933402 0.645681 0.495416
O O12 0.926396 0.312297 0.134844
O O13 0.883083 0.565341 0.068555
O O14 0.464880 0.934566 0.374091
#
# Coordination Sequence:
#
# PCOD9032483 Si02
#       7
#     2   2   2   1   2   2   2
#     4  12  26  42  69 102 141 187 233 290 347 417
#     4  10  22  43  71  95 136 184 223 291 339 407
#     4  11  22  41  70 100 140 178 227 294 340 404
#     4  10  24  44  66  96 136 178 228 288 344 424
#     4  11  24  43  67 100 141 180 229 286 349 415
#     4  10  24  44  69  99 134 183 234 281 354 409
#     4  11  25  40  67 106 134 182 233 275 351 414
#
# _framework density 21.867899000000001
#
# number of rings (size 3 to 8) (size 9 to 14) (size 15 to 20)
#    0.000    1.231    1.538    3.231    6.462    3.692 
#    0.000    0.769    0.000    0.000    0.000    0.000 
#    0.000    0.000    0.000    0.000    0.000    0.000 
#
# Total GULP energy -72377.288427 kJ/mol
# GULP energy per Si atom -5567.483725 kJ/mol
# Density = 2.181813 g / cm^3
# Si number density = 21.867899 Si / 1000 Ang^3
#
#
#
# Elastic Constant Matrix: (Units=GPa)
#
#
# Indices 1 2 3 4 5 6 
#
# 1 84.3319 48.6621 48.8758 -9.1905 9.2877 -21.9250
# 2 48.6621 118.5188 52.3054 18.8751 -13.4071 -35.5263
# 3 48.8758 52.3054 140.2327 -5.2892 12.9579 -12.1872
# 4 -9.1905 18.8751 -5.2892 26.6986 -11.1984 -17.2704
# 5 9.2877 -13.4071 12.9579 -11.1984 41.4187 -4.7420
# 6 -21.9250 -35.5263 -12.1872 -17.2704 -4.7420 25.0406
#
#
#
# Elastic Compliance Matrix: (Units=1/GPa)
#
#
# Indices 1 2 3 4 5 6 
#
# 1 0.177202 0.065416 -0.034700 0.465482 0.185378 0.587218
# 2 0.065416 0.052744 -0.019203 0.203357 0.095578 0.281114
# 3 -0.034700 -0.019203 0.016466 -0.089725 -0.041511 -0.119356
# 4 0.465482 0.203357 -0.089725 1.370148 0.554879 1.702467
# 5 0.185378 0.095578 -0.041511 0.554879 0.257720 0.709211
# 6 0.587218 0.281114 -0.119356 1.702467 0.709211 2.203311
#
#
# Mechanical properties :
#
#
# Convention : Reuss Voigt Hill
#
# Bulk Modulus (GPa) = 3.71145 71.41892 37.56518
# Shear Modulus (GPa) = 1.20645 31.51426 16.36036
#
# Velocity S-wave (km/s) = 0.74357 3.80033 2.73819
# Velocity P-wave (km/s) = 1.56144 7.21019 5.21655
#
# Compressibility (1/GPa) = 0.26943672
#
# Stress axis : x y z
#
# Youngs Moduli (GPa) = 5.64329 18.95954 60.72977
#
# Poissons Ratio (x) = -1.24025 2.10730
# Poissons Ratio (y) = -0.36916 1.16622
# Poissons Ratio (z) = 0.19582 0.36409
#
# Static dielectric constant tensor:
#      x y z
#    x 1.792600 0.016800 0.030800 
#    y 0.016800 1.886460 0.052460 
#    z 0.030800 0.052460 1.864540 
# 
# From -- ./inp_files/35813.got.cif
#   From: 2010.05.17/outbox.cif.g08.bks.cpg/sg2_18_cif.got.tgz:35813.got - 2010.06.03 11:33:40.
