data_PCOD9032298
_publ_section_title
;
Structure prediction by ZEFSAII (Michael W. Deem and Ramdas Pophale) SiO2 
 PCOD9032298
Probable space group: P -1
;
_chemical_formula_sum "Si O2"
_cell_formula_units_Z 16
_cell_length_a 9.355263
_cell_length_b 17.850138
_cell_length_c 8.294725
_cell_angle_alpha 121.322872
_cell_angle_beta 68.793871
_cell_angle_gamma 69.828273
_cell_volume 819.822121
_symmetry_space_group_name_H-M "P -1"
_symmetry_group_IT_number 2
_symmetry_cell_setting 'triclinic'
loop_
_space_group_symop_operation_xyz
x,y,z
-x,-y,-z
loop_
_atom_site_type_symbol
_atom_site_label
_atom_site_fract_x
_atom_site_fract_y
_atom_site_fract_z
Si Si1 0.511447 0.674178 0.983875
Si Si2 0.108020 0.547614 0.567895
Si Si3 0.961436 0.420739 0.005762
Si Si4 0.474484 0.207582 0.204748
Si Si5 0.720922 0.381874 0.842691
Si Si6 0.583769 0.752677 0.371081
Si Si7 0.896992 0.776046 0.729705
Si Si8 0.200519 0.985343 0.921377
O O1 0.679908 0.537310 0.709567
O O2 0.506602 0.742768 0.910604
O O3 0.309927 0.695336 0.129159
O O4 0.571955 0.695869 0.154398
O O5 0.134167 0.532025 0.728062
O O6 0.000000 0.500000 0.500000
O O7 0.968051 0.684227 0.739937
O O8 0.811359 0.423255 0.961260
O O9 0.000000 0.500000 0.000000
O O10 0.190368 0.290748 0.779278
O O11 0.428689 0.278019 0.471087
O O12 0.293184 0.204514 0.253056
O O13 0.687558 0.078752 0.024660
O O14 0.898727 0.296917 0.544886
O O15 0.500000 0.500000 0.000000
O O16 0.379142 0.891060 0.613826
O O17 0.843609 0.894818 0.934736
O O18 0.000000 0.000000 0.000000
#
# Coordination Sequence:
#
# PCOD9032298 Si02
#       8
#     2   2   2   2   2   2   2   2
#     4  12  23  44  67 106 141 173 230 286 348 402
#     4  12  23  40  71 102 138 179 225 284 341 416
#     4  12  23  41  66  97 138 182 230 278 342 415
#     4  10  23  42  74  98 129 188 230 275 339 412
#     4  12  25  40  63 102 140 178 222 285 347 406
#     4  10  22  43  70  95 130 184 227 273 340 405
#     4  12  22  46  69  99 140 181 229 277 340 417
#     4  10  24  44  69  98 136 183 228 288 344 392
#
# _framework density 19.51643
#
# number of rings (size 3 to 8) (size 9 to 14) (size 15 to 20)
#    0.750    0.000    5.000    3.375    0.000    1.500 
#    0.000    6.250    0.000    0.000    0.000    0.000 
#    0.000    0.000    0.000    0.000    0.000    0.000 
#
# Total GULP energy -89167.016018 kJ/mol
# GULP energy per Si atom -5572.938501 kJ/mol
# Density = 1.947201 g / cm^3
# Si number density = 19.516430 Si / 1000 Ang^3
#
#
#
# Elastic Constant Matrix: (Units=GPa)
#
#
# Indices 1 2 3 4 5 6 
#
# 1 129.3394 55.2959 60.9054 3.9331 -7.0737 2.4173
# 2 55.2959 120.0561 59.6274 5.1609 4.9392 5.1285
# 3 60.9054 59.6274 126.8283 -4.4373 5.9886 -9.7095
# 4 3.9331 5.1609 -4.4373 37.6308 -4.1867 -6.7629
# 5 -7.0737 4.9392 5.9886 -4.1867 33.7385 -4.6895
# 6 2.4173 5.1285 -9.7095 -6.7629 -4.6895 25.4309
#
#
#
# Elastic Compliance Matrix: (Units=1/GPa)
#
#
# Indices 1 2 3 4 5 6 
#
# 1 0.011330 -0.003061 -0.004339 -0.001258 0.003179 -0.001865
# 2 -0.003061 0.012660 -0.004888 -0.003297 -0.002804 -0.005522
# 3 -0.004339 -0.004888 0.012999 0.003835 -0.001026 0.007192
# 4 -0.001258 -0.003297 0.003835 0.030153 0.004831 0.011158
# 5 0.003179 -0.002804 -0.001026 0.004831 0.032492 0.007148
# 6 -0.001865 -0.005522 0.007192 0.011158 0.007148 0.047644
#
#
# Mechanical properties :
#
#
# Convention : Reuss Voigt Hill
#
# Bulk Modulus (GPa) = 80.54923 80.87568 80.71245
# Shear Modulus (GPa) = 28.41058 32.71973 30.56516
#
# Velocity S-wave (km/s) = 3.81954 4.09898 3.96172
# Velocity P-wave (km/s) = 7.79833 7.99574 7.89765
#
# Compressibility (1/GPa) = 0.01241477
#
# Stress axis : x y z
#
# Youngs Moduli (GPa) = 88.25999 78.99099 76.92625
#
# Poissons Ratio (x) = 0.24176 0.33377
# Poissons Ratio (y) = 0.27013 0.37600
# Poissons Ratio (z) = 0.38295 0.38609
#
# Static dielectric constant tensor:
#      x y z
#    x 1.684280 -0.017460 -0.026130 
#    y -0.017460 1.716400 0.017920 
#    z -0.026130 0.017920 1.692470 
# 
# From -- ./inp_files/218555.got.cif
#   From: 2010.05.17/outbox.cif.g08.bks.cpg/sg2_110_cif.got.tgz:218555.got - 2010.06.03 11:33:40.
