data_PCOD9032322
_publ_section_title
;
Structure prediction by ZEFSAII (Michael W. Deem and Ramdas Pophale) SiO2 
 PCOD9032322
Probable space group: P -1
;
_chemical_formula_sum "Si O2"
_cell_formula_units_Z 12
_cell_length_a 12.914320
_cell_length_b 4.931222
_cell_length_c 9.387454
_cell_angle_alpha 81.561627
_cell_angle_beta 74.310045
_cell_angle_gamma 107.192117
_cell_volume 532.871930
_symmetry_space_group_name_H-M "P -1"
_symmetry_group_IT_number 2
_symmetry_cell_setting 'triclinic'
loop_
_space_group_symop_operation_xyz
x,y,z
-x,-y,-z
loop_
_atom_site_type_symbol
_atom_site_label
_atom_site_fract_x
_atom_site_fract_y
_atom_site_fract_z
Si Si1 0.619085 0.059848 0.101030
Si Si2 0.123920 0.849743 0.345644
Si Si3 0.540535 0.758134 0.662997
Si Si4 0.865250 0.679776 0.458990
Si Si5 0.674249 0.770510 0.342816
Si Si6 0.666948 0.672954 0.890336
O O1 0.509017 0.037987 0.240771
O O2 0.706854 0.004826 0.185851
O O3 0.664088 0.373995 0.984990
O O4 0.595535 0.813277 0.008512
O O5 0.169819 0.595610 0.398685
O O6 0.992202 0.710761 0.355088
O O7 0.122292 0.035176 0.473674
O O8 0.207959 0.076259 0.188224
O O9 0.621330 0.887141 0.488323
O O10 0.429084 0.502882 0.663388
O O11 0.614547 0.644799 0.754350
O O12 0.773982 0.666590 0.372835
#
# Coordination Sequence:
#
# PCOD9032322 Si02
#       6
#     2   2   2   2   2   2
#     4  12  26  44  62 100 139 178 210 271 327 395
#     4  10  22  43  70  98 124 170 224 267 326 382
#     4  11  25  43  67  97 132 182 219 267 319 391
#     4  10  22  43  70  97 128 165 222 280 313 385
#     4  11  25  43  68 100 135 169 224 271 332 377
#     4  12  25  43  69  95 136 175 223 259 330 397
#
# _framework density 22.519483000000001
#
# number of rings (size 3 to 8) (size 9 to 14) (size 15 to 20)
#    0.000    1.000    3.333    2.500    4.667    1.333 
#    0.000    1.667    0.000    0.000    0.000    0.000 
#    0.000    0.000    0.000    0.000    0.000    0.000 
#
# Total GULP energy -67166.971674 kJ/mol
# GULP energy per Si atom -5597.247640 kJ/mol
# Density = 2.246823 g / cm^3
# Si number density = 22.519483 Si / 1000 Ang^3
#
#
#
# Elastic Constant Matrix: (Units=GPa)
#
#
# Indices 1 2 3 4 5 6 
#
# 1 129.8986 28.0614 55.4390 -16.7826 31.4665 0.0727
# 2 28.0614 89.7665 33.8653 -14.7537 20.1351 -8.7037
# 3 55.4390 33.8653 123.0339 -10.4524 32.8993 7.3293
# 4 -16.7826 -14.7537 -10.4524 42.9097 -8.1826 2.0525
# 5 31.4665 20.1351 32.8993 -8.1826 39.3288 -7.7051
# 6 0.0727 -8.7037 7.3293 2.0525 -7.7051 23.6230
#
#
#
# Elastic Compliance Matrix: (Units=1/GPa)
#
#
# Indices 1 2 3 4 5 6 
#
# 1 0.010734 -0.000800 -0.002832 0.002229 -0.005636 -0.001481
# 2 -0.000800 0.014025 -0.002854 0.003093 -0.002538 0.004959
# 3 -0.002832 -0.002854 0.012972 -0.000213 -0.008715 -0.007891
# 4 0.002229 0.003093 -0.000213 0.025599 0.002069 -0.000351
# 5 -0.005636 -0.002538 -0.008715 0.002069 0.041951 0.015290
# 6 -0.001481 0.004959 -0.007891 -0.000351 0.015290 0.051629
#
#
# Mechanical properties :
#
#
# Convention : Reuss Voigt Hill
#
# Bulk Modulus (GPa) = 40.38924 64.15892 52.27408
# Shear Modulus (GPa) = 28.06860 36.19451 32.13155
#
# Velocity S-wave (km/s) = 3.53429 4.01341 3.78144
# Velocity P-wave (km/s) = 5.88465 7.07311 6.50607
#
# Compressibility (1/GPa) = 0.02475907
#
# Stress axis : x y z
#
# Youngs Moduli (GPa) = 93.16360 71.29997 77.09119
#
# Poissons Ratio (x) = 0.05705 0.21830
# Poissons Ratio (y) = 0.07455 0.22001
# Poissons Ratio (z) = 0.26381 0.20348
#
# Static dielectric constant tensor:
#      x y z
#    x 1.884930 -0.015720 -0.019930 
#    y -0.015720 1.862270 -0.010510 
#    z -0.019930 -0.010510 1.843890 
# 
# From -- ./inp_files/19479.got.cif
#   From: 2010.05.17/outbox.cif.g08.bks.cpg/sg2_10_cif.got.tgz:19479.got - 2010.06.03 11:33:40.
