data_PCOD9032749
_publ_section_title
;
Structure prediction by ZEFSAII (Michael W. Deem and Ramdas Pophale) SiO2 
 PCOD9032749
Probable space group: P -1
;
_chemical_formula_sum "Si O2"
_cell_formula_units_Z 14
_cell_length_a 18.626259
_cell_length_b 14.070993
_cell_length_c 7.071644
_cell_angle_alpha 51.873288
_cell_angle_beta 138.927688
_cell_angle_gamma 151.168764
_cell_volume 581.776360
_symmetry_space_group_name_H-M "P -1"
_symmetry_group_IT_number 2
_symmetry_cell_setting 'triclinic'
loop_
_space_group_symop_operation_xyz
x,y,z
-x,-y,-z
loop_
_atom_site_type_symbol
_atom_site_label
_atom_site_fract_x
_atom_site_fract_y
_atom_site_fract_z
Si Si1 0.930477 0.998515 0.619640
Si Si2 0.828179 0.299287 0.019356
Si Si3 0.225711 0.962791 0.045103
Si Si4 0.333812 0.400481 0.915659
Si Si5 0.048386 0.766495 0.335376
Si Si6 0.309997 0.444184 0.215684
Si Si7 0.396849 0.660246 0.479281
O O1 0.853994 0.836274 0.152200
O O2 0.812618 0.774517 0.683723
O O3 0.899150 0.066803 0.644896
O O4 0.871722 0.017584 0.291168
O O5 0.885193 0.287496 0.343514
O O6 0.690609 0.287411 0.791221
O O7 0.000000 0.500000 0.000000
O O8 0.750264 0.126443 0.942468
O O9 0.418542 0.169803 0.251177
O O10 0.118999 0.830302 0.183642
O O11 0.272034 0.468792 0.602067
O O12 0.500000 0.500000 0.000000
O O13 0.407337 0.486969 0.166510
O O14 0.833969 0.584977 0.113016
O O15 0.419039 0.607201 0.393435
#
# Coordination Sequence:
#
# PCOD9032749 Si02
#       7
#     2   2   2   2   2   2   2
#     4  10  24  46  74 104 144 190 238 289 357 428
#     4  11  24  48  73 101 137 186 244 295 355 423
#     4  11  26  45  73 102 145 186 237 295 357 422
#     4  11  26  46  71 107 145 188 238 299 353 416
#     4  10  22  43  74 103 132 190 235 291 357 422
#     4  11  25  44  74 104 146 188 239 287 359 431
#     4  12  28  43  68 108 144 185 237 296 354 421
#
# _framework density 24.064229999999998
#
# number of rings (size 3 to 8) (size 9 to 14) (size 15 to 20)
#    0.000    1.143    0.000    6.429    6.000    8.000 
#    0.000    0.000    0.000    0.000    0.000    0.000 
#    0.000    0.000    0.000    0.000    0.000    0.000 
#
# Total GULP energy -78485.834005 kJ/mol
# GULP energy per Si atom -5606.131000 kJ/mol
# Density = 2.400946 g / cm^3
# Si number density = 24.064230 Si / 1000 Ang^3
#
#
#
# Elastic Constant Matrix: (Units=GPa)
#
#
# Indices 1 2 3 4 5 6 
#
# 1 129.0095 36.9996 73.5474 -5.1410 -18.0178 -7.8349
# 2 36.9996 82.5353 57.1728 18.8202 1.9464 -12.9826
# 3 73.5474 57.1728 201.4651 -3.2042 -16.0301 -10.0491
# 4 -5.1410 18.8202 -3.2042 46.5489 -3.4483 -4.1678
# 5 -18.0178 1.9464 -16.0301 -3.4483 49.9169 6.0279
# 6 -7.8349 -12.9826 -10.0491 -4.1678 6.0279 39.7429
#
#
#
# Elastic Compliance Matrix: (Units=1/GPa)
#
#
# Indices 1 2 3 4 5 6 
#
# 1 0.010917 -0.003834 -0.002576 0.002837 0.003456 0.000022
# 2 -0.003834 0.019719 -0.004492 -0.008665 -0.004720 0.004357
# 3 -0.002576 -0.004492 0.007346 0.002154 0.001773 -0.000161
# 4 0.002837 -0.008665 0.002154 0.025764 0.003785 0.000401
# 5 0.003456 -0.004720 0.001773 0.003785 0.022713 -0.003460
# 6 0.000022 0.004357 -0.000161 0.000401 -0.003460 0.027116
#
#
# Mechanical properties :
#
#
# Convention : Reuss Voigt Hill
#
# Bulk Modulus (GPa) = 61.81675 83.16106 72.48890
# Shear Modulus (GPa) = 35.51830 43.59443 39.55637
#
# Velocity S-wave (km/s) = 3.84602 4.26089 4.05876
# Velocity P-wave (km/s) = 6.74288 7.67072 7.22172
#
# Compressibility (1/GPa) = 0.01617685
#
# Stress axis : x y z
#
# Youngs Moduli (GPa) = 91.60369 50.71177 136.12527
#
# Poissons Ratio (x) = 0.19445 0.35065
# Poissons Ratio (y) = 0.35124 0.61152
# Poissons Ratio (z) = 0.23597 0.22781
#
# Static dielectric constant tensor:
#      x y z
#    x 1.978280 0.004670 0.002360 
#    y 0.004670 1.953610 -0.017860 
#    z 0.002360 -0.017860 1.926500 
# 
# From -- ./inp_files/109618.got.cif
#   From: 2010.05.17/outbox.cif.g08.bks.cpg/sg2_55_cif.got.tgz:109618.got - 2010.06.03 11:33:40.
