data_PCOD9032344
_publ_section_title
;
Structure prediction by ZEFSAII (Michael W. Deem and Ramdas Pophale) SiO2 
 PCOD9032344
Probable space group: P -1
;
_chemical_formula_sum "Si O2"
_cell_formula_units_Z 15
_cell_length_a 10.058935
_cell_length_b 23.651098
_cell_length_c 8.893831
_cell_angle_alpha 142.162885
_cell_angle_beta 44.304782
_cell_angle_gamma 147.996052
_cell_volume 680.976979
_symmetry_space_group_name_H-M "P -1"
_symmetry_group_IT_number 2
_symmetry_cell_setting 'triclinic'
loop_
_space_group_symop_operation_xyz
x,y,z
-x,-y,-z
loop_
_atom_site_type_symbol
_atom_site_label
_atom_site_fract_x
_atom_site_fract_y
_atom_site_fract_z
Si Si1 0.295694 0.105811 0.028698
Si Si2 0.500000 0.000000 0.500000
Si Si3 0.327978 0.378804 0.983378
Si Si4 0.596105 0.684829 0.771361
Si Si5 0.861083 0.601128 0.505449
Si Si6 0.739559 0.948640 0.724912
Si Si7 0.568897 0.279303 0.720563
Si Si8 0.893168 0.107820 0.685698
O O1 0.359888 0.234310 0.235047
O O2 0.350165 0.078468 0.089161
O O3 0.460941 0.097500 0.766508
O O4 0.000000 0.000000 0.000000
O O5 0.309893 0.946672 0.393310
O O6 0.513783 0.357016 0.842646
O O7 0.100241 0.254736 0.820950
O O8 0.500000 0.500000 0.000000
O O9 0.206231 0.390760 0.252005
O O10 0.814849 0.679321 0.609659
O O11 0.343713 0.542696 0.671846
O O12 0.572932 0.745415 0.059947
O O13 0.137272 0.649825 0.354862
O O14 0.550349 0.839388 0.532548
O O15 0.968452 0.947717 0.556442
O O16 0.802532 0.066949 0.847431
#
# Coordination Sequence:
#
# PCOD9032344 Si02
#       8
#     2   1   2   2   2   2   2   2
#     4  12  27  43  68 104 140 181 227 294 347 417
#     4  12  26  44  68 108 136 182 238 282 350 416
#     4  10  24  41  66 103 142 179 232 288 345 415
#     4  10  24  45  67 102 142 175 233 289 347 413
#     4  10  23  43  73  98 133 194 228 280 354 412
#     4  10  23  45  71  96 138 182 225 287 354 404
#     4  10  22  43  70  98 134 183 230 286 343 423
#     4  10  23  45  69 100 140 182 228 286 346 417
#
# _framework density 22.027176999999998
#
# number of rings (size 3 to 8) (size 9 to 14) (size 15 to 20)
#    0.000    1.600    1.333    1.200   11.200    4.267 
#    0.000    0.000    0.000    0.000    0.000    0.000 
#    0.000    0.000    0.000    0.000    0.000    0.000 
#
# Total GULP energy -83535.199918 kJ/mol
# GULP energy per Si atom -5569.013328 kJ/mol
# Density = 2.197704 g / cm^3
# Si number density = 22.027177 Si / 1000 Ang^3
#
#
#
# Elastic Constant Matrix: (Units=GPa)
#
#
# Indices 1 2 3 4 5 6 
#
# 1 133.9121 41.6227 25.5503 17.6749 7.1583 2.4043
# 2 41.6227 66.1779 15.0034 24.4415 -2.4795 -22.1372
# 3 25.5503 15.0034 66.0968 14.6751 1.5506 1.0367
# 4 17.6749 24.4415 14.6751 23.2701 4.3824 -13.2366
# 5 7.1583 -2.4795 1.5506 4.3824 31.5242 1.4407
# 6 2.4043 -22.1372 1.0367 -13.2366 1.4407 29.7959
#
#
#
# Elastic Compliance Matrix: (Units=1/GPa)
#
#
# Indices 1 2 3 4 5 6 
#
# 1 0.011001 -0.008345 -0.001547 -0.002834 -0.002310 -0.008181
# 2 -0.008345 0.033890 -0.000148 -0.021307 0.006796 0.016063
# 3 -0.001547 -0.000148 0.019288 -0.015546 0.001902 -0.007654
# 4 -0.002834 -0.021307 -0.015546 0.096307 -0.014956 0.028446
# 5 -0.002310 0.006796 0.001902 -0.014956 0.034911 -0.003163
# 6 -0.008181 0.016063 -0.007654 0.028446 -0.003163 0.059212
#
#
# Mechanical properties :
#
#
# Convention : Reuss Voigt Hill
#
# Bulk Modulus (GPa) = 22.67551 47.83773 35.25662
# Shear Modulus (GPa) = 17.27788 29.18542 23.23165
#
# Velocity S-wave (km/s) = 2.80373 3.64397 3.25111
# Velocity P-wave (km/s) = 4.56047 6.28247 5.48941
#
# Compressibility (1/GPa) = 0.04410044
#
# Stress axis : x y z
#
# Youngs Moduli (GPa) = 90.90173 29.50697 51.84678
#
# Poissons Ratio (x) = 0.24624 0.08018
# Poissons Ratio (y) = 0.75857 0.00765
# Poissons Ratio (z) = 0.14058 0.00436
#
# Static dielectric constant tensor:
#      x y z
#    x 1.804280 -0.039350 0.038920 
#    y -0.039350 1.901900 -0.062690 
#    z 0.038920 -0.062690 1.785030 
# 
# From -- ./inp_files/222568.got.cif
#   From: 2010.05.17/outbox.cif.g08.bks.cpg/sg2_112_cif.got.tgz:222568.got - 2010.06.03 11:33:40.
