data_PCOD9032169
_publ_section_title
;
Structure prediction by ZEFSAII (Michael W. Deem and Ramdas Pophale) SiO2 
 PCOD9032169
Probable space group: P -1
;
_chemical_formula_sum "Si O2"
_cell_formula_units_Z 16
_cell_length_a 22.638005
_cell_length_b 7.678285
_cell_length_c 5.448008
_cell_angle_alpha 113.117283
_cell_angle_beta 68.877483
_cell_angle_gamma 126.117841
_cell_volume 692.873800
_symmetry_space_group_name_H-M "P -1"
_symmetry_group_IT_number 2
_symmetry_cell_setting 'triclinic'
loop_
_space_group_symop_operation_xyz
x,y,z
-x,-y,-z
loop_
_atom_site_type_symbol
_atom_site_label
_atom_site_fract_x
_atom_site_fract_y
_atom_site_fract_z
Si Si1 0.218797 0.652721 0.150119
Si Si2 0.926890 0.733578 0.695093
Si Si3 0.417361 0.907254 0.663885
Si Si4 0.909247 0.946137 0.340154
Si Si5 0.267910 0.734415 0.607648
Si Si6 0.767345 0.965880 0.427115
Si Si7 0.521871 0.689127 0.869795
Si Si8 0.616590 0.537873 0.350868
O O1 0.132395 0.518400 0.278912
O O2 0.256471 0.605092 0.298418
O O3 0.253649 0.918014 0.259386
O O4 0.236081 0.598455 0.829371
O O5 0.905691 0.799952 0.502609
O O6 0.918649 0.859603 0.012777
O O7 0.013791 0.819518 0.599144
O O8 0.354610 0.917166 0.608451
O O9 0.382340 0.644386 0.581377
O O10 0.500000 0.000000 0.500000
O O11 0.431792 0.061319 0.962804
O O12 0.836765 0.958964 0.417133
O O13 0.221205 0.855425 0.699768
O O14 0.700340 0.734071 0.302945
O O15 0.572149 0.648798 0.585048
O O16 0.441108 0.625188 0.858213
O O17 0.500000 0.500000 0.000000
#
# Coordination Sequence:
#
# PCOD9032169 Si02
#       8
#     2   2   2   2   2   2   2   2
#     4  10  23  43  69  92 138 177 222 280 348 389
#     4  10  22  43  69  99 139 176 223 279 329 413
#     4  12  25  44  68  98 131 186 235 282 360 409
#     4  10  23  42  68 103 136 176 225 275 339 406
#     4  10  25  44  64 102 134 176 223 297 324 421
#     4  10  25  41  67  97 136 176 225 285 344 402
#     4  11  23  45  66  91 136 168 228 292 340 413
#     4  11  25  42  68  97 129 180 227 289 350 412
#
# _framework density 23.092230000000001
#
# number of rings (size 3 to 8) (size 9 to 14) (size 15 to 20)
#    0.750    0.750    1.250    2.625    7.000    1.500 
#    0.000    0.625    0.000    0.000    0.000    0.000 
#    0.000    0.000    0.000    0.000    0.000    0.000 
#
# Total GULP energy -89128.862134 kJ/mol
# GULP energy per Si atom -5570.553883 kJ/mol
# Density = 2.303967 g / cm^3
# Si number density = 23.092230 Si / 1000 Ang^3
#
#
#
# Elastic Constant Matrix: (Units=GPa)
#
#
# Indices 1 2 3 4 5 6 
#
# 1 145.3371 29.0271 35.2092 -7.5707 6.4319 29.7521
# 2 29.0271 93.0419 18.9074 -3.2737 -2.9940 16.7312
# 3 35.2092 18.9074 78.4656 -6.2288 22.7290 -1.3996
# 4 -7.5707 -3.2737 -6.2288 38.4401 -1.9984 3.3137
# 5 6.4319 -2.9940 22.7290 -1.9984 32.5980 1.2410
# 6 29.7521 16.7312 -1.3996 3.3137 1.2410 33.9915
#
#
#
# Elastic Compliance Matrix: (Units=1/GPa)
#
#
# Indices 1 2 3 4 5 6 
#
# 1 0.010037 -0.000353 -0.004979 0.002023 0.001929 -0.009084
# 2 -0.000353 0.013127 -0.004379 0.001151 0.004651 -0.006615
# 3 -0.004979 -0.004379 0.020204 0.000532 -0.013771 0.007796
# 4 0.002023 0.001151 0.000532 0.027090 0.001186 -0.005000
# 5 0.001929 0.004651 -0.013771 0.001186 0.040632 -0.006143
# 6 -0.009084 -0.006615 0.007796 -0.005000 -0.006143 0.041659
#
#
# Mechanical properties :
#
#
# Convention : Reuss Voigt Hill
#
# Bulk Modulus (GPa) = 41.75763 53.68133 47.71948
# Shear Modulus (GPa) = 27.75426 36.58599 32.17012
#
# Velocity S-wave (km/s) = 3.47059 3.98470 3.73649
# Velocity P-wave (km/s) = 5.84655 6.66839 6.27095
#
# Compressibility (1/GPa) = 0.02394772
#
# Stress axis : x y z
#
# Youngs Moduli (GPa) = 99.63302 76.17634 49.49497
#
# Poissons Ratio (x) = 0.02687 0.24643
# Poissons Ratio (y) = 0.03514 0.21673
# Poissons Ratio (z) = 0.49606 0.33356
#
# Static dielectric constant tensor:
#      x y z
#    x 2.143700 -0.129240 0.072030 
#    y -0.129240 2.057170 -0.000290 
#    z 0.072030 -0.000290 1.956280 
# 
# From -- ./inp_files/122662.got.cif
#   From: 2010.05.17/outbox.cif.g08.bks.cpg/sg2_62_cif.got.tgz:122662.got - 2010.06.03 11:33:40.
