data_PCOD9032355
_publ_section_title
;
Structure prediction by ZEFSAII (Michael W. Deem and Ramdas Pophale) SiO2 
 PCOD9032355
Probable space group: P -1
;
_chemical_formula_sum "Si O2"
_cell_formula_units_Z 16
_cell_length_a 13.989631
_cell_length_b 9.615801
_cell_length_c 9.172539
_cell_angle_alpha 64.117386
_cell_angle_beta 127.598875
_cell_angle_gamma 81.728847
_cell_volume 719.334496
_symmetry_space_group_name_H-M "P -1"
_symmetry_group_IT_number 2
_symmetry_cell_setting 'triclinic'
loop_
_space_group_symop_operation_xyz
x,y,z
-x,-y,-z
loop_
_atom_site_type_symbol
_atom_site_label
_atom_site_fract_x
_atom_site_fract_y
_atom_site_fract_z
Si Si1 0.422637 0.900349 0.931791
Si Si2 0.103359 0.800761 0.425959
Si Si3 0.144322 0.114292 0.385486
Si Si4 0.902578 0.437123 0.205683
Si Si5 0.862634 0.822507 0.990861
Si Si6 0.428094 0.519060 0.769884
Si Si7 0.361338 0.826086 0.207053
Si Si8 0.356515 0.495021 0.265350
O O1 0.314253 0.985923 0.654091
O O2 0.549634 0.679638 0.134326
O O3 0.325072 0.917352 0.971541
O O4 0.500000 0.000000 0.000000
O O5 0.112322 0.666954 0.623589
O O6 0.259891 0.692957 0.538324
O O7 0.080843 0.986075 0.390646
O O8 0.981824 0.838709 0.179451
O O9 0.125853 0.179142 0.171804
O O10 0.055422 0.289296 0.332961
O O11 0.883533 0.629099 0.144647
O O12 0.776765 0.488114 0.946648
O O13 0.709722 0.011349 0.814377
O O14 0.528951 0.528247 0.740123
O O15 0.500000 0.500000 0.000000
O O16 0.310300 0.684194 0.222629
O O17 0.538787 0.688804 0.454746
#
# Coordination Sequence:
#
# PCOD9032355 Si02
#       8
#     2   2   2   2   2   2   2   2
#     4  11  26  41  68  96 136 174 216 280 335 397
#     4  12  24  45  74  96 136 183 230 271 327 418
#     4  12  26  47  67  99 137 181 230 273 339 402
#     4  12  26  43  70  99 141 174 224 282 345 390
#     4  12  28  43  69 104 138 177 223 285 338 394
#     4  11  21  42  69 103 128 172 229 274 330 392
#     4  10  23  44  67  97 133 176 230 263 339 401
#     4  10  22  43  70  99 132 179 223 280 326 410
#
# _framework density 22.242781999999998
#
# number of rings (size 3 to 8) (size 9 to 14) (size 15 to 20)
#    0.000    0.750    2.500    4.500    5.250    3.500 
#    0.000    0.000    0.000    0.000    0.000    0.000 
#    0.000    0.000    0.000    0.000    0.000    0.000 
#
# Total GULP energy -89553.372503 kJ/mol
# GULP energy per Si atom -5597.085781 kJ/mol
# Density = 2.219216 g / cm^3
# Si number density = 22.242782 Si / 1000 Ang^3
#
#
#
# Elastic Constant Matrix: (Units=GPa)
#
#
# Indices 1 2 3 4 5 6 
#
# 1 29.7738 20.1138 0.0100 -9.2541 -14.8007 -5.4398
# 2 20.1138 113.5165 1.8025 -19.5608 -5.7575 -0.3381
# 3 0.0100 1.8025 90.5780 11.6306 -2.7783 8.4343
# 4 -9.2541 -19.5608 11.6306 41.7846 -3.7341 5.2267
# 5 -14.8007 -5.7575 -2.7783 -3.7341 35.7610 0.9045
# 6 -5.4398 -0.3381 8.4343 5.2267 0.9045 35.9280
#
#
#
# Elastic Compliance Matrix: (Units=1/GPa)
#
#
# Indices 1 2 3 4 5 6 
#
# 1 0.053098 -0.006515 -0.001094 0.010182 0.021748 0.006206
# 2 -0.006515 0.010591 -0.000596 0.003787 -0.000610 -0.001282
# 3 -0.001094 -0.000596 0.011726 -0.003477 0.000060 -0.002420
# 4 0.010182 0.003787 -0.003477 0.029887 0.007729 -0.002149
# 5 0.021748 -0.000610 0.000060 0.007729 0.037648 0.001201
# 6 0.006206 -0.001282 -0.002420 -0.002149 0.001201 0.029612
#
#
# Mechanical properties :
#
#
# Convention : Reuss Voigt Hill
#
# Bulk Modulus (GPa) = 16.94782 30.85789 23.90286
# Shear Modulus (GPa) = 23.96485 36.82417 30.39451
#
# Velocity S-wave (km/s) = 3.28597 4.07327 3.70062
# Velocity P-wave (km/s) = 4.69391 6.00211 5.38786
#
# Compressibility (1/GPa) = 0.05900463
#
# Stress axis : x y z
#
# Youngs Moduli (GPa) = 18.83319 94.42049 85.28202
#
# Poissons Ratio (x) = 0.61515 0.09333
# Poissons Ratio (y) = 0.12270 0.05079
# Poissons Ratio (z) = 0.02061 0.05623
#
# Static dielectric constant tensor:
#      x y z
#    x 1.850240 -0.023250 -0.025750 
#    y -0.023250 1.819280 -0.029180 
#    z -0.025750 -0.029180 1.842610 
# 
# From -- ./inp_files/208907.got.cif
#   From: 2010.05.17/outbox.cif.g08.bks.cpg/sg2_105_cif.got.tgz:208907.got - 2010.06.03 11:33:40.
