data_PCOD9032581
_publ_section_title
;
Structure prediction by ZEFSAII (Michael W. Deem and Ramdas Pophale) SiO2 
 PCOD9032581
Probable space group: P -1
;
_chemical_formula_sum "Si O2"
_cell_formula_units_Z 10
_cell_length_a 7.305622
_cell_length_b 8.879144
_cell_length_c 8.592934
_cell_angle_alpha 123.594188
_cell_angle_beta 75.833083
_cell_angle_gamma 71.323046
_cell_volume 371.696444
_symmetry_space_group_name_H-M "P -1"
_symmetry_group_IT_number 2
_symmetry_cell_setting 'triclinic'
loop_
_space_group_symop_operation_xyz
x,y,z
-x,-y,-z
loop_
_atom_site_type_symbol
_atom_site_label
_atom_site_fract_x
_atom_site_fract_y
_atom_site_fract_z
Si Si1 0.707178 0.963432 0.596972
Si Si2 0.354570 0.308475 0.098085
Si Si3 0.743337 0.215830 0.166242
Si Si4 0.197769 0.768518 0.490554
Si Si5 0.109671 0.502983 0.815352
O O1 0.924568 0.889808 0.619055
O O2 0.729510 0.743660 0.420387
O O3 0.751874 0.064629 0.496405
O O4 0.481717 0.152797 0.836566
O O5 0.537810 0.200219 0.138499
O O6 0.291496 0.555788 0.241750
O O7 0.101797 0.360546 0.184822
O O8 0.701573 0.301777 0.399908
O O9 0.763924 0.375256 0.136922
O O10 0.000000 0.000000 0.000000
O O11 0.000000 0.500000 0.000000
#
# Coordination Sequence:
#
# PCOD9032581 Si02
#       5
#     2   2   2   2   2
#     4  10  22  45  74 101 141 182 234 285 341 418
#     4  11  25  46  75 101 140 190 227 286 353 408
#     4  12  25  48  72 101 146 184 230 290 348 411
#     4  10  22  43  72 105 138 184 231 282 347 417
#     4  11  28  47  70 108 140 179 240 289 340 421
#
# _framework density 26.903673999999999
#
# number of rings (size 3 to 8) (size 9 to 14) (size 15 to 20)
#    0.000    1.200    2.000    2.400    8.400    4.800 
#    7.200    0.000    0.000    0.000    0.000    0.000 
#    0.000    0.000    0.000    0.000    0.000    0.000 
#
# Total GULP energy -56110.307923 kJ/mol
# GULP energy per Si atom -5611.030792 kJ/mol
# Density = 2.684244 g / cm^3
# Si number density = 26.903674 Si / 1000 Ang^3
#
#
#
# Elastic Constant Matrix: (Units=GPa)
#
#
# Indices 1 2 3 4 5 6 
#
# 1 135.4395 24.9946 13.6020 8.4536 0.8570 -33.6129
# 2 24.9946 96.1896 22.7680 -2.1271 2.4005 -1.5440
# 3 13.6020 22.7680 151.4365 25.2316 -3.7025 3.6095
# 4 8.4536 -2.1271 25.2316 50.5575 -12.9765 1.7789
# 5 0.8570 2.4005 -3.7025 -12.9765 28.5045 6.2206
# 6 -33.6129 -1.5440 3.6095 1.7789 6.2206 56.5714
#
#
#
# Elastic Compliance Matrix: (Units=1/GPa)
#
#
# Indices 1 2 3 4 5 6 
#
# 1 0.009474 -0.002282 -0.000315 -0.002376 -0.002511 0.005938
# 2 -0.002282 0.011438 -0.001788 0.001760 -0.000113 -0.000972
# 3 -0.000315 -0.001788 0.007551 -0.003906 -0.000520 -0.000538
# 4 -0.002376 0.001760 -0.003906 0.025297 0.011628 -0.003189
# 5 -0.002511 -0.000113 -0.000520 0.011628 0.041795 -0.006424
# 6 0.005938 -0.000972 -0.000538 -0.003189 -0.006424 0.022019
#
#
# Mechanical properties :
#
#
# Convention : Reuss Voigt Hill
#
# Bulk Modulus (GPa) = 50.77426 56.19942 53.48684
# Shear Modulus (GPa) = 37.61994 48.57342 43.09668
#
# Velocity S-wave (km/s) = 3.74347 4.25368 4.00670
# Velocity P-wave (km/s) = 6.13175 6.71264 6.42876
#
# Compressibility (1/GPa) = 0.01969502
#
# Stress axis : x y z
#
# Youngs Moduli (GPa) = 105.55287 87.42537 132.42722
#
# Poissons Ratio (x) = 0.19949 0.04169
# Poissons Ratio (y) = 0.24085 0.23673
# Poissons Ratio (z) = 0.03323 0.15628
#
# Static dielectric constant tensor:
#      x y z
#    x 2.053650 -0.074150 -0.003710 
#    y -0.074150 2.086090 -0.008120 
#    z -0.003710 -0.008120 2.072140 
# 
# From -- ./inp_files/144272.got.cif
#   From: 2010.05.17/outbox.cif.g08.bks.cpg/sg2_73_cif.got.tgz:144272.got - 2010.06.03 11:33:40.
