data_PCOD9032178
_publ_section_title
;
Structure prediction by ZEFSAII (Michael W. Deem and Ramdas Pophale) SiO2 
 PCOD9032178
Probable space group: P -1
;
_chemical_formula_sum "Si O2"
_cell_formula_units_Z 12
_cell_length_a 9.171179
_cell_length_b 12.134064
_cell_length_c 9.139776
_cell_angle_alpha 44.367765
_cell_angle_beta 96.436880
_cell_angle_gamma 123.460839
_cell_volume 519.391182
_symmetry_space_group_name_H-M "P -1"
_symmetry_group_IT_number 2
_symmetry_cell_setting 'triclinic'
loop_
_space_group_symop_operation_xyz
x,y,z
-x,-y,-z
loop_
_atom_site_type_symbol
_atom_site_label
_atom_site_fract_x
_atom_site_fract_y
_atom_site_fract_z
Si Si1 0.293722 0.800239 0.250716
Si Si2 0.071812 0.912640 0.969948
Si Si3 0.458741 0.561391 0.080833
Si Si4 0.968556 0.795298 0.733338
Si Si5 0.665701 0.037296 0.580160
Si Si6 0.508415 0.361175 0.528545
O O1 0.317608 0.629287 0.410719
O O2 0.291336 0.832759 0.392679
O O3 0.119956 0.781527 0.180468
O O4 0.500000 0.000000 0.000000
O O5 0.961299 0.794844 0.912494
O O6 0.291050 0.124385 0.736350
O O7 0.000000 0.000000 0.000000
O O8 0.528369 0.474547 0.278095
O O9 0.221027 0.413929 0.178250
O O10 0.500000 0.500000 0.000000
O O11 0.583611 0.812872 0.852792
O O12 0.156644 0.852405 0.620690
O O13 0.000000 0.000000 0.500000
O O14 0.500000 0.000000 0.500000
O O15 0.500000 0.500000 0.500000
#
# Coordination Sequence:
#
# PCOD9032178 Si02
#       6
#     2   2   2   2   2   2
#     4  10  22  43  69  99 140 187 235 294 363 423
#     4  11  23  43  70 100 145 185 227 300 360 418
#     4  12  24  42  74 103 139 190 241 291 360 425
#     4  12  24  44  72 106 141 184 246 289 362 432
#     4  12  25  46  72 104 147 186 235 308 360 426
#     4  11  24  43  70 102 134 182 245 289 359 436
#
# _framework density 23.103974000000001
#
# number of rings (size 3 to 8) (size 9 to 14) (size 15 to 20)
#    0.000    0.667    3.333    6.000    2.333    0.667 
#    0.000    0.833    0.000    0.000    0.000    0.000 
#    0.000    0.000    0.000    0.000    0.000    0.000 
#
# Total GULP energy -66841.499099 kJ/mol
# GULP energy per Si atom -5570.124925 kJ/mol
# Density = 2.305139 g / cm^3
# Si number density = 23.103974 Si / 1000 Ang^3
#
#
#
# Elastic Constant Matrix: (Units=GPa)
#
#
# Indices 1 2 3 4 5 6 
#
# 1 169.4556 12.5296 57.2575 11.2527 8.9271 -10.0162
# 2 12.5296 42.4809 22.6228 25.5007 9.6005 -20.4185
# 3 57.2575 22.6228 109.4907 27.4833 21.0260 6.8906
# 4 11.2527 25.5007 27.4833 60.0603 8.0139 -4.7348
# 5 8.9271 9.6005 21.0260 8.0139 61.8981 -3.1402
# 6 -10.0162 -20.4185 6.8906 -4.7348 -3.1402 39.0929
#
#
#
# Elastic Compliance Matrix: (Units=1/GPa)
#
#
# Indices 1 2 3 4 5 6 
#
# 1 0.007540 0.001923 -0.004696 0.000170 0.000381 0.003815
# 2 0.001923 0.049588 -0.008758 -0.015131 -0.001717 0.025966
# 3 -0.004696 -0.008758 0.015264 -0.002665 -0.003264 -0.009053
# 4 0.000170 -0.015131 -0.002665 0.023920 -0.000098 -0.004501
# 5 0.000381 -0.001717 -0.003264 -0.000098 0.017548 0.001174
# 6 0.003815 0.025966 -0.009053 -0.004501 0.001174 0.041265
#
#
# Mechanical properties :
#
#
# Convention : Reuss Voigt Hill
#
# Bulk Modulus (GPa) = 20.27168 56.24967 38.26068
# Shear Modulus (GPa) = 25.68973 47.47807 36.58390
#
# Velocity S-wave (km/s) = 3.33816 4.53810 3.98357
# Velocity P-wave (km/s) = 4.86322 7.20127 6.14448
#
# Compressibility (1/GPa) = 0.04932989
#
# Stress axis : x y z
#
# Youngs Moduli (GPa) = 132.62554 20.16602 65.51451
#
# Poissons Ratio (x) = -0.03877 0.30767
# Poissons Ratio (y) = -0.25498 0.57375
# Poissons Ratio (z) = 0.62283 0.17660
#
# Static dielectric constant tensor:
#      x y z
#    x 1.867350 -0.062410 0.006210 
#    y -0.062410 1.623480 0.066060 
#    z 0.006210 0.066060 1.822080 
# 
# From -- ./inp_files/166921.got.cif
#   From: 2010.05.17/outbox.cif.g08.bks.cpg/sg2_84_cif.got.tgz:166921.got - 2010.06.03 11:33:40.
