data_PCOD9032548
_publ_section_title
;
Structure prediction by ZEFSAII (Michael W. Deem and Ramdas Pophale) SiO2 
 PCOD9032548
Probable space group: P -1
;
_chemical_formula_sum "Si O2"
_cell_formula_units_Z 16
_cell_length_a 20.590770
_cell_length_b 8.260809
_cell_length_c 7.085765
_cell_angle_alpha 58.474668
_cell_angle_beta 81.841683
_cell_angle_gamma 48.083639
_cell_volume 722.472277
_symmetry_space_group_name_H-M "P -1"
_symmetry_group_IT_number 2
_symmetry_cell_setting 'triclinic'
loop_
_space_group_symop_operation_xyz
x,y,z
-x,-y,-z
loop_
_atom_site_type_symbol
_atom_site_label
_atom_site_fract_x
_atom_site_fract_y
_atom_site_fract_z
Si Si1 0.425991 0.045600 0.867900
Si Si2 0.710778 0.647551 0.556897
Si Si3 0.987888 0.480167 0.800319
Si Si4 0.120083 0.049094 0.705995
Si Si5 0.402233 0.711448 0.305490
Si Si6 0.591600 0.596370 0.845817
Si Si7 0.306978 0.876234 0.627050
Si Si8 0.895388 0.283520 0.900765
O O1 0.488770 0.873432 0.763454
O O2 0.334697 0.322870 0.642018
O O3 0.395156 0.924300 0.069777
O O4 0.500000 0.000000 0.000000
O O5 0.659889 0.631869 0.753052
O O6 0.691447 0.911403 0.428578
O O7 0.820670 0.402264 0.693998
O O8 0.956533 0.730588 0.547205
O O9 0.078938 0.212392 0.821949
O O10 0.908959 0.478400 0.813187
O O11 0.000000 0.500000 0.000000
O O12 0.212372 0.969308 0.665719
O O13 0.136081 0.792075 0.872583
O O14 0.500000 0.500000 0.500000
O O15 0.401033 0.550264 0.249757
O O16 0.325727 0.844429 0.416558
O O17 0.617884 0.409509 0.125895
O O18 0.000000 0.000000 0.000000
#
# Coordination Sequence:
#
# PCOD9032548 Si02
#       8
#     2   2   2   2   2   2   2   2
#     4  12  25  46  71 105 142 188 237 296 355 421
#     4  12  24  44  72 102 139 186 236 294 352 422
#     4  10  22  43  72 102 134 178 230 291 353 420
#     4  10  22  44  69  97 142 178 228 288 351 418
#     4  12  24  43  69  97 139 187 233 285 352 418
#     4  12  25  46  69 100 141 180 232 295 352 412
#     4  12  24  44  69 102 139 187 235 286 349 422
#     4  10  22  44  70  99 138 181 227 287 353 416
#
# _framework density 22.146177999999999
#
# number of rings (size 3 to 8) (size 9 to 14) (size 15 to 20)
#    0.000    0.750    5.000    3.000    0.000    1.500 
#    0.000    1.250    0.000    0.000    0.000    0.000 
#    0.000    0.000    0.000    0.000    0.000    0.000 
#
# Total GULP energy -89420.316887 kJ/mol
# GULP energy per Si atom -5588.769805 kJ/mol
# Density = 2.209577 g / cm^3
# Si number density = 22.146178 Si / 1000 Ang^3
#
#
#
# Elastic Constant Matrix: (Units=GPa)
#
#
# Indices 1 2 3 4 5 6 
#
# 1 127.3874 32.3785 50.5532 5.9995 -14.3511 -18.0148
# 2 32.3785 45.2972 34.5000 10.4177 5.9628 -15.4455
# 3 50.5532 34.5000 130.6149 1.1184 -2.6126 -3.1769
# 4 5.9995 10.4177 1.1184 48.4383 -3.8468 -2.8525
# 5 -14.3511 5.9628 -2.6126 -3.8468 48.4221 -5.6297
# 6 -18.0148 -15.4455 -3.1769 -2.8525 -5.6297 27.5957
#
#
#
# Elastic Compliance Matrix: (Units=1/GPa)
#
#
# Indices 1 2 3 4 5 6 
#
# 1 0.011504 -0.004773 -0.002972 0.000349 0.004498 0.005450
# 2 -0.004773 0.039760 -0.008304 -0.007239 -0.005436 0.016325
# 3 -0.002972 -0.008304 0.010867 0.001623 0.000262 -0.005116
# 4 0.000349 -0.007239 0.001623 0.022295 0.002764 -0.000769
# 5 0.004498 -0.005436 0.000262 0.002764 0.023469 0.004998
# 6 0.005450 0.016325 -0.005116 -0.000769 0.004998 0.049283
#
#
# Mechanical properties :
#
#
# Convention : Reuss Voigt Hill
#
# Bulk Modulus (GPa) = 33.29865 59.79588 46.54726
# Shear Modulus (GPa) = 25.08934 37.28242 31.18588
#
# Velocity S-wave (km/s) = 3.36951 4.10746 3.75665
# Velocity P-wave (km/s) = 5.49605 7.03947 6.31509
#
# Compressibility (1/GPa) = 0.03003125
#
# Stress axis : x y z
#
# Youngs Moduli (GPa) = 86.92780 25.15094 92.02359
#
# Poissons Ratio (x) = 0.12005 0.27350
# Poissons Ratio (y) = 0.41493 0.76419
# Poissons Ratio (z) = 0.25836 0.20886
#
# Static dielectric constant tensor:
#      x y z
#    x 1.846910 -0.010110 0.008580 
#    y -0.010110 1.854430 -0.051180 
#    z 0.008580 -0.051180 1.834810 
# 
# From -- ./inp_files/116650.got.cif
#   From: 2010.05.17/outbox.cif.g08.bks.cpg/sg2_59_cif.got.tgz:116650.got - 2010.06.03 11:33:40.
