data_PCOD9032905
_publ_section_title
;
Structure prediction by ZEFSAII (Michael W. Deem and Ramdas Pophale) SiO2 
 PCOD9032905
Probable space group: P -1
;
_chemical_formula_sum "Si O2"
_cell_formula_units_Z 14
_cell_length_a 6.905312
_cell_length_b 16.277646
_cell_length_c 7.861665
_cell_angle_alpha 129.668429
_cell_angle_beta 121.467229
_cell_angle_gamma 68.370854
_cell_volume 579.330679
_symmetry_space_group_name_H-M "P -1"
_symmetry_group_IT_number 2
_symmetry_cell_setting 'triclinic'
loop_
_space_group_symop_operation_xyz
x,y,z
-x,-y,-z
loop_
_atom_site_type_symbol
_atom_site_label
_atom_site_fract_x
_atom_site_fract_y
_atom_site_fract_z
Si Si1 0.571276 0.682588 0.540111
Si Si2 0.346345 0.898015 0.275922
Si Si3 0.547109 0.883719 0.024710
Si Si4 0.831431 0.597437 0.851389
Si Si5 0.855002 0.228532 0.681727
Si Si6 0.729297 0.560511 0.144406
Si Si7 0.882650 0.020374 0.225102
O O1 0.590404 0.800660 0.782730
O O2 0.656232 0.602096 0.621186
O O3 0.303788 0.683152 0.374017
O O4 0.711400 0.657627 0.399839
O O5 0.305012 0.827750 0.329799
O O6 0.500000 0.000000 0.500000
O O7 0.469451 0.830437 0.092260
O O8 0.097344 0.946892 0.173747
O O9 0.326217 0.959707 0.973451
O O10 0.762016 0.955672 0.234915
O O11 0.037872 0.509222 0.804512
O O12 0.732028 0.587205 0.981332
O O13 0.951310 0.711019 0.056234
O O14 0.941517 0.136978 0.470145
O O15 0.500000 0.500000 0.000000
#
# Coordination Sequence:
#
# PCOD9032905 Si02
#       7
#     2   2   2   2   2   2   2
#     4  11  25  46  73 109 143 179 240 292 351 431
#     4  12  24  39  69  97 144 198 234 293 349 401
#     4  10  23  43  66 100 139 189 240 292 350 414
#     4  11  26  49  77 103 144 185 226 298 362 418
#     4  11  24  45  69 106 142 187 242 289 344 426
#     4  11  25  52  77 106 140 180 235 293 363 434
#     4  10  22  44  62  95 145 185 239 290 346 417
#
# _framework density 24.165814999999998
#
# number of rings (size 3 to 8) (size 9 to 14) (size 15 to 20)
#    0.000    1.143    2.857    2.143    4.000    0.571 
#   15.429    0.000    0.000    0.000    0.000    0.000 
#    0.000    0.000    0.000    0.000    0.000    0.000 
#
# Total GULP energy -78320.345037 kJ/mol
# GULP energy per Si atom -5594.310360 kJ/mol
# Density = 2.411081 g / cm^3
# Si number density = 24.165815 Si / 1000 Ang^3
#
#
#
# Elastic Constant Matrix: (Units=GPa)
#
#
# Indices 1 2 3 4 5 6 
#
# 1 135.0960 51.4265 43.0106 -5.0974 -23.8401 -0.3831
# 2 51.4265 111.6832 19.5624 -20.2456 -7.4465 -19.9160
# 3 43.0106 19.5624 77.4376 4.3269 -21.3696 -10.3483
# 4 -5.0974 -20.2456 4.3269 39.8848 -7.8516 3.3314
# 5 -23.8401 -7.4465 -21.3696 -7.8516 47.0170 0.6532
# 6 -0.3831 -19.9160 -10.3483 3.3314 0.6532 44.2083
#
#
#
# Elastic Compliance Matrix: (Units=1/GPa)
#
#
# Indices 1 2 3 4 5 6 
#
# 1 0.011171 -0.004613 -0.004678 0.000432 0.002923 -0.003152
# 2 -0.004613 0.013159 -0.000216 0.005768 0.000535 0.005395
# 3 -0.004678 -0.000216 0.017664 -0.001931 0.005244 0.004065
# 4 0.000432 0.005768 -0.001931 0.029289 0.005148 -0.000133
# 5 0.002923 0.000535 0.005244 0.005148 0.026069 0.000721
# 6 -0.003152 0.005395 0.004065 -0.000133 0.000721 0.025974
#
#
# Mechanical properties :
#
#
# Convention : Reuss Voigt Hill
#
# Bulk Modulus (GPa) = 43.51362 61.35733 52.43547
# Shear Modulus (GPa) = 33.33308 40.23652 36.78480
#
# Velocity S-wave (km/s) = 3.71799 4.08489 3.90575
# Velocity P-wave (km/s) = 6.03959 6.90606 6.48731
#
# Compressibility (1/GPa) = 0.02298131
#
# Stress axis : x y z
#
# Youngs Moduli (GPa) = 89.51927 75.99128 56.61105
#
# Poissons Ratio (x) = 0.35057 0.26481
# Poissons Ratio (y) = 0.41298 0.01221
# Poissons Ratio (z) = 0.41875 0.01638
#
# Static dielectric constant tensor:
#      x y z
#    x 1.907610 0.031660 -0.033970 
#    y 0.031660 2.013660 -0.017960 
#    z -0.033970 -0.017960 1.951560 
# 
# From -- ./inp_files/138260.got.cif
#   From: 2010.05.17/outbox.cif.g08.bks.cpg/sg2_70_cif.got.tgz:138260.got - 2010.06.03 11:33:40.
