data_PCOD9032161
_publ_section_title
;
Structure prediction by ZEFSAII (Michael W. Deem and Ramdas Pophale) SiO2 
 PCOD9032161
Probable space group: P -1
;
_chemical_formula_sum "Si O2"
_cell_formula_units_Z 16
_cell_length_a 14.810185
_cell_length_b 15.053488
_cell_length_c 13.655305
_cell_angle_alpha 134.756415
_cell_angle_beta 148.773935
_cell_angle_gamma 26.514898
_cell_volume 679.592415
_symmetry_space_group_name_H-M "P -1"
_symmetry_group_IT_number 2
_symmetry_cell_setting 'triclinic'
loop_
_space_group_symop_operation_xyz
x,y,z
-x,-y,-z
loop_
_atom_site_type_symbol
_atom_site_label
_atom_site_fract_x
_atom_site_fract_y
_atom_site_fract_z
Si Si1 0.230617 0.089483 0.372838
Si Si2 0.334255 0.697104 0.268192
Si Si3 0.362403 0.464100 0.784763
Si Si4 0.749647 0.036482 0.900619
Si Si5 0.285644 0.158980 0.838673
Si Si6 0.207273 0.477022 0.034172
Si Si7 0.449126 0.110648 0.304108
Si Si8 0.341486 0.467729 0.366302
O O1 0.980441 0.322595 0.359860
O O2 0.103854 0.081771 0.160017
O O3 0.500000 0.000000 0.500000
O O4 0.379209 0.932861 0.478177
O O5 0.533533 0.596366 0.278375
O O6 0.300001 0.562735 0.149408
O O7 0.465394 0.680135 0.476237
O O8 0.012472 0.929617 0.128454
O O9 0.500000 0.500000 0.000000
O O10 0.489557 0.273628 0.813106
O O11 0.629358 0.982916 0.800125
O O12 0.967850 0.326040 0.715618
O O13 0.345685 0.031879 0.706995
O O14 0.330585 0.280329 0.946871
O O15 0.500000 0.000000 0.000000
O O16 0.290130 0.419754 0.181605
O O17 0.862777 0.662524 0.842342
O O18 0.500000 0.500000 0.500000
#
# Coordination Sequence:
#
# PCOD9032161 Si02
#       8
#     2   2   2   2   2   2   2   2
#     4  10  23  42  64  97 133 171 225 272 329 393
#     4  10  22  43  69  99 135 180 223 274 339 391
#     4  12  24  40  66  97 136 177 224 269 328 395
#     4  10  23  43  66  95 137 178 217 277 328 393
#     4  12  24  42  71 100 130 175 226 268 335 404
#     4  10  23  45  69  96 139 173 214 283 333 393
#     4  10  23  40  69  97 130 171 221 268 333 389
#     4  10  22  44  70  96 134 171 219 279 334 393
#
# _framework density 23.543521999999999
#
# number of rings (size 3 to 8) (size 9 to 14) (size 15 to 20)
#    0.000    1.500    2.500    1.500    1.750    4.000 
#    0.000    3.750    0.000    0.000    0.000    0.000 
#    0.000    0.000    0.000    0.000    0.000    0.000 
#
# Total GULP energy -89436.038498 kJ/mol
# GULP energy per Si atom -5589.752406 kJ/mol
# Density = 2.348994 g / cm^3
# Si number density = 23.543522 Si / 1000 Ang^3
#
#
#
# Elastic Constant Matrix: (Units=GPa)
#
#
# Indices 1 2 3 4 5 6 
#
# 1 104.8167 31.2543 33.8384 -21.9956 -18.9826 7.3775
# 2 31.2543 98.2072 17.2484 -24.8808 -6.0578 7.9121
# 3 33.8384 17.2484 125.2659 -23.1761 -19.0866 0.8091
# 4 -21.9956 -24.8808 -23.1761 42.3832 2.9143 -7.9873
# 5 -18.9826 -6.0578 -19.0866 2.9143 51.2163 0.8418
# 6 7.3775 7.9121 0.8091 -7.9873 0.8418 45.8853
#
#
#
# Elastic Compliance Matrix: (Units=1/GPa)
#
#
# Indices 1 2 3 4 5 6 
#
# 1 0.012269 -0.002399 -0.001800 0.003557 0.003406 -0.000970
# 2 -0.002399 0.012528 0.000082 0.005995 0.000294 -0.000738
# 3 -0.001800 0.000082 0.009671 0.004371 0.002684 0.000816
# 4 0.003557 0.005995 0.004371 0.031953 0.001775 0.003847
# 5 0.003406 0.000294 0.002684 0.001775 0.021734 -0.000735
# 6 -0.000970 -0.000738 0.000816 0.003847 -0.000735 0.022745
#
#
# Mechanical properties :
#
#
# Convention : Reuss Voigt Hill
#
# Bulk Modulus (GPa) = 38.12114 54.77467 46.44791
# Shear Modulus (GPa) = 39.09976 44.29354 41.69665
#
# Velocity S-wave (km/s) = 4.07964 4.34216 4.21294
# Velocity P-wave (km/s) = 6.19825 6.96095 6.59064
#
# Compressibility (1/GPa) = 0.02623216
#
# Stress axis : x y z
#
# Youngs Moduli (GPa) = 81.50881 79.82093 103.40700
#
# Poissons Ratio (x) = 0.19147 0.18618
# Poissons Ratio (y) = 0.19552 -0.00845
# Poissons Ratio (z) = 0.14676 -0.00652
#
# Static dielectric constant tensor:
#      x y z
#    x 1.906460 0.085650 0.012410 
#    y 0.085650 1.941120 0.073660 
#    z 0.012410 0.073660 1.957350 
# 
# From -- ./inp_files/534383.got.cif
#   From: 2010.05.17/outbox.cif.g08.bks.cpg/sg2_268_cif.got.tgz:534383.got - 2010.06.03 11:33:40.
