data_PCOD9032633
_publ_section_title
;
Structure prediction by ZEFSAII (Michael W. Deem and Ramdas Pophale) SiO2 
 PCOD9032633
Probable space group: P -1
;
_chemical_formula_sum "Si O2"
_cell_formula_units_Z 10
_cell_length_a 7.382358
_cell_length_b 5.287849
_cell_length_c 11.769241
_cell_angle_alpha 65.948966
_cell_angle_beta 87.176527
_cell_angle_gamma 91.479964
_cell_volume 418.506380
_symmetry_space_group_name_H-M "P -1"
_symmetry_group_IT_number 2
_symmetry_cell_setting 'triclinic'
loop_
_space_group_symop_operation_xyz
x,y,z
-x,-y,-z
loop_
_atom_site_type_symbol
_atom_site_label
_atom_site_fract_x
_atom_site_fract_y
_atom_site_fract_z
Si Si1 0.171618 0.681753 0.508982
Si Si2 0.506142 0.490999 0.316832
Si Si3 0.858692 0.740198 0.662074
Si Si4 0.513994 0.137596 0.146637
Si Si5 0.193998 0.494379 0.053720
O O1 0.348180 0.568760 0.581206
O O2 0.000000 0.500000 0.500000
O O3 0.063742 0.787847 0.605863
O O4 0.205754 0.947628 0.378565
O O5 0.696792 0.600546 0.615788
O O6 0.533584 0.307317 0.235145
O O7 0.519144 0.812152 0.224648
O O8 0.851089 0.537917 0.806289
O O9 0.325268 0.235854 0.079926
O O10 0.677790 0.249426 0.040236
O O11 0.000000 0.500000 0.000000
#
# Coordination Sequence:
#
# PCOD9032633 Si02
#       5
#     2   2   2   2   2
#     4  11  26  43  69  99 135 178 234 280 331 403
#     4  11  25  46  73  97 142 175 222 284 339 400
#     4  10  25  44  65 102 133 181 228 274 343 399
#     4  10  25  44  69 107 131 178 225 271 342 410
#     4  10  22  43  72  97 140 174 223 278 337 399
#
# _framework density 23.894500000000001
#
# number of rings (size 3 to 8) (size 9 to 14) (size 15 to 20)
#    0.000    1.600    0.000    1.800   14.000    8.000 
#    0.000    6.000    0.000    0.000    0.000    0.000 
#    0.000    0.000    0.000    0.000    0.000    0.000 
#
# Total GULP energy -55845.691940 kJ/mol
# GULP energy per Si atom -5584.569194 kJ/mol
# Density = 2.384012 g / cm^3
# Si number density = 23.894500 Si / 1000 Ang^3
#
#
#
# Elastic Constant Matrix: (Units=GPa)
#
#
# Indices 1 2 3 4 5 6 
#
# 1 174.7580 24.1502 69.8964 -6.6971 36.4354 31.3756
# 2 24.1502 127.3811 46.2849 -22.5841 26.2676 13.5866
# 3 69.8964 46.2849 102.1838 2.6854 22.4054 27.1001
# 4 -6.6971 -22.5841 2.6854 41.4955 6.7831 -1.6869
# 5 36.4354 26.2676 22.4054 6.7831 61.7901 8.8440
# 6 31.3756 13.5866 27.1001 -1.6869 8.8440 23.3656
#
#
#
# Elastic Compliance Matrix: (Units=1/GPa)
#
#
# Indices 1 2 3 4 5 6 
#
# 1 0.009603 0.002178 -0.004990 0.003484 -0.004228 -0.006522
# 2 0.002178 0.012159 -0.005935 0.008165 -0.005113 -0.000586
# 3 -0.004990 -0.005935 0.019279 -0.005975 0.000994 -0.013016
# 4 0.003484 0.008165 -0.005975 0.030746 -0.007078 0.002402
# 5 -0.004228 -0.005113 0.000994 -0.007078 0.021428 -0.001124
# 6 -0.006522 -0.000586 -0.013016 0.002402 -0.001124 0.067591
#
#
# Mechanical properties :
#
#
# Convention : Reuss Voigt Hill
#
# Bulk Modulus (GPa) = 42.46990 76.10955 59.28972
# Shear Modulus (GPa) = 26.86012 42.92968 34.89490
#
# Velocity S-wave (km/s) = 3.35642 4.24327 3.82563
# Velocity P-wave (km/s) = 5.73003 7.47854 6.66190
#
# Compressibility (1/GPa) = 0.02354609
#
# Stress axis : x y z
#
# Youngs Moduli (GPa) = 104.13465 82.24613 51.87010
#
# Poissons Ratio (x) = -0.17910 0.25883
# Poissons Ratio (y) = -0.22677 0.30785
# Poissons Ratio (z) = 0.51962 0.48813
#
# Static dielectric constant tensor:
#      x y z
#    x 2.002890 -0.161420 -0.104840 
#    y -0.161420 2.117940 0.142030 
#    z -0.104840 0.142030 1.932730 
# 
# From -- ./inp_files/372318.got.cif
#   From: 2010.05.17/outbox.cif.g08.bks.cpg/sg2_187_cif.got.tgz:372318.got - 2010.06.03 11:33:40.
