data_PCOD9032384
_publ_section_title
;
Structure prediction by ZEFSAII (Michael W. Deem and Ramdas Pophale) SiO2 
 PCOD9032384
Probable space group: P -1
;
_chemical_formula_sum "Si O2"
_cell_formula_units_Z 16
_cell_length_a 9.731805
_cell_length_b 6.164936
_cell_length_c 18.320220
_cell_angle_alpha 59.569248
_cell_angle_beta 129.104020
_cell_angle_gamma 127.622354
_cell_volume 662.244682
_symmetry_space_group_name_H-M "P -1"
_symmetry_group_IT_number 2
_symmetry_cell_setting 'triclinic'
loop_
_space_group_symop_operation_xyz
x,y,z
-x,-y,-z
loop_
_atom_site_type_symbol
_atom_site_label
_atom_site_fract_x
_atom_site_fract_y
_atom_site_fract_z
Si Si1 0.053895 0.145766 0.799996
Si Si2 0.111136 0.855927 0.109072
Si Si3 0.362365 0.293588 0.428312
Si Si4 0.177349 0.187622 0.676964
Si Si5 0.971512 0.616317 0.651451
Si Si6 0.538190 0.120374 0.869569
Si Si7 0.233089 0.734814 0.940509
Si Si8 0.266077 0.675469 0.524452
O O1 0.886155 0.056369 0.820377
O O2 0.103553 0.471362 0.751157
O O3 0.039404 0.073163 0.721774
O O4 0.192716 0.006531 0.897160
O O5 0.321646 0.921430 0.135193
O O6 0.964614 0.526224 0.105213
O O7 0.000000 0.000000 0.000000
O O8 0.500000 0.500000 0.500000
O O9 0.199936 0.408745 0.344551
O O10 0.509020 0.286943 0.416023
O O11 0.270045 0.977412 0.482359
O O12 0.105956 0.944681 0.634181
O O13 0.392394 0.234597 0.767135
O O14 0.180093 0.465686 0.598033
O O15 0.851665 0.468656 0.564185
O O16 0.395346 0.839235 0.913330
O O17 0.677248 0.319684 0.945879
#
# Coordination Sequence:
#
# PCOD9032384 Si02
#       8
#     2   2   2   2   2   2   2   2
#     4  11  24  42  67 104 138 182 234 295 353 426
#     4  12  25  45  74 104 138 193 240 291 371 432
#     4   9  21  42  66 100 137 179 236 296 349 426
#     4  11  25  45  66 106 142 182 242 298 360 427
#     4  11  23  43  71  96 142 185 236 304 357 421
#     4  10  23  46  71 102 142 186 230 302 356 435
#     4  10  23  49  68 100 149 179 238 299 363 436
#     4  10  22  43  71 100 138 191 238 290 363 427
#
# _framework density 24.160253000000001
#
# number of rings (size 3 to 8) (size 9 to 14) (size 15 to 20)
#    0.000    1.500    1.250    3.000    1.750    4.500 
#   11.250    0.000    0.000    0.000    0.000    0.000 
#    0.000    0.000    0.000    0.000    0.000    0.000 
#
# Total GULP energy -89322.724157 kJ/mol
# GULP energy per Si atom -5582.670260 kJ/mol
# Density = 2.410526 g / cm^3
# Si number density = 24.160253 Si / 1000 Ang^3
#
#
#
# Elastic Constant Matrix: (Units=GPa)
#
#
# Indices 1 2 3 4 5 6 
#
# 1 175.3645 35.2921 42.2369 -5.2375 7.5060 1.2380
# 2 35.2921 107.4412 49.0546 -6.7491 0.5047 -8.1604
# 3 42.2369 49.0546 112.7243 -7.4283 6.1012 -12.0189
# 4 -5.2375 -6.7491 -7.4283 30.0927 -1.2837 -1.9935
# 5 7.5060 0.5047 6.1012 -1.2837 39.0443 -6.0236
# 6 1.2380 -8.1604 -12.0189 -1.9935 -6.0236 23.6962
#
#
#
# Elastic Compliance Matrix: (Units=1/GPa)
#
#
# Indices 1 2 3 4 5 6 
#
# 1 0.006535 -0.001382 -0.001998 0.000139 -0.001251 -0.002137
# 2 -0.001382 0.012064 -0.004436 0.001583 0.001229 0.002422
# 3 -0.001998 -0.004436 0.012225 0.001963 -0.000668 0.004772
# 4 0.000139 0.001583 0.001963 0.034479 0.001523 0.004821
# 5 -0.001251 0.001229 -0.000668 0.001523 0.027097 0.007166
# 6 -0.002137 0.002422 0.004772 0.004821 0.007166 0.047795
#
#
# Mechanical properties :
#
#
# Convention : Reuss Voigt Hill
#
# Bulk Modulus (GPa) = 65.82693 72.07746 68.95220
# Shear Modulus (GPa) = 31.07718 36.49639 33.78678
#
# Velocity S-wave (km/s) = 3.59038 3.89086 3.74364
# Velocity P-wave (km/s) = 6.67030 7.07692 6.87662
#
# Compressibility (1/GPa) = 0.01519135
#
# Stress axis : x y z
#
# Youngs Moduli (GPa) = 153.03271 82.88809 81.80142
#
# Poissons Ratio (x) = 0.11454 0.16344
# Poissons Ratio (y) = 0.21148 0.36289
# Poissons Ratio (z) = 0.30577 0.36771
#
# Static dielectric constant tensor:
#      x y z
#    x 1.966520 0.012060 0.022560 
#    y 0.012060 1.931350 0.014280 
#    z 0.022560 0.014280 1.950890 
# 
# From -- ./inp_files/584483.got.cif
#   From: 2010.05.17/outbox.cif.g08.bks.cpg/sg2_293_cif.got.tgz:584483.got - 2010.06.03 11:33:40.
