data_PCOD9032517
_publ_section_title
;
Structure prediction by ZEFSAII (Michael W. Deem and Ramdas Pophale) SiO2 
 PCOD9032517
Probable space group: P -1
;
_chemical_formula_sum "Si O2"
_cell_formula_units_Z 16
_cell_length_a 22.828957
_cell_length_b 5.477797
_cell_length_c 16.677280
_cell_angle_alpha 116.454656
_cell_angle_beta 20.317160
_cell_angle_gamma 118.516430
_cell_volume 636.263476
_symmetry_space_group_name_H-M "P -1"
_symmetry_group_IT_number 2
_symmetry_cell_setting 'triclinic'
loop_
_space_group_symop_operation_xyz
x,y,z
-x,-y,-z
loop_
_atom_site_type_symbol
_atom_site_label
_atom_site_fract_x
_atom_site_fract_y
_atom_site_fract_z
Si Si1 0.005980 0.810896 0.386558
Si Si2 0.334643 0.529747 0.911221
Si Si3 0.034783 0.098926 0.875999
Si Si4 0.689400 0.936743 0.243801
Si Si5 0.637405 0.806349 0.457946
Si Si6 0.364779 0.600624 0.393871
Si Si7 0.654050 0.357343 0.754561
Si Si8 0.874304 0.958995 0.417648
O O1 0.830135 0.582186 0.573974
O O2 0.002669 0.973423 0.329796
O O3 0.000000 0.000000 0.500000
O O4 0.170757 0.663846 0.158450
O O5 0.288630 0.220843 0.888614
O O6 0.450715 0.694451 0.715335
O O7 0.470374 0.519403 0.806458
O O8 0.222794 0.282543 0.675339
O O9 0.067334 0.914854 0.727845
O O10 0.000000 0.000000 0.000000
O O11 0.857514 0.171401 0.081191
O O12 0.681390 0.732056 0.301022
O O13 0.500000 0.000000 0.500000
O O14 0.662601 0.141392 0.479348
O O15 0.399225 0.728214 0.280270
O O16 0.197902 0.361763 0.558860
O O17 0.711516 0.084286 0.676303
O O18 0.500000 0.500000 0.000000
#
# Coordination Sequence:
#
# PCOD9032517 Si02
#       8
#     2   2   2   2   2   2   2   2
#     4  11  30  46  72 112 143 187 242 298 367 426
#     4  12  25  45  71 100 152 182 233 307 361 417
#     4  10  22  43  71  98 140 181 237 282 344 430
#     4  11  24  42  66 105 143 185 237 294 351 429
#     4  11  23  45  68 103 138 193 236 284 359 434
#     4  11  23  42  76 100 141 182 244 284 360 426
#     4  11  26  47  76 102 139 188 242 296 361 433
#     4  11  24  48  73 103 145 188 238 296 359 424
#
# _framework density 25.146813999999999
#
# number of rings (size 3 to 8) (size 9 to 14) (size 15 to 20)
#    0.000    1.000    3.750    1.125    8.750    2.500 
#    0.000    3.125    0.000    0.000    0.000    0.000 
#    0.000    0.000    0.000    0.000    0.000    0.000 
#
# Total GULP energy -89225.149965 kJ/mol
# GULP energy per Si atom -5576.571873 kJ/mol
# Density = 2.508958 g / cm^3
# Si number density = 25.146814 Si / 1000 Ang^3
#
#
#
# Elastic Constant Matrix: (Units=GPa)
#
#
# Indices 1 2 3 4 5 6 
#
# 1 165.7335 31.9305 54.3064 22.1641 -24.0540 21.4638
# 2 31.9305 77.0769 40.5865 15.7554 0.2175 11.2285
# 3 54.3064 40.5865 191.6458 23.8526 -31.7259 17.3136
# 4 22.1641 15.7554 23.8526 39.1312 2.7878 -1.2224
# 5 -24.0540 0.2175 -31.7259 2.7878 38.2799 2.3283
# 6 21.4638 11.2285 17.3136 -1.2224 2.3283 32.4108
#
#
#
# Elastic Compliance Matrix: (Units=1/GPa)
#
#
# Indices 1 2 3 4 5 6 
#
# 1 0.008656 -0.001817 0.000089 -0.004850 0.006228 -0.005780
# 2 -0.001817 0.016367 -0.002717 -0.003780 -0.003032 -0.002940
# 3 0.000089 -0.002717 0.007857 -0.004379 0.007145 -0.003993
# 4 -0.004850 -0.003780 -0.004379 0.033454 -0.009628 0.008814
# 5 0.006228 -0.003032 0.007145 -0.009628 0.037280 -0.009931
# 6 -0.005780 -0.002940 -0.003993 0.008814 -0.009931 0.038879
#
#
# Mechanical properties :
#
#
# Convention : Reuss Voigt Hill
#
# Bulk Modulus (GPa) = 41.68549 76.45587 59.07068
# Shear Modulus (GPa) = 31.37144 42.47324 36.92234
#
# Velocity S-wave (km/s) = 3.53587 4.11422 3.83596
# Velocity P-wave (km/s) = 5.76912 7.28278 6.56969
#
# Compressibility (1/GPa) = 0.02398916
#
# Stress axis : x y z
#
# Youngs Moduli (GPa) = 115.53037 61.09795 127.27913
#
# Poissons Ratio (x) = 0.11100 -0.01129
# Poissons Ratio (y) = 0.20988 0.34585
# Poissons Ratio (z) = -0.01025 0.16602
#
# Static dielectric constant tensor:
#      x y z
#    x 2.058690 -0.053940 0.019290 
#    y -0.053940 2.101720 -0.062440 
#    z 0.019290 -0.062440 2.073380 
# 
# From -- ./inp_files/578777.got.cif
#   From: 2010.05.17/outbox.cif.g08.bks.cpg/sg2_290_cif.got.tgz:578777.got - 2010.06.03 11:33:40.
