data_PCOD9032408
_publ_section_title
;
Structure prediction by ZEFSAII (Michael W. Deem and Ramdas Pophale) SiO2 
 PCOD9032408
Probable space group: P -1
;
_chemical_formula_sum "Si O2"
_cell_formula_units_Z 14
_cell_length_a 15.008768
_cell_length_b 7.243888
_cell_length_c 18.409428
_cell_angle_alpha 124.422561
_cell_angle_beta 160.773049
_cell_angle_gamma 53.948892
_cell_volume 532.544430
_symmetry_space_group_name_H-M "P -1"
_symmetry_group_IT_number 2
_symmetry_cell_setting 'triclinic'
loop_
_space_group_symop_operation_xyz
x,y,z
-x,-y,-z
loop_
_atom_site_type_symbol
_atom_site_label
_atom_site_fract_x
_atom_site_fract_y
_atom_site_fract_z
Si Si1 0.723987 0.675764 0.372922
Si Si2 0.837945 0.042831 0.960657
Si Si3 0.828186 0.650512 0.074567
Si Si4 0.679178 0.692308 0.688438
Si Si5 0.499316 0.346180 0.036535
Si Si6 0.681174 0.016324 0.279983
Si Si7 0.859789 0.966818 0.659683
O O1 0.734789 0.430753 0.287558
O O2 0.698399 0.867192 0.332849
O O3 0.422114 0.750413 0.193483
O O4 0.903284 0.742845 0.592083
O O5 0.748452 0.792423 0.841802
O O6 0.000254 0.073403 0.164401
O O7 0.000000 0.000000 0.000000
O O8 0.036586 0.425622 0.156937
O O9 0.004207 0.848309 0.238080
O O10 0.757462 0.621904 0.098255
O O11 0.529616 0.739443 0.824756
O O12 0.500000 0.500000 0.500000
O O13 0.459115 0.917432 0.543225
O O14 0.500000 0.500000 0.000000
O O15 0.477494 0.105548 0.930499
O O16 0.000000 0.000000 0.500000
#
# Coordination Sequence:
#
# PCOD9032408 Si02
#       7
#     2   2   2   2   2   2   2
#     4  10  22  44  66 101 142 182 224 282 344 405
#     4  11  22  42  69 101 147 176 221 278 343 418
#     4  11  21  44  70  98 137 183 224 288 339 400
#     4   9  22  40  67 105 137 171 233 270 344 411
#     4  10  23  43  68 100 137 176 235 290 333 400
#     4  11  23  44  69  99 136 184 238 286 339 399
#     4  10  22  43  71 102 138 182 224 275 345 418
#
# _framework density 26.288888
#
# number of rings (size 3 to 8) (size 9 to 14) (size 15 to 20)
#    0.000    1.714    1.429    2.143    0.000    4.571 
#    7.714    3.571    0.000    0.000    0.000    0.000 
#    0.000    0.000    0.000    0.000    0.000    0.000 
#
# Total GULP energy -78122.981297 kJ/mol
# GULP energy per Si atom -5580.212950 kJ/mol
# Density = 2.622905 g / cm^3
# Si number density = 26.288888 Si / 1000 Ang^3
#
#
#
# Elastic Constant Matrix: (Units=GPa)
#
#
# Indices 1 2 3 4 5 6 
#
# 1 163.3259 58.4797 52.7281 -3.9101 -3.7206 -8.3018
# 2 58.4797 141.4895 71.6689 -6.4199 -13.8825 -38.3655
# 3 52.7281 71.6689 144.2763 4.5871 -15.7789 -12.6284
# 4 -3.9101 -6.4199 4.5871 57.4560 -20.4881 0.3859
# 5 -3.7206 -13.8825 -15.7789 -20.4881 58.1555 11.0975
# 6 -8.3018 -38.3655 -12.6284 0.3859 11.0975 42.0411
#
#
#
# Elastic Compliance Matrix: (Units=1/GPa)
#
#
# Indices 1 2 3 4 5 6 
#
# 1 0.007527 -0.002710 -0.001560 0.000261 -0.000230 -0.001397
# 2 -0.002710 0.013546 -0.004853 0.001799 0.000423 0.010240
# 3 -0.001560 -0.004853 0.009919 -0.000879 0.001535 -0.002154
# 4 0.000261 0.001799 -0.000879 0.020384 0.007531 -0.000746
# 5 -0.000230 0.000423 0.001535 0.007531 0.021284 -0.004886
# 6 -0.001397 0.010240 -0.002154 -0.000746 -0.004886 0.033505
#
#
# Mechanical properties :
#
#
# Convention : Reuss Voigt Hill
#
# Bulk Modulus (GPa) = 78.46180 90.53833 84.50006
# Shear Modulus (GPa) = 38.86215 49.27819 44.07017
#
# Velocity S-wave (km/s) = 3.84900 4.33423 4.09880
# Velocity P-wave (km/s) = 7.04726 7.71764 7.39006
#
# Compressibility (1/GPa) = 0.01274506
#
# Stress axis : x y z
#
# Youngs Moduli (GPa) = 132.85767 73.82316 100.81379
#
# Poissons Ratio (x) = 0.20008 0.15730
# Poissons Ratio (y) = 0.36007 0.48925
# Poissons Ratio (z) = 0.20730 0.35826
#
# Static dielectric constant tensor:
#      x y z
#    x 2.075060 0.050110 0.149760 
#    y 0.050110 2.164780 0.111030 
#    z 0.149760 0.111030 2.272070 
# 
# From -- ./inp_files/572905.got.cif
#   From: 2010.05.17/outbox.cif.g08.bks.cpg/sg2_287_cif.got.tgz:572905.got - 2010.06.03 11:33:40.
