data_PCOD9032454
_publ_section_title
;
Structure prediction by ZEFSAII (Michael W. Deem and Ramdas Pophale) SiO2 
 PCOD9032454
Probable space group: P -1
;
_chemical_formula_sum "Si O2"
_cell_formula_units_Z 14
_cell_length_a 7.606526
_cell_length_b 11.466152
_cell_length_c 9.872439
_cell_angle_alpha 52.771984
_cell_angle_beta 66.910369
_cell_angle_gamma 93.186630
_cell_volume 578.074078
_symmetry_space_group_name_H-M "P -1"
_symmetry_group_IT_number 2
_symmetry_cell_setting 'triclinic'
loop_
_space_group_symop_operation_xyz
x,y,z
-x,-y,-z
loop_
_atom_site_type_symbol
_atom_site_label
_atom_site_fract_x
_atom_site_fract_y
_atom_site_fract_z
Si Si1 0.311022 0.917597 0.347864
Si Si2 0.326128 0.004412 0.656832
Si Si3 0.791450 0.514929 0.869259
Si Si4 0.148482 0.606139 0.497298
Si Si5 0.398926 0.678717 0.675654
Si Si6 0.507397 0.599668 0.221694
Si Si7 0.129406 0.166549 0.202204
O O1 0.563570 0.014530 0.221585
O O2 0.201017 0.798204 0.341764
O O3 0.290270 0.775970 0.559064
O O4 0.185714 0.024541 0.347323
O O5 0.362144 0.190233 0.496481
O O6 0.093667 0.893858 0.762921
O O7 0.500000 0.000000 0.500000
O O8 0.627017 0.466696 0.829670
O O9 0.829133 0.684229 0.812696
O O10 0.001774 0.525023 0.728133
O O11 0.700352 0.379820 0.107207
O O12 0.368295 0.605167 0.384554
O O13 0.000000 0.500000 0.500000
O O14 0.387446 0.524953 0.707926
O O15 0.689567 0.767471 0.012717
#
# Coordination Sequence:
#
# PCOD9032454 Si02
#       7
#     2   2   2   2   2   2   2
#     4  10  25  42  71 107 142 175 234 291 349 410
#     4  10  24  40  67 106 146 171 225 294 355 406
#     4  10  22  43  71 107 138 184 234 293 343 417
#     4  10  23  43  70  99 143 187 232 281 347 414
#     4   9  22  42  67 101 142 170 237 289 342 405
#     4  10  23  44  69 102 140 191 237 277 342 429
#     4  11  23  44  76 101 141 185 228 290 358 403
#
# _framework density 24.218349
#
# number of rings (size 3 to 8) (size 9 to 14) (size 15 to 20)
#    0.857    1.143    0.000    2.571    8.000    2.857 
#    2.571    0.714    0.000    1.714    0.000    3.000 
#    0.000    0.000    0.000    0.000    0.000    0.000 
#
# Total GULP energy -77941.621406 kJ/mol
# GULP energy per Si atom -5567.258672 kJ/mol
# Density = 2.416323 g / cm^3
# Si number density = 24.218349 Si / 1000 Ang^3
#
#
#
# Elastic Constant Matrix: (Units=GPa)
#
#
# Indices 1 2 3 4 5 6 
#
# 1 154.5754 30.3860 48.4387 -9.0373 -32.6171 -3.0313
# 2 30.3860 64.6820 24.8550 -3.5480 -7.2348 -20.7180
# 3 48.4387 24.8550 80.7256 18.7578 -16.8220 -21.1441
# 4 -9.0373 -3.5480 18.7578 43.2880 -7.8562 -11.6086
# 5 -32.6171 -7.2348 -16.8220 -7.8562 40.8194 -7.8098
# 6 -3.0313 -20.7180 -21.1441 -11.6086 -7.8098 47.2192
#
#
#
# Elastic Compliance Matrix: (Units=1/GPa)
#
#
# Indices 1 2 3 4 5 6 
#
# 1 0.010288 -0.001649 -0.005601 0.005632 0.006688 -0.000081
# 2 -0.001649 0.021695 -0.003697 0.006487 0.004173 0.010042
# 3 -0.005601 -0.003697 0.021014 -0.008463 0.003019 0.005847
# 4 0.005632 0.006487 -0.008463 0.032791 0.010228 0.009171
# 5 0.006688 0.004173 0.003019 0.010228 0.036110 0.012099
# 6 -0.000081 0.010042 0.005847 0.009171 0.012099 0.032453
#
#
# Mechanical properties :
#
#
# Convention : Reuss Voigt Hill
#
# Bulk Modulus (GPa) = 32.15345 56.37137 44.26241
# Shear Modulus (GPa) = 26.79324 39.35221 33.07273
#
# Velocity S-wave (km/s) = 3.32975 4.03537 3.69942
# Velocity P-wave (km/s) = 5.29984 6.71112 6.04679
#
# Compressibility (1/GPa) = 0.03110086
#
# Stress axis : x y z
#
# Youngs Moduli (GPa) = 97.20176 46.09342 47.58735
#
# Poissons Ratio (x) = 0.07602 0.26655
# Poissons Ratio (y) = 0.16032 0.17595
# Poissons Ratio (z) = 0.54446 0.17042
#
# Static dielectric constant tensor:
#      x y z
#    x 2.189180 0.284530 -0.060560 
#    y 0.284530 2.551640 -0.270640 
#    z -0.060560 -0.270640 2.158320 
# 
# From -- ./inp_files/386645.got.cif
#   From: 2010.05.17/outbox.cif.g08.bks.cpg/sg2_194_cif.got.tgz:386645.got - 2010.06.03 11:33:40.
