data_PCOD9032717
_publ_section_title
;
Structure prediction by ZEFSAII (Michael W. Deem and Ramdas Pophale) SiO2 
 PCOD9032717
Probable space group: P -1
;
_chemical_formula_sum "Si O2"
_cell_formula_units_Z 16
_cell_length_a 14.425450
_cell_length_b 14.096655
_cell_length_c 9.276240
_cell_angle_alpha 88.170571
_cell_angle_beta 68.656208
_cell_angle_gamma 30.824003
_cell_volume 728.191353
_symmetry_space_group_name_H-M "P -1"
_symmetry_group_IT_number 2
_symmetry_cell_setting 'triclinic'
loop_
_space_group_symop_operation_xyz
x,y,z
-x,-y,-z
loop_
_atom_site_type_symbol
_atom_site_label
_atom_site_fract_x
_atom_site_fract_y
_atom_site_fract_z
Si Si1 0.117776 0.192748 0.382773
Si Si2 0.328788 0.282133 0.924127
Si Si3 0.567154 0.330686 0.088527
Si Si4 0.800396 0.100744 0.662554
Si Si5 0.603428 0.460622 0.300752
Si Si6 0.107897 0.110694 0.967445
Si Si7 0.113065 0.639700 0.207401
Si Si8 0.008315 0.600151 0.829509
O O1 0.955813 0.388695 0.349803
O O2 0.038209 0.278949 0.586685
O O3 0.392941 0.983611 0.212377
O O4 0.114047 0.082013 0.366283
O O5 0.242280 0.375683 0.804162
O O6 0.273666 0.424754 0.039539
O O7 0.157170 0.348890 0.078334
O O8 0.609050 0.378463 0.173468
O O9 0.292318 0.556046 0.188842
O O10 0.664719 0.150574 0.116151
O O11 0.710950 0.212892 0.863724
O O12 0.580008 0.300237 0.664556
O O13 0.000000 0.000000 0.500000
O O14 0.500000 0.500000 0.500000
O O15 0.870878 0.270269 0.168928
O O16 0.048760 0.168789 0.829241
O O17 0.129686 0.196784 0.014990
#
# Coordination Sequence:
#
# PCOD9032717 Si02
#       8
#     2   2   2   2   2   2   2   2
#     4  12  24  42  71  98 135 178 224 271 337 402
#     4  10  22  47  69  99 137 171 221 280 338 394
#     4  12  24  45  65  94 137 176 221 285 326 395
#     4  12  24  42  66  96 137 179 225 272 336 394
#     4  12  27  41  65  96 132 178 232 274 334 404
#     4  11  23  44  64  94 132 174 223 271 341 388
#     4  11  25  42  67 101 134 173 219 277 331 406
#     4  10  22  43  73  96 133 177 218 282 335 394
#
# _framework density 21.972248
#
# number of rings (size 3 to 8) (size 9 to 14) (size 15 to 20)
#    0.000    0.750    3.750    3.375    5.250    1.500 
#    0.000    5.625    0.000    0.000    0.000    0.000 
#    0.000    0.000    0.000    0.000    0.000    0.000 
#
# Total GULP energy -89596.156257 kJ/mol
# GULP energy per Si atom -5599.759766 kJ/mol
# Density = 2.192224 g / cm^3
# Si number density = 21.972248 Si / 1000 Ang^3
#
#
#
# Elastic Constant Matrix: (Units=GPa)
#
#
# Indices 1 2 3 4 5 6 
#
# 1 72.5564 0.0289 -1.0565 -4.2697 -8.3423 -1.5508
# 2 0.0289 104.4584 18.6467 -40.2537 6.8141 2.9324
# 3 -1.0565 18.6467 93.2578 -30.5713 8.4270 -12.7748
# 4 -4.2697 -40.2537 -30.5713 31.5356 -0.1895 -2.7411
# 5 -8.3423 6.8141 8.4270 -0.1895 12.6468 -5.0183
# 6 -1.5508 2.9324 -12.7748 -2.7411 -5.0183 25.2301
#
#
#
# Elastic Compliance Matrix: (Units=1/GPa)
#
#
# Indices 1 2 3 4 5 6 
#
# 1 0.015375 0.000694 0.001063 0.004411 0.010719 0.004014
# 2 0.000694 0.025836 0.011787 0.044741 -0.019026 0.004085
# 3 0.001063 0.011787 0.024709 0.040109 -0.016652 0.012252
# 4 0.004411 0.044741 0.040109 0.129996 -0.037205 0.022103
# 5 0.010719 -0.019026 -0.016652 -0.037205 0.111957 0.012665
# 6 0.004014 0.004085 0.012252 0.022103 0.012665 0.050531
#
#
# Mechanical properties :
#
#
# Convention : Reuss Voigt Hill
#
# Bulk Modulus (GPa) = 10.75169 33.94565 22.34867
# Shear Modulus (GPa) = 13.79991 30.72607 22.26299
#
# Velocity S-wave (km/s) = 2.50883 3.74358 3.18658
# Velocity P-wave (km/s) = 3.64640 5.84540 4.87160
#
# Compressibility (1/GPa) = 0.09300865
#
# Stress axis : x y z
#
# Youngs Moduli (GPa) = 65.03914 38.70510 40.47040
#
# Poissons Ratio (x) = -0.02686 -0.04300
# Poissons Ratio (y) = -0.04513 -0.47704
# Poissons Ratio (z) = -0.06911 -0.45623
#
# Static dielectric constant tensor:
#      x y z
#    x 1.783540 0.007310 -0.005550 
#    y 0.007310 1.823550 -0.012160 
#    z -0.005550 -0.012160 1.796130 
# 
# From -- ./inp_files/297409.got.cif
#   From: 2010.05.17/outbox.cif.g08.bks.cpg/sg2_149_cif.got.tgz:297409.got - 2010.06.03 11:33:40.
