data_PCOD9032133
_publ_section_title
;
Structure prediction by ZEFSAII (Michael W. Deem and Ramdas Pophale) SiO2 
 PCOD9032133
Probable space group: P -1
;
_chemical_formula_sum "Si O2"
_cell_formula_units_Z 14
_cell_length_a 8.464682
_cell_length_b 22.054368
_cell_length_c 10.971196
_cell_angle_alpha 152.120882
_cell_angle_beta 131.176416
_cell_angle_gamma 38.303977
_cell_volume 589.217358
_symmetry_space_group_name_H-M "P -1"
_symmetry_group_IT_number 2
_symmetry_cell_setting 'triclinic'
loop_
_space_group_symop_operation_xyz
x,y,z
-x,-y,-z
loop_
_atom_site_type_symbol
_atom_site_label
_atom_site_fract_x
_atom_site_fract_y
_atom_site_fract_z
Si Si1 0.488201 0.346186 0.733335
Si Si2 0.718447 0.284389 0.488944
Si Si3 0.133062 0.095086 0.744232
Si Si4 0.666015 0.348531 0.088656
Si Si5 0.653610 0.874434 0.745142
Si Si6 0.192299 0.115564 0.541361
Si Si7 0.180698 0.838111 0.933179
O O1 0.659770 0.246491 0.525109
O O2 0.283917 0.302637 0.532217
O O3 0.500000 0.500000 0.000000
O O4 0.556262 0.311085 0.848720
O O5 0.483288 0.464122 0.659460
O O6 0.722987 0.190618 0.207274
O O7 0.991739 0.262559 0.612548
O O8 0.108128 0.171075 0.735836
O O9 0.432248 0.970911 0.702189
O O10 0.000000 0.000000 0.500000
O O11 0.970722 0.234725 0.008721
O O12 0.636799 0.296999 0.115255
O O13 0.916187 0.854383 0.821094
O O14 0.500000 0.000000 0.000000
O O15 0.500000 0.000000 0.500000
O O16 0.133953 0.993036 0.243641
#
# Coordination Sequence:
#
# PCOD9032133 Si02
#       7
#     2   2   2   2   2   2   2
#     4  10  22  43  69  98 135 179 227 276 340 403
#     4  11  24  43  68 101 143 170 221 298 346 393
#     4  12  20  41  74  97 130 182 240 270 324 428
#     4  11  22  44  71  93 138 183 227 272 338 419
#     4  12  22  39  73 104 133 183 232 285 335 409
#     4  12  25  44  70  99 135 181 228 288 344 404
#     4  12  25  45  68 101 139 177 231 283 345 411
#
# _framework density 23.760332999999999
#
# number of rings (size 3 to 8) (size 9 to 14) (size 15 to 20)
#    0.000    0.571    5.714    2.571    0.000    1.143 
#    0.000   12.143    0.000    0.000    0.000    0.000 
#    0.000    0.000    0.000    0.000    0.000    0.000 
#
# Total GULP energy -77935.004558 kJ/mol
# GULP energy per Si atom -5566.786040 kJ/mol
# Density = 2.370625 g / cm^3
# Si number density = 23.760333 Si / 1000 Ang^3
#
#
#
# Elastic Constant Matrix: (Units=GPa)
#
#
# Indices 1 2 3 4 5 6 
#
# 1 52.0627 15.0739 28.6233 -19.9767 -8.3203 0.8493
# 2 15.0739 98.7544 9.3392 -9.2367 4.1948 5.6989
# 3 28.6233 9.3392 108.9722 -9.7596 10.2567 -8.1898
# 4 -19.9767 -9.2367 -9.7596 40.7389 4.9895 -16.3802
# 5 -8.3203 4.1948 10.2567 4.9895 39.8765 -17.5853
# 6 0.8493 5.6989 -8.1898 -16.3802 -17.5853 38.0690
#
#
#
# Elastic Compliance Matrix: (Units=1/GPa)
#
#
# Indices 1 2 3 4 5 6 
#
# 1 0.031899 -0.003820 -0.006911 0.015953 0.011489 0.010545
# 2 -0.003820 0.011004 0.000118 -0.000218 -0.003361 -0.003183
# 3 -0.006911 0.000118 0.011443 0.000201 -0.004068 0.000806
# 4 0.015953 -0.000218 0.000201 0.039554 0.007199 0.020065
# 5 0.011489 -0.003361 -0.004068 0.007199 0.036498 0.019329
# 6 0.010545 -0.003183 0.000806 0.020065 0.019329 0.044245
#
#
# Mechanical properties :
#
#
# Convention : Reuss Voigt Hill
#
# Bulk Modulus (GPa) = 30.19398 40.65133 35.42266
# Shear Modulus (GPa) = 24.16523 37.52042 30.84282
#
# Velocity S-wave (km/s) = 3.19257 3.97813 3.60680
# Velocity P-wave (km/s) = 5.13082 6.18439 5.68208
#
# Compressibility (1/GPa) = 0.03311918
#
# Stress axis : x y z
#
# Youngs Moduli (GPa) = 31.34935 90.87497 87.38644
#
# Poissons Ratio (x) = 0.34713 0.60397
# Poissons Ratio (y) = 0.11975 -0.01030
# Poissons Ratio (z) = 0.21667 -0.01071
#
# Static dielectric constant tensor:
#      x y z
#    x 1.994740 -0.003280 0.006480 
#    y -0.003280 2.123050 0.078100 
#    z 0.006480 0.078100 1.924870 
# 
# From -- ./inp_files/406424.got.cif
#   From: 2010.05.17/outbox.cif.g08.bks.cpg/sg2_204_cif.got.tgz:406424.got - 2010.06.03 11:33:40.
