data_PCOD9032976
_publ_section_title
;
Structure prediction by ZEFSAII (Michael W. Deem and Ramdas Pophale) SiO2 
 PCOD9032976
Probable space group: P -1
;
_chemical_formula_sum "Si O2"
_cell_formula_units_Z 16
_cell_length_a 14.180330
_cell_length_b 8.800407
_cell_length_c 8.698936
_cell_angle_alpha 39.686878
_cell_angle_beta 66.919877
_cell_angle_gamma 72.759058
_cell_volume 637.717947
_symmetry_space_group_name_H-M "P -1"
_symmetry_group_IT_number 2
_symmetry_cell_setting 'triclinic'
loop_
_space_group_symop_operation_xyz
x,y,z
-x,-y,-z
loop_
_atom_site_type_symbol
_atom_site_label
_atom_site_fract_x
_atom_site_fract_y
_atom_site_fract_z
Si Si1 0.778638 0.253655 0.658352
Si Si2 0.365479 0.460429 0.665699
Si Si3 0.061108 0.322605 0.784615
Si Si4 0.771751 0.505373 0.987373
Si Si5 0.582098 0.715898 0.774659
Si Si6 0.527095 0.840858 0.376041
Si Si7 0.159523 0.872999 0.957132
Si Si8 0.092710 0.135377 0.256104
O O1 0.677026 0.387976 0.567722
O O2 0.876617 0.432928 0.444828
O O3 0.772619 0.171497 0.901686
O O4 0.810470 0.038402 0.694449
O O5 0.452920 0.610191 0.580801
O O6 0.399540 0.204780 0.780519
O O7 0.272798 0.458678 0.843542
O O8 0.944410 0.286935 0.833514
O O9 0.064050 0.218860 0.037575
O O10 0.124957 0.143195 0.774174
O O11 0.691221 0.621518 0.832603
O O12 0.786330 0.232505 0.144164
O O13 0.877590 0.647421 0.821367
O O14 0.583904 0.818263 0.520637
O O15 0.539559 0.922752 0.752825
O O16 0.500000 0.500000 0.000000
O O17 0.000000 0.000000 0.500000
#
# Coordination Sequence:
#
# PCOD9032976 Si02
#       8
#     2   2   2   2   2   2   2   2
#     4  11  22  43  64  92 129 171 220 265 324 392
#     4  11  23  43  68  96 131 173 215 274 327 384
#     4  10  22  44  64  92 130 175 221 267 325 389
#     4  12  24  43  66 102 129 171 223 271 323 388
#     4  11  23  45  68  99 132 169 217 266 329 395
#     4  10  24  46  67  95 134 171 212 268 334 392
#     4  10  24  40  64  92 130 171 218 269 324 382
#     4  11  25  41  66  97 133 175 216 273 330 380
#
# _framework density 25.089459999999999
#
# number of rings (size 3 to 8) (size 9 to 14) (size 15 to 20)
#    0.000    1.250    2.500    2.625    1.750    4.500 
#    4.500    0.000    0.000    0.000    0.000    0.000 
#    0.000    0.000    0.000    0.000    0.000    0.000 
#
# Total GULP energy -89645.610551 kJ/mol
# GULP energy per Si atom -5602.850659 kJ/mol
# Density = 2.503236 g / cm^3
# Si number density = 25.089460 Si / 1000 Ang^3
#
#
#
# Elastic Constant Matrix: (Units=GPa)
#
#
# Indices 1 2 3 4 5 6 
#
# 1 91.0915 7.5173 -1.4198 1.7758 13.9527 17.6882
# 2 7.5173 180.9956 18.7705 -16.2967 -1.3244 -2.3018
# 3 -1.4198 18.7705 31.6526 1.8105 -10.7255 6.3524
# 4 1.7758 -16.2967 1.8105 27.7224 0.2831 -5.8905
# 5 13.9527 -1.3244 -10.7255 0.2831 30.6285 -6.3642
# 6 17.6882 -2.3018 6.3524 -5.8905 -6.3642 30.8211
#
#
#
# Elastic Compliance Matrix: (Units=1/GPa)
#
#
# Indices 1 2 3 4 5 6 
#
# 1 0.014716 -0.001287 0.000969 -0.004080 -0.008735 -0.011325
# 2 -0.001287 0.006576 -0.004958 0.004942 -0.000258 0.003143
# 3 0.000969 -0.004958 0.040720 -0.007519 0.011950 -0.008289
# 4 -0.004080 0.004942 -0.007519 0.042414 0.001689 0.012715
# 5 -0.008735 -0.000258 0.011950 0.001689 0.043235 0.011781
# 6 -0.011325 0.003143 -0.008289 0.012715 0.011781 0.045750
#
#
# Mechanical properties :
#
#
# Convention : Reuss Voigt Hill
#
# Bulk Modulus (GPa) = 19.43263 39.27508 29.35386
# Shear Modulus (GPa) = 22.61263 36.42585 29.51924
#
# Velocity S-wave (km/s) = 3.00539 3.81443 3.43382
# Velocity P-wave (km/s) = 4.45032 5.92350 5.23895
#
# Compressibility (1/GPa) = 0.05145983
#
# Stress axis : x y z
#
# Youngs Moduli (GPa) = 67.95362 152.07440 24.55818
#
# Poissons Ratio (x) = 0.19572 -0.02381
# Poissons Ratio (y) = 0.08746 0.12176
# Poissons Ratio (z) = -0.06588 0.75401
#
# Static dielectric constant tensor:
#      x y z
#    x 1.976460 -0.047860 -0.039130 
#    y -0.047860 1.967700 0.032450 
#    z -0.039130 0.032450 1.986930 
# 
# From -- ./inp_files/135184.got.cif
#   From: 2010.05.17/outbox.cif.g08.bks.cpg/sg2_68_cif.got.tgz:135184.got - 2010.06.03 11:33:40.
