data_PCOD9032779
_publ_section_title
;
Structure prediction by ZEFSAII (Michael W. Deem and Ramdas Pophale) SiO2 
 PCOD9032779
Probable space group: P -1
;
_chemical_formula_sum "Si O2"
_cell_formula_units_Z 16
_cell_length_a 22.940956
_cell_length_b 16.768237
_cell_length_c 8.200533
_cell_angle_alpha 115.486027
_cell_angle_beta 123.260443
_cell_angle_gamma 17.316771
_cell_volume 727.910203
_symmetry_space_group_name_H-M "P -1"
_symmetry_group_IT_number 2
_symmetry_cell_setting 'triclinic'
loop_
_space_group_symop_operation_xyz
x,y,z
-x,-y,-z
loop_
_atom_site_type_symbol
_atom_site_label
_atom_site_fract_x
_atom_site_fract_y
_atom_site_fract_z
Si Si1 0.758642 0.179695 0.062008
Si Si2 0.499356 0.099686 0.511418
Si Si3 0.353416 0.092612 0.804892
Si Si4 0.998870 0.737981 0.235726
Si Si5 0.306639 0.798576 0.393418
Si Si6 0.953213 0.620970 0.881967
Si Si7 0.421623 0.818247 0.800428
Si Si8 0.112786 0.802451 0.858726
O O1 0.739110 0.162010 0.833501
O O2 0.500000 0.500000 0.000000
O O3 0.852595 0.166091 0.197844
O O4 0.906247 0.938345 0.189469
O O5 0.246954 0.443482 0.436884
O O6 0.500000 0.000000 0.500000
O O7 0.598519 0.973186 0.370061
O O8 0.682153 0.942866 0.736237
O O9 0.097004 0.415918 0.765201
O O10 0.435152 0.903567 0.847918
O O11 0.500000 0.000000 0.000000
O O12 0.803804 0.932578 0.222616
O O13 0.032329 0.623637 0.046562
O O14 0.500000 0.500000 0.500000
O O15 0.389334 0.795450 0.570792
O O16 0.065350 0.059823 0.332700
O O17 0.000000 0.500000 0.000000
O O18 0.646297 0.520146 0.983867
O O19 0.000000 0.000000 0.000000
#
# Coordination Sequence:
#
# PCOD9032779 Si02
#       8
#     2   2   2   2   2   2   2   2
#     4  11  23  47  73 105 148 191 235 302 373 431
#     4  12  26  47  73 102 143 191 243 304 372 433
#     4  12  26  47  77 105 145 196 247 305 369 438
#     4  12  26  46  71 106 148 188 245 301 369 439
#     4  11  23  44  72 100 140 189 244 299 359 438
#     4  12  24  50  71 102 146 191 239 309 362 440
#     4  12  25  47  71 108 142 193 245 300 370 441
#     4  10  22  43  74  95 143 185 232 294 363 426
#
# _framework density 21.980734000000002
#
# number of rings (size 3 to 8) (size 9 to 14) (size 15 to 20)
#    0.000    0.500    7.500    0.375    5.250    1.000 
#    2.250    1.250    0.000    0.000    0.000    0.000 
#    0.000    0.000    0.000    0.000    0.000    0.000 
#
# Total GULP energy -89463.163725 kJ/mol
# GULP energy per Si atom -5591.447733 kJ/mol
# Density = 2.193070 g / cm^3
# Si number density = 21.980734 Si / 1000 Ang^3
#
#
#
# Elastic Constant Matrix: (Units=GPa)
#
#
# Indices 1 2 3 4 5 6 
#
# 1 150.5200 55.8281 35.1376 -21.7953 0.6901 11.5539
# 2 55.8281 126.6633 33.5046 -36.3557 -3.2353 -2.1969
# 3 35.1376 33.5046 87.5925 -31.5239 14.3041 5.1737
# 4 -21.7953 -36.3557 -31.5239 46.7473 -5.1006 3.2345
# 5 0.6901 -3.2353 14.3041 -5.1006 41.9369 5.1777
# 6 11.5539 -2.1969 5.1737 3.2345 5.1777 43.5346
#
#
#
# Elastic Compliance Matrix: (Units=1/GPa)
#
#
# Indices 1 2 3 4 5 6 
#
# 1 0.008507 -0.003119 -0.002052 0.000385 0.000647 -0.002277
# 2 -0.003119 0.011640 -0.001040 0.007070 0.002069 0.000768
# 3 -0.002052 -0.001040 0.016759 0.009165 -0.004444 -0.001652
# 4 0.000385 0.007070 0.009165 0.033710 0.001954 -0.003571
# 5 0.000647 0.002069 -0.004444 0.001954 0.026092 -0.002788
# 6 -0.002277 0.000768 -0.001652 -0.003571 -0.002788 0.024406
#
#
# Mechanical properties :
#
#
# Convention : Reuss Voigt Hill
#
# Bulk Modulus (GPa) = 40.84368 68.19073 54.51720
# Shear Modulus (GPa) = 35.28586 42.46414 38.87500
#
# Velocity S-wave (km/s) = 4.01098 4.40008 4.21003
# Velocity P-wave (km/s) = 6.33028 7.54352 6.96337
#
# Compressibility (1/GPa) = 0.02448359
#
# Stress axis : x y z
#
# Youngs Moduli (GPa) = 117.54779 85.90856 59.66779
#
# Poissons Ratio (x) = 0.26798 0.12245
# Poissons Ratio (y) = 0.36667 0.06206
# Poissons Ratio (z) = 0.24124 0.08935
#
# Static dielectric constant tensor:
#      x y z
#    x 1.793390 -0.029710 0.015420 
#    y -0.029710 1.813250 0.018940 
#    z 0.015420 0.018940 1.856280 
# 
# From -- ./inp_files/347633.got.cif
#   From: 2010.05.17/outbox.cif.g08.bks.cpg/sg2_174_cif.got.tgz:347633.got - 2010.06.03 11:33:40.
