data_PCOD9032984
_publ_section_title
;
Structure prediction by ZEFSAII (Michael W. Deem and Ramdas Pophale) SiO2 
 PCOD9032984
Probable space group: P -1
;
_chemical_formula_sum "Si O2"
_cell_formula_units_Z 10
_cell_length_a 12.741325
_cell_length_b 7.413188
_cell_length_c 9.896118
_cell_angle_alpha 86.106946
_cell_angle_beta 51.488226
_cell_angle_gamma 47.707250
_cell_volume 430.118971
_symmetry_space_group_name_H-M "P -1"
_symmetry_group_IT_number 2
_symmetry_cell_setting 'triclinic'
loop_
_space_group_symop_operation_xyz
x,y,z
-x,-y,-z
loop_
_atom_site_type_symbol
_atom_site_label
_atom_site_fract_x
_atom_site_fract_y
_atom_site_fract_z
Si Si1 0.110273 0.853398 0.772201
Si Si2 0.818861 0.846920 0.943344
Si Si3 0.490670 0.200117 0.422067
Si Si4 0.918712 0.748222 0.381296
Si Si5 0.334465 0.271811 0.267632
O O1 0.353318 0.487558 0.611063
O O2 0.145897 0.001929 0.657982
O O3 0.930858 0.920041 0.832635
O O4 0.000000 0.000000 0.000000
O O5 0.731379 0.948291 0.163597
O O6 0.593067 0.034854 0.028858
O O7 0.994654 0.498552 0.781448
O O8 0.334313 0.380190 0.403286
O O9 0.500000 0.000000 0.500000
O O10 0.134626 0.547261 0.315563
O O11 0.724120 0.866770 0.623837
#
# Coordination Sequence:
#
# PCOD9032984 Si02
#       5
#     2   2   2   2   2
#     4  12  27  40  66  99 126 169 217 265 316 374
#     4  10  22  44  64  93 129 168 210 263 316 375
#     4  10  23  43  64  90 131 169 209 261 317 377
#     4  11  22  44  68  95 130 165 217 258 318 384
#     4   9  23  42  69  92 129 175 203 263 321 373
#
# _framework density 23.249383000000002
#
# number of rings (size 3 to 8) (size 9 to 14) (size 15 to 20)
#    1.200    0.400    2.000    1.800    2.800    5.600 
#    0.000    0.000    0.000    0.000    0.000    0.000 
#    0.000    0.000    0.000    0.000    0.000    0.000 
#
# Total GULP energy -55702.905558 kJ/mol
# GULP energy per Si atom -5570.290556 kJ/mol
# Density = 2.319647 g / cm^3
# Si number density = 23.249383 Si / 1000 Ang^3
#
#
#
# Elastic Constant Matrix: (Units=GPa)
#
#
# Indices 1 2 3 4 5 6 
#
# 1 105.8971 29.7621 21.6514 6.1662 -22.9021 -8.9631
# 2 29.7621 138.9648 60.0309 -4.2108 6.0265 13.2009
# 3 21.6514 60.0309 132.2266 4.0601 1.8725 13.8542
# 4 6.1662 -4.2108 4.0601 28.7641 8.1180 2.2713
# 5 -22.9021 6.0265 1.8725 8.1180 44.0244 -6.3695
# 6 -8.9631 13.2009 13.8542 2.2713 -6.3695 33.4183
#
#
#
# Elastic Compliance Matrix: (Units=1/GPa)
#
#
# Indices 1 2 3 4 5 6 
#
# 1 0.014222 -0.003928 -0.001359 -0.007064 0.010514 0.008414
# 2 -0.003928 0.010435 -0.003654 0.004651 -0.004884 -0.004908
# 3 -0.001359 -0.003654 0.009814 -0.001144 -0.000858 -0.003076
# 4 -0.007064 0.004651 -0.001144 0.041515 -0.013160 -0.008588
# 5 0.010514 -0.004884 -0.000858 -0.013160 0.033097 0.012308
# 6 0.008414 -0.004908 -0.003076 -0.008588 0.012308 0.038324
#
#
# Mechanical properties :
#
#
# Convention : Reuss Voigt Hill
#
# Bulk Modulus (GPa) = 60.28075 66.66413 63.47244
# Shear Modulus (GPa) = 29.27120 38.95099 34.11110
#
# Velocity S-wave (km/s) = 3.55210 4.09755 3.83454
# Velocity P-wave (km/s) = 6.54274 7.14999 6.85309
#
# Compressibility (1/GPa) = 0.01658904
#
# Stress axis : x y z
#
# Youngs Moduli (GPa) = 70.31229 95.83492 101.90032
#
# Poissons Ratio (x) = 0.37646 0.13848
# Poissons Ratio (y) = 0.27620 0.37230
# Poissons Ratio (z) = 0.09555 0.35013
#
# Static dielectric constant tensor:
#      x y z
#    x 2.034780 0.024490 -0.026330 
#    y 0.024490 1.785210 0.031040 
#    z -0.026330 0.031040 1.922750 
# 
# From -- ./inp_files/22930.got.cif
#   From: 2010.05.17/outbox.cif.g08.bks.cpg/sg2_12_cif.got.tgz:22930.got - 2010.06.03 11:33:40.
