data_PCOD9032753
_publ_section_title
;
Structure prediction by ZEFSAII (Michael W. Deem and Ramdas Pophale) SiO2 
 PCOD9032753
Probable space group: P -1
;
_chemical_formula_sum "Si O2"
_cell_formula_units_Z 14
_cell_length_a 7.184575
_cell_length_b 11.600394
_cell_length_c 10.192330
_cell_angle_alpha 68.796296
_cell_angle_beta 135.810971
_cell_angle_gamma 98.313794
_cell_volume 543.343672
_symmetry_space_group_name_H-M "P -1"
_symmetry_group_IT_number 2
_symmetry_cell_setting 'triclinic'
loop_
_space_group_symop_operation_xyz
x,y,z
-x,-y,-z
loop_
_atom_site_type_symbol
_atom_site_label
_atom_site_fract_x
_atom_site_fract_y
_atom_site_fract_z
Si Si1 0.059602 0.924845 0.698609
Si Si2 0.855831 0.575956 0.057679
Si Si3 0.896680 0.639573 0.443957
Si Si4 0.310291 0.657816 0.887865
Si Si5 0.056570 0.859969 0.274059
Si Si6 0.375994 0.227595 0.351252
Si Si7 0.639264 0.318529 0.679455
O O1 0.806924 0.856705 0.634349
O O2 0.291537 0.802299 0.855142
O O3 0.113969 0.011436 0.813197
O O4 0.000000 0.000000 0.500000
O O5 0.810899 0.439831 0.038139
O O6 0.156252 0.584340 0.250673
O O7 0.620883 0.601192 0.038515
O O8 0.767939 0.694978 0.871677
O O9 0.000000 0.500000 0.500000
O O10 0.107591 0.658193 0.660109
O O11 0.931232 0.744626 0.312368
O O12 0.336378 0.857464 0.499705
O O13 0.168416 0.819022 0.200897
O O14 0.413164 0.334030 0.671092
O O15 0.466526 0.328380 0.454607
#
# Coordination Sequence:
#
# PCOD9032753 Si02
#       7
#     2   2   2   2   2   2   2
#     4  12  21  43  77 102 143 198 249 292 361 439
#     4  11  24  46  70 108 151 184 243 306 361 434
#     4  12  23  44  73 107 143 189 242 298 363 428
#     4  11  23  43  70 108 144 195 241 298 364 433
#     4  10  22  43  74 104 139 199 243 290 366 433
#     4  10  22  44  72 106 141 194 239 293 369 424
#     4  10  24  47  72 107 145 189 241 303 361 430
#
# _framework density 25.766380000000002
#
# number of rings (size 3 to 8) (size 9 to 14) (size 15 to 20)
#    0.857    0.286    4.286    1.286    0.000    4.000 
#    7.714    3.571    0.000    0.000    0.000    0.000 
#    0.000    0.000    0.000    0.000    0.000    0.000 
#
# Total GULP energy -78243.767583 kJ/mol
# GULP energy per Si atom -5588.840542 kJ/mol
# Density = 2.570773 g / cm^3
# Si number density = 25.766380 Si / 1000 Ang^3
#
#
#
# Elastic Constant Matrix: (Units=GPa)
#
#
# Indices 1 2 3 4 5 6 
#
# 1 156.1124 41.2221 24.6532 -1.9514 11.1636 13.0143
# 2 41.2221 147.6475 32.1558 -14.9166 -4.7189 -13.0892
# 3 24.6532 32.1558 62.4390 4.7460 -3.2102 26.9150
# 4 -1.9514 -14.9166 4.7460 33.4619 8.2362 2.0727
# 5 11.1636 -4.7189 -3.2102 8.2362 27.5189 -1.4735
# 6 13.0143 -13.0892 26.9150 2.0727 -1.4735 56.7811
#
#
#
# Elastic Compliance Matrix: (Units=1/GPa)
#
#
# Indices 1 2 3 4 5 6 
#
# 1 0.007596 -0.001955 -0.001582 0.000864 -0.003944 -0.001576
# 2 -0.001955 0.009950 -0.007297 0.004855 0.000518 0.006037
# 3 -0.001582 -0.007297 0.027108 -0.007321 0.004005 -0.013798
# 4 0.000864 0.004855 -0.007321 0.035644 -0.010890 0.002808
# 5 -0.003944 0.000518 0.004005 -0.010890 0.041787 0.000607
# 6 -0.001576 0.006037 -0.013798 0.002808 0.000607 0.025818
#
#
# Mechanical properties :
#
#
# Convention : Reuss Voigt Hill
#
# Bulk Modulus (GPa) = 43.50240 62.47345 52.98792
# Shear Modulus (GPa) = 28.21155 41.43022 34.82089
#
# Velocity S-wave (km/s) = 3.31251 4.01424 3.68014
# Velocity P-wave (km/s) = 5.61697 6.76640 6.21830
#
# Compressibility (1/GPa) = 0.02298724
#
# Stress axis : x y z
#
# Youngs Moduli (GPa) = 131.65244 100.50199 36.88901
#
# Poissons Ratio (x) = 0.19644 0.05835
# Poissons Ratio (y) = 0.25733 0.26918
# Poissons Ratio (z) = 0.20824 0.73337
#
# Static dielectric constant tensor:
#      x y z
#    x 2.094590 -0.131590 -0.022230 
#    y -0.131590 2.093420 0.016450 
#    z -0.022230 0.016450 2.003100 
# 
# From -- ./inp_files/384958.got.cif
#   From: 2010.05.17/outbox.cif.g08.bks.cpg/sg2_193_cif.got.tgz:384958.got - 2010.06.03 11:33:40.
