data_PCOD9032458
_publ_section_title
;
Structure prediction by ZEFSAII (Michael W. Deem and Ramdas Pophale) SiO2 
 PCOD9032458
Probable space group: P -1
;
_chemical_formula_sum "Si O2"
_cell_formula_units_Z 14
_cell_length_a 20.806403
_cell_length_b 8.524104
_cell_length_c 8.323254
_cell_angle_alpha 129.560008
_cell_angle_beta 52.557353
_cell_angle_gamma 149.636708
_cell_volume 568.769044
_symmetry_space_group_name_H-M "P -1"
_symmetry_group_IT_number 2
_symmetry_cell_setting 'triclinic'
loop_
_space_group_symop_operation_xyz
x,y,z
-x,-y,-z
loop_
_atom_site_type_symbol
_atom_site_label
_atom_site_fract_x
_atom_site_fract_y
_atom_site_fract_z
Si Si1 0.574390 0.343424 0.170455
Si Si2 0.583000 0.693075 0.838397
Si Si3 0.163065 0.700866 0.297505
Si Si4 0.161501 0.257800 0.121929
Si Si5 0.857982 0.625355 0.435458
Si Si6 0.914234 0.302729 0.248896
Si Si7 0.375366 0.651991 0.542429
O O1 0.516061 0.427454 0.227708
O O2 0.575848 0.327705 0.347016
O O3 0.717890 0.590387 0.057238
O O4 0.500000 0.000000 0.000000
O O5 0.652042 0.612506 0.673870
O O6 0.705825 0.073757 0.854869
O O7 0.500000 0.500000 0.000000
O O8 0.109543 0.368944 0.201929
O O9 0.171714 0.836792 0.545572
O O10 0.057675 0.615977 0.301954
O O11 0.209759 0.422295 0.330722
O O12 0.075663 0.888959 0.990465
O O13 0.870519 0.407298 0.277812
O O14 0.759701 0.492796 0.356811
O O15 0.000000 0.000000 0.500000
O O16 0.500000 0.000000 0.500000
#
# Coordination Sequence:
#
# PCOD9032458 Si02
#       7
#     2   2   2   2   2   2   2
#     4  12  25  47  73 106 145 195 245 306 370 450
#     4  12  25  45  73 107 150 194 245 308 380 445
#     4  10  22  43  71 107 151 189 248 313 370 447
#     4  11  23  43  74 104 147 191 251 300 375 439
#     4  11  26  49  70 107 157 192 248 313 369 444
#     4  10  23  42  74 107 143 201 249 303 380 438
#     4  12  28  46  73 107 147 195 249 309 371 442
#
# _framework density 24.614560999999998
#
# number of rings (size 3 to 8) (size 9 to 14) (size 15 to 20)
#    0.000    0.857    1.429    5.143    4.000    4.000 
#    2.571    0.000    0.000    0.000    0.000    0.000 
#    0.000    0.000    0.000    0.000    0.000    0.000 
#
# Total GULP energy -78099.604595 kJ/mol
# GULP energy per Si atom -5578.543185 kJ/mol
# Density = 2.455854 g / cm^3
# Si number density = 24.614561 Si / 1000 Ang^3
#
#
#
# Elastic Constant Matrix: (Units=GPa)
#
#
# Indices 1 2 3 4 5 6 
#
# 1 190.2611 19.4364 32.7897 -10.3452 -17.5660 0.9886
# 2 19.4364 65.0011 12.8877 -11.7541 6.6436 -4.3045
# 3 32.7897 12.8877 78.9732 5.3794 -10.4436 -8.3519
# 4 -10.3452 -11.7541 5.3794 44.4911 -15.2706 -3.7168
# 5 -17.5660 6.6436 -10.4436 -15.2706 37.3588 -4.1325
# 6 0.9886 -4.3045 -8.3519 -3.7168 -4.1325 24.3769
#
#
#
# Elastic Compliance Matrix: (Units=1/GPa)
#
#
# Indices 1 2 3 4 5 6 
#
# 1 0.006229 -0.001370 -0.002081 0.002562 0.003615 -0.000204
# 2 -0.001370 0.017450 -0.002640 0.003910 -0.002624 0.002384
# 3 -0.002081 -0.002640 0.015096 -0.001276 0.003769 0.005235
# 4 0.002562 0.003910 -0.001276 0.029238 0.012855 0.006787
# 5 0.003615 -0.002624 0.003769 0.012855 0.036213 0.008780
# 6 -0.000204 0.002384 0.005235 0.006787 0.008780 0.045768
#
#
# Mechanical properties :
#
#
# Convention : Reuss Voigt Hill
#
# Bulk Modulus (GPa) = 37.60223 51.60699 44.60461
# Shear Modulus (GPa) = 29.23284 39.18680 34.20982
#
# Velocity S-wave (km/s) = 3.44993 3.99434 3.73207
# Velocity P-wave (km/s) = 5.58381 6.50266 6.06067
#
# Compressibility (1/GPa) = 0.02659417
#
# Stress axis : x y z
#
# Youngs Moduli (GPa) = 160.55099 57.30540 66.24206
#
# Poissons Ratio (x) = 0.07849 0.13782
# Poissons Ratio (y) = 0.21990 0.17489
# Poissons Ratio (z) = 0.33403 0.15130
#
# Static dielectric constant tensor:
#      x y z
#    x 1.923310 0.056870 0.154910 
#    y 0.056870 2.077580 0.126270 
#    z 0.154910 0.126270 2.194390 
# 
# From -- ./inp_files/343843.got.cif
#   From: 2010.05.17/outbox.cif.g08.bks.cpg/sg2_172_cif.got.tgz:343843.got - 2010.06.03 11:33:40.
