data_PCOD9032759
_publ_section_title
;
Structure prediction by ZEFSAII (Michael W. Deem and Ramdas Pophale) SiO2 
 PCOD9032759
Probable space group: P -1
;
_chemical_formula_sum "Si O2"
_cell_formula_units_Z 16
_cell_length_a 15.711600
_cell_length_b 17.383431
_cell_length_c 24.316953
_cell_angle_alpha 162.329527
_cell_angle_beta 18.785499
_cell_angle_gamma 152.085713
_cell_volume 637.572524
_symmetry_space_group_name_H-M "P -1"
_symmetry_group_IT_number 2
_symmetry_cell_setting 'triclinic'
loop_
_space_group_symop_operation_xyz
x,y,z
-x,-y,-z
loop_
_atom_site_type_symbol
_atom_site_label
_atom_site_fract_x
_atom_site_fract_y
_atom_site_fract_z
Si Si1 0.947539 0.241053 0.237331
Si Si2 0.485161 0.109668 0.878909
Si Si3 0.706223 0.808060 0.646070
Si Si4 0.847426 0.212806 0.903815
Si Si5 0.371235 0.286824 0.678347
Si Si6 0.757717 0.609643 0.053514
Si Si7 0.791255 0.519339 0.856582
Si Si8 0.326560 0.439886 0.647306
O O1 0.032186 0.446174 0.282093
O O2 0.652744 0.283581 0.473139
O O3 0.170205 0.189837 0.113774
O O4 0.000000 0.000000 0.000000
O O5 0.561795 0.979697 0.802227
O O6 0.602033 0.869221 0.602981
O O7 0.604990 0.367842 0.978469
O O8 0.585505 0.548662 0.542406
O O9 0.027547 0.723752 0.389440
O O10 0.690929 0.988685 0.831675
O O11 0.164963 0.131672 0.668431
O O12 0.791008 0.414428 0.025158
O O13 0.732946 0.390007 0.145763
O O14 0.376238 0.234027 0.704432
O O15 0.750268 0.719425 0.070122
O O16 0.068951 0.522847 0.822398
O O17 0.500000 0.500000 0.000000
#
# Coordination Sequence:
#
# PCOD9032759 Si02
#       8
#     2   2   2   2   2   2   2   2
#     4  12  28  47  76 105 152 194 248 297 369 441
#     4  12  24  45  75 108 142 201 242 302 365 441
#     4  12  25  44  73 112 146 188 254 299 369 437
#     4  10  22  43  74 105 150 191 243 304 370 432
#     4  10  23  46  72 111 145 196 245 302 362 442
#     4  11  24  46  74 105 148 187 249 297 374 426
#     4  12  27  47  70 108 149 191 242 307 365 432
#     4  11  24  43  74 110 146 187 248 312 356 436
#
# _framework density 25.095184
#
# number of rings (size 3 to 8) (size 9 to 14) (size 15 to 20)
#    0.000    0.750    3.750    3.375    3.500    0.500 
#    0.000    0.625    0.000    0.000    0.000    0.000 
#    0.000    0.000    0.000    0.000    0.000    0.000 
#
# Total GULP energy -89382.914316 kJ/mol
# GULP energy per Si atom -5586.432145 kJ/mol
# Density = 2.503807 g / cm^3
# Si number density = 25.095184 Si / 1000 Ang^3
#
#
#
# Elastic Constant Matrix: (Units=GPa)
#
#
# Indices 1 2 3 4 5 6 
#
# 1 188.5247 48.8486 78.9548 -29.5283 -8.7296 18.5956
# 2 48.8486 104.3221 42.5524 -13.2584 -8.9684 19.3303
# 3 78.9548 42.5524 96.6930 -39.6003 -1.0328 5.3527
# 4 -29.5283 -13.2584 -39.6003 49.5652 4.2049 7.4627
# 5 -8.7296 -8.9684 -1.0328 4.2049 53.5386 -5.4054
# 6 18.5956 19.3303 5.3527 7.4627 -5.4054 46.6713
#
#
#
# Elastic Compliance Matrix: (Units=1/GPa)
#
#
# Indices 1 2 3 4 5 6 
#
# 1 0.008467 -0.000874 -0.006433 -0.000081 0.000899 -0.002157
# 2 -0.000874 0.012826 -0.004891 -0.000504 0.001533 -0.004145
# 3 -0.006433 -0.004891 0.023450 0.013906 -0.002571 -0.000622
# 4 -0.000081 -0.000504 0.013906 0.032401 -0.003070 -0.006890
# 5 0.000899 0.001533 -0.002571 -0.003070 0.019480 0.002049
# 6 -0.002157 -0.004145 -0.000622 -0.006890 0.002049 0.025413
#
#
# Mechanical properties :
#
#
# Convention : Reuss Voigt Hill
#
# Bulk Modulus (GPa) = 49.15044 81.13906 65.14475
# Shear Modulus (GPa) = 32.63426 44.56730 38.60078
#
# Velocity S-wave (km/s) = 3.61004 4.21875 3.92621
# Velocity P-wave (km/s) = 6.08315 7.49221 6.82414
#
# Compressibility (1/GPa) = 0.02034570
#
# Stress axis : x y z
#
# Youngs Moduli (GPa) = 118.11114 77.96793 42.64475
#
# Poissons Ratio (x) = 0.06814 0.27434
# Poissons Ratio (y) = 0.10322 0.20858
# Poissons Ratio (z) = 0.75981 0.38135
#
# Static dielectric constant tensor:
#      x y z
#    x 2.086160 -0.121900 0.071240 
#    y -0.121900 2.129050 0.030610 
#    z 0.071240 0.030610 2.085100 
# 
# From -- ./inp_files/612202.got.cif
#   From: 2010.05.17/outbox.cif.g08.bks.cpg/sg2_307_cif.got.tgz:612202.got - 2010.06.03 11:33:40.
