data_PCOD9032514
_publ_section_title
;
Structure prediction by ZEFSAII (Michael W. Deem and Ramdas Pophale) SiO2 
 PCOD9032514
Probable space group: P -1
;
_chemical_formula_sum "Si O2"
_cell_formula_units_Z 16
_cell_length_a 12.144593
_cell_length_b 9.229871
_cell_length_c 26.024849
_cell_angle_alpha 43.506194
_cell_angle_beta 154.287275
_cell_angle_gamma 121.913143
_cell_volume 791.549108
_symmetry_space_group_name_H-M "P -1"
_symmetry_group_IT_number 2
_symmetry_cell_setting 'triclinic'
loop_
_space_group_symop_operation_xyz
x,y,z
-x,-y,-z
loop_
_atom_site_type_symbol
_atom_site_label
_atom_site_fract_x
_atom_site_fract_y
_atom_site_fract_z
Si Si1 0.990611 0.148107 0.666486
Si Si2 0.869077 0.873571 0.846791
Si Si3 0.654705 0.671007 0.516159
Si Si4 0.199929 0.507868 0.157564
Si Si5 0.383846 0.267692 0.399766
Si Si6 0.317007 0.851273 0.964781
Si Si7 0.851240 0.341203 0.456995
Si Si8 0.840861 0.476906 0.312238
O O1 0.148971 0.307610 0.706620
O O2 0.676039 0.294492 0.516699
O O3 0.963347 0.129079 0.598959
O O4 0.134051 0.915394 0.819457
O O5 0.839563 0.684894 0.844631
O O6 0.576829 0.093960 0.665938
O O7 0.983788 0.751818 0.980888
O O8 0.104822 0.932684 0.902417
O O9 0.500000 0.500000 0.500000
O O10 0.727501 0.706431 0.596310
O O11 0.928369 0.585061 0.618364
O O12 0.192872 0.439985 0.231534
O O13 0.517716 0.474235 0.289897
O O14 0.500000 0.000000 0.500000
O O15 0.529011 0.584414 0.130533
O O16 0.500000 0.000000 0.000000
O O17 0.900677 0.289398 0.430731
O O18 0.000000 0.500000 0.500000
#
# Coordination Sequence:
#
# PCOD9032514 Si02
#       8
#     2   2   2   2   2   2   2   2
#     4   9  17  31  56  81 108 152 203 242 279 355
#     4  11  21  38  62  90 121 162 210 249 301 373
#     4  12  22  38  58  91 125 160 199 259 314 358
#     4  10  21  37  64  90 116 160 216 247 292 363
#     4  11  19  36  61  87 114 159 208 242 294 373
#     4  10  17  32  54  86 112 157 207 246 286 356
#     4   9  18  33  56  86 117 152 200 249 293 361
#     4  10  19  33  53  83 120 148 192 251 305 345
#
# _framework density 20.213528
#
# number of rings (size 3 to 8) (size 9 to 14) (size 15 to 20)
#    0.000    1.750    5.000    0.750    0.000    0.000 
#    0.000    2.500    0.000    3.000    0.000    0.000 
#    0.000    0.000    0.000    0.000    0.000    0.000 
#
# Total GULP energy -89162.917335 kJ/mol
# GULP energy per Si atom -5572.682333 kJ/mol
# Density = 2.016752 g / cm^3
# Si number density = 20.213528 Si / 1000 Ang^3
#
#
#
# Elastic Constant Matrix: (Units=GPa)
#
#
# Indices 1 2 3 4 5 6 
#
# 1 135.8967 2.7647 68.1858 5.1964 -36.0145 -26.6945
# 2 2.7647 27.2293 -0.6158 6.3966 -8.5133 0.4034
# 3 68.1858 -0.6158 149.1522 10.7224 -50.4883 -19.9544
# 4 5.1964 6.3966 10.7224 18.6878 1.0373 0.7038
# 5 -36.0145 -8.5133 -50.4883 1.0373 47.5350 9.6153
# 6 -26.6945 0.4034 -19.9544 0.7038 9.6153 24.1470
#
#
#
# Elastic Compliance Matrix: (Units=1/GPa)
#
#
# Indices 1 2 3 4 5 6 
#
# 1 0.011659 0.000767 -0.002294 -0.002797 0.004739 0.009175
# 2 0.000767 0.047210 0.007161 -0.021425 0.017156 -0.000230
# 3 -0.002294 0.007161 0.013564 -0.010475 0.013473 0.003494
# 4 -0.002797 -0.021425 -0.010475 0.068836 -0.017265 -0.006522
# 5 0.004739 0.017156 0.013473 -0.017265 0.042451 -0.000314
# 6 0.009175 -0.000230 0.003494 -0.006522 -0.000314 0.054762
#
#
# Mechanical properties :
#
#
# Convention : Reuss Voigt Hill
#
# Bulk Modulus (GPa) = 11.94722 50.32751 31.13737
# Shear Modulus (GPa) = 19.59907 34.20352 26.90130
#
# Velocity S-wave (km/s) = 3.11722 4.11799 3.65205
# Velocity P-wave (km/s) = 4.34505 6.89655 5.76376
#
# Compressibility (1/GPa) = 0.08370147
#
# Stress axis : x y z
#
# Youngs Moduli (GPa) = 85.76949 21.18206 73.72485
#
# Poissons Ratio (x) = -0.01625 0.16913
# Poissons Ratio (y) = -0.06581 -0.52795
# Poissons Ratio (z) = 0.19676 -0.15169
#
# Static dielectric constant tensor:
#      x y z
#    x 1.948220 0.447460 -0.516090 
#    y 0.447460 2.631250 -0.954090 
#    z -0.516090 -0.954090 2.864500 
# 
# From -- ./inp_files/261985.got.cif
#   From: 2010.05.17/outbox.cif.g08.bks.cpg/sg2_131_cif.got.tgz:261985.got - 2010.06.03 11:33:40.
