data_PCOD9032046
_publ_section_title
;
Structure prediction by ZEFSAII (Michael W. Deem and Ramdas Pophale) SiO2 
 PCOD9032046
Probable space group: P -1
;
_chemical_formula_sum "Si O2"
_cell_formula_units_Z 16
_cell_length_a 25.396267
_cell_length_b 9.933034
_cell_length_c 22.268970
_cell_angle_alpha 34.369973
_cell_angle_beta 20.507768
_cell_angle_gamma 23.910724
_cell_volume 778.641473
_symmetry_space_group_name_H-M "P -1"
_symmetry_group_IT_number 2
_symmetry_cell_setting 'triclinic'
loop_
_space_group_symop_operation_xyz
x,y,z
-x,-y,-z
loop_
_atom_site_type_symbol
_atom_site_label
_atom_site_fract_x
_atom_site_fract_y
_atom_site_fract_z
Si Si1 0.167861 0.268677 0.589132
Si Si2 0.678973 0.767081 0.943942
Si Si3 0.449812 0.609070 0.749687
Si Si4 0.325362 0.878274 0.073755
Si Si5 0.486525 0.633708 0.564894
Si Si6 0.756771 0.736875 0.191673
Si Si7 0.090745 0.817254 0.536556
Si Si8 0.506410 0.925273 0.267228
O O1 0.176934 0.456845 0.561810
O O2 0.309558 0.901484 0.604157
O O3 0.268211 0.255882 0.424883
O O4 0.920172 0.493217 0.762121
O O5 0.649863 0.541842 0.087919
O O6 0.500000 0.000000 0.000000
O O7 0.647155 0.030738 0.924149
O O8 0.423649 0.740797 0.661968
O O9 0.698745 0.294245 0.620740
O O10 0.335266 0.924885 0.800960
O O11 0.500000 0.500000 0.000000
O O12 0.098764 0.000159 0.279602
O O13 0.363220 0.063498 0.922814
O O14 0.692843 0.571008 0.357935
O O15 0.519129 0.315825 0.638432
O O16 0.635080 0.822579 0.228455
O O17 0.000000 0.500000 0.000000
O O18 0.000000 0.000000 0.500000
#
# Coordination Sequence:
#
# PCOD9032046 Si02
#       8
#     2   2   2   2   2   2   2   2
#     4  10  22  43  69  90 137 187 210 272 345 408
#     4  11  26  45  68  98 131 180 231 276 337 401
#     4  12  24  44  68 104 135 173 231 280 332 410
#     4  11  25  45  69  97 130 177 231 280 337 407
#     4  11  24  44  66 101 142 174 226 271 351 403
#     4  11  26  40  70 100 137 180 222 279 331 405
#     4  11  23  44  70  94 132 185 222 275 340 400
#     4  11  23  45  65 102 137 177 222 274 350 404
#
# _framework density 20.548611000000001
#
# number of rings (size 3 to 8) (size 9 to 14) (size 15 to 20)
#    0.000    1.000    3.750    4.125    7.000    1.500 
#    2.250    1.250    0.000    0.000    0.000    0.000 
#    0.000    0.000    0.000    0.000    0.000    0.000 
#
# Total GULP energy -89176.880607 kJ/mol
# GULP energy per Si atom -5573.555038 kJ/mol
# Density = 2.050184 g / cm^3
# Si number density = 20.548611 Si / 1000 Ang^3
#
#
#
# Elastic Constant Matrix: (Units=GPa)
#
#
# Indices 1 2 3 4 5 6 
#
# 1 58.5858 2.4647 36.2889 10.7851 -3.3711 -5.0929
# 2 2.4647 71.5682 44.8663 2.1305 -1.5119 17.8451
# 3 36.2889 44.8663 154.5218 22.6530 4.1330 6.4881
# 4 10.7851 2.1305 22.6530 36.6855 0.1029 -0.2855
# 5 -3.3711 -1.5119 4.1330 0.1029 31.2132 -10.3964
# 6 -5.0929 17.8451 6.4881 -0.2855 -10.3964 27.1282
#
#
#
# Elastic Compliance Matrix: (Units=1/GPa)
#
#
# Indices 1 2 3 4 5 6 
#
# 1 0.021849 0.001220 -0.005454 -0.003090 0.005358 0.006624
# 2 0.001220 0.020817 -0.006027 0.002061 -0.002368 -0.012908
# 3 -0.005454 -0.006027 0.010224 -0.004357 -0.002373 -0.000460
# 4 -0.003090 0.002061 -0.004357 0.030733 0.000059 -0.000547
# 5 0.005358 -0.002368 -0.002373 0.000059 0.038813 0.018006
# 6 0.006624 -0.012908 -0.000460 -0.000547 0.018006 0.053602
#
#
# Mechanical properties :
#
#
# Convention : Reuss Voigt Hill
#
# Bulk Modulus (GPa) = 30.89580 50.21282 40.55431
# Shear Modulus (GPa) = 24.11398 32.40913 28.26156
#
# Velocity S-wave (km/s) = 3.42937 3.97570 3.71260
# Velocity P-wave (km/s) = 5.54517 6.75012 6.17709
#
# Compressibility (1/GPa) = 0.03236686
#
# Stress axis : x y z
#
# Youngs Moduli (GPa) = 45.76921 48.03864 97.80943
#
# Poissons Ratio (x) = -0.05861 0.53343
# Poissons Ratio (y) = -0.05584 0.58954
# Poissons Ratio (z) = 0.24962 0.28955
#
# Static dielectric constant tensor:
#      x y z
#    x 1.723040 -0.015110 0.016540 
#    y -0.015110 1.786820 -0.007460 
#    z 0.016540 -0.007460 1.876120 
# 
# From -- ./inp_files/243000.got.cif
#   From: 2010.05.17/outbox.cif.g08.bks.cpg/sg2_122_cif.got.tgz:243000.got - 2010.06.03 11:33:40.
