data_PCOD9032723
_publ_section_title
;
Structure prediction by ZEFSAII (Michael W. Deem and Ramdas Pophale) SiO2 
 PCOD9032723
Probable space group: P -1
;
_chemical_formula_sum "Si O2"
_cell_formula_units_Z 14
_cell_length_a 16.649687
_cell_length_b 5.847222
_cell_length_c 9.213405
_cell_angle_alpha 53.417068
_cell_angle_beta 49.267772
_cell_angle_gamma 73.734278
_cell_volume 536.992653
_symmetry_space_group_name_H-M "P -1"
_symmetry_group_IT_number 2
_symmetry_cell_setting 'triclinic'
loop_
_space_group_symop_operation_xyz
x,y,z
-x,-y,-z
loop_
_atom_site_type_symbol
_atom_site_label
_atom_site_fract_x
_atom_site_fract_y
_atom_site_fract_z
Si Si1 0.261088 0.263502 0.368663
Si Si2 0.261315 0.854829 0.059234
Si Si3 0.150572 0.463228 0.789175
Si Si4 0.475116 0.311426 0.956467
Si Si5 0.399018 0.372114 0.568285
Si Si6 0.115713 0.974147 0.430014
Si Si7 0.843890 0.132439 0.114445
O O1 0.147413 0.183578 0.450807
O O2 0.249051 0.062371 0.600245
O O3 0.286270 0.604732 0.228364
O O4 0.345996 0.217035 0.163300
O O5 0.365327 0.052405 0.794652
O O6 0.199301 0.737971 0.028720
O O7 0.190684 0.025238 0.179119
O O8 0.280650 0.472528 0.662476
O O9 0.105072 0.132649 0.916443
O O10 0.129099 0.668936 0.603946
O O11 0.109071 0.610497 0.926800
O O12 0.541488 0.545256 0.682504
O O13 0.500000 0.500000 0.000000
O O14 0.500000 0.000000 0.000000
O O15 0.500000 0.500000 0.500000
O O16 0.000000 0.000000 0.500000
#
# Coordination Sequence:
#
# PCOD9032723 Si02
#       7
#     2   2   2   2   2   2   2
#     4  11  25  46  74 102 154 199 244 320 376 446
#     4  11  25  45  74 106 148 194 252 314 375 451
#     4  10  22  47  68 101 148 191 234 314 362 437
#     4  12  27  46  74 109 151 205 250 299 380 453
#     4  11  26  44  72 110 153 197 254 298 371 458
#     4  11  25  49  79 107 143 198 258 318 389 451
#     4  10  22  43  73  97 146 190 239 298 375 427
#
# _framework density 26.071118999999999
#
# number of rings (size 3 to 8) (size 9 to 14) (size 15 to 20)
#    0.000    1.143    1.429    4.286   10.000    1.143 
#    0.000    5.714    0.000    0.000    0.000    0.000 
#    0.000    0.000    0.000    0.000    0.000    0.000 
#
# Total GULP energy -78053.291383 kJ/mol
# GULP energy per Si atom -5575.235099 kJ/mol
# Density = 2.601178 g / cm^3
# Si number density = 26.071119 Si / 1000 Ang^3
#
#
#
# Elastic Constant Matrix: (Units=GPa)
#
#
# Indices 1 2 3 4 5 6 
#
# 1 124.5716 35.5060 17.9047 22.7074 13.1129 9.9639
# 2 35.5060 144.8587 28.0394 7.3715 4.8670 20.1964
# 3 17.9047 28.0394 125.1132 8.6448 21.4065 6.2466
# 4 22.7074 7.3715 8.6448 48.2677 1.4861 14.2901
# 5 13.1129 4.8670 21.4065 1.4861 34.0653 5.6470
# 6 9.9639 20.1964 6.2466 14.2901 5.6470 46.7771
#
#
#
# Elastic Compliance Matrix: (Units=1/GPa)
#
#
# Indices 1 2 3 4 5 6 
#
# 1 0.009730 -0.002118 -0.000085 -0.004305 -0.003295 0.000566
# 2 -0.002118 0.008102 -0.001618 0.000981 0.001174 -0.003273
# 3 -0.000085 -0.001618 0.009407 -0.001392 -0.005682 0.000572
# 4 -0.004305 0.000981 -0.001392 0.024906 0.002504 -0.007232
# 5 -0.003295 0.001174 -0.005682 0.002504 0.034578 -0.003985
# 6 0.000566 -0.003273 0.000572 -0.007232 -0.003985 0.025284
#
#
# Mechanical properties :
#
#
# Convention : Reuss Voigt Hill
#
# Bulk Modulus (GPa) = 51.02439 61.93820 56.48130
# Shear Modulus (GPa) = 39.62540 46.69492 43.16016
#
# Velocity S-wave (km/s) = 3.90281 4.23668 4.07317
# Velocity P-wave (km/s) = 6.31846 6.90953 6.62060
#
# Compressibility (1/GPa) = 0.01959847
#
# Stress axis : x y z
#
# Youngs Moduli (GPa) = 102.77960 123.42032 106.30032
#
# Poissons Ratio (x) = 0.26134 0.00901
# Poissons Ratio (y) = 0.21764 0.17200
# Poissons Ratio (z) = 0.00872 0.19971
#
# Static dielectric constant tensor:
#      x y z
#    x 2.157830 -0.029500 -0.143650 
#    y -0.029500 2.093680 -0.046850 
#    z -0.143650 -0.046850 2.016470 
# 
# From -- ./inp_files/323254.got.cif
#   From: 2010.05.17/outbox.cif.g08.bks.cpg/sg2_162_cif.got.tgz:323254.got - 2010.06.03 11:33:40.
