data_PCOD9032683
_publ_section_title
;
Structure prediction by ZEFSAII (Michael W. Deem and Ramdas Pophale) SiO2 
 PCOD9032683
Probable space group: P -1
;
_chemical_formula_sum "Si O2"
_cell_formula_units_Z 16
_cell_length_a 12.527080
_cell_length_b 7.849438
_cell_length_c 9.368050
_cell_angle_alpha 84.011717
_cell_angle_beta 42.575541
_cell_angle_gamma 94.359236
_cell_volume 603.624055
_symmetry_space_group_name_H-M "P -1"
_symmetry_group_IT_number 2
_symmetry_cell_setting 'triclinic'
loop_
_space_group_symop_operation_xyz
x,y,z
-x,-y,-z
loop_
_atom_site_type_symbol
_atom_site_label
_atom_site_fract_x
_atom_site_fract_y
_atom_site_fract_z
Si Si1 0.725394 0.814832 0.458351
Si Si2 0.750649 0.689956 0.989282
Si Si3 0.897013 0.741698 0.552051
Si Si4 0.620597 0.398468 0.532661
Si Si5 0.798047 0.333146 0.630387
Si Si6 0.802569 0.008564 0.069533
Si Si7 0.441770 0.889127 0.924066
Si Si8 0.853968 0.391093 0.059275
O O1 0.868534 0.847332 0.432238
O O2 0.683769 0.609688 0.468946
O O3 0.749165 0.936346 0.285984
O O4 0.578600 0.846447 0.694408
O O5 0.569843 0.648307 0.238138
O O6 0.863191 0.846283 0.956049
O O7 0.824623 0.519768 0.952103
O O8 0.764802 0.742588 0.805260
O O9 0.873133 0.540459 0.541205
O O10 0.071804 0.781387 0.451217
O O11 0.709793 0.300193 0.568871
O O12 0.686803 0.350665 0.319547
O O13 0.665872 0.288617 0.888216
O O14 0.666379 0.024839 0.084693
O O15 0.892114 0.209980 0.987336
O O16 0.500000 0.000000 0.000000
O O17 0.000000 0.500000 0.000000
#
# Coordination Sequence:
#
# PCOD9032683 Si02
#       8
#     2   2   2   2   2   2   2   2
#     4  11  24  45  73 111 149 196 254 305 378 446
#     4  12  25  48  75 113 145 196 257 306 373 443
#     4  10  22  45  74 106 148 195 249 312 368 444
#     4  11  23  44  76 107 147 198 250 311 367 445
#     4  10  22  43  73 103 147 199 251 302 378 437
#     4  12  28  46  79 110 151 197 251 310 374 449
#     4  12  26  45  71 112 149 196 249 312 366 441
#     4  12  28  49  73 108 156 199 246 312 378 445
#
# _framework density 26.506564000000001
#
# number of rings (size 3 to 8) (size 9 to 14) (size 15 to 20)
#    0.000    0.750    1.250    6.000    5.250    4.500 
#    2.250    1.250    0.000    0.000    0.000    0.000 
#    0.000    0.000    0.000    0.000    0.000    0.000 
#
# Total GULP energy -89720.164951 kJ/mol
# GULP energy per Si atom -5607.510309 kJ/mol
# Density = 2.644623 g / cm^3
# Si number density = 26.506564 Si / 1000 Ang^3
#
#
#
# Elastic Constant Matrix: (Units=GPa)
#
#
# Indices 1 2 3 4 5 6 
#
# 1 149.2210 33.3112 36.7187 -16.9771 30.9732 -5.1661
# 2 33.3112 116.6335 36.6305 -16.8416 10.5663 15.4016
# 3 36.7187 36.6305 144.8214 3.5815 24.0499 -4.4594
# 4 -16.9771 -16.8416 3.5815 40.9824 -1.6070 7.7259
# 5 30.9732 10.5663 24.0499 -1.6070 47.3096 -8.9009
# 6 -5.1661 15.4016 -4.4594 7.7259 -8.9009 35.5287
#
#
#
# Elastic Compliance Matrix: (Units=1/GPa)
#
#
# Indices 1 2 3 4 5 6 
#
# 1 0.008564 -0.001188 -0.001174 0.003019 -0.004682 -0.000217
# 2 -0.001188 0.011743 -0.002772 0.005888 -0.001608 -0.007294
# 3 -0.001174 -0.002772 0.008475 -0.002857 -0.002630 0.002057
# 4 0.003019 0.005888 -0.002857 0.030039 -0.002637 -0.009665
# 5 -0.004682 -0.001608 -0.002630 -0.002637 0.027137 0.007058
# 6 -0.000217 -0.007294 0.002057 -0.009665 0.007058 0.035405
#
#
# Mechanical properties :
#
#
# Convention : Reuss Voigt Hill
#
# Bulk Modulus (GPa) = 54.01988 69.33297 61.67643
# Shear Modulus (GPa) = 36.28362 45.03183 40.65773
#
# Velocity S-wave (km/s) = 3.70382 4.12624 3.92072
# Velocity P-wave (km/s) = 6.22214 6.99391 6.61928
#
# Compressibility (1/GPa) = 0.01851170
#
# Stress axis : x y z
#
# Youngs Moduli (GPa) = 116.77351 85.15729 117.99694
#
# Poissons Ratio (x) = 0.10118 0.13859
# Poissons Ratio (y) = 0.13875 0.32711
# Poissons Ratio (z) = 0.13715 0.23607
#
# Static dielectric constant tensor:
#      x y z
#    x 2.123610 0.002960 -0.080690 
#    y 0.002960 2.077420 -0.017760 
#    z -0.080690 -0.017760 2.037840 
# 
# From -- ./inp_files/243343.got.cif
#   From: 2010.05.17/outbox.cif.g08.bks.cpg/sg2_122_cif.got.tgz:243343.got - 2010.06.03 11:33:40.
