data_PCOD9032139
_publ_section_title
;
Structure prediction by ZEFSAII (Michael W. Deem and Ramdas Pophale) SiO2 
 PCOD9032139
Probable space group: P -1
;
_chemical_formula_sum "Si O2"
_cell_formula_units_Z 15
_cell_length_a 8.454272
_cell_length_b 20.196500
_cell_length_c 6.718561
_cell_angle_alpha 107.955404
_cell_angle_beta 79.014352
_cell_angle_gamma 47.963273
_cell_volume 670.486795
_symmetry_space_group_name_H-M "P -1"
_symmetry_group_IT_number 2
_symmetry_cell_setting 'triclinic'
loop_
_space_group_symop_operation_xyz
x,y,z
-x,-y,-z
loop_
_atom_site_type_symbol
_atom_site_label
_atom_site_fract_x
_atom_site_fract_y
_atom_site_fract_z
Si Si1 0.793661 0.322780 0.735411
Si Si2 0.641379 0.482956 0.256971
Si Si3 0.500000 0.000000 0.000000
Si Si4 0.677792 0.228117 0.873661
Si Si5 0.693088 0.783446 0.660932
Si Si6 0.983384 0.896310 0.972013
Si Si7 0.259267 0.896039 0.580531
Si Si8 0.876730 0.603085 0.753676
O O1 0.565560 0.401002 0.703001
O O2 0.839125 0.229461 0.710228
O O3 0.044223 0.273276 0.538049
O O4 0.709323 0.396524 0.013904
O O5 0.500000 0.500000 0.500000
O O6 0.898247 0.438416 0.208708
O O7 0.519898 0.907109 0.889049
O O8 0.782931 0.906478 0.958819
O O9 0.725028 0.137413 0.676893
O O10 0.762827 0.210413 0.064345
O O11 0.373817 0.343660 0.028509
O O12 0.536131 0.801310 0.534088
O O13 0.759953 0.704123 0.737346
O O14 0.075763 0.910033 0.774268
O O15 0.843253 0.991730 0.259960
O O16 0.000000 0.500000 0.500000
#
# Coordination Sequence:
#
# PCOD9032139 Si02
#       8
#     2   2   1   2   2   2   2   2
#     4  11  26  42  70 102 134 183 231 281 342 407
#     4  11  24  46  68  97 139 180 230 284 338 405
#     4  10  24  42  74  98 136 184 220 282 340 404
#     4  12  25  42  70 103 134 180 230 283 343 407
#     4  11  23  47  68 101 138 180 232 276 344 407
#     4  10  22  44  68 101 138 176 226 283 343 406
#     4  10  22  43  69  98 137 180 224 283 340 409
#     4  12  27  43  72 100 137 185 226 285 343 401
#
# _framework density 22.371804999999998
#
# number of rings (size 3 to 8) (size 9 to 14) (size 15 to 20)
#    0.000    1.067    2.667    2.800    5.600    2.667 
#    2.400    3.333    0.000    0.000    0.000    0.000 
#    0.000    0.000    0.000    0.000    0.000    0.000 
#
# Total GULP energy -83623.212569 kJ/mol
# GULP energy per Si atom -5574.880838 kJ/mol
# Density = 2.232089 g / cm^3
# Si number density = 22.371805 Si / 1000 Ang^3
#
#
#
# Elastic Constant Matrix: (Units=GPa)
#
#
# Indices 1 2 3 4 5 6 
#
# 1 123.5087 34.2120 12.4485 -17.8841 8.4322 -43.7061
# 2 34.2120 65.2551 13.6895 -4.9591 5.3310 -21.2474
# 3 12.4485 13.6895 60.9446 0.2046 9.0234 -3.4389
# 4 -17.8841 -4.9591 0.2046 26.0868 -1.9868 6.0606
# 5 8.4322 5.3310 9.0234 -1.9868 34.2554 -1.0435
# 6 -43.7061 -21.2474 -3.4389 6.0606 -1.0435 60.4433
#
#
#
# Elastic Compliance Matrix: (Units=1/GPa)
#
#
# Indices 1 2 3 4 5 6 
#
# 1 0.012786 -0.003459 -0.001191 0.006291 -0.001708 0.007302
# 2 -0.003459 0.019242 -0.003218 0.000287 -0.001156 0.004031
# 3 -0.001191 -0.003218 0.017931 -0.001674 -0.004053 -0.000874
# 4 0.006291 0.000287 -0.001674 0.042748 0.001336 0.000292
# 5 -0.001708 -0.001156 -0.004053 0.001336 0.030893 -0.001473
# 6 0.007302 0.004031 -0.000874 0.000292 -0.001473 0.023137
#
#
# Mechanical properties :
#
#
# Convention : Reuss Voigt Hill
#
# Bulk Modulus (GPa) = 29.21968 41.15648 35.18808
# Shear Modulus (GPa) = 28.75550 36.78101 32.76826
#
# Velocity S-wave (km/s) = 3.58906 4.05912 3.83131
# Velocity P-wave (km/s) = 5.50131 6.35651 5.94431
#
# Compressibility (1/GPa) = 0.03422351
#
# Stress axis : x y z
#
# Youngs Moduli (GPa) = 78.21002 51.97046 55.76990
#
# Poissons Ratio (x) = 0.17974 0.06642
# Poissons Ratio (y) = 0.27049 0.17947
# Poissons Ratio (z) = 0.09315 0.16724
#
# Static dielectric constant tensor:
#      x y z
#    x 1.793340 -0.002520 0.009000 
#    y -0.002520 1.863870 0.029500 
#    z 0.009000 0.029500 1.815780 
# 
# From -- ./inp_files/48344.got.cif
#   From: 2010.05.17/outbox.cif.g08.bks.cpg/sg2_25_cif.got.tgz:48344.got - 2010.06.03 11:33:40.
