data_PCOD9032441
_publ_section_title
;
Structure prediction by ZEFSAII (Michael W. Deem and Ramdas Pophale) SiO2 
 PCOD9032441
Probable space group: P -1
;
_chemical_formula_sum "Si O2"
_cell_formula_units_Z 14
_cell_length_a 8.308249
_cell_length_b 17.664988
_cell_length_c 9.561756
_cell_angle_alpha 29.494619
_cell_angle_beta 68.465347
_cell_angle_gamma 64.217982
_cell_volume 621.931892
_symmetry_space_group_name_H-M "P -1"
_symmetry_group_IT_number 2
_symmetry_cell_setting 'triclinic'
loop_
_space_group_symop_operation_xyz
x,y,z
-x,-y,-z
loop_
_atom_site_type_symbol
_atom_site_label
_atom_site_fract_x
_atom_site_fract_y
_atom_site_fract_z
Si Si1 0.974591 0.697497 0.048747
Si Si2 0.808050 0.683974 0.660728
Si Si3 0.458513 0.683157 0.248262
Si Si4 0.076546 0.659288 0.388368
Si Si5 0.503264 0.182093 0.679609
Si Si6 0.296831 0.616540 0.864838
Si Si7 0.331344 0.145022 0.289572
O O1 0.910410 0.532340 0.316254
O O2 0.979254 0.722787 0.172163
O O3 0.835504 0.842498 0.782772
O O4 0.173285 0.664573 0.966346
O O5 0.658829 0.745548 0.489625
O O6 0.757882 0.787792 0.645631
O O7 0.981339 0.702128 0.497250
O O8 0.805810 0.501779 0.987506
O O9 0.500000 0.500000 0.500000
O O10 0.246734 0.731439 0.222790
O O11 0.516485 0.731138 0.303818
O O12 0.562739 0.743469 0.997526
O O13 0.671455 0.230475 0.472540
O O14 0.500000 0.000000 0.000000
O O15 0.500000 0.500000 0.000000
O O16 0.500000 0.000000 0.500000
#
# Coordination Sequence:
#
# PCOD9032441 Si02
#       7
#     2   2   2   2   2   2   2
#     4  10  22  43  71 104 150 180 238 301 366 418
#     4  10  23  43  69 101 140 183 242 293 359 425
#     4  12  25  43  75 106 139 188 253 296 353 428
#     4  10  23  42  73 108 135 181 246 308 352 420
#     4  11  24  44  67 100 145 189 232 286 366 428
#     4   9  21  38  73 103 133 180 242 291 354 417
#     4  12  26  45  67 103 150 191 232 298 366 429
#
# _framework density 22.510503
#
# number of rings (size 3 to 8) (size 9 to 14) (size 15 to 20)
#    0.000    1.429    1.429    2.571   12.000    1.143 
#    2.571    2.143    0.000    0.000    0.000    0.000 
#    0.000    0.000    0.000    0.000    0.000    0.000 
#
# Total GULP energy -78093.329165 kJ/mol
# GULP energy per Si atom -5578.094940 kJ/mol
# Density = 2.245927 g / cm^3
# Si number density = 22.510503 Si / 1000 Ang^3
#
#
#
# Elastic Constant Matrix: (Units=GPa)
#
#
# Indices 1 2 3 4 5 6 
#
# 1 101.9283 35.7800 40.5336 24.8778 12.7059 -5.4094
# 2 35.7800 144.5803 31.9298 -3.3514 22.8869 6.5865
# 3 40.5336 31.9298 149.0325 43.9118 -5.2802 -2.7630
# 4 24.8778 -3.3514 43.9118 70.9040 -19.0868 -11.5195
# 5 12.7059 22.8869 -5.2802 -19.0868 45.8257 14.7858
# 6 -5.4094 6.5865 -2.7630 -11.5195 14.7858 36.3717
#
#
#
# Elastic Compliance Matrix: (Units=1/GPa)
#
#
# Indices 1 2 3 4 5 6 
#
# 1 0.013379 -0.002219 -0.001942 -0.004641 -0.005764 0.003117
# 2 -0.002219 0.008379 -0.001704 0.001345 -0.003113 -0.000285
# 3 -0.001942 -0.001704 0.009087 -0.005023 0.000723 -0.001175
# 4 -0.004641 0.001345 -0.005023 0.021485 0.008303 0.002114
# 5 -0.005764 -0.003113 0.000723 0.008303 0.031934 -0.010590
# 6 0.003117 -0.000285 -0.001175 0.002114 -0.010590 0.032895
#
#
# Mechanical properties :
#
#
# Convention : Reuss Voigt Hill
#
# Bulk Modulus (GPa) = 52.31478 68.00312 60.15895
# Shear Modulus (GPa) = 36.96593 49.77346 43.36969
#
# Velocity S-wave (km/s) = 4.05676 4.70736 4.39412
# Velocity P-wave (km/s) = 6.72560 7.73438 7.24756
#
# Compressibility (1/GPa) = 0.01911506
#
# Stress axis : x y z
#
# Youngs Moduli (GPa) = 74.74422 119.34564 110.04737
#
# Poissons Ratio (x) = 0.26485 0.21373
# Poissons Ratio (y) = 0.16587 0.18748
# Poissons Ratio (z) = 0.14516 0.20332
#
# Static dielectric constant tensor:
#      x y z
#    x 1.961170 -0.094930 0.031520 
#    y -0.094930 1.866350 -0.018080 
#    z 0.031520 -0.018080 1.836380 
# 
# From -- ./inp_files/190217.got.cif
#   From: 2010.05.17/outbox.cif.g08.bks.cpg/sg2_96_cif.got.tgz:190217.got - 2010.06.03 11:33:40.
