data_PCOD9032539
_publ_section_title
;
Structure prediction by ZEFSAII (Michael W. Deem and Ramdas Pophale) SiO2 
 PCOD9032539
Probable space group: P -1
;
_chemical_formula_sum "Si O2"
_cell_formula_units_Z 16
_cell_length_a 19.922041
_cell_length_b 7.266563
_cell_length_c 5.610088
_cell_angle_alpha 63.761249
_cell_angle_beta 90.699682
_cell_angle_gamma 69.135615
_cell_volume 666.597662
_symmetry_space_group_name_H-M "P -1"
_symmetry_group_IT_number 2
_symmetry_cell_setting 'triclinic'
loop_
_space_group_symop_operation_xyz
x,y,z
-x,-y,-z
loop_
_atom_site_type_symbol
_atom_site_label
_atom_site_fract_x
_atom_site_fract_y
_atom_site_fract_z
Si Si1 0.059031 0.854761 0.277319
Si Si2 0.564464 0.398370 0.252456
Si Si3 0.689359 0.903672 0.143373
Si Si4 0.839893 0.449500 0.894736
Si Si5 0.283653 0.573168 0.779022
Si Si6 0.466915 0.835926 0.209160
Si Si7 0.010640 0.697649 0.755857
Si Si8 0.235734 0.059109 0.374973
O O1 0.135207 0.693341 0.261506
O O2 0.022849 0.695696 0.477963
O O3 0.053006 0.060108 0.328437
O O4 0.000000 0.000000 0.000000
O O5 0.640802 0.402010 0.169629
O O6 0.536059 0.598872 0.330677
O O7 0.562700 0.180025 0.513936
O O8 0.500000 0.500000 0.000000
O O9 0.695886 0.648656 0.255131
O O10 0.718732 0.927007 0.392140
O O11 0.733003 0.933576 0.894178
O O12 0.607360 0.092590 0.991529
O O13 0.832841 0.704046 0.733719
O O14 0.763577 0.458692 0.986586
O O15 0.908249 0.325127 0.143328
O O16 0.234160 0.816557 0.531320
O O17 0.500000 0.000000 0.000000
O O18 0.000000 0.500000 0.000000
#
# Coordination Sequence:
#
# PCOD9032539 Si02
#       8
#     2   2   2   2   2   2   2   2
#     4   9  21  42  66  99 138 176 232 280 351 425
#     4  11  24  43  69 101 133 190 248 297 378 433
#     4  11  25  47  68 106 138 196 244 302 373 442
#     4  10  25  42  66 105 135 189 233 287 366 432
#     4  11  24  47  69 103 150 187 239 312 359 441
#     4  11  23  41  67  97 136 181 245 307 363 435
#     4  10  22  43  72 101 140 179 231 292 350 432
#     4  11  26  45  70 101 151 188 244 294 373 440
#
# _framework density 24.002483000000002
#
# number of rings (size 3 to 8) (size 9 to 14) (size 15 to 20)
#    0.000    1.500    2.500    0.750    3.500   10.500 
#    0.000    0.000    0.000    0.000    0.000    0.000 
#    0.000    0.000    0.000    0.000    0.000    0.000 
#
# Total GULP energy -89121.433507 kJ/mol
# GULP energy per Si atom -5570.089594 kJ/mol
# Density = 2.394785 g / cm^3
# Si number density = 24.002483 Si / 1000 Ang^3
#
#
#
# Elastic Constant Matrix: (Units=GPa)
#
#
# Indices 1 2 3 4 5 6 
#
# 1 88.7974 43.0354 48.0934 8.7020 -21.0756 -6.4247
# 2 43.0354 114.9643 16.3852 -24.7527 -14.2891 -17.0934
# 3 48.0934 16.3852 137.9066 -16.6743 -24.2079 14.2033
# 4 8.7020 -24.7527 -16.6743 45.8340 -0.9686 -0.2435
# 5 -21.0756 -14.2891 -24.2079 -0.9686 44.0449 -6.5649
# 6 -6.4247 -17.0934 14.2033 -0.2435 -6.5649 39.2812
#
#
#
# Elastic Compliance Matrix: (Units=1/GPa)
#
#
# Indices 1 2 3 4 5 6 
#
# 1 0.021801 -0.008629 -0.007648 -0.011488 0.003640 0.003113
# 2 -0.008629 0.014965 0.002584 0.010751 0.003091 0.004750
# 3 -0.007648 0.002584 0.011374 0.007030 0.003035 -0.003688
# 4 -0.011488 0.010751 0.007030 0.032425 0.002703 0.000910
# 5 0.003640 0.003091 0.003035 0.002703 0.028002 0.005540
# 6 0.003113 0.004750 -0.003688 0.000910 0.005540 0.030298
#
#
# Mechanical properties :
#
#
# Convention : Reuss Voigt Hill
#
# Bulk Modulus (GPa) = 48.18158 61.85513 55.01836
# Shear Modulus (GPa) = 28.87345 41.44233 35.15789
#
# Velocity S-wave (km/s) = 3.47210 4.15973 3.83137
# Velocity P-wave (km/s) = 6.01591 6.99266 6.52259
#
# Compressibility (1/GPa) = 0.02075482
#
# Stress axis : x y z
#
# Youngs Moduli (GPa) = 45.86935 66.82121 87.91885
#
# Poissons Ratio (x) = 0.57660 0.67243
# Poissons Ratio (y) = 0.39581 -0.22723
# Poissons Ratio (z) = 0.35082 -0.17270
#
# Static dielectric constant tensor:
#      x y z
#    x 1.920350 0.937350 0.766430 
#    y 0.937350 -15.803740 -14.981880 
#    z 0.766430 -14.981880 -10.693610 
# 
# From -- ./inp_files/116530.got.cif
#   From: 2010.05.17/outbox.cif.g08.bks.cpg/sg2_59_cif.got.tgz:116530.got - 2010.06.03 11:33:40.
