data_PCOD9032910
_publ_section_title
;
Structure prediction by ZEFSAII (Michael W. Deem and Ramdas Pophale) SiO2 
 PCOD9032910
Probable space group: P -1
;
_chemical_formula_sum "Si O2"
_cell_formula_units_Z 16
_cell_length_a 19.704863
_cell_length_b 19.126913
_cell_length_c 6.975504
_cell_angle_alpha 64.222057
_cell_angle_beta 74.957297
_cell_angle_gamma 20.341785
_cell_volume 724.843383
_symmetry_space_group_name_H-M "P -1"
_symmetry_group_IT_number 2
_symmetry_cell_setting 'triclinic'
loop_
_space_group_symop_operation_xyz
x,y,z
-x,-y,-z
loop_
_atom_site_type_symbol
_atom_site_label
_atom_site_fract_x
_atom_site_fract_y
_atom_site_fract_z
Si Si1 0.481283 0.516127 0.765900
Si Si2 0.464698 0.779530 0.452408
Si Si3 0.021823 0.601557 0.427553
Si Si4 0.195414 0.543573 0.082784
Si Si5 0.627613 0.898758 0.344091
Si Si6 0.662464 0.685623 0.143492
Si Si7 0.103474 0.036545 0.406514
Si Si8 0.714149 0.384088 0.508972
O O1 0.693142 0.333052 0.727764
O O2 0.418741 0.501666 0.723790
O O3 0.280190 0.784711 0.533508
O O4 0.500000 0.500000 0.000000
O O5 0.596261 0.660130 0.690637
O O6 0.478139 0.839563 0.232924
O O7 0.602110 0.572591 0.475164
O O8 0.236033 0.976384 0.428836
O O9 0.043365 0.640718 0.192359
O O10 0.204913 0.342914 0.560612
O O11 0.114358 0.543325 0.622188
O O12 0.784956 0.808735 0.375089
O O13 0.281032 0.420753 0.963925
O O14 0.059251 0.765043 0.879453
O O15 0.500000 0.000000 0.500000
O O16 0.437371 0.127418 0.068143
O O17 0.955596 0.157391 0.540264
#
# Coordination Sequence:
#
# PCOD9032910 Si02
#       8
#     2   2   2   2   2   2   2   2
#     4  10  24  44  66  93 131 163 210 266 312 381
#     4  10  24  43  63  93 131 165 211 267 310 376
#     4  10  24  43  64  94 130 167 214 258 318 377
#     4  11  23  44  64  94 130 165 215 260 314 382
#     4  11  22  42  66  96 127 172 211 263 318 369
#     4  11  22  43  65  92 133 168 211 265 312 376
#     4  11  23  42  67  93 125 168 208 262 319 372
#     4  10  22  44  62  97 123 163 216 252 316 378
#
# _framework density 22.073734999999999
#
# number of rings (size 3 to 8) (size 9 to 14) (size 15 to 20)
#    0.000    1.500    2.500    1.500    3.500    2.000 
#   11.250    0.000    0.000    0.000    0.000    0.000 
#    0.000    0.000    0.000    0.000    0.000    0.000 
#
# Total GULP energy -89401.200622 kJ/mol
# GULP energy per Si atom -5587.575039 kJ/mol
# Density = 2.202349 g / cm^3
# Si number density = 22.073735 Si / 1000 Ang^3
#
#
#
# Elastic Constant Matrix: (Units=GPa)
#
#
# Indices 1 2 3 4 5 6 
#
# 1 60.8082 28.1830 32.2780 26.6013 3.6267 -16.3145
# 2 28.1830 96.0463 38.7280 21.1619 0.2279 -28.2185
# 3 32.2780 38.7280 125.0461 30.3066 3.4020 -3.3664
# 4 26.6013 21.1619 30.3066 28.3726 10.6985 -11.5794
# 5 3.6267 0.2279 3.4020 10.6985 37.8042 2.1503
# 6 -16.3145 -28.2185 -3.3664 -11.5794 2.1503 55.1307
#
#
#
# Elastic Compliance Matrix: (Units=1/GPa)
#
#
# Indices 1 2 3 4 5 6 
#
# 1 0.029539 -0.002018 -0.000670 -0.026419 0.004605 0.001939
# 2 -0.002018 0.014822 -0.002968 -0.004020 0.001172 0.005918
# 3 -0.000670 -0.002968 0.011933 -0.012454 0.002744 -0.003712
# 4 -0.026419 -0.004020 -0.012454 0.088068 -0.021739 0.008709
# 5 0.004605 0.001172 0.002744 -0.021739 0.032118 -0.003688
# 6 0.001939 0.005918 -0.003712 0.008709 -0.003688 0.023488
#
#
# Mechanical properties :
#
#
# Convention : Reuss Voigt Hill
#
# Bulk Modulus (GPa) = 22.23075 53.36429 37.79752
# Shear Modulus (GPa) = 22.09705 36.44226 29.26966
#
# Velocity S-wave (km/s) = 3.16738 4.06758 3.64537
# Velocity P-wave (km/s) = 4.84452 6.80354 5.90583
#
# Compressibility (1/GPa) = 0.04498273
#
# Stress axis : x y z
#
# Youngs Moduli (GPa) = 33.85348 67.46624 83.80094
#
# Poissons Ratio (x) = 0.13613 0.05614
# Poissons Ratio (y) = 0.06831 0.24873
# Poissons Ratio (z) = 0.02268 0.20024
#
# Static dielectric constant tensor:
#      x y z
#    x 1.855950 -0.013390 0.000590 
#    y -0.013390 1.811400 -0.004680 
#    z 0.000590 -0.004680 1.796490 
# 
# From -- ./inp_files/120371.got.cif
#   From: 2010.05.17/outbox.cif.g08.bks.cpg/sg2_61_cif.got.tgz:120371.got - 2010.06.03 11:33:40.
