data_PCOD9032111
_publ_section_title
;
Structure prediction by ZEFSAII (Michael W. Deem and Ramdas Pophale) SiO2 
 PCOD9032111
Probable space group: P -1
;
_chemical_formula_sum "Si O2"
_cell_formula_units_Z 14
_cell_length_a 11.139143
_cell_length_b 9.190933
_cell_length_c 15.470698
_cell_angle_alpha 30.669018
_cell_angle_beta 65.968580
_cell_angle_gamma 56.534564
_cell_volume 665.541755
_symmetry_space_group_name_H-M "P -1"
_symmetry_group_IT_number 2
_symmetry_cell_setting 'triclinic'
loop_
_space_group_symop_operation_xyz
x,y,z
-x,-y,-z
loop_
_atom_site_type_symbol
_atom_site_label
_atom_site_fract_x
_atom_site_fract_y
_atom_site_fract_z
Si Si1 0.626754 0.042841 0.571821
Si Si2 0.572959 0.815125 0.867479
Si Si3 0.663844 0.328908 0.637269
Si Si4 0.045316 0.220828 0.815025
Si Si5 0.153661 0.720753 0.568089
Si Si6 0.303770 0.881799 0.793772
Si Si7 0.246787 0.369730 0.405242
O O1 0.475219 0.328218 0.499025
O O2 0.731753 0.213632 0.440264
O O3 0.673402 0.799743 0.762558
O O4 0.632739 0.825696 0.600926
O O5 0.418235 0.888007 0.830323
O O6 0.593545 0.081907 0.779668
O O7 0.628807 0.481866 0.068419
O O8 0.775925 0.284418 0.546909
O O9 0.738152 0.340602 0.699887
O O10 0.130410 0.403385 0.742673
O O11 0.906233 0.493228 0.669434
O O12 0.151690 0.991956 0.829522
O O13 0.000000 0.000000 0.000000
O O14 0.000000 0.000000 0.500000
O O15 0.269187 0.122062 0.601927
#
# Coordination Sequence:
#
# PCOD9032111 Si02
#       7
#     2   2   2   2   2   2   2
#     4  11  21  42  71  96 129 176 222 266 328 398
#     4  10  22  43  69  97 129 174 222 265 329 396
#     4  11  23  41  70  99 131 174 218 272 331 385
#     4  12  25  44  64  95 134 178 220 269 332 395
#     4  11  22  41  68  94 127 177 222 263 328 397
#     4  11  23  41  68  96 134 174 218 274 328 385
#     4  12  24  41  67 100 134 170 220 274 330 386
#
# _framework density 21.035494
#
# number of rings (size 3 to 8) (size 9 to 14) (size 15 to 20)
#    0.000    0.857    4.286    4.286    2.000    0.000 
#    2.571    1.429    0.000    0.000    0.000    0.000 
#    0.000    0.000    0.000    0.000    0.000    0.000 
#
# Total GULP energy -78025.517945 kJ/mol
# GULP energy per Si atom -5573.251282 kJ/mol
# Density = 2.098762 g / cm^3
# Si number density = 21.035494 Si / 1000 Ang^3
#
#
#
# Elastic Constant Matrix: (Units=GPa)
#
#
# Indices 1 2 3 4 5 6 
#
# 1 62.2650 23.6901 46.7927 -0.5770 -14.5711 -3.2901
# 2 23.6901 117.9608 20.3396 -14.8127 -3.9459 0.1196
# 3 46.7927 20.3396 104.1813 -10.4995 -3.0676 -5.4930
# 4 -0.5770 -14.8127 -10.4995 20.3425 0.4449 2.8649
# 5 -14.5711 -3.9459 -3.0676 0.4449 31.3765 -7.4389
# 6 -3.2901 0.1196 -5.4930 2.8649 -7.4389 39.1357
#
#
#
# Elastic Compliance Matrix: (Units=1/GPa)
#
#
# Indices 1 2 3 4 5 6 
#
# 1 0.031519 -0.004845 -0.013649 -0.010566 0.013827 0.004150
# 2 -0.004845 0.010259 0.000880 0.007975 -0.001257 -0.001138
# 3 -0.013649 0.000880 0.016281 0.008824 -0.004865 -0.000436
# 4 -0.010566 0.007975 0.008824 0.060041 -0.005086 -0.005036
# 5 0.013827 -0.001257 -0.004865 -0.005086 0.039724 0.008406
# 6 0.004150 -0.001138 -0.000436 -0.005036 0.008406 0.027810
#
#
# Mechanical properties :
#
#
# Convention : Reuss Voigt Hill
#
# Bulk Modulus (GPa) = 43.80303 51.78356 47.79330
# Shear Modulus (GPa) = 21.88457 31.07659 26.48058
#
# Velocity S-wave (km/s) = 3.22897 3.84779 3.55188
# Velocity P-wave (km/s) = 5.89663 6.66418 6.29212
#
# Compressibility (1/GPa) = 0.02282947
#
# Stress axis : x y z
#
# Youngs Moduli (GPa) = 31.72730 97.47328 61.42269
#
# Poissons Ratio (x) = 0.47224 0.83839
# Poissons Ratio (y) = 0.15371 -0.05404
# Poissons Ratio (z) = 0.43306 -0.08576
#
# Static dielectric constant tensor:
#      x y z
#    x 1.847300 0.005450 -0.003360 
#    y 0.005450 1.793690 -0.005830 
#    z -0.003360 -0.005830 1.764610 
# 
# From -- ./inp_files/245283.got.cif
#   From: 2010.05.17/outbox.cif.g08.bks.cpg/sg2_123_cif.got.tgz:245283.got - 2010.06.03 11:33:40.
