data_PCOD9032787
_publ_section_title
;
Structure prediction by ZEFSAII (Michael W. Deem and Ramdas Pophale) SiO2 
 PCOD9032787
Probable space group: P -1
;
_chemical_formula_sum "Si O2"
_cell_formula_units_Z 16
_cell_length_a 14.596676
_cell_length_b 5.641427
_cell_length_c 10.433602
_cell_angle_alpha 92.512084
_cell_angle_beta 59.822817
_cell_angle_gamma 68.449510
_cell_volume 662.330510
_symmetry_space_group_name_H-M "P -1"
_symmetry_group_IT_number 2
_symmetry_cell_setting 'triclinic'
loop_
_space_group_symop_operation_xyz
x,y,z
-x,-y,-z
loop_
_atom_site_type_symbol
_atom_site_label
_atom_site_fract_x
_atom_site_fract_y
_atom_site_fract_z
Si Si1 0.440781 0.524252 0.748454
Si Si2 0.961521 0.306617 0.155968
Si Si3 0.801466 0.127074 0.121959
Si Si4 0.045809 0.770309 0.565594
Si Si5 0.452636 0.806819 0.096205
Si Si6 0.587900 0.724423 0.495229
Si Si7 0.194599 0.148721 0.632297
Si Si8 0.187252 0.205753 0.356094
O O1 0.311300 0.743042 0.889430
O O2 0.499396 0.271804 0.793404
O O3 0.532493 0.641046 0.652751
O O4 0.402409 0.459261 0.636666
O O5 0.871432 0.299788 0.111016
O O6 0.926048 0.603005 0.232496
O O7 0.939226 0.171524 0.296264
O O8 0.095155 0.140078 0.014894
O O9 0.765778 0.048783 0.281664
O O10 0.926243 0.727309 0.651535
O O11 0.157942 0.507012 0.427769
O O12 0.000000 0.000000 0.500000
O O13 0.311169 0.997801 0.204353
O O14 0.500000 0.500000 0.000000
O O15 0.500000 0.000000 0.000000
O O16 0.707679 0.739588 0.442011
O O17 0.500000 0.000000 0.500000
O O18 0.184515 0.070460 0.492355
#
# Coordination Sequence:
#
# PCOD9032787 Si02
#       8
#     2   2   2   2   2   2   2   2
#     4  11  26  43  69 105 135 190 240 295 371 442
#     4  10  23  39  62  98 137 177 231 302 364 440
#     4  11  22  40  64 101 137 179 231 296 374 442
#     4  10  22  43  74  98 135 192 245 307 363 428
#     4  12  32  52  75 109 155 205 248 308 378 452
#     4  11  22  40  70 101 134 176 237 302 358 433
#     4  11  21  40  68  98 138 180 234 302 371 428
#     4  10  25  44  69 105 135 189 254 302 362 447
#
# _framework density 24.157121
#
# number of rings (size 3 to 8) (size 9 to 14) (size 15 to 20)
#    0.000    1.250    2.500    1.875    8.750    1.000 
#    0.000    1.250    0.000    0.000    0.000    0.000 
#    0.000    0.000    0.000    0.000    0.000    0.000 
#
# Total GULP energy -89318.890601 kJ/mol
# GULP energy per Si atom -5582.430663 kJ/mol
# Density = 2.410214 g / cm^3
# Si number density = 24.157121 Si / 1000 Ang^3
#
#
#
# Elastic Constant Matrix: (Units=GPa)
#
#
# Indices 1 2 3 4 5 6 
#
# 1 75.1453 18.3090 26.5945 12.3725 -7.0262 -14.3861
# 2 18.3090 157.2024 57.2386 -1.0127 -11.3183 -23.9558
# 3 26.5945 57.2386 95.1434 20.7271 -7.5537 -1.2807
# 4 12.3725 -1.0127 20.7271 51.0548 -9.5637 -6.8782
# 5 -7.0262 -11.3183 -7.5537 -9.5637 30.8885 2.0995
# 6 -14.3861 -23.9558 -1.2807 -6.8782 2.0995 32.2732
#
#
#
# Elastic Compliance Matrix: (Units=1/GPa)
#
#
# Indices 1 2 3 4 5 6 
#
# 1 0.016570 0.001251 -0.004991 -0.000469 0.002327 0.007865
# 2 0.001251 0.010475 -0.007293 0.004651 0.003179 0.008828
# 3 -0.004991 -0.007293 0.017715 -0.007495 -0.001222 -0.008454
# 4 -0.000469 0.004651 -0.007495 0.025213 0.007037 0.007861
# 5 0.002327 0.003179 -0.001222 0.007037 0.035777 0.002521
# 6 0.007865 0.008828 -0.008454 0.007861 0.002521 0.042220
#
#
# Mechanical properties :
#
#
# Convention : Reuss Voigt Hill
#
# Bulk Modulus (GPa) = 44.06780 59.08612 51.57696
# Shear Modulus (GPa) = 28.15272 37.86655 33.00964
#
# Velocity S-wave (km/s) = 3.41750 3.96348 3.70057
# Velocity P-wave (km/s) = 5.81843 6.74223 6.29730
#
# Compressibility (1/GPa) = 0.02269231
#
# Stress axis : x y z
#
# Youngs Moduli (GPa) = 60.35087 95.46259 56.44833
#
# Poissons Ratio (x) = -0.11938 0.28174
# Poissons Ratio (y) = -0.07547 0.41170
# Poissons Ratio (z) = 0.30122 0.69625
#
# Static dielectric constant tensor:
#      x y z
#    x 1.998220 0.056940 -0.018600 
#    y 0.056940 2.031010 0.037540 
#    z -0.018600 0.037540 2.026040 
# 
# From -- ./inp_files/441916.got.cif
#   From: 2010.05.17/outbox.cif.g08.bks.cpg/sg2_221_cif.got.tgz:441916.got - 2010.06.03 11:33:40.
