data_PCOD9032629
_publ_section_title
;
Structure prediction by ZEFSAII (Michael W. Deem and Ramdas Pophale) SiO2 
 PCOD9032629
Probable space group: P -1
;
_chemical_formula_sum "Si O2"
_cell_formula_units_Z 16
_cell_length_a 12.398044
_cell_length_b 8.685172
_cell_length_c 13.261786
_cell_angle_alpha 127.170016
_cell_angle_beta 70.094827
_cell_angle_gamma 140.417312
_cell_volume 702.684447
_symmetry_space_group_name_H-M "P -1"
_symmetry_group_IT_number 2
_symmetry_cell_setting 'triclinic'
loop_
_space_group_symop_operation_xyz
x,y,z
-x,-y,-z
loop_
_atom_site_type_symbol
_atom_site_label
_atom_site_fract_x
_atom_site_fract_y
_atom_site_fract_z
Si Si1 0.882117 0.865874 0.586870
Si Si2 0.112989 0.681311 0.936398
Si Si3 0.446730 0.102405 0.638914
Si Si4 0.375404 0.680023 0.863941
Si Si5 0.903598 0.193985 0.451516
Si Si6 0.838635 0.223334 0.706604
Si Si7 0.558203 0.609435 0.907884
Si Si8 0.435721 0.764314 0.648388
O O1 0.691173 0.538009 0.491975
O O2 0.991928 0.870073 0.628976
O O3 0.844367 0.036222 0.698040
O O4 0.000000 0.000000 0.500000
O O5 0.202751 0.584277 0.858177
O O6 0.968501 0.538252 0.840257
O O7 0.000000 0.500000 0.000000
O O8 0.266701 0.036672 0.021608
O O9 0.578621 0.431118 0.771133
O O10 0.500000 0.000000 0.500000
O O11 0.294400 0.035319 0.610777
O O12 0.376392 0.899106 0.680327
O O13 0.403667 0.538100 0.874158
O O14 0.427425 0.693178 0.739134
O O15 0.500000 0.000000 0.000000
O O16 0.912079 0.244855 0.587018
O O17 0.000000 0.500000 0.500000
O O18 0.642383 0.033888 0.671609
O O19 0.500000 0.500000 0.000000
#
# Coordination Sequence:
#
# PCOD9032629 Si02
#       8
#     2   2   2   2   2   2   2   2
#     4  10  23  39  64 101 132 179 238 291 366 436
#     4  11  25  49  71 106 146 192 254 312 372 449
#     4  12  26  45  71 107 154 194 250 310 382 445
#     4  10  22  43  72  97 137 193 246 300 367 449
#     4  11  23  42  66 102 145 192 235 305 382 440
#     4  11  24  41  69 100 141 187 248 307 369 440
#     4  11  27  48  78 110 146 201 256 309 379 449
#     4  12  23  43  68 101 147 193 245 303 376 450
#
# _framework density 22.769821
#
# number of rings (size 3 to 8) (size 9 to 14) (size 15 to 20)
#    0.000    1.000    2.500    4.875    7.000    2.000 
#    0.000    2.500    0.000    0.000    0.000    0.000 
#    0.000    0.000    0.000    0.000    0.000    0.000 
#
# Total GULP energy -89177.490620 kJ/mol
# GULP energy per Si atom -5573.593164 kJ/mol
# Density = 2.271800 g / cm^3
# Si number density = 22.769821 Si / 1000 Ang^3
#
#
#
# Elastic Constant Matrix: (Units=GPa)
#
#
# Indices 1 2 3 4 5 6 
#
# 1 96.4867 24.9320 44.5885 3.3010 15.4782 -13.4700
# 2 24.9320 91.7791 44.2781 12.8574 9.0305 -5.6173
# 3 44.5885 44.2781 112.2649 28.6947 9.0700 -0.8775
# 4 3.3010 12.8574 28.6947 41.7084 0.0567 10.8548
# 5 15.4782 9.0305 9.0700 0.0567 35.8733 4.1158
# 6 -13.4700 -5.6173 -0.8775 10.8548 4.1158 42.9492
#
#
#
# Elastic Compliance Matrix: (Units=1/GPa)
#
#
# Indices 1 2 3 4 5 6 
#
# 1 0.014451 -0.000772 -0.005412 0.001682 -0.005179 0.004392
# 2 -0.000772 0.013881 -0.004553 -0.001631 -0.002249 0.002108
# 3 -0.005412 -0.004553 0.015081 -0.008601 -0.000343 0.000222
# 4 0.001682 -0.001631 -0.008601 0.032425 0.002763 -0.008321
# 5 -0.005179 -0.002249 -0.000343 0.002763 0.031406 -0.005633
# 6 0.004392 0.002108 0.000222 -0.008321 -0.005633 0.027584
#
#
# Mechanical properties :
#
#
# Convention : Reuss Voigt Hill
#
# Bulk Modulus (GPa) = 45.58228 58.68088 52.13158
# Shear Modulus (GPa) = 30.55982 36.55499 33.55741
#
# Velocity S-wave (km/s) = 3.66747 4.01111 3.84313
# Velocity P-wave (km/s) = 6.16409 6.87599 6.52975
#
# Compressibility (1/GPa) = 0.02193835
#
# Stress axis : x y z
#
# Youngs Moduli (GPa) = 69.19902 72.04185 66.31028
#
# Poissons Ratio (x) = 0.05560 0.35889
# Poissons Ratio (y) = 0.05341 0.30191
# Poissons Ratio (z) = 0.37452 0.32801
#
# Static dielectric constant tensor:
#      x y z
#    x 2.034510 0.000710 -0.104660 
#    y 0.000710 1.924220 0.009760 
#    z -0.104660 0.009760 1.987580 
# 
# From -- ./inp_files/516254.got.cif
#   From: 2010.05.17/outbox.cif.g08.bks.cpg/sg2_259_cif.got.tgz:516254.got - 2010.06.03 11:33:40.
