data_PCOD9032770
_publ_section_title
;
Structure prediction by ZEFSAII (Michael W. Deem and Ramdas Pophale) SiO2 
 PCOD9032770
Probable space group: P -1
;
_chemical_formula_sum "Si O2"
_cell_formula_units_Z 16
_cell_length_a 5.152676
_cell_length_b 5.573303
_cell_length_c 27.156800
_cell_angle_alpha 54.614299
_cell_angle_beta 74.750324
_cell_angle_gamma 87.134676
_cell_volume 608.208885
_symmetry_space_group_name_H-M "P -1"
_symmetry_group_IT_number 2
_symmetry_cell_setting 'triclinic'
loop_
_space_group_symop_operation_xyz
x,y,z
-x,-y,-z
loop_
_atom_site_type_symbol
_atom_site_label
_atom_site_fract_x
_atom_site_fract_y
_atom_site_fract_z
Si Si1 0.984318 0.128885 0.718621
Si Si2 0.829531 0.792069 0.073259
Si Si3 0.100904 0.669770 0.399679
Si Si4 0.989426 0.495502 0.811203
Si Si5 0.687718 0.240215 0.516898
Si Si6 0.553471 0.364181 0.363669
Si Si7 0.691760 0.377984 0.045123
Si Si8 0.555876 0.414795 0.755991
O O1 0.152219 0.452827 0.679531
O O2 0.996887 0.108043 0.661264
O O3 0.690081 0.154906 0.752845
O O4 0.089767 0.845774 0.770254
O O5 0.033938 0.660009 0.116249
O O6 0.661549 0.523297 0.083034
O O7 0.662995 0.022370 0.083051
O O8 0.000000 0.000000 0.000000
O O9 0.133136 0.775597 0.440945
O O10 0.382018 0.587051 0.374741
O O11 0.899059 0.359074 0.449979
O O12 0.240077 0.353315 0.791905
O O13 0.736300 0.481425 0.788199
O O14 0.500000 0.500000 0.500000
O O15 0.494925 0.931911 0.566581
O O16 0.436927 0.333864 0.317266
O O17 0.500000 0.500000 0.000000
O O18 0.000000 0.500000 0.000000
#
# Coordination Sequence:
#
# PCOD9032770 Si02
#       8
#     2   2   2   2   2   2   2   2
#     4  11  26  47  73 102 146 194 251 310 380 447
#     4  10  25  49  78 117 156 206 253 325 389 468
#     4  10  24  41  66  97 140 186 240 301 376 446
#     4  12  28  47  77 108 152 192 256 305 386 451
#     4  11  24  40  65 100 138 184 241 301 379 444
#     4  11  24  44  70  99 142 186 247 303 375 441
#     4  10  22  43  74 108 154 197 249 297 380 453
#     4  11  27  47  73 107 145 196 248 309 370 453
#
# _framework density 26.306754999999999
#
# number of rings (size 3 to 8) (size 9 to 14) (size 15 to 20)
#    0.000    1.250    1.250    2.250    8.750   10.000 
#    2.250    0.000    0.000    0.000    0.000    0.000 
#    0.000    0.000    0.000    0.000    0.000    0.000 
#
# Total GULP energy -89516.357206 kJ/mol
# GULP energy per Si atom -5594.772325 kJ/mol
# Density = 2.624688 g / cm^3
# Si number density = 26.306755 Si / 1000 Ang^3
#
#
#
# Elastic Constant Matrix: (Units=GPa)
#
#
# Indices 1 2 3 4 5 6 
#
# 1 108.1196 18.3230 14.7948 3.0089 8.8558 9.5656
# 2 18.3230 119.4857 19.3803 -5.5599 14.0345 11.3753
# 3 14.7948 19.3803 152.9287 -10.3837 22.0648 -2.4386
# 4 3.0089 -5.5599 -10.3837 30.8288 -4.7852 7.4225
# 5 8.8558 14.0345 22.0648 -4.7852 42.6838 5.6266
# 6 9.5656 11.3753 -2.4386 7.4225 5.6266 43.2263
#
#
#
# Elastic Compliance Matrix: (Units=1/GPa)
#
#
# Indices 1 2 3 4 5 6 
#
# 1 0.009815 -0.001154 -0.000737 -0.001231 -0.001211 -0.001541
# 2 -0.001154 0.009182 -0.000689 0.001780 -0.001927 -0.002255
# 3 -0.000737 -0.000689 0.007306 0.001675 -0.003328 0.000902
# 4 -0.001231 0.001780 0.001675 0.035627 0.003681 -0.006698
# 5 -0.001211 -0.001927 -0.003328 0.003681 0.026914 -0.003548
# 6 -0.001541 -0.002255 0.000902 -0.006698 -0.003548 0.025731
#
#
# Mechanical properties :
#
#
# Convention : Reuss Voigt Hill
#
# Bulk Modulus (GPa) = 47.29651 53.94778 50.62215
# Shear Modulus (GPa) = 39.43782 45.21683 42.32733
#
# Velocity S-wave (km/s) = 3.87609 4.15037 4.01557
# Velocity P-wave (km/s) = 6.16847 6.59691 6.38628
#
# Compressibility (1/GPa) = 0.02114321
#
# Stress axis : x y z
#
# Youngs Moduli (GPa) = 101.88297 108.91223 136.87533
#
# Poissons Ratio (x) = 0.12569 0.10084
# Poissons Ratio (y) = 0.11757 0.09431
# Poissons Ratio (z) = 0.07506 0.07505
#
# Static dielectric constant tensor:
#      x y z
#    x 2.149320 0.073990 -0.053540 
#    y 0.073990 2.178240 0.032690 
#    z -0.053540 0.032690 2.069880 
# 
# From -- ./inp_files/614805.got.cif
#   From: 2010.05.17/outbox.cif.g08.bks.cpg/sg2_308_cif.got.tgz:614805.got - 2010.06.03 11:33:40.
