data_PCOD9032438
_publ_section_title
;
Structure prediction by ZEFSAII (Michael W. Deem and Ramdas Pophale) SiO2 
 PCOD9032438
Probable space group: P -1
;
_chemical_formula_sum "Si O2"
_cell_formula_units_Z 14
_cell_length_a 5.709381
_cell_length_b 13.611544
_cell_length_c 7.777973
_cell_angle_alpha 68.122626
_cell_angle_beta 86.076681
_cell_angle_gamma 74.908919
_cell_volume 541.302518
_symmetry_space_group_name_H-M "P -1"
_symmetry_group_IT_number 2
_symmetry_cell_setting 'triclinic'
loop_
_space_group_symop_operation_xyz
x,y,z
-x,-y,-z
loop_
_atom_site_type_symbol
_atom_site_label
_atom_site_fract_x
_atom_site_fract_y
_atom_site_fract_z
Si Si1 0.450377 0.702342 0.195334
Si Si2 0.286519 0.164524 0.091706
Si Si3 0.761397 0.492151 0.397311
Si Si4 0.017942 0.174304 0.752698
Si Si5 0.780702 0.043870 0.608439
Si Si6 0.053200 0.380500 0.162520
Si Si7 0.613700 0.752726 0.531310
O O1 0.654975 0.595053 0.207714
O O2 0.545034 0.719370 0.369577
O O3 0.169418 0.714178 0.240212
O O4 0.479094 0.792980 0.998690
O O5 0.093067 0.269364 0.119722
O O6 0.331920 0.055811 0.271587
O O7 0.188588 0.136521 0.930283
O O8 0.500000 0.500000 0.500000
O O9 0.000000 0.500000 0.500000
O O10 0.856930 0.395042 0.319237
O O11 0.163393 0.196545 0.564760
O O12 0.870428 0.090232 0.749634
O O13 0.601269 0.148420 0.463257
O O14 0.000000 0.000000 0.500000
O O15 0.305780 0.347806 0.279061
O O16 0.000000 0.500000 0.000000
#
# Coordination Sequence:
#
# PCOD9032438 Si02
#       7
#     2   2   2   2   2   2   2
#     4  10  22  43  71 104 142 193 246 305 382 459
#     4  11  25  44  69 107 150 183 253 310 387 454
#     4  12  26  49  80 108 154 213 263 317 390 471
#     4  10  23  44  73 104 141 193 241 314 387 463
#     4  11  25  45  72 104 142 194 251 313 387 460
#     4  12  25  46  72 111 150 194 256 321 386 460
#     4  10  23  45  73  99 145 187 250 300 385 459
#
# _framework density 25.863541000000001
#
# number of rings (size 3 to 8) (size 9 to 14) (size 15 to 20)
#    0.000    1.143    2.857    2.143    2.000   10.857 
#    2.571    1.429    0.000    0.000    0.000    0.000 
#    0.000    0.000    0.000    0.000    0.000    0.000 
#
# Total GULP energy -78120.836224 kJ/mol
# GULP energy per Si atom -5580.059730 kJ/mol
# Density = 2.580467 g / cm^3
# Si number density = 25.863541 Si / 1000 Ang^3
#
#
#
# Elastic Constant Matrix: (Units=GPa)
#
#
# Indices 1 2 3 4 5 6 
#
# 1 72.2940 18.8181 11.1482 5.8092 -18.3511 -23.0865
# 2 18.8181 127.9898 29.1162 6.7156 -11.4404 -30.9026
# 3 11.1482 29.1162 96.4268 -5.7378 -3.6591 -12.3608
# 4 5.8092 6.7156 -5.7378 54.5935 -1.0666 6.4840
# 5 -18.3511 -11.4404 -3.6591 -1.0666 28.4986 6.2752
# 6 -23.0865 -30.9026 -12.3608 6.4840 6.2752 56.0164
#
#
#
# Elastic Compliance Matrix: (Units=1/GPa)
#
#
# Indices 1 2 3 4 5 6 
#
# 1 0.019056 0.000206 -0.001151 -0.002780 0.010593 0.006849
# 2 0.000206 0.009858 -0.002389 -0.002021 0.002621 0.004937
# 3 -0.001151 -0.002389 0.011378 0.001538 -0.000308 0.000575
# 4 -0.002780 -0.002021 0.001538 0.019494 -0.000774 -0.004091
# 5 0.010593 0.002621 -0.000308 -0.000774 0.042662 0.001054
# 6 0.006849 0.004937 0.000575 -0.004091 0.001054 0.023880
#
#
# Mechanical properties :
#
#
# Convention : Reuss Voigt Hill
#
# Bulk Modulus (GPa) = 29.73857 46.09728 37.91793
# Shear Modulus (GPa) = 34.67300 43.66358 39.16829
#
# Velocity S-wave (km/s) = 3.66541 4.11326 3.89578
# Velocity P-wave (km/s) = 5.42558 6.35772 5.91005
#
# Compressibility (1/GPa) = 0.03362637
#
# Stress axis : x y z
#
# Youngs Moduli (GPa) = 52.47783 101.43573 87.88573
#
# Poissons Ratio (x) = -0.02094 0.10115
# Poissons Ratio (y) = -0.01083 0.20992
# Poissons Ratio (z) = 0.06040 0.24229
#
# Static dielectric constant tensor:
#      x y z
#    x 2.137560 0.023880 -0.012060 
#    y 0.023880 2.187040 -0.086280 
#    z -0.012060 -0.086280 2.122540 
# 
# From -- ./inp_files/134048.got.cif
#   From: 2010.05.17/outbox.cif.g08.bks.cpg/sg2_68_cif.got.tgz:134048.got - 2010.06.03 11:33:40.
