data_PCOD9032861
_publ_section_title
;
Structure prediction by ZEFSAII (Michael W. Deem and Ramdas Pophale) SiO2 
 PCOD9032861
Probable space group: P -1
;
_chemical_formula_sum "Si O2"
_cell_formula_units_Z 16
_cell_length_a 9.418936
_cell_length_b 17.273696
_cell_length_c 6.764400
_cell_angle_alpha 90.000133
_cell_angle_beta 135.903781
_cell_angle_gamma 74.929199
_cell_volume 710.375620
_symmetry_space_group_name_H-M "P -1"
_symmetry_group_IT_number 2
_symmetry_cell_setting 'triclinic'
loop_
_space_group_symop_operation_xyz
x,y,z
-x,-y,-z
loop_
_atom_site_type_symbol
_atom_site_label
_atom_site_fract_x
_atom_site_fract_y
_atom_site_fract_z
Si Si1 0.154646 0.637991 0.756619
Si Si2 0.154647 0.137991 0.052674
Si Si3 0.801855 0.435866 0.598661
Si Si4 0.824474 0.192996 0.382268
Si Si5 0.824473 0.692996 0.766677
Si Si6 0.801855 0.935866 0.505051
Si Si7 0.483301 0.891685 0.922861
Si Si8 0.483301 0.391685 0.543741
O O1 0.180504 0.568335 0.619012
O O2 0.162310 0.718379 0.649665
O O3 0.932800 0.663329 0.661337
O O4 0.347953 0.614332 0.110884
O O5 0.162311 0.218379 0.174958
O O6 0.180504 0.068335 0.241995
O O7 0.347954 0.114332 0.085023
O O8 0.932801 0.163329 0.704262
O O9 0.603207 0.407261 0.469982
O O10 0.732748 0.527372 0.622663
O O11 0.021619 0.370820 0.916364
O O12 0.587002 0.187072 0.134258
O O13 0.978382 0.129180 0.373125
O O14 0.587001 0.687072 0.539744
O O15 0.732748 0.027372 0.342834
O O16 0.603206 0.907262 0.236431
#
# Coordination Sequence:
#
# PCOD9032861 Si02
#       8
#     2   2   2   2   2   2   2   2
#     4  11  23  38  60  89 123 154 200 245 289 353
#     4  11  23  38  60  89 123 154 200 245 289 353
#     4  10  22  44  60  89 123 150 201 249 290 356
#     4  11  23  39  61  90 121 159 196 245 296 347
#     4  11  23  39  61  90 121 159 196 245 296 347
#     4  10  22  44  60  89 123 150 201 249 290 356
#     4  10  24  39  65  88 117 160 197 243 299 349
#     4  10  24  39  65  88 117 160 197 243 299 349
#
# _framework density 22.523295000000001
#
# number of rings (size 3 to 8) (size 9 to 14) (size 15 to 20)
#    0.000    1.500    2.500    1.500    3.500    3.000 
#    0.000    0.000    0.000    0.000    0.000    0.000 
#    0.000    0.000    0.000    0.000    0.000    0.000 
#
# Total GULP energy -89515.757689 kJ/mol
# GULP energy per Si atom -5594.734856 kJ/mol
# Density = 2.247203 g / cm^3
# Si number density = 22.523295 Si / 1000 Ang^3
#
#
#
# Elastic Constant Matrix: (Units=GPa)
#
#
# Indices 1 2 3 4 5 6 
#
# 1 39.5016 6.5502 20.1524 18.5990 -7.8330 1.5015
# 2 6.5502 22.4444 -2.8327 6.3301 8.9212 0.9167
# 3 20.1524 -2.8327 47.2550 -5.2282 -15.4639 10.3961
# 4 18.5990 6.3301 -5.2282 34.2376 2.3900 4.1289
# 5 -7.8330 8.9212 -15.4639 2.3900 22.1874 7.1708
# 6 1.5015 0.9167 10.3961 4.1289 7.1708 39.1826
#
#
#
# Elastic Compliance Matrix: (Units=1/GPa)
#
#
# Indices 1 2 3 4 5 6 
#
# 1 0.062577 -0.014968 -0.031204 -0.037582 0.007564 0.008808
# 2 -0.014968 0.062482 -0.002630 -0.002204 -0.034029 0.006269
# 3 -0.031204 -0.002630 0.051400 0.025687 0.029733 -0.020528
# 4 -0.037582 -0.002204 0.025687 0.055134 0.003380 -0.011752
# 5 0.007564 -0.034029 0.029733 0.003380 0.089582 -0.024133
# 6 0.008808 0.006269 -0.020528 -0.011752 -0.024133 0.036139
#
#
# Mechanical properties :
#
#
# Convention : Reuss Voigt Hill
#
# Bulk Modulus (GPa) = 12.68169 17.43788 15.05979
# Shear Modulus (GPa) = 10.39063 24.81026 17.60045
#
# Velocity S-wave (km/s) = 2.15019 3.32254 2.79845
# Velocity P-wave (km/s) = 3.43615 4.74110 4.14036
#
# Compressibility (1/GPa) = 0.07885383
#
# Stress axis : x y z
#
# Youngs Moduli (GPa) = 15.98035 16.00463 19.45541
#
# Poissons Ratio (x) = 0.23955 0.60709
# Poissons Ratio (y) = 0.23919 0.05117
# Poissons Ratio (z) = 0.49866 0.04210
#
# Static dielectric constant tensor:
#      x y z
#    x 1.807910 -0.020440 -0.001620 
#    y -0.020440 1.835150 -0.021360 
#    z -0.001620 -0.021360 1.815280 
# 
# From -- ./inp_files/13328.got.cif
#   From: 2010.05.17/outbox.cif.g08.bks.cpg/sg2_7_cif.got.tgz:13328.got - 2010.06.03 11:33:40.
