data_PCOD9032549
_publ_section_title
;
Structure prediction by ZEFSAII (Michael W. Deem and Ramdas Pophale) SiO2 
 PCOD9032549
Probable space group: P -1
;
_chemical_formula_sum "Si O2"
_cell_formula_units_Z 12
_cell_length_a 7.885912
_cell_length_b 7.880512
_cell_length_c 9.486695
_cell_angle_alpha 105.775470
_cell_angle_beta 65.457019
_cell_angle_gamma 120.289180
_cell_volume 461.615058
_symmetry_space_group_name_H-M "P -1"
_symmetry_group_IT_number 2
_symmetry_cell_setting 'triclinic'
loop_
_space_group_symop_operation_xyz
x,y,z
-x,-y,-z
loop_
_atom_site_type_symbol
_atom_site_label
_atom_site_fract_x
_atom_site_fract_y
_atom_site_fract_z
Si Si1 0.702798 0.827925 0.615030
Si Si2 0.728593 0.212323 0.725320
Si Si3 0.302293 0.061702 0.670771
Si Si4 0.074523 0.342092 0.310669
Si Si5 0.689066 0.285732 0.074935
Si Si6 0.100716 0.266642 0.976924
O O1 0.669587 0.820580 0.458433
O O2 0.802585 0.694841 0.612572
O O3 0.497597 0.778239 0.766993
O O4 0.832746 0.062853 0.657601
O O5 0.526960 0.122874 0.674286
O O6 0.883542 0.433283 0.672983
O O7 0.644423 0.222656 0.912996
O O8 0.170119 0.125770 0.837997
O O9 0.161740 0.828354 0.639602
O O10 0.169425 0.299961 0.123338
O O11 0.796873 0.522445 0.088095
O O12 0.856707 0.210298 0.045589
#
# Coordination Sequence:
#
# PCOD9032549 Si02
#       6
#     2   2   2   2   2   2
#     4  12  25  44  70 103 140 178 224 284 347 401
#     4  11  25  45  70 100 137 182 230 278 334 406
#     4  12  25  44  70 103 140 178 224 284 347 401
#     4  11  25  45  70 100 137 182 230 278 334 406
#     4  10  22  43  72 102 135 182 233 279 335 406
#     4  10  22  43  72 102 135 182 233 279 335 406
#
# _framework density 25.995687
#
# number of rings (size 3 to 8) (size 9 to 14) (size 15 to 20)
#    0.000    1.000    0.000    6.000    0.000    6.000 
#    0.000    5.000    0.000    0.000    0.000    0.000 
#    0.000    0.000    0.000    0.000    0.000    0.000 
#
# Total GULP energy -67344.114336 kJ/mol
# GULP energy per Si atom -5612.009528 kJ/mol
# Density = 2.593652 g / cm^3
# Si number density = 25.995687 Si / 1000 Ang^3
#
#
#
# Elastic Constant Matrix: (Units=GPa)
#
#
# Indices 1 2 3 4 5 6 
#
# 1 82.6417 21.8699 46.3254 -10.3645 17.0613 -6.8445
# 2 21.8699 106.5426 28.9817 -9.1340 2.5030 -21.5631
# 3 46.3254 28.9817 128.2834 -28.6479 8.2929 -5.2175
# 4 -10.3645 -9.1340 -28.6479 45.1372 -7.2540 0.2012
# 5 17.0613 2.5030 8.2929 -7.2540 52.2167 -0.2363
# 6 -6.8445 -21.5631 -5.2175 0.2012 -0.2363 39.0041
#
#
#
# Elastic Compliance Matrix: (Units=1/GPa)
#
#
# Indices 1 2 3 4 5 6 
#
# 1 0.016517 -0.001618 -0.005412 -0.000707 -0.004552 0.001256
# 2 -0.001618 0.011392 -0.001560 0.000981 0.000393 0.005803
# 3 -0.005412 -0.001560 0.011321 0.005764 0.000844 -0.000322
# 4 -0.000707 0.000981 0.005764 0.026316 0.002929 0.001072
# 5 -0.004552 0.000393 0.000844 0.002929 0.020891 -0.000357
# 6 0.001256 0.005803 -0.000322 0.001072 -0.000357 0.029016
#
#
# Mechanical properties :
#
#
# Convention : Reuss Voigt Hill
#
# Bulk Modulus (GPa) = 45.34697 56.86905 51.10801
# Shear Modulus (GPa) = 35.71907 41.95764 38.83836
#
# Velocity S-wave (km/s) = 3.71082 4.02185 3.86946
# Velocity P-wave (km/s) = 5.98683 6.59476 6.29814
#
# Compressibility (1/GPa) = 0.02205219
#
# Stress axis : x y z
#
# Youngs Moduli (GPa) = 60.54249 87.78467 88.32798
#
# Poissons Ratio (x) = 0.14202 0.47800
# Poissons Ratio (y) = 0.09795 0.13776
# Poissons Ratio (z) = 0.32763 0.13691
#
# Static dielectric constant tensor:
#      x y z
#    x 1.995670 0.022830 0.002630 
#    y 0.022830 2.052660 -0.001060 
#    z 0.002630 -0.001060 2.075230 
# 
# From -- ./inp_files/147582.got.cif
#   From: 2010.05.17/outbox.cif.g08.bks.cpg/sg2_74_cif.got.tgz:147582.got - 2010.06.03 11:33:40.
