data_PCOD9032795
_publ_section_title
;
Structure prediction by ZEFSAII (Michael W. Deem and Ramdas Pophale) SiO2 
 PCOD9032795
Probable space group: P -1
;
_chemical_formula_sum "Si O2"
_cell_formula_units_Z 14
_cell_length_a 22.123252
_cell_length_b 8.246189
_cell_length_c 11.439649
_cell_angle_alpha 40.856282
_cell_angle_beta 30.476114
_cell_angle_gamma 33.691265
_cell_volume 581.401633
_symmetry_space_group_name_H-M "P -1"
_symmetry_group_IT_number 2
_symmetry_cell_setting 'triclinic'
loop_
_space_group_symop_operation_xyz
x,y,z
-x,-y,-z
loop_
_atom_site_type_symbol
_atom_site_label
_atom_site_fract_x
_atom_site_fract_y
_atom_site_fract_z
Si Si1 0.404673 0.675229 0.952919
Si Si2 0.657712 0.718419 0.885737
Si Si3 0.851171 0.751381 0.003502
Si Si4 0.931888 0.892191 0.025188
Si Si5 0.688206 0.481935 0.469399
Si Si6 0.660821 0.416027 0.279310
Si Si7 0.110443 0.165718 0.542208
O O1 0.524629 0.661838 0.678278
O O2 0.266729 0.001153 0.019359
O O3 0.500000 0.500000 0.000000
O O4 0.346769 0.500990 0.077493
O O5 0.770540 0.795707 0.618723
O O6 0.684332 0.591108 0.042572
O O7 0.500000 0.000000 0.000000
O O8 0.913634 0.877245 0.922989
O O9 0.766591 0.645956 0.281902
O O10 0.974830 0.448301 0.905144
O O11 0.776875 0.080957 0.234075
O O12 0.013640 0.059570 0.818929
O O13 0.692218 0.467184 0.329798
O O14 0.781160 0.141025 0.544507
O O15 0.500000 0.500000 0.500000
O O16 0.000000 0.500000 0.500000
#
# Coordination Sequence:
#
# PCOD9032795 Si02
#       7
#     2   2   2   2   2   2   2
#     4  12  25  46  70 103 147 190 239 295 362 433
#     4  12  24  45  73 107 143 183 240 298 358 425
#     4  10  22  44  69 101 147 184 239 291 362 434
#     4  10  22  43  75 103 143 190 235 303 356 430
#     4  11  25  42  67 105 139 188 239 290 359 426
#     4  12  22  43  73 104 144 181 243 297 355 422
#     4  11  21  43  72 102 146 178 236 299 356 420
#
# _framework density 24.079742
#
# number of rings (size 3 to 8) (size 9 to 14) (size 15 to 20)
#    0.000    0.857    5.714    0.429    2.000    2.286 
#    5.143    0.000    3.143    4.286    0.000    0.000 
#    0.000    0.000    0.000    0.000    0.000    0.000 
#
# Total GULP energy -78224.690386 kJ/mol
# GULP energy per Si atom -5587.477885 kJ/mol
# Density = 2.402493 g / cm^3
# Si number density = 24.079742 Si / 1000 Ang^3
#
#
#
# Elastic Constant Matrix: (Units=GPa)
#
#
# Indices 1 2 3 4 5 6 
#
# 1 97.3204 51.4840 54.0378 -0.1738 -2.9183 -14.7147
# 2 51.4840 198.5906 53.9108 18.8186 1.1712 -42.6058
# 3 54.0378 53.9108 103.3154 7.4076 -23.3235 1.1890
# 4 -0.1738 18.8186 7.4076 44.4968 -9.1859 -10.0496
# 5 -2.9183 1.1712 -23.3235 -9.1859 52.5708 -3.5744
# 6 -14.7147 -42.6058 1.1890 -10.0496 -3.5744 39.7462
#
#
#
# Elastic Compliance Matrix: (Units=1/GPa)
#
#
# Indices 1 2 3 4 5 6 
#
# 1 0.016552 -0.000806 -0.008994 0.002827 -0.002148 0.006055
# 2 -0.000806 0.008330 -0.004338 -0.001314 -0.001822 0.008265
# 3 -0.008994 -0.004338 0.018425 -0.001728 0.006902 -0.008347
# 4 0.002827 -0.001314 -0.001728 0.025715 0.004360 0.006584
# 5 -0.002148 -0.001822 0.006902 0.004360 0.022781 0.000196
# 6 0.006055 0.008265 -0.008347 0.006584 0.000196 0.038193
#
#
# Mechanical properties :
#
#
# Convention : Reuss Voigt Hill
#
# Bulk Modulus (GPa) = 66.52428 79.78794 73.15611
# Shear Modulus (GPa) = 30.62200 43.34901 36.98550
#
# Velocity S-wave (km/s) = 3.56995 4.24751 3.92338
# Velocity P-wave (km/s) = 6.68426 7.56716 7.13937
#
# Compressibility (1/GPa) = 0.01503210
#
# Stress axis : x y z
#
# Youngs Moduli (GPa) = 60.41730 120.04269 54.27420
#
# Poissons Ratio (x) = 0.09670 0.48814
# Poissons Ratio (y) = 0.04867 0.23543
# Poissons Ratio (z) = 0.54339 0.52073
#
# Static dielectric constant tensor:
#      x y z
#    x 2.121010 -0.043410 0.122120 
#    y -0.043410 2.001340 -0.026500 
#    z 0.122120 -0.026500 1.979870 
# 
# From -- ./inp_files/474385.got.cif
#   From: 2010.05.17/outbox.cif.g08.bks.cpg/sg2_238_cif.got.tgz:474385.got - 2010.06.03 11:33:40.
