data_PCOD9032261
_publ_section_title
;
Structure prediction by ZEFSAII (Michael W. Deem and Ramdas Pophale) SiO2 
 PCOD9032261
Probable space group: P -1
;
_chemical_formula_sum "Si O2"
_cell_formula_units_Z 16
_cell_length_a 11.252639
_cell_length_b 19.188718
_cell_length_c 14.720320
_cell_angle_alpha 30.949988
_cell_angle_beta 151.508857
_cell_angle_gamma 148.088456
_cell_volume 718.777363
_symmetry_space_group_name_H-M "P -1"
_symmetry_group_IT_number 2
_symmetry_cell_setting 'triclinic'
loop_
_space_group_symop_operation_xyz
x,y,z
-x,-y,-z
loop_
_atom_site_type_symbol
_atom_site_label
_atom_site_fract_x
_atom_site_fract_y
_atom_site_fract_z
Si Si1 0.154651 0.475500 0.395066
Si Si2 0.395286 0.285697 0.660885
Si Si3 0.368089 0.902496 0.240203
Si Si4 0.062553 0.362659 0.660370
Si Si5 0.193465 0.960102 0.871408
Si Si6 0.193183 0.230080 0.332271
Si Si7 0.362035 0.555647 0.019110
Si Si8 0.298850 0.762425 0.902148
O O1 0.236047 0.384414 0.474773
O O2 0.397074 0.635796 0.368885
O O3 0.137369 0.395806 0.567918
O O4 0.864318 0.475460 0.175131
O O5 0.185400 0.120435 0.691054
O O6 0.586551 0.280713 0.879634
O O7 0.609686 0.854175 0.424602
O O8 0.192511 0.786638 0.325840
O O9 0.499918 0.071420 0.171686
O O10 0.181026 0.895824 0.035248
O O11 0.000000 0.500000 0.500000
O O12 0.325814 0.358150 0.892634
O O13 0.990664 0.853854 0.782735
O O14 0.500000 0.000000 0.000000
O O15 0.988466 0.232599 0.270847
O O16 0.347612 0.398958 0.220206
O O17 0.291048 0.646289 0.950311
#
# Coordination Sequence:
#
# PCOD9032261 Si02
#       8
#     2   2   2   2   2   2   2   2
#     4  11  25  44  70 103 139 185 229 288 346 406
#     4  10  22  43  70 105 142 175 230 294 350 401
#     4  11  27  46  69  99 142 186 228 285 343 415
#     4  12  28  47  69  98 144 193 233 272 343 424
#     4  11  23  41  68 103 138 177 229 286 348 403
#     4  12  24  42  72 107 139 177 231 289 352 408
#     4  12  26  44  71 104 139 182 233 285 341 418
#     4  11  23  45  70 108 134 177 232 293 351 400
#
# _framework density 22.260024000000001
#
# number of rings (size 3 to 8) (size 9 to 14) (size 15 to 20)
#    0.000    0.750    6.250    0.750    5.250    2.000 
#    0.000    0.625    0.000    0.000    0.000    0.000 
#    0.000    0.000    0.000    0.000    0.000    0.000 
#
# Total GULP energy -89594.477205 kJ/mol
# GULP energy per Si atom -5599.654825 kJ/mol
# Density = 2.220936 g / cm^3
# Si number density = 22.260024 Si / 1000 Ang^3
#
#
#
# Elastic Constant Matrix: (Units=GPa)
#
#
# Indices 1 2 3 4 5 6 
#
# 1 51.1137 26.6953 5.0735 -0.0143 -1.8861 5.5672
# 2 26.6953 93.2972 18.6745 -17.6130 -1.9447 -3.8319
# 3 5.0735 18.6745 96.5076 1.7462 2.4968 4.1018
# 4 -0.0143 -17.6130 1.7462 39.3662 6.1210 2.6395
# 5 -1.8861 -1.9447 2.4968 6.1210 33.2432 -7.0067
# 6 5.5672 -3.8319 4.1018 2.6395 -7.0067 44.1373
#
#
#
# Elastic Compliance Matrix: (Units=1/GPa)
#
#
# Indices 1 2 3 4 5 6 
#
# 1 0.023935 -0.007686 0.000414 -0.003341 0.000775 -0.003402
# 2 -0.007686 0.014781 -0.002660 0.006612 -0.000151 0.002081
# 3 0.000414 -0.002660 0.010965 -0.001432 -0.000981 -0.001372
# 4 -0.003341 0.006612 -0.001432 0.029365 -0.005416 -0.001487
# 5 0.000775 -0.000151 -0.000981 -0.005416 0.032333 0.005437
# 6 -0.003402 0.002081 -0.001372 -0.001487 0.005437 0.024346
#
#
# Mechanical properties :
#
#
# Convention : Reuss Voigt Hill
#
# Bulk Modulus (GPa) = 33.53869 37.97836 35.75852
# Shear Modulus (GPa) = 30.20642 36.04770 33.12706
#
# Velocity S-wave (km/s) = 3.68772 4.02853 3.86189
# Velocity P-wave (km/s) = 5.76471 6.22391 5.99870
#
# Compressibility (1/GPa) = 0.02981631
#
# Stress axis : x y z
#
# Youngs Moduli (GPa) = 41.77911 67.65602 91.20342
#
# Poissons Ratio (x) = 0.51999 -0.03775
# Poissons Ratio (y) = 0.32111 0.24262
# Poissons Ratio (z) = -0.01729 0.17998
#
# Static dielectric constant tensor:
#      x y z
#    x 1.810000 -0.016470 -0.004760 
#    y -0.016470 1.842240 -0.001380 
#    z -0.004760 -0.001380 1.839760 
# 
# From -- ./inp_files/524067.got.cif
#   From: 2010.05.17/outbox.cif.g08.bks.cpg/sg2_263_cif.got.tgz:524067.got - 2010.06.03 11:33:40.
