data_PCOD9032333
_publ_section_title
;
Structure prediction by ZEFSAII (Michael W. Deem and Ramdas Pophale) SiO2 
 PCOD9032333
Probable space group: P -1
;
_chemical_formula_sum "Si O2"
_cell_formula_units_Z 16
_cell_length_a 23.138979
_cell_length_b 5.708220
_cell_length_c 8.322430
_cell_angle_alpha 102.730225
_cell_angle_beta 141.183744
_cell_angle_gamma 80.713604
_cell_volume 672.001573
_symmetry_space_group_name_H-M "P -1"
_symmetry_group_IT_number 2
_symmetry_cell_setting 'triclinic'
loop_
_space_group_symop_operation_xyz
x,y,z
-x,-y,-z
loop_
_atom_site_type_symbol
_atom_site_label
_atom_site_fract_x
_atom_site_fract_y
_atom_site_fract_z
Si Si1 0.171535 0.282261 0.122977
Si Si2 0.055827 0.254796 0.148049
Si Si3 0.312783 0.668146 0.363087
Si Si4 0.030538 0.582720 0.406685
Si Si5 0.398995 0.108431 0.788422
Si Si6 0.454071 0.312382 0.605011
Si Si7 0.209869 0.875837 0.887787
Si Si8 0.624334 0.976886 0.920400
O O1 0.065263 0.324956 0.855077
O O2 0.203658 0.090081 0.034967
O O3 0.151549 0.219451 0.255617
O O4 0.240348 0.505175 0.281645
O O5 0.071540 0.349973 0.374787
O O6 0.000000 0.500000 0.000000
O O7 0.000000 0.000000 0.000000
O O8 0.329137 0.907032 0.537637
O O9 0.416734 0.578238 0.533224
O O10 0.264051 0.686487 0.087002
O O11 0.109375 0.784000 0.609755
O O12 0.000000 0.500000 0.500000
O O13 0.378286 0.167980 0.938516
O O14 0.410293 0.282855 0.685662
O O15 0.500000 0.000000 0.000000
O O16 0.556278 0.206846 0.822569
O O17 0.408906 0.162543 0.335369
O O18 0.272392 0.939885 0.882100
#
# Coordination Sequence:
#
# PCOD9032333 Si02
#       8
#     2   2   2   2   2   2   2   2
#     4  11  24  44  68  99 144 185 235 303 367 438
#     4  10  24  45  71 101 139 193 241 301 375 437
#     4  12  23  43  69  97 143 185 237 297 373 428
#     4  11  23  44  71 101 136 184 241 294 363 436
#     4  10  23  44  68  98 137 185 235 298 364 440
#     4  10  22  47  64  98 138 183 231 298 358 432
#     4  12  24  44  67 104 139 186 243 297 366 436
#     4  10  22  43  70  97 138 181 237 292 362 433
#
# _framework density 23.809467999999999
#
# number of rings (size 3 to 8) (size 9 to 14) (size 15 to 20)
#    0.000    1.250    3.750    1.125    3.500    3.500 
#    2.250    3.750    0.000    0.000    0.000    0.000 
#    0.000    0.000    0.000    0.000    0.000    0.000 
#
# Total GULP energy -89188.011709 kJ/mol
# GULP energy per Si atom -5574.250732 kJ/mol
# Density = 2.375528 g / cm^3
# Si number density = 23.809468 Si / 1000 Ang^3
#
#
#
# Elastic Constant Matrix: (Units=GPa)
#
#
# Indices 1 2 3 4 5 6 
#
# 1 173.9030 11.9046 18.1853 -0.3440 -3.7683 -3.2109
# 2 11.9046 34.8659 -3.0305 1.0877 14.6127 -9.8847
# 3 18.1853 -3.0305 84.0023 -2.5501 14.4970 -3.8008
# 4 -0.3440 1.0877 -2.5501 28.8469 8.1474 10.0878
# 5 -3.7683 14.6127 14.4970 8.1474 35.3915 -0.9358
# 6 -3.2109 -9.8847 -3.8008 10.0878 -0.9358 22.3541
#
#
#
# Elastic Compliance Matrix: (Units=1/GPa)
#
#
# Indices 1 2 3 4 5 6 
#
# 1 0.006295 -0.003904 -0.002122 -0.000623 0.003274 -0.000765
# 2 -0.003904 0.045389 0.006952 -0.002594 -0.020852 0.020990
# 3 -0.002122 0.006952 0.014492 0.002348 -0.009473 0.003777
# 4 -0.000623 -0.002594 0.002348 0.045769 -0.011074 -0.021955
# 5 0.003274 -0.020852 -0.009473 -0.011074 0.043549 -0.003540
# 6 -0.000765 0.020990 0.003777 -0.021955 -0.003540 0.064308
#
#
# Mechanical properties :
#
#
# Convention : Reuss Voigt Hill
#
# Bulk Modulus (GPa) = 14.69970 38.54333 26.62152
# Shear Modulus (GPa) = 20.77910 35.03262 27.90586
#
# Velocity S-wave (km/s) = 2.95740 3.84001 3.42723
# Velocity P-wave (km/s) = 4.22479 5.99035 5.18330
#
# Compressibility (1/GPa) = 0.06802858
#
# Stress axis : x y z
#
# Youngs Moduli (GPa) = 158.85426 22.03166 69.00492
#
# Poissons Ratio (x) = 0.08600 0.14644
# Poissons Ratio (y) = 0.62009 -0.47972
# Poissons Ratio (z) = 0.33712 -0.15316
#
# Static dielectric constant tensor:
#      x y z
#    x 1.975550 0.055690 -0.116390 
#    y 0.055690 2.036580 -0.093310 
#    z -0.116390 -0.093310 1.889920 
# 
# From -- ./inp_files/350787.got.cif
#   From: 2010.05.17/outbox.cif.g08.bks.cpg/sg2_176_cif.got.tgz:350787.got - 2010.06.03 11:33:40.
