data_PCOD9032610
_publ_section_title
;
Structure prediction by ZEFSAII (Michael W. Deem and Ramdas Pophale) SiO2 
 PCOD9032610
Probable space group: P -1
;
_chemical_formula_sum "Si O2"
_cell_formula_units_Z 15
_cell_length_a 8.694087
_cell_length_b 11.608548
_cell_length_c 7.829522
_cell_angle_alpha 62.610208
_cell_angle_beta 50.924009
_cell_angle_gamma 65.543532
_cell_volume 535.784341
_symmetry_space_group_name_H-M "P -1"
_symmetry_group_IT_number 2
_symmetry_cell_setting 'triclinic'
loop_
_space_group_symop_operation_xyz
x,y,z
-x,-y,-z
loop_
_atom_site_type_symbol
_atom_site_label
_atom_site_fract_x
_atom_site_fract_y
_atom_site_fract_z
Si Si1 0.573096 0.759565 0.814101
Si Si2 0.500000 0.500000 0.500000
Si Si3 0.632624 0.806396 0.142322
Si Si4 0.311677 0.593970 0.933883
Si Si5 0.912260 0.536062 0.225322
Si Si6 0.045308 0.154469 0.538625
Si Si7 0.203468 0.841827 0.609136
Si Si8 0.211186 0.950375 0.978407
O O1 0.479827 0.634036 0.913718
O O2 0.786863 0.765150 0.576129
O O3 0.603738 0.781350 0.979492
O O4 0.412717 0.888547 0.780598
O O5 0.411417 0.522543 0.742154
O O6 0.736194 0.454794 0.441841
O O7 0.773235 0.680536 0.211303
O O8 0.419569 0.815530 0.381754
O O9 0.724925 0.935749 0.027777
O O10 0.208611 0.739283 0.828946
O O11 0.120547 0.536362 0.179143
O O12 0.000000 0.500000 0.000000
O O13 0.968991 0.185626 0.380591
O O14 0.849450 0.164953 0.784698
O O15 0.148315 0.998885 0.572849
O O16 0.000000 0.000000 0.000000
#
# Coordination Sequence:
#
# PCOD9032610 Si02
#       8
#     2   1   2   2   2   2   2   2
#     4  12  25  40  63 101 134 173 216 267 323 388
#     4  10  22  44  70  94 118 162 216 274 322 386
#     4  12  22  43  66  93 139 174 214 272 328 378
#     4  11  24  42  69  97 126 168 219 270 328 389
#     4  10  22  43  72  95 122 164 220 272 330 387
#     4  11  23  38  61  95 136 175 221 258 313 383
#     4  11  21  40  67  91 131 184 215 259 319 385
#     4  12  25  39  62  97 137 182 222 263 311 389
#
# _framework density 27.996338999999999
#
# number of rings (size 3 to 8) (size 9 to 14) (size 15 to 20)
#    0.000    0.800    4.000    5.200    1.867    2.133 
#    0.000    2.667    0.000    3.200    0.000    0.000 
#    0.000    0.000    0.000    0.000    0.000    0.000 
#
# Total GULP energy -83840.582890 kJ/mol
# GULP energy per Si atom -5589.372193 kJ/mol
# Density = 2.793262 g / cm^3
# Si number density = 27.996339 Si / 1000 Ang^3
#
#
#
# Elastic Constant Matrix: (Units=GPa)
#
#
# Indices 1 2 3 4 5 6 
#
# 1 167.0192 42.0784 54.6138 -4.4045 -47.7931 33.3776
# 2 42.0784 113.3549 37.7818 -8.0721 -25.3997 10.9469
# 3 54.6138 37.7818 88.8384 12.5087 -40.8018 -1.3545
# 4 -4.4045 -8.0721 12.5087 37.4994 -6.6908 -3.3566
# 5 -47.7931 -25.3997 -40.8018 -6.6908 59.9897 -1.0279
# 6 33.3776 10.9469 -1.3545 -3.3566 -1.0279 45.9315
#
#
#
# Elastic Compliance Matrix: (Units=1/GPa)
#
#
# Indices 1 2 3 4 5 6 
#
# 1 0.010673 -0.000311 -0.004398 0.002981 0.005585 -0.007469
# 2 -0.000311 0.011325 -0.004285 0.003992 0.002039 -0.002262
# 3 -0.004398 -0.004285 0.020389 -0.006424 0.007911 0.004526
# 4 0.002981 0.003992 -0.006424 0.030478 0.003079 -0.001011
# 5 0.005585 0.002039 0.007911 0.003079 0.027647 -0.003467
# 6 -0.007469 -0.002262 0.004526 -0.001011 -0.003467 0.027720
#
#
# Mechanical properties :
#
#
# Convention : Reuss Voigt Hill
#
# Bulk Modulus (GPa) = 40.98497 70.90672 55.94585
# Shear Modulus (GPa) = 32.39325 44.33336 38.36331
#
# Velocity S-wave (km/s) = 3.40524 3.98369 3.70577
# Velocity P-wave (km/s) = 5.48927 6.82216 6.19168
#
# Compressibility (1/GPa) = 0.02439919
#
# Stress axis : x y z
#
# Youngs Moduli (GPa) = 93.69453 88.29776 49.04601
#
# Poissons Ratio (x) = 0.02748 0.21568
# Poissons Ratio (y) = 0.02916 0.21018
# Poissons Ratio (z) = 0.41203 0.37838
#
# Static dielectric constant tensor:
#      x y z
#    x 2.397830 0.268810 0.036950 
#    y 0.268810 2.779280 -0.092470 
#    z 0.036950 -0.092470 2.215980 
# 
# From -- ./inp_files/186400.got.cif
#   From: 2010.05.17/outbox.cif.g08.bks.cpg/sg2_94_cif.got.tgz:186400.got - 2010.06.03 11:33:40.
