data_PCOD9032591
_publ_section_title
;
Structure prediction by ZEFSAII (Michael W. Deem and Ramdas Pophale) SiO2 
 PCOD9032591
Probable space group: P -1
;
_chemical_formula_sum "Si O2"
_cell_formula_units_Z 14
_cell_length_a 6.986584
_cell_length_b 9.383126
_cell_length_c 10.396834
_cell_angle_alpha 87.872989
_cell_angle_beta 111.702041
_cell_angle_gamma 66.964626
_cell_volume 569.443237
_symmetry_space_group_name_H-M "P -1"
_symmetry_group_IT_number 2
_symmetry_cell_setting 'triclinic'
loop_
_space_group_symop_operation_xyz
x,y,z
-x,-y,-z
loop_
_atom_site_type_symbol
_atom_site_label
_atom_site_fract_x
_atom_site_fract_y
_atom_site_fract_z
Si Si1 0.206361 0.879727 0.644446
Si Si2 0.728552 0.896233 0.143186
Si Si3 0.974009 0.818846 0.946001
Si Si4 0.007757 0.326773 0.484345
Si Si5 0.282460 0.604405 0.355605
Si Si6 0.716468 0.715007 0.681849
Si Si7 0.369183 0.813943 0.165742
O O1 0.165290 0.720564 0.643632
O O2 0.210282 0.978431 0.768111
O O3 0.454800 0.827396 0.645876
O O4 0.000000 0.000000 0.500000
O O5 0.907486 0.801834 0.078790
O O6 0.619180 0.802732 0.205258
O O7 0.500000 0.000000 0.000000
O O8 0.244390 0.768548 0.018646
O O9 0.886331 0.733811 0.825410
O O10 0.815389 0.003709 0.866646
O O11 0.930589 0.293939 0.607482
O O12 0.000000 0.500000 0.500000
O O13 0.229419 0.247619 0.450818
O O14 0.500000 0.500000 0.500000
O O15 0.236896 0.466967 0.284496
O O16 0.363294 0.708720 0.285373
#
# Coordination Sequence:
#
# PCOD9032591 Si02
#       7
#     2   2   2   2   2   2   2
#     4  12  26  43  72 109 143 189 254 303 369 441
#     4  10  22  43  72 106 144 185 241 306 368 429
#     4  10  23  44  76 103 147 186 253 304 365 433
#     4  10  26  46  68 100 148 196 240 300 368 436
#     4  11  24  47  70 102 150 195 244 300 372 444
#     4  11  24  47  70 103 148 193 245 308 366 439
#     4  10  23  43  74 102 143 189 238 309 362 427
#
# _framework density 24.585417
#
# number of rings (size 3 to 8) (size 9 to 14) (size 15 to 20)
#    0.000    1.429    4.286    0.000    8.000    3.429 
#    2.571    0.714    0.000    0.000    0.000    0.000 
#    0.000    0.000    0.000    0.000    0.000    0.000 
#
# Total GULP energy -78181.529208 kJ/mol
# GULP energy per Si atom -5584.394943 kJ/mol
# Density = 2.452946 g / cm^3
# Si number density = 24.585417 Si / 1000 Ang^3
#
#
#
# Elastic Constant Matrix: (Units=GPa)
#
#
# Indices 1 2 3 4 5 6 
#
# 1 151.9890 36.7402 57.8533 7.9374 -6.8421 18.5297
# 2 36.7402 132.2292 75.6796 21.0015 1.7417 37.3131
# 3 57.8533 75.6796 136.5783 11.6423 -15.1180 23.8628
# 4 7.9374 21.0015 11.6423 60.9454 22.9124 3.3287
# 5 -6.8421 1.7417 -15.1180 22.9124 58.7486 5.8721
# 6 18.5297 37.3131 23.8628 3.3287 5.8721 46.4776
#
#
#
# Elastic Compliance Matrix: (Units=1/GPa)
#
#
# Indices 1 2 3 4 5 6 
#
# 1 0.007972 0.000083 -0.003006 -0.000610 0.000563 -0.001729
# 2 0.000083 0.013626 -0.005962 -0.003177 0.000080 -0.007694
# 3 -0.003006 -0.005962 0.012555 -0.001275 0.003637 -0.000830
# 4 -0.000610 -0.003177 -0.001275 0.020962 -0.008786 0.003057
# 5 0.000563 0.000080 0.003637 -0.008786 0.021876 -0.004291
# 6 -0.001729 -0.007694 -0.000830 0.003057 -0.004291 0.029131
#
#
# Mechanical properties :
#
#
# Convention : Reuss Voigt Hill
#
# Bulk Modulus (GPa) = 61.03966 84.59363 72.81665
# Shear Modulus (GPa) = 38.65374 49.93589 44.29481
#
# Velocity S-wave (km/s) = 3.96943 4.51168 4.24921
# Velocity P-wave (km/s) = 6.77421 7.85004 7.33189
#
# Compressibility (1/GPa) = 0.01638279
#
# Stress axis : x y z
#
# Youngs Moduli (GPa) = 125.44458 73.38646 79.64988
#
# Poissons Ratio (x) = -0.00608 0.23946
# Poissons Ratio (y) = -0.01040 0.47485
# Poissons Ratio (z) = 0.37713 0.43751
#
# Static dielectric constant tensor:
#      x y z
#    x 2.017980 0.020100 0.026770 
#    y 0.020100 2.039470 -0.065320 
#    z 0.026770 -0.065320 2.142710 
# 
# From -- ./inp_files/154234.got.cif
#   From: 2010.05.17/outbox.cif.g08.bks.cpg/sg2_78_cif.got.tgz:154234.got - 2010.06.03 11:33:40.
