data_PCOD9032904
_publ_section_title
;
Structure prediction by ZEFSAII (Michael W. Deem and Ramdas Pophale) SiO2 
 PCOD9032904
Probable space group: P -1
;
_chemical_formula_sum "Si O2"
_cell_formula_units_Z 15
_cell_length_a 14.105663
_cell_length_b 8.724326
_cell_length_c 7.855772
_cell_angle_alpha 128.067939
_cell_angle_beta 82.414959
_cell_angle_gamma 119.590394
_cell_volume 640.490331
_symmetry_space_group_name_H-M "P -1"
_symmetry_group_IT_number 2
_symmetry_cell_setting 'triclinic'
loop_
_space_group_symop_operation_xyz
x,y,z
-x,-y,-z
loop_
_atom_site_type_symbol
_atom_site_label
_atom_site_fract_x
_atom_site_fract_y
_atom_site_fract_z
Si Si1 0.000000 0.000000 0.000000
Si Si2 0.220435 0.031763 0.474551
Si Si3 0.268522 0.487507 0.679173
Si Si4 0.983504 0.622351 0.921934
Si Si5 0.259211 0.625825 0.138078
Si Si6 0.435460 0.246109 0.762094
Si Si7 0.415071 0.791598 0.545815
Si Si8 0.009356 0.268975 0.513638
O O1 0.940044 0.115134 0.967866
O O2 0.007354 0.159201 0.261830
O O3 0.265725 0.252953 0.499966
O O4 0.301437 0.130603 0.690372
O O5 0.235841 0.831314 0.262291
O O6 0.090297 0.931760 0.484374
O O7 0.348731 0.664919 0.642087
O O8 0.138209 0.412221 0.644454
O O9 0.306290 0.587047 0.928136
O O10 0.862798 0.600452 0.952743
O O11 0.972111 0.453424 0.659109
O O12 0.000000 0.500000 0.000000
O O13 0.331731 0.681397 0.327839
O O14 0.484061 0.242001 0.559584
O O15 0.451186 0.056877 0.725937
O O16 0.500000 0.500000 0.000000
#
# Coordination Sequence:
#
# PCOD9032904 Si02
#       8
#     1   2   2   2   2   2   2   2
#     4  12  26  38  64  96 134 188 232 278 336 412
#     4  10  24  41  67  98 134 178 228 275 341 413
#     4  12  23  40  71 103 135 179 223 274 348 415
#     4  11  23  42  63  92 139 184 228 278 336 414
#     4  10  22  44  62  95 139 171 218 287 333 401
#     4  10  22  46  69  90 133 178 222 288 343 396
#     4  10  24  43  68 100 129 172 230 279 343 407
#     4  11  25  42  67 101 144 182 227 275 349 424
#
# _framework density 23.419556
#
# number of rings (size 3 to 8) (size 9 to 14) (size 15 to 20)
#    0.000    1.333    1.333    3.200    3.733    4.800 
#    0.000    9.333    0.000    0.000    0.000    0.000 
#    0.000    0.000    0.000    0.000    0.000    0.000 
#
# Total GULP energy -83516.798725 kJ/mol
# GULP energy per Si atom -5567.786582 kJ/mol
# Density = 2.336625 g / cm^3
# Si number density = 23.419556 Si / 1000 Ang^3
#
#
#
# Elastic Constant Matrix: (Units=GPa)
#
#
# Indices 1 2 3 4 5 6 
#
# 1 57.0921 2.8045 2.5183 2.2811 -0.0011 10.7500
# 2 2.8045 34.4370 34.8188 0.7388 -20.8408 -2.8284
# 3 2.5183 34.8188 148.8738 -1.0580 -11.4460 -8.0912
# 4 2.2811 0.7388 -1.0580 40.8761 -1.5908 -0.3706
# 5 -0.0011 -20.8408 -11.4460 -1.5908 35.0287 8.3236
# 6 10.7500 -2.8284 -8.0912 -0.3706 8.3236 31.2570
#
#
#
# Elastic Compliance Matrix: (Units=1/GPa)
#
#
# Indices 1 2 3 4 5 6 
#
# 1 0.018942 -0.001318 -0.000342 -0.001078 0.000700 -0.006922
# 2 -0.001318 0.061485 -0.012073 -0.000079 0.034104 -0.006191
# 3 -0.000342 -0.012073 0.009330 0.000318 -0.004765 0.002713
# 4 -0.001078 -0.000079 0.000318 0.024580 0.001065 0.000453
# 5 0.000700 0.034104 -0.004765 0.001065 0.050115 -0.011721
# 6 -0.006922 -0.006191 0.002713 0.000453 -0.011721 0.037642
#
#
# Mechanical properties :
#
#
# Convention : Reuss Voigt Hill
#
# Bulk Modulus (GPa) = 16.05388 35.63180 25.84284
# Shear Modulus (GPa) = 19.97412 34.78309 27.37861
#
# Velocity S-wave (km/s) = 2.92358 3.85803 3.42285
# Velocity P-wave (km/s) = 4.27390 5.92397 5.16525
#
# Compressibility (1/GPa) = 0.06229024
#
# Stress axis : x y z
#
# Youngs Moduli (GPa) = 52.79338 16.26407 107.18219
#
# Poissons Ratio (x) = 0.02144 0.03667
# Poissons Ratio (y) = 0.06960 1.29400
# Poissons Ratio (z) = 0.01806 0.19635
#
# Static dielectric constant tensor:
#      x y z
#    x 1.984940 0.011600 0.040690 
#    y 0.011600 2.040370 0.040850 
#    z 0.040690 0.040850 1.869080 
# 
# From -- ./inp_files/296733.got.cif
#   From: 2010.05.17/outbox.cif.g08.bks.cpg/sg2_149_cif.got.tgz:296733.got - 2010.06.03 11:33:40.
