data_PCOD9032550
_publ_section_title
;
Structure prediction by ZEFSAII (Michael W. Deem and Ramdas Pophale) SiO2 
 PCOD9032550
Probable space group: P -1
;
_chemical_formula_sum "Si O2"
_cell_formula_units_Z 10
_cell_length_a 9.319259
_cell_length_b 5.011549
_cell_length_c 17.605262
_cell_angle_alpha 121.990088
_cell_angle_beta 140.254316
_cell_angle_gamma 57.429905
_cell_volume 432.680721
_symmetry_space_group_name_H-M "P -1"
_symmetry_group_IT_number 2
_symmetry_cell_setting 'triclinic'
loop_
_space_group_symop_operation_xyz
x,y,z
-x,-y,-z
loop_
_atom_site_type_symbol
_atom_site_label
_atom_site_fract_x
_atom_site_fract_y
_atom_site_fract_z
Si Si1 0.398162 0.735816 0.873668
Si Si2 0.312557 0.460714 0.480795
Si Si3 0.845228 0.253978 0.919411
Si Si4 0.275149 0.779181 0.302264
Si Si5 0.091269 0.289894 0.743099
O O1 0.609104 0.448338 0.890531
O O2 0.231274 0.565115 0.828681
O O3 0.259367 0.944186 0.779205
O O4 0.500000 0.000000 0.000000
O O5 0.500000 0.500000 0.500000
O O6 0.464909 0.446035 0.616315
O O7 0.073219 0.704978 0.396838
O O8 0.266087 0.107580 0.395007
O O9 0.781353 0.130653 0.793506
O O10 0.000000 0.500000 0.000000
O O11 0.000000 0.000000 0.000000
O O12 0.080618 0.634641 0.242504
#
# Coordination Sequence:
#
# PCOD9032550 Si02
#       5
#     2   2   2   2   2
#     4  12  26  43  67 100 142 186 228 277 346 409
#     4   9  20  39  75 101 131 178 234 279 334 405
#     4  12  29  46  67 102 141 183 226 288 340 407
#     4  10  22  43  72 102 136 180 236 273 337 411
#     4  11  22  43  70 101 133 180 229 283 336 405
#
# _framework density 23.111726999999998
#
# number of rings (size 3 to 8) (size 9 to 14) (size 15 to 20)
#    0.000    1.200    2.000    3.000    8.400    0.000 
#    0.000    2.000    0.000    0.000    0.000    0.000 
#    0.000    0.000    0.000    0.000    0.000    0.000 
#
# Total GULP energy -55907.407930 kJ/mol
# GULP energy per Si atom -5590.740793 kJ/mol
# Density = 2.305912 g / cm^3
# Si number density = 23.111727 Si / 1000 Ang^3
#
#
#
# Elastic Constant Matrix: (Units=GPa)
#
#
# Indices 1 2 3 4 5 6 
#
# 1 114.3537 66.2274 70.3719 -2.6784 21.4614 20.3335
# 2 66.2274 156.8430 77.4471 -55.1935 5.4164 24.4080
# 3 70.3719 77.4471 131.6717 -56.2512 4.7299 6.3359
# 4 -2.6784 -55.1935 -56.2512 62.1514 15.5233 7.2177
# 5 21.4614 5.4164 4.7299 15.5233 42.4170 2.6453
# 6 20.3335 24.4080 6.3359 7.2177 2.6453 46.7445
#
#
#
# Elastic Compliance Matrix: (Units=1/GPa)
#
#
# Indices 1 2 3 4 5 6 
#
# 1 0.024890 -0.010379 -0.017354 -0.023756 -0.000680 0.000651
# 2 -0.010379 0.017367 0.005347 0.022067 -0.005115 -0.008396
# 3 -0.017354 0.005347 0.027030 0.030291 -0.005799 -0.003256
# 4 -0.023756 0.022067 0.030291 0.068362 -0.018270 -0.014816
# 5 -0.000680 -0.005115 -0.005799 -0.018270 0.031607 0.004785
# 6 0.000651 -0.008396 -0.003256 -0.014816 0.004785 0.027952
#
#
# Mechanical properties :
#
#
# Convention : Reuss Voigt Hill
#
# Bulk Modulus (GPa) = 40.78944 92.32901 66.55923
# Shear Modulus (GPa) = 19.98793 42.85071 31.41932
#
# Velocity S-wave (km/s) = 2.94401 4.31056 3.69108
# Velocity P-wave (km/s) = 5.40771 8.05048 6.85761
#
# Compressibility (1/GPa) = 0.02451615
#
# Stress axis : x y z
#
# Youngs Moduli (GPa) = 40.17635 57.58153 36.99613
#
# Poissons Ratio (x) = 0.59762 0.64203
# Poissons Ratio (y) = 0.41698 -0.19783
# Poissons Ratio (z) = 0.69722 -0.30790
#
# Static dielectric constant tensor:
#      x y z
#    x 1.894870 -0.008100 -0.021890 
#    y -0.008100 1.928560 -0.023630 
#    z -0.021890 -0.023630 1.961190 
# 
# From -- ./inp_files/553905.got.cif
#   From: 2010.05.17/outbox.cif.g08.bks.cpg/sg2_277_cif.got.tgz:553905.got - 2010.06.03 11:33:40.
