data_PCOD9032004
_publ_section_title
;
Structure prediction by ZEFSAII (Michael W. Deem and Ramdas Pophale) SiO2 
 PCOD9032004
Probable space group: P -1
;
_chemical_formula_sum "Si O2"
_cell_formula_units_Z 15
_cell_length_a 9.141380
_cell_length_b 5.861613
_cell_length_c 17.265289
_cell_angle_alpha 51.207578
_cell_angle_beta 121.221685
_cell_angle_gamma 100.639390
_cell_volume 602.852940
_symmetry_space_group_name_H-M "P -1"
_symmetry_group_IT_number 2
_symmetry_cell_setting 'triclinic'
loop_
_space_group_symop_operation_xyz
x,y,z
-x,-y,-z
loop_
_atom_site_type_symbol
_atom_site_label
_atom_site_fract_x
_atom_site_fract_y
_atom_site_fract_z
Si Si1 0.150508 0.363869 0.982804
Si Si2 0.457685 0.855082 0.406023
Si Si3 0.222829 0.940499 0.472148
Si Si4 0.004263 0.542377 0.312234
Si Si5 0.818603 0.319848 0.815253
Si Si6 0.385371 0.369807 0.177634
Si Si7 0.000000 0.500000 0.500000
Si Si8 0.358111 0.307359 0.898760
O O1 0.218806 0.504128 0.048061
O O2 0.148817 0.026210 0.079689
O O3 0.295665 0.367644 0.956616
O O4 0.967529 0.471575 0.865772
O O5 0.500000 0.500000 0.500000
O O6 0.310372 0.962139 0.408092
O O7 0.635936 0.964261 0.452587
O O8 0.403344 0.019880 0.274897
O O9 0.175797 0.626376 0.545649
O O10 0.041774 0.183807 0.383559
O O11 0.026839 0.598149 0.396264
O O12 0.816103 0.704914 0.194663
O O13 0.148666 0.637850 0.275164
O O14 0.644014 0.474981 0.779289
O O15 0.552854 0.439271 0.166745
O O16 0.500000 0.000000 0.000000
#
# Coordination Sequence:
#
# PCOD9032004 Si02
#       8
#     2   2   2   2   2   2   1   2
#     4  10  23  41  70 104 144 182 242 295 363 451
#     4  11  26  46  75 108 148 191 255 312 376 440
#     4  11  25  48  70 105 145 190 251 311 369 450
#     4  11  25  47  73 101 148 194 246 305 376 449
#     4  10  22  43  69 103 142 186 239 303 363 443
#     4  12  23  43  74 102 140 193 241 304 372 442
#     4  12  26  46  76 110 146 200 258 310 380 444
#     4  11  24  48  69 107 150 189 236 309 373 440
#
# _framework density 24.881692000000001
#
# number of rings (size 3 to 8) (size 9 to 14) (size 15 to 20)
#    0.000    1.067    2.667    2.800    3.733    1.067 
#   12.000    0.000    0.000    0.000    0.000    0.000 
#    0.000    0.000    0.000    0.000    0.000    0.000 
#
# Total GULP energy -83698.819466 kJ/mol
# GULP energy per Si atom -5579.921298 kJ/mol
# Density = 2.482506 g / cm^3
# Si number density = 24.881692 Si / 1000 Ang^3
#
#
#
# Elastic Constant Matrix: (Units=GPa)
#
#
# Indices 1 2 3 4 5 6 
#
# 1 131.6578 36.4416 41.3538 17.3478 -28.2720 3.2536
# 2 36.4416 57.2235 28.4500 17.7389 -6.1706 10.2151
# 3 41.3538 28.4500 116.5882 17.0192 -13.0222 -16.2621
# 4 17.3478 17.7389 17.0192 27.3172 -7.6875 -2.3026
# 5 -28.2720 -6.1706 -13.0222 -7.6875 58.3607 0.4536
# 6 3.2536 10.2151 -16.2621 -2.3026 0.4536 47.1912
#
#
#
# Elastic Compliance Matrix: (Units=1/GPa)
#
#
# Indices 1 2 3 4 5 6 
#
# 1 0.010609 -0.004852 -0.002016 -0.001241 0.004017 -0.000475
# 2 -0.004852 0.028268 -0.004525 -0.013726 -0.002117 -0.007993
# 3 -0.002016 -0.004525 0.011514 -0.002320 0.000770 0.004965
# 4 -0.001241 -0.013726 -0.002320 0.049235 0.003880 0.004622
# 5 0.004017 -0.002117 0.000770 0.003880 0.019536 0.000448
# 6 -0.000475 -0.007993 0.004965 0.004622 0.000448 0.024886
#
#
# Mechanical properties :
#
#
# Convention : Reuss Voigt Hill
#
# Bulk Modulus (GPa) = 36.22312 57.55114 46.88713
# Shear Modulus (GPa) = 28.40362 39.85543 34.12953
#
# Velocity S-wave (km/s) = 3.38234 4.00659 3.70763
# Velocity P-wave (km/s) = 5.46291 6.67711 6.10030
#
# Compressibility (1/GPa) = 0.02760668
#
# Stress axis : x y z
#
# Youngs Moduli (GPa) = 94.25704 35.37555 86.85440
#
# Poissons Ratio (x) = 0.17163 0.17507
# Poissons Ratio (y) = 0.45729 0.39301
# Poissons Ratio (z) = 0.18999 0.16007
#
# Static dielectric constant tensor:
#      x y z
#    x 1.921050 0.005160 0.025030 
#    y 0.005160 2.069250 -0.007030 
#    z 0.025030 -0.007030 1.983340 
# 
# From -- ./inp_files/360812.got.cif
#   From: 2010.05.17/outbox.cif.g08.bks.cpg/sg2_181_cif.got.tgz:360812.got - 2010.06.03 11:33:40.
