data_PCOD9032390
_publ_section_title
;
Structure prediction by ZEFSAII (Michael W. Deem and Ramdas Pophale) SiO2 
 PCOD9032390
Probable space group: P -1
;
_chemical_formula_sum "Si O2"
_cell_formula_units_Z 16
_cell_length_a 15.775305
_cell_length_b 4.965710
_cell_length_c 12.812010
_cell_angle_alpha 89.396489
_cell_angle_beta 142.690047
_cell_angle_gamma 98.559247
_cell_volume 591.738104
_symmetry_space_group_name_H-M "P -1"
_symmetry_group_IT_number 2
_symmetry_cell_setting 'triclinic'
loop_
_space_group_symop_operation_xyz
x,y,z
-x,-y,-z
loop_
_atom_site_type_symbol
_atom_site_label
_atom_site_fract_x
_atom_site_fract_y
_atom_site_fract_z
Si Si1 0.858315 0.863943 0.668967
Si Si2 0.932771 0.161317 0.521095
Si Si3 0.650256 0.366702 0.719276
Si Si4 0.174576 0.081356 0.039754
Si Si5 0.479268 0.811638 0.204831
Si Si6 0.643110 0.908063 0.172879
Si Si7 0.777723 0.581234 0.132804
Si Si8 0.653994 0.271162 0.495415
O O1 0.903254 0.974260 0.596214
O O2 0.770843 0.548996 0.582393
O O3 0.752147 0.047400 0.604560
O O4 0.006894 0.932399 0.878251
O O5 0.774831 0.168655 0.326935
O O6 0.000000 0.000000 0.500000
O O7 0.060126 0.423261 0.674215
O O8 0.765981 0.657378 0.828331
O O9 0.535605 0.354112 0.700166
O O10 0.587406 0.291420 0.544187
O O11 0.461757 0.870341 0.704474
O O12 0.265111 0.858759 0.156792
O O13 0.204952 0.224010 0.954125
O O14 0.593093 0.750955 0.233427
O O15 0.324344 0.708923 0.999625
O O16 0.698202 0.719024 0.143400
O O17 0.500000 0.000000 0.000000
#
# Coordination Sequence:
#
# PCOD9032390 Si02
#       8
#     2   2   2   2   2   2   2   2
#     4  11  24  45  70 106 142 190 233 302 356 426
#     4   9  20  45  71 103 144 188 238 288 360 437
#     4  11  24  43  68 103 137 196 237 300 354 424
#     4  10  22  43  71 100 147 180 243 292 362 428
#     4  11  24  45  66 100 144 188 241 294 354 429
#     4  11  21  40  70 106 142 182 235 299 363 428
#     4   9  21  42  72  98 143 193 236 294 362 436
#     4  12  26  43  70 101 146 185 246 294 360 417
#
# _framework density 27.038986999999999
#
# number of rings (size 3 to 8) (size 9 to 14) (size 15 to 20)
#    0.000    1.500    1.250    3.000    0.000    6.000 
#    4.500    5.625    0.000    0.000    0.000    0.000 
#    0.000    0.000    0.000    0.000    0.000    0.000 
#
# Total GULP energy -89745.648094 kJ/mol
# GULP energy per Si atom -5609.103006 kJ/mol
# Density = 2.697745 g / cm^3
# Si number density = 27.038987 Si / 1000 Ang^3
#
#
#
# Elastic Constant Matrix: (Units=GPa)
#
#
# Indices 1 2 3 4 5 6 
#
# 1 146.1416 13.5724 60.3031 16.6606 -15.3860 12.6746
# 2 13.5724 130.8325 72.4625 26.0832 5.1757 2.3183
# 3 60.3031 72.4625 254.8076 38.5188 18.7371 3.3710
# 4 16.6606 26.0832 38.5188 61.1888 4.0677 5.5550
# 5 -15.3860 5.1757 18.7371 4.0677 46.5929 7.6835
# 6 12.6746 2.3183 3.3710 5.5550 7.6835 34.9387
#
#
#
# Elastic Compliance Matrix: (Units=1/GPa)
#
#
# Indices 1 2 3 4 5 6 
#
# 1 0.008665 0.000480 -0.002303 -0.001068 0.004447 -0.003761
# 2 0.000480 0.009453 -0.002426 -0.002636 0.000352 -0.000226
# 3 -0.002303 -0.002426 0.005623 -0.001815 -0.002818 0.001362
# 4 -0.001068 -0.002636 -0.001815 0.019139 -0.000644 -0.002164
# 5 0.004447 0.000352 -0.002818 -0.000644 0.025204 -0.006805
# 6 -0.003761 -0.000226 0.001362 -0.002164 -0.006805 0.031710
#
#
# Mechanical properties :
#
#
# Convention : Reuss Voigt Hill
#
# Bulk Modulus (GPa) = 65.60469 91.60638 78.60554
# Shear Modulus (GPa) = 44.10242 54.24033 49.17138
#
# Velocity S-wave (km/s) = 4.04303 4.48370 4.26906
# Velocity P-wave (km/s) = 6.79047 7.79472 7.30986
#
# Compressibility (1/GPa) = 0.01524281
#
# Stress axis : x y z
#
# Youngs Moduli (GPa) = 115.41238 105.78713 177.83714
#
# Poissons Ratio (x) = -0.05082 0.40955
# Poissons Ratio (y) = -0.05544 0.43149
# Poissons Ratio (z) = 0.26579 0.25668
#
# Static dielectric constant tensor:
#      x y z
#    x 2.140750 0.041240 -0.035110 
#    y 0.041240 2.078580 -0.022550 
#    z -0.035110 -0.022550 2.112640 
# 
# From -- ./inp_files/525881.got.cif
#   From: 2010.05.17/outbox.cif.g08.bks.cpg/sg2_263_cif.got.tgz:525881.got - 2010.06.03 11:33:40.
