data_PCOD9032967
_publ_section_title
;
Structure prediction by ZEFSAII (Michael W. Deem and Ramdas Pophale) SiO2 
 PCOD9032967
Probable space group: P -1
;
_chemical_formula_sum "Si O2"
_cell_formula_units_Z 14
_cell_length_a 9.025070
_cell_length_b 11.538424
_cell_length_c 7.350353
_cell_angle_alpha 90.275632
_cell_angle_beta 51.120425
_cell_angle_gamma 81.734708
_cell_volume 585.167566
_symmetry_space_group_name_H-M "P -1"
_symmetry_group_IT_number 2
_symmetry_cell_setting 'triclinic'
loop_
_space_group_symop_operation_xyz
x,y,z
-x,-y,-z
loop_
_atom_site_type_symbol
_atom_site_label
_atom_site_fract_x
_atom_site_fract_y
_atom_site_fract_z
Si Si1 0.065030 0.908632 0.287686
Si Si2 0.746390 0.766745 0.474155
Si Si3 0.335357 0.223628 0.852514
Si Si4 0.934529 0.343119 0.199809
Si Si5 0.913449 0.422657 0.807047
Si Si6 0.426916 0.967536 0.858642
Si Si7 0.325809 0.679194 0.267257
O O1 0.199969 0.796474 0.276269
O O2 0.880640 0.865599 0.345673
O O3 0.204163 0.955511 0.039034
O O4 0.000000 0.000000 0.500000
O O5 0.686597 0.718624 0.328664
O O6 0.557255 0.841952 0.710235
O O7 0.898451 0.657662 0.438192
O O8 0.459884 0.294641 0.880804
O O9 0.438325 0.087519 0.742846
O O10 0.114809 0.234591 0.089966
O O11 0.026790 0.454930 0.190309
O O12 0.757034 0.334241 0.467089
O O13 0.883710 0.360989 0.024797
O O14 0.729665 0.421903 0.820112
O O15 0.500000 0.000000 0.000000
#
# Coordination Sequence:
#
# PCOD9032967 Si02
#       7
#     2   2   2   2   2   2   2
#     4  11  21  37  60  88 121 163 203 246 305 364
#     4  10  23  40  60  88 124 158 206 253 304 366
#     4  11  24  39  60  93 121 159 209 252 299 372
#     4  10  22  44  64  89 127 159 204 256 308 354
#     4   9  22  43  65  90 123 164 202 254 306 365
#     4  12  22  38  62  89 124 161 199 255 306 355
#     4  11  22  38  62  92 121 161 206 249 307 363
#
# _framework density 23.924772000000001
#
# number of rings (size 3 to 8) (size 9 to 14) (size 15 to 20)
#    0.000    1.429    2.857    1.714    2.000    4.571 
#    0.000    9.286    0.000    0.000    0.000    0.000 
#    0.000    0.000    0.000    0.000    0.000    0.000 
#
# Total GULP energy -78224.169701 kJ/mol
# GULP energy per Si atom -5587.440693 kJ/mol
# Density = 2.387032 g / cm^3
# Si number density = 23.924772 Si / 1000 Ang^3
#
#
#
# Elastic Constant Matrix: (Units=GPa)
#
#
# Indices 1 2 3 4 5 6 
#
# 1 91.4166 -4.1500 21.4822 -0.6452 -5.2075 12.6489
# 2 -4.1500 56.9376 9.3957 10.9461 -2.4729 5.8143
# 3 21.4822 9.3957 80.6607 3.3554 -7.3204 5.8854
# 4 -0.6452 10.9461 3.3554 40.4108 0.0736 5.7050
# 5 -5.2075 -2.4729 -7.3204 0.0736 28.0896 -0.7534
# 6 12.6489 5.8143 5.8854 5.7050 -0.7534 29.6048
#
#
#
# Elastic Compliance Matrix: (Units=1/GPa)
#
#
# Indices 1 2 3 4 5 6 
#
# 1 0.012562 0.001893 -0.003073 0.000677 0.001553 -0.005219
# 2 0.001893 0.019336 -0.002202 -0.004568 0.001404 -0.003253
# 3 -0.003073 -0.002202 0.013809 -0.000487 0.002814 -0.000835
# 4 0.000677 -0.004568 -0.000487 0.026663 -0.000593 -0.004449
# 5 0.001553 0.001404 0.002814 -0.000593 0.036735 -0.000450
# 6 -0.005219 -0.003253 -0.000835 -0.004449 -0.000450 0.037659
#
#
# Mechanical properties :
#
#
# Convention : Reuss Voigt Hill
#
# Bulk Modulus (GPa) = 25.67777 31.38567 28.53172
# Shear Modulus (GPa) = 30.02858 33.10683 31.56771
#
# Velocity S-wave (km/s) = 3.54662 3.72397 3.63637
# Velocity P-wave (km/s) = 5.24665 5.62473 5.43897
#
# Compressibility (1/GPa) = 0.03894420
#
# Stress axis : x y z
#
# Youngs Moduli (GPa) = 79.60323 51.71800 72.41692
#
# Poissons Ratio (x) = -0.09790 0.22251
# Poissons Ratio (y) = -0.15068 0.15944
# Poissons Ratio (z) = 0.24459 0.11387
#
# Static dielectric constant tensor:
#      x y z
#    x 1.961210 -0.026450 -0.002710 
#    y -0.026450 1.937070 0.007370 
#    z -0.002710 0.007370 1.973460 
# 
# From -- ./inp_files/179714.got.cif
#   From: 2010.05.17/outbox.cif.g08.bks.cpg/sg2_90_cif.got.tgz:179714.got - 2010.06.03 11:33:40.
