data_PCOD9032916
_publ_section_title
;
Structure prediction by ZEFSAII (Michael W. Deem and Ramdas Pophale) SiO2 
 PCOD9032916
Probable space group: P -1
;
_chemical_formula_sum "Si O2"
_cell_formula_units_Z 16
_cell_length_a 6.637503
_cell_length_b 10.500948
_cell_length_c 14.962791
_cell_angle_alpha 118.565196
_cell_angle_beta 67.640912
_cell_angle_gamma 85.261457
_cell_volume 800.920405
_symmetry_space_group_name_H-M "P -1"
_symmetry_group_IT_number 2
_symmetry_cell_setting 'triclinic'
loop_
_space_group_symop_operation_xyz
x,y,z
-x,-y,-z
loop_
_atom_site_type_symbol
_atom_site_label
_atom_site_fract_x
_atom_site_fract_y
_atom_site_fract_z
Si Si1 0.191854 0.119888 0.332187
Si Si2 0.770425 0.616530 0.119649
Si Si3 0.331304 0.121818 0.503462
Si Si4 0.679357 0.289431 0.449543
Si Si5 0.418127 0.375142 0.348499
Si Si6 0.951104 0.306470 0.750782
Si Si7 0.451787 0.411649 0.147469
Si Si8 0.590727 0.189853 0.885389
O O1 0.297597 0.057942 0.390398
O O2 0.249526 0.276226 0.360223
O O3 0.634508 0.308743 0.357039
O O4 0.315728 0.992818 0.195723
O O5 0.842622 0.687443 0.218484
O O6 0.607659 0.518515 0.138968
O O7 0.639134 0.742561 0.112128
O O8 0.000000 0.500000 0.000000
O O9 0.459886 0.248047 0.509235
O O10 0.077117 0.197434 0.612518
O O11 0.500000 0.000000 0.500000
O O12 0.315702 0.552105 0.455247
O O13 0.918006 0.159138 0.387544
O O14 0.471436 0.366603 0.232114
O O15 0.803815 0.475251 0.796954
O O16 0.782486 0.244893 0.819051
O O17 0.536299 0.270259 0.017438
#
# Coordination Sequence:
#
# PCOD9032916 Si02
#       8
#     2   2   2   2   2   2   2   2
#     4  11  24  41  60  85 125 163 191 250 300 343
#     4  11  19  38  61  89 120 155 190 244 299 350
#     4  11  23  38  62  96 122 151 196 245 306 360
#     4  10  22  44  63  87 119 155 204 252 293 350
#     4  10  23  41  63  85 116 156 214 245 287 346
#     4  11  21  37  62  90 121 155 194 246 303 355
#     4  11  22  38  61  92 116 157 205 241 289 363
#     4  11  23  38  58  90 127 155 195 242 300 363
#
# _framework density 19.977017
#
# number of rings (size 3 to 8) (size 9 to 14) (size 15 to 20)
#    0.000    1.250    2.500    4.125    0.000    8.500 
#    0.000    0.625    0.000    0.000    0.000    0.000 
#    0.000    0.000    0.000    0.000    0.000    0.000 
#
# Total GULP energy -89402.182550 kJ/mol
# GULP energy per Si atom -5587.636409 kJ/mol
# Density = 1.993155 g / cm^3
# Si number density = 19.977017 Si / 1000 Ang^3
#
#
#
# Elastic Constant Matrix: (Units=GPa)
#
#
# Indices 1 2 3 4 5 6 
#
# 1 74.5766 22.8411 32.8413 1.6986 6.0798 -14.2398
# 2 22.8411 68.8288 37.6547 -5.8596 6.9774 -14.0986
# 3 32.8413 37.6547 112.8932 -2.6928 10.0082 -11.3007
# 4 1.6986 -5.8596 -2.6928 32.1811 -5.7420 4.2907
# 5 6.0798 6.9774 10.0082 -5.7420 31.0072 5.2269
# 6 -14.2398 -14.0986 -11.3007 4.2907 5.2269 23.8227
#
#
#
# Elastic Compliance Matrix: (Units=1/GPa)
#
#
# Indices 1 2 3 4 5 6 
#
# 1 0.017677 -0.002055 -0.003230 -0.003579 -0.004206 0.009386
# 2 -0.002055 0.020238 -0.004877 0.001504 -0.003816 0.009001
# 3 -0.003230 -0.004877 0.011759 -0.000331 -0.002351 0.001336
# 4 -0.003579 0.001504 -0.000331 0.034265 0.008404 -0.009422
# 5 -0.004206 -0.003816 -0.002351 0.008404 0.038937 -0.015944
# 6 0.009386 0.009001 0.001336 -0.009422 -0.015944 0.058743
#
#
# Mechanical properties :
#
#
# Convention : Reuss Voigt Hill
#
# Bulk Modulus (GPa) = 34.07246 49.21919 41.64582
# Shear Modulus (GPa) = 23.61545 28.26630 25.94087
#
# Velocity S-wave (km/s) = 3.44194 3.76565 3.60743
# Velocity P-wave (km/s) = 5.73488 6.60290 6.18413
#
# Compressibility (1/GPa) = 0.02934922
#
# Stress axis : x y z
#
# Youngs Moduli (GPa) = 56.56951 49.41299 85.04433
#
# Poissons Ratio (x) = 0.10155 0.27469
# Poissons Ratio (y) = 0.11625 0.41477
# Poissons Ratio (z) = 0.18272 0.24099
#
# Static dielectric constant tensor:
#      x y z
#    x 1.723640 0.000260 -0.000820 
#    y 0.000260 1.712440 0.003180 
#    z -0.000820 0.003180 1.721470 
# 
# From -- ./inp_files/482229.got.cif
#   From: 2010.05.17/outbox.cif.g08.bks.cpg/sg2_242_cif.got.tgz:482229.got - 2010.06.03 11:33:40.
