data_PCOD9032192
_publ_section_title
;
Structure prediction by ZEFSAII (Michael W. Deem and Ramdas Pophale) SiO2 
 PCOD9032192
Probable space group: P -1
;
_chemical_formula_sum "Si O2"
_cell_formula_units_Z 14
_cell_length_a 8.754093
_cell_length_b 22.706759
_cell_length_c 8.036299
_cell_angle_alpha 123.212566
_cell_angle_beta 65.675390
_cell_angle_gamma 150.654076
_cell_volume 646.560105
_symmetry_space_group_name_H-M "P -1"
_symmetry_group_IT_number 2
_symmetry_cell_setting 'triclinic'
loop_
_space_group_symop_operation_xyz
x,y,z
-x,-y,-z
loop_
_atom_site_type_symbol
_atom_site_label
_atom_site_fract_x
_atom_site_fract_y
_atom_site_fract_z
Si Si1 0.732981 0.117645 0.770488
Si Si2 0.784329 0.916126 0.801316
Si Si3 0.376964 0.628349 0.511795
Si Si4 0.350686 0.058740 0.606658
Si Si5 0.641645 0.129211 0.255821
Si Si6 0.552655 0.598231 0.065412
Si Si7 0.605649 0.613741 0.691312
O O1 0.217353 0.930552 0.455160
O O2 0.073686 0.259020 0.893794
O O3 0.524737 0.002990 0.821833
O O4 0.573545 0.127905 0.772388
O O5 0.566652 0.769370 0.658597
O O6 0.549970 0.896420 0.836526
O O7 0.062064 0.008058 0.680975
O O8 0.436667 0.609844 0.280047
O O9 0.504131 0.629846 0.615252
O O10 0.000000 0.500000 0.500000
O O11 0.564839 0.147147 0.486672
O O12 0.000000 0.000000 0.000000
O O13 0.012581 0.251472 0.259298
O O14 0.500000 0.500000 0.000000
O O15 0.450148 0.572839 0.879612
O O16 0.500000 0.500000 0.500000
#
# Coordination Sequence:
#
# PCOD9032192 Si02
#       7
#     2   2   2   2   2   2   2
#     4   9  20  40  69 100 130 180 231 296 349 423
#     4  12  26  41  66 106 149 187 233 301 363 422
#     4  12  27  52  70 107 152 187 241 306 359 435
#     4   9  19  40  68  92 139 176 226 293 357 407
#     4  10  22  43  70 100 136 187 234 290 357 430
#     4  12  26  44  77 103 143 191 243 296 363 426
#     4  12  26  47  75 106 138 193 247 294 358 441
#
# _framework density 21.653051999999999
#
# number of rings (size 3 to 8) (size 9 to 14) (size 15 to 20)
#    0.857    0.286    2.857    3.000    4.000    1.143 
#    0.000    0.000    0.000    0.000    0.000    0.000 
#    0.000    0.000    0.000    0.000    0.000    0.000 
#
# Total GULP energy -78112.113377 kJ/mol
# GULP energy per Si atom -5579.436670 kJ/mol
# Density = 2.160377 g / cm^3
# Si number density = 21.653052 Si / 1000 Ang^3
#
#
#
# Elastic Constant Matrix: (Units=GPa)
#
#
# Indices 1 2 3 4 5 6 
#
# 1 145.6092 42.4548 70.8589 -13.5046 12.1050 11.8240
# 2 42.4548 116.1120 71.4021 -7.5035 -0.8360 17.3757
# 3 70.8589 71.4021 151.6236 -18.1127 16.0033 -3.6310
# 4 -13.5046 -7.5035 -18.1127 37.2367 -10.8066 -0.6702
# 5 12.1050 -0.8360 16.0033 -10.8066 34.7709 -1.8367
# 6 11.8240 17.3757 -3.6310 -0.6702 -1.8367 39.0383
#
#
#
# Elastic Compliance Matrix: (Units=1/GPa)
#
#
# Indices 1 2 3 4 5 6 
#
# 1 0.009390 -0.000474 -0.003988 0.000933 -0.001316 -0.003050
# 2 -0.000474 0.014039 -0.006883 0.000170 0.003376 -0.006584
# 3 -0.003988 -0.006883 0.012475 0.002308 -0.003521 0.005306
# 4 0.000933 0.000170 0.002308 0.030749 0.008214 0.000771
# 5 -0.001316 0.003376 -0.003521 0.008214 0.033487 0.000285
# 6 -0.003050 -0.006584 0.005306 0.000771 0.000285 0.029990
#
#
# Mechanical properties :
#
#
# Convention : Reuss Voigt Hill
#
# Bulk Modulus (GPa) = 75.67778 86.97516 81.32647
# Shear Modulus (GPa) = 31.80156 37.45112 34.62634
#
# Velocity S-wave (km/s) = 3.83650 4.16336 4.00327
# Velocity P-wave (km/s) = 7.39263 7.96029 7.68171
#
# Compressibility (1/GPa) = 0.01321392
#
# Stress axis : x y z
#
# Youngs Moduli (GPa) = 106.49482 71.22997 80.16104
#
# Poissons Ratio (x) = 0.03375 0.31967
# Poissons Ratio (y) = 0.05046 0.55178
# Poissons Ratio (z) = 0.42468 0.49031
#
# Static dielectric constant tensor:
#      x y z
#    x 1.779700 -0.026270 0.035970 
#    y -0.026270 1.783520 -0.036940 
#    z 0.035970 -0.036940 1.981910 
# 
# From -- ./inp_files/222301.got.cif
#   From: 2010.05.17/outbox.cif.g08.bks.cpg/sg2_112_cif.got.tgz:222301.got - 2010.06.03 11:33:40.
