data_PCOD9032155
_publ_section_title
;
Structure prediction by ZEFSAII (Michael W. Deem and Ramdas Pophale) SiO2 
 PCOD9032155
Probable space group: P -1
;
_chemical_formula_sum "Si O2"
_cell_formula_units_Z 14
_cell_length_a 5.680376
_cell_length_b 11.205724
_cell_length_c 9.402171
_cell_angle_alpha 84.428312
_cell_angle_beta 80.849223
_cell_angle_gamma 95.059483
_cell_volume 584.786063
_symmetry_space_group_name_H-M "P -1"
_symmetry_group_IT_number 2
_symmetry_cell_setting 'triclinic'
loop_
_space_group_symop_operation_xyz
x,y,z
-x,-y,-z
loop_
_atom_site_type_symbol
_atom_site_label
_atom_site_fract_x
_atom_site_fract_y
_atom_site_fract_z
Si Si1 0.476773 0.827401 0.446047
Si Si2 0.295223 0.863072 0.925478
Si Si3 0.285892 0.402167 0.478294
Si Si4 0.996867 0.512651 0.249966
Si Si5 0.282438 0.930972 0.215787
Si Si6 0.674277 0.403387 0.047407
Si Si7 0.871596 0.059193 0.347861
O O1 0.610738 0.724878 0.514416
O O2 0.384319 0.816966 0.294377
O O3 0.236057 0.842959 0.554796
O O4 0.666653 0.946293 0.400174
O O5 0.412229 0.737978 0.926263
O O6 0.113876 0.875441 0.813664
O O7 0.502838 0.969496 0.858849
O O8 0.168069 0.886031 0.083897
O O9 0.500000 0.500000 0.500000
O O10 0.097347 0.406135 0.625416
O O11 0.170316 0.434392 0.334996
O O12 0.784126 0.436891 0.189390
O O13 0.127779 0.584899 0.098701
O O14 0.115994 0.996407 0.333306
O O15 0.500000 0.500000 0.000000
#
# Coordination Sequence:
#
# PCOD9032155 Si02
#       7
#     2   2   2   2   2   2   2
#     4  10  24  41  68  98 130 174 225 276 341 399
#     4  10  24  41  67 100 132 176 225 277 342 398
#     4  11  25  46  70 101 139 175 229 286 337 413
#     4  10  26  45  68 104 131 187 227 270 360 396
#     4  10  22  43  69  99 131 177 224 281 339 403
#     4  11  25  46  69 102 139 177 230 286 336 413
#     4  10  22  44  63  98 133 173 222 280 334 409
#
# _framework density 23.940380999999999
#
# number of rings (size 3 to 8) (size 9 to 14) (size 15 to 20)
#    0.000    1.714    0.000    1.714   10.000    3.429 
#    5.143    0.000    0.000    0.000    0.000    0.000 
#    0.000    0.000    0.000    0.000    0.000    0.000 
#
# Total GULP energy -78140.063937 kJ/mol
# GULP energy per Si atom -5581.433138 kJ/mol
# Density = 2.388589 g / cm^3
# Si number density = 23.940381 Si / 1000 Ang^3
#
#
#
# Elastic Constant Matrix: (Units=GPa)
#
#
# Indices 1 2 3 4 5 6 
#
# 1 53.8715 11.2381 36.2425 -6.6382 15.9727 -23.2043
# 2 11.2381 88.2916 36.7077 -14.2346 25.5348 -30.8045
# 3 36.2425 36.7077 141.9354 -1.6828 34.1279 -14.5138
# 4 -6.6382 -14.2346 -1.6828 24.9393 -12.9391 5.4133
# 5 15.9727 25.5348 34.1279 -12.9391 48.0632 -6.9542
# 6 -23.2043 -30.8045 -14.5138 5.4133 -6.9542 39.7654
#
#
#
# Elastic Compliance Matrix: (Units=1/GPa)
#
#
# Indices 1 2 3 4 5 6 
#
# 1 0.033527 0.009131 -0.007085 0.005601 -0.006243 0.022197
# 2 0.009131 0.021379 -0.004260 0.006815 -0.006900 0.018201
# 3 -0.007085 -0.004260 0.010712 -0.005376 -0.004966 -0.003661
# 4 0.005601 0.006815 -0.005376 0.051141 0.012361 0.001785
# 5 -0.006243 -0.006900 -0.004966 0.012361 0.032414 -0.006814
# 6 0.022197 0.018201 -0.003661 0.001785 -0.006814 0.049428
#
#
# Mechanical properties :
#
#
# Convention : Reuss Voigt Hill
#
# Bulk Modulus (GPa) = 16.34242 50.27502 33.30872
# Shear Modulus (GPa) = 22.37878 35.88095 29.12986
#
# Velocity S-wave (km/s) = 3.06072 3.87559 3.49200
# Velocity P-wave (km/s) = 4.39679 6.40879 5.49565
#
# Compressibility (1/GPa) = 0.06119043
#
# Stress axis : x y z
#
# Youngs Moduli (GPa) = 29.82713 46.77416 93.35196
#
# Poissons Ratio (x) = -0.42710 0.66141
# Poissons Ratio (y) = -0.27236 0.39766
# Poissons Ratio (z) = 0.21133 0.19925
#
# Static dielectric constant tensor:
#      x y z
#    x 1.977190 0.004290 0.032180 
#    y 0.004290 1.917230 0.039900 
#    z 0.032180 0.039900 1.944980 
# 
# From -- ./inp_files/131425.got.cif
#   From: 2010.05.17/outbox.cif.g08.bks.cpg/sg2_66_cif.got.tgz:131425.got - 2010.06.03 11:33:40.
