data_PCOD9032130
_publ_section_title
;
Structure prediction by ZEFSAII (Michael W. Deem and Ramdas Pophale) SiO2 
 PCOD9032130
Probable space group: P -1
;
_chemical_formula_sum "Si O2"
_cell_formula_units_Z 10
_cell_length_a 14.851364
_cell_length_b 7.699151
_cell_length_c 6.384491
_cell_angle_alpha 87.793502
_cell_angle_beta 72.454106
_cell_angle_gamma 140.245473
_cell_volume 399.013206
_symmetry_space_group_name_H-M "P -1"
_symmetry_group_IT_number 2
_symmetry_cell_setting 'triclinic'
loop_
_space_group_symop_operation_xyz
x,y,z
-x,-y,-z
loop_
_atom_site_type_symbol
_atom_site_label
_atom_site_fract_x
_atom_site_fract_y
_atom_site_fract_z
Si Si1 0.462625 0.611048 0.773026
Si Si2 0.637809 0.200115 0.077321
Si Si3 0.785654 0.054888 0.085818
Si Si4 0.247599 0.153126 0.303454
Si Si5 0.000362 0.146776 0.176472
O O1 0.650691 0.842129 0.646905
O O2 0.649082 0.699130 0.247666
O O3 0.427376 0.751399 0.718515
O O4 0.387809 0.475936 0.069952
O O5 0.818457 0.548519 0.876861
O O6 0.686766 0.085066 0.136155
O O7 0.500000 0.000000 0.000000
O O8 0.936454 0.233501 0.120648
O O9 0.843518 0.084786 0.809637
O O10 0.129154 0.081996 0.537790
O O11 0.000000 0.000000 0.000000
#
# Coordination Sequence:
#
# PCOD9032130 Si02
#       5
#     2   2   2   2   2
#     4   9  19  44  67  97 132 177 212 275 338 392
#     4  12  22  43  71  94 139 179 220 272 338 400
#     4  10  22  43  69  98 135 172 224 275 327 401
#     4   9  20  43  69  95 138 178 215 276 339 393
#     4  12  25  42  70 103 133 178 226 276 330 397
#
# _framework density 25.061824000000001
#
# number of rings (size 3 to 8) (size 9 to 14) (size 15 to 20)
#    1.200    0.400    4.000    0.600    0.000    4.800 
#    0.000    3.000    0.000    0.000    0.000    0.000 
#    0.000    0.000    0.000    0.000    0.000    0.000 
#
# Total GULP energy -55785.003935 kJ/mol
# GULP energy per Si atom -5578.500394 kJ/mol
# Density = 2.500478 g / cm^3
# Si number density = 25.061824 Si / 1000 Ang^3
#
#
#
# Elastic Constant Matrix: (Units=GPa)
#
#
# Indices 1 2 3 4 5 6 
#
# 1 231.6893 59.5955 37.3310 -0.0539 -16.1057 5.4925
# 2 59.5955 94.2959 29.0143 -8.4206 -6.5681 20.7845
# 3 37.3310 29.0143 139.1781 3.4190 -33.9514 2.7123
# 4 -0.0539 -8.4206 3.4190 16.8170 6.8688 -6.1665
# 5 -16.1057 -6.5681 -33.9514 6.8688 29.2021 -2.1696
# 6 5.4925 20.7845 2.7123 -6.1665 -2.1696 64.4011
#
#
#
# Elastic Compliance Matrix: (Units=1/GPa)
#
#
# Indices 1 2 3 4 5 6 
#
# 1 0.005427 -0.003619 0.000087 -0.002838 0.002987 0.000530
# 2 -0.003619 0.015298 -0.003642 0.009136 -0.005220 -0.003776
# 3 0.000087 -0.003642 0.012008 -0.010613 0.015699 0.000175
# 4 -0.002838 0.009136 -0.010613 0.080212 -0.030390 0.004397
# 5 0.002987 -0.005220 0.015699 -0.030390 0.060109 -0.000116
# 6 0.000530 -0.003776 0.000175 0.004397 -0.000116 0.017111
#
#
# Mechanical properties :
#
#
# Convention : Reuss Voigt Hill
#
# Bulk Modulus (GPa) = 54.39692 79.67166 67.03429
# Shear Modulus (GPa) = 23.73688 44.69888 34.21788
#
# Velocity S-wave (km/s) = 3.08089 4.22779 3.69906
# Velocity P-wave (km/s) = 5.86584 7.46266 6.71191
#
# Compressibility (1/GPa) = 0.01838339
#
# Stress axis : x y z
#
# Youngs Moduli (GPa) = 184.24706 65.36968 83.27769
#
# Poissons Ratio (x) = 0.23658 -0.00723
# Poissons Ratio (y) = 0.66682 0.30334
# Poissons Ratio (z) = -0.01599 0.23811
#
# Static dielectric constant tensor:
#      x y z
#    x 2.082700 -0.018480 0.020630 
#    y -0.018480 2.018380 0.023410 
#    z 0.020630 0.023410 2.060100 
# 
# From -- ./inp_files/88929.got.cif
#   From: 2010.05.17/outbox.cif.g08.bks.cpg/sg2_45_cif.got.tgz:88929.got - 2010.06.03 11:33:40.
