data_PCOD9032052
_publ_section_title
;
Structure prediction by ZEFSAII (Michael W. Deem and Ramdas Pophale) SiO2 
 PCOD9032052
Probable space group: P -1
;
_chemical_formula_sum "Si O2"
_cell_formula_units_Z 16
_cell_length_a 11.856170
_cell_length_b 14.774761
_cell_length_c 9.506724
_cell_angle_alpha 45.427719
_cell_angle_beta 141.205114
_cell_angle_gamma 134.804077
_cell_volume 695.322854
_symmetry_space_group_name_H-M "P -1"
_symmetry_group_IT_number 2
_symmetry_cell_setting 'triclinic'
loop_
_space_group_symop_operation_xyz
x,y,z
-x,-y,-z
loop_
_atom_site_type_symbol
_atom_site_label
_atom_site_fract_x
_atom_site_fract_y
_atom_site_fract_z
Si Si1 0.353207 0.112143 0.671419
Si Si2 0.213279 0.249429 0.174056
Si Si3 0.856221 0.540875 0.942039
Si Si4 0.246277 0.717222 0.702243
Si Si5 0.280555 0.609573 0.294553
Si Si6 0.577129 0.950758 0.898469
Si Si7 0.106166 0.894336 0.184377
Si Si8 0.591285 0.395600 0.267534
O O1 0.189269 0.141502 0.391531
O O2 0.535760 0.255274 0.703014
O O3 0.432115 0.015024 0.760873
O O4 0.299916 0.062056 0.832613
O O5 0.405814 0.260654 0.265241
O O6 0.252525 0.391811 0.134279
O O7 0.039929 0.218545 0.933607
O O8 0.858179 0.399404 0.161710
O O9 0.079747 0.637198 0.054079
O O10 0.749779 0.504834 0.729107
O O11 0.450915 0.805374 0.871639
O O12 0.149311 0.823357 0.441997
O O13 0.274795 0.640859 0.673383
O O14 0.303964 0.563097 0.526014
O O15 0.704236 0.037203 0.800895
O O16 0.000000 0.000000 0.000000
O O17 0.500000 0.500000 0.000000
#
# Coordination Sequence:
#
# PCOD9032052 Si02
#       8
#     2   2   2   2   2   2   2   2
#     4  10  22  43  69  92 127 174 216 271 317 390
#     4  11  23  41  64  98 130 166 213 266 328 384
#     4  11  23  41  67  96 132 167 213 267 327 388
#     4  12  24  43  68  96 130 173 213 268 323 393
#     4  10  23  43  61  97 130 171 210 266 324 386
#     4  11  23  44  68  92 127 174 225 263 325 372
#     4  12  26  44  65  95 133 171 221 272 318 382
#     4  11  23  39  65  95 134 167 209 255 327 392
#
# _framework density 23.010891999999998
#
# number of rings (size 3 to 8) (size 9 to 14) (size 15 to 20)
#    0.000    1.000    2.500    4.875    1.750    4.500 
#    4.500    0.000    0.000    0.000    0.000    0.000 
#    0.000    0.000    0.000    0.000    0.000    0.000 
#
# Total GULP energy -89452.648635 kJ/mol
# GULP energy per Si atom -5590.790540 kJ/mol
# Density = 2.295852 g / cm^3
# Si number density = 23.010892 Si / 1000 Ang^3
#
#
#
# Elastic Constant Matrix: (Units=GPa)
#
#
# Indices 1 2 3 4 5 6 
#
# 1 67.3059 19.8651 19.9162 5.2049 -13.3319 -17.9976
# 2 19.8651 45.6139 9.0807 14.8021 -12.9411 -10.3017
# 3 19.9162 9.0807 100.2576 -7.4542 -25.3732 -10.8296
# 4 5.2049 14.8021 -7.4542 41.8900 -2.7281 0.4812
# 5 -13.3319 -12.9411 -25.3732 -2.7281 31.6156 6.9206
# 6 -17.9976 -10.3017 -10.8296 0.4812 6.9206 32.5788
#
#
#
# Elastic Compliance Matrix: (Units=1/GPa)
#
#
# Indices 1 2 3 4 5 6 
#
# 1 0.019765 -0.005366 -0.001938 -0.000817 0.002760 0.008003
# 2 -0.005366 0.031004 0.000297 -0.009731 0.008680 0.005238
# 3 -0.001938 0.000297 0.013205 0.003115 0.009894 0.001265
# 4 -0.000817 -0.009731 0.003115 0.028087 0.001293 -0.003182
# 5 0.002760 0.008680 0.009894 0.001293 0.044833 -0.001984
# 6 0.008003 0.005238 0.001265 -0.003182 -0.001984 0.037661
#
#
# Mechanical properties :
#
#
# Convention : Reuss Voigt Hill
#
# Bulk Modulus (GPa) = 20.01629 34.54461 27.28045
# Shear Modulus (GPa) = 24.36376 32.17124 28.26750
#
# Velocity S-wave (km/s) = 3.25744 3.74316 3.50871
# Velocity P-wave (km/s) = 4.78178 5.80745 5.31939
#
# Compressibility (1/GPa) = 0.04995931
#
# Stress axis : x y z
#
# Youngs Moduli (GPa) = 50.59498 32.25344 75.73173
#
# Poissons Ratio (x) = 0.17308 0.14676
# Poissons Ratio (y) = 0.27150 -0.02248
# Poissons Ratio (z) = 0.09805 -0.00957
#
# Static dielectric constant tensor:
#      x y z
#    x 1.899890 0.019270 -0.018520 
#    y 0.019270 1.867690 -0.030850 
#    z -0.018520 -0.030850 1.880160 
# 
# From -- ./inp_files/271719.got.cif
#   From: 2010.05.17/outbox.cif.g08.bks.cpg/sg2_136_cif.got.tgz:271719.got - 2010.06.03 11:33:40.
