data_PCOD9032954
_publ_section_title
;
Structure prediction by ZEFSAII (Michael W. Deem and Ramdas Pophale) SiO2 
 PCOD9032954
Probable space group: P -1
;
_chemical_formula_sum "Si O2"
_cell_formula_units_Z 16
_cell_length_a 15.141087
_cell_length_b 5.198106
_cell_length_c 11.384921
_cell_angle_alpha 120.460052
_cell_angle_beta 57.145596
_cell_angle_gamma 121.180033
_cell_volume 611.304714
_symmetry_space_group_name_H-M "P -1"
_symmetry_group_IT_number 2
_symmetry_cell_setting 'triclinic'
loop_
_space_group_symop_operation_xyz
x,y,z
-x,-y,-z
loop_
_atom_site_type_symbol
_atom_site_label
_atom_site_fract_x
_atom_site_fract_y
_atom_site_fract_z
Si Si1 0.303561 0.592199 0.963431
Si Si2 0.403258 0.637303 0.575152
Si Si3 0.828850 0.127449 0.063557
Si Si4 0.707826 0.417716 0.756274
Si Si5 0.503224 0.341741 0.738440
Si Si6 0.112758 0.024672 0.353609
Si Si7 0.210225 0.059478 0.537042
Si Si8 0.969684 0.716246 0.209064
O O1 0.250391 0.781533 0.955519
O O2 0.426512 0.566844 0.839318
O O3 0.226292 0.224803 0.933006
O O4 0.303133 0.695386 0.125444
O O5 0.500000 0.500000 0.500000
O O6 0.417792 0.655765 0.428878
O O7 0.293988 0.345043 0.613961
O O8 0.422607 0.972676 0.700484
O O9 0.867647 0.390307 0.198848
O O10 0.951368 0.180000 0.934713
O O11 0.587258 0.434014 0.809712
O O12 0.818687 0.728204 0.737608
O O13 0.737518 0.211891 0.583423
O O14 0.198118 0.113276 0.419134
O O15 0.000000 0.000000 0.500000
O O16 0.057111 0.706460 0.245523
O O17 0.088318 0.016800 0.664712
#
# Coordination Sequence:
#
# PCOD9032954 Si02
#       8
#     2   2   2   2   2   2   2   2
#     4  12  28  48  76 103 149 194 242 298 363 430
#     4  11  23  44  71 105 145 178 238 299 357 429
#     4  11  26  51  70 109 142 191 245 299 359 435
#     4  12  24  45  69 108 142 189 241 298 356 438
#     4  11  26  43  72 107 141 192 238 297 361 434
#     4  10  22  44  64 101 140 184 235 290 359 418
#     4  11  23  42  73 105 141 187 235 299 366 428
#     4  10  23  44  73 102 144 189 241 302 361 428
#
# _framework density 26.173527
#
# number of rings (size 3 to 8) (size 9 to 14) (size 15 to 20)
#    0.000    1.000    3.750    1.875    3.500    4.000 
#   11.250    1.875    0.000    0.000    0.000    0.000 
#    0.000    0.000    0.000    0.000    0.000    0.000 
#
# Total GULP energy -89177.301065 kJ/mol
# GULP energy per Si atom -5573.581317 kJ/mol
# Density = 2.611395 g / cm^3
# Si number density = 26.173527 Si / 1000 Ang^3
#
#
#
# Elastic Constant Matrix: (Units=GPa)
#
#
# Indices 1 2 3 4 5 6 
#
# 1 122.0353 34.2006 21.9789 -0.7815 0.5845 14.0583
# 2 34.2006 67.1864 16.9201 0.3595 -4.8301 8.5465
# 3 21.9789 16.9201 100.7639 0.0630 -26.9620 -0.0897
# 4 -0.7815 0.3595 0.0630 24.1365 -3.7413 10.4281
# 5 0.5845 -4.8301 -26.9620 -3.7413 49.1747 3.9159
# 6 14.0583 8.5465 -0.0897 10.4281 3.9159 38.0713
#
#
#
# Elastic Compliance Matrix: (Units=1/GPa)
#
#
# Indices 1 2 3 4 5 6 
#
# 1 0.010117 -0.004405 -0.001784 0.001534 -0.001172 -0.003051
# 2 -0.004405 0.018004 -0.001756 0.000986 0.001157 -0.002808
# 3 -0.001784 -0.001756 0.012402 0.000914 0.006707 0.000142
# 4 0.001534 0.000986 0.000914 0.048647 0.005449 -0.014671
# 5 -0.001172 0.001157 0.006707 0.005449 0.024863 -0.003861
# 6 -0.003051 -0.002808 0.000142 -0.014671 -0.003861 0.032440
#
#
# Mechanical properties :
#
#
# Convention : Reuss Voigt Hill
#
# Bulk Modulus (GPa) = 40.59622 48.46498 44.53060
# Shear Modulus (GPa) = 29.31283 36.73557 33.02420
#
# Velocity S-wave (km/s) = 3.35018 3.75045 3.55595
# Velocity P-wave (km/s) = 5.52350 6.10831 5.82325
#
# Compressibility (1/GPa) = 0.02463283
#
# Stress axis : x y z
#
# Youngs Moduli (GPa) = 98.84245 55.54440 80.62922
#
# Poissons Ratio (x) = 0.24467 0.14386
# Poissons Ratio (y) = 0.43540 0.14158
# Poissons Ratio (z) = 0.17636 0.09753
#
# Static dielectric constant tensor:
#      x y z
#    x 2.246690 -0.296470 0.205600 
#    y -0.296470 2.847570 -0.254640 
#    z 0.205600 -0.254640 2.386200 
# 
# From -- ./inp_files/442253.got.cif
#   From: 2010.05.17/outbox.cif.g08.bks.cpg/sg2_222_cif.got.tgz:442253.got - 2010.06.03 11:33:40.
