data_PCOD9032744
_publ_section_title
;
Structure prediction by ZEFSAII (Michael W. Deem and Ramdas Pophale) SiO2 
 PCOD9032744
Probable space group: P -1
;
_chemical_formula_sum "Si O2"
_cell_formula_units_Z 12
_cell_length_a 5.447372
_cell_length_b 5.137797
_cell_length_c 21.772361
_cell_angle_alpha 101.628470
_cell_angle_beta 132.103805
_cell_angle_gamma 86.030707
_cell_volume 440.993652
_symmetry_space_group_name_H-M "P -1"
_symmetry_group_IT_number 2
_symmetry_cell_setting 'triclinic'
loop_
_space_group_symop_operation_xyz
x,y,z
-x,-y,-z
loop_
_atom_site_type_symbol
_atom_site_label
_atom_site_fract_x
_atom_site_fract_y
_atom_site_fract_z
Si Si1 0.759471 0.146875 0.098463
Si Si2 0.601612 0.189500 0.622002
Si Si3 0.391116 0.917921 0.240993
Si Si4 0.191910 0.285243 0.451808
Si Si5 0.146354 0.295432 0.060204
Si Si6 0.792728 0.423479 0.287787
O O1 0.540645 0.298807 0.116308
O O2 0.987285 0.336527 0.101254
O O3 0.008844 0.958548 0.163210
O O4 0.500000 0.000000 0.000000
O O5 0.566080 0.058968 0.676832
O O6 0.255977 0.225372 0.530587
O O7 0.858030 0.460913 0.679891
O O8 0.769633 0.981526 0.594793
O O9 0.545521 0.642775 0.242181
O O10 0.601666 0.128646 0.241555
O O11 0.500000 0.500000 0.500000
O O12 0.887817 0.418892 0.376655
O O13 0.000000 0.500000 0.000000
O O14 0.000000 0.000000 0.000000
#
# Coordination Sequence:
#
# PCOD9032744 Si02
#       6
#     2   2   2   2   2   2
#     4  10  25  49  73 110 144 194 247 304 370 441
#     4  10  23  46  67 102 146 185 236 302 358 433
#     4  12  28  42  72 102 141 193 237 301 368 431
#     4   9  20  43  72  98 143 186 235 297 356 437
#     4  10  22  43  74 101 139 178 238 297 361 433
#     4  11  25  45  65 105 140 182 241 291 362 430
#
# _framework density 27.211272999999998
#
# number of rings (size 3 to 8) (size 9 to 14) (size 15 to 20)
#    0.000    1.667    1.667    0.500    7.000    6.667 
#    3.000    0.000    0.000    0.000    0.000    0.000 
#    0.000    0.000    0.000    0.000    0.000    0.000 
#
# Total GULP energy -67107.804107 kJ/mol
# GULP energy per Si atom -5592.317009 kJ/mol
# Density = 2.714934 g / cm^3
# Si number density = 27.211273 Si / 1000 Ang^3
#
#
#
# Elastic Constant Matrix: (Units=GPa)
#
#
# Indices 1 2 3 4 5 6 
#
# 1 172.3751 51.8562 45.7720 -17.4312 -16.3428 17.4342
# 2 51.8562 170.9911 45.9385 -31.5482 3.6505 23.6494
# 3 45.7720 45.9385 144.2090 -51.5541 3.8585 20.0502
# 4 -17.4312 -31.5482 -51.5541 64.0391 1.3068 1.6968
# 5 -16.3428 3.6505 3.8585 1.3068 57.2536 0.4861
# 6 17.4342 23.6494 20.0502 1.6968 0.4861 44.4736
#
#
#
# Elastic Compliance Matrix: (Units=1/GPa)
#
#
# Indices 1 2 3 4 5 6 
#
# 1 0.007045 -0.001616 -0.001724 -0.000282 0.002246 -0.001139
# 2 -0.001616 0.007468 -0.000253 0.003143 -0.000964 -0.003333
# 3 -0.001724 -0.000253 0.011351 0.008695 -0.001400 -0.004623
# 4 -0.000282 0.003143 0.008695 0.024284 -0.001367 -0.006393
# 5 0.002246 -0.000964 -0.001400 -0.001367 0.018293 0.000115
# 6 -0.001139 -0.003333 -0.004623 -0.006393 0.000115 0.027031
#
#
# Mechanical properties :
#
#
# Convention : Reuss Voigt Hill
#
# Bulk Modulus (GPa) = 53.53861 86.07873 69.80867
# Shear Modulus (GPa) = 45.92050 56.08714 51.00382
#
# Velocity S-wave (km/s) = 4.11244 4.54494 4.33409
# Velocity P-wave (km/s) = 6.50134 7.69702 7.12431
#
# Compressibility (1/GPa) = 0.01867811
#
# Stress axis : x y z
#
# Youngs Moduli (GPa) = 141.94917 133.90878 88.09877
#
# Poissons Ratio (x) = 0.21636 0.15186
# Poissons Ratio (y) = 0.22935 0.02230
# Poissons Ratio (z) = 0.24469 0.03390
#
# Static dielectric constant tensor:
#      x y z
#    x 2.150400 -0.034670 0.024630 
#    y -0.034670 2.141640 0.077980 
#    z 0.024630 0.077980 2.239070 
# 
# From -- ./inp_files/321524.got.cif
#   From: 2010.05.17/outbox.cif.g08.bks.cpg/sg2_161_cif.got.tgz:321524.got - 2010.06.03 11:33:40.
