data_PCOD9032100
_publ_section_title
;
Structure prediction by ZEFSAII (Michael W. Deem and Ramdas Pophale) SiO2 
 PCOD9032100
Probable space group: P -1
;
_chemical_formula_sum "Si O2"
_cell_formula_units_Z 16
_cell_length_a 6.296093
_cell_length_b 6.027849
_cell_length_c 21.259954
_cell_angle_alpha 86.071025
_cell_angle_beta 119.979976
_cell_angle_gamma 76.086184
_cell_volume 661.089626
_symmetry_space_group_name_H-M "P -1"
_symmetry_group_IT_number 2
_symmetry_cell_setting 'triclinic'
loop_
_space_group_symop_operation_xyz
x,y,z
-x,-y,-z
loop_
_atom_site_type_symbol
_atom_site_label
_atom_site_fract_x
_atom_site_fract_y
_atom_site_fract_z
Si Si1 0.499447 0.793598 0.431077
Si Si2 0.379097 0.532466 0.659913
Si Si3 0.199298 0.649392 0.952395
Si Si4 0.265090 0.835689 0.832742
Si Si5 0.207408 0.599932 0.096485
Si Si6 0.912162 0.950131 0.556026
Si Si7 0.738000 0.805237 0.715271
Si Si8 0.518184 0.850486 0.218015
O O1 0.617853 0.578716 0.406324
O O2 0.709844 0.812436 0.512400
O O3 0.240326 0.819291 0.431930
O O4 0.401328 0.023086 0.366208
O O5 0.655909 0.573141 0.705850
O O6 0.340482 0.359733 0.710290
O O7 0.161428 0.781239 0.629750
O O8 0.186595 0.843158 0.894188
O O9 0.021621 0.490114 0.909838
O O10 0.500000 0.500000 0.000000
O O11 0.127183 0.711265 0.013130
O O12 0.539613 0.631383 0.869788
O O13 0.039522 0.773400 0.763086
O O14 0.302559 0.068143 0.805210
O O15 0.307473 0.770488 0.150358
O O16 0.000000 0.000000 0.500000
O O17 0.618244 0.938722 0.758987
#
# Coordination Sequence:
#
# PCOD9032100 Si02
#       8
#     2   2   2   2   2   2   2   2
#     4  10  25  44  69 106 134 184 234 284 361 416
#     4  11  24  47  71  99 144 186 233 294 352 416
#     4   9  20  41  68  99 134 178 231 284 344 409
#     4  11  23  41  66  95 139 177 228 292 335 418
#     4  10  22  43  69  96 134 184 228 285 346 408
#     4  11  23  47  72 100 143 179 234 295 345 424
#     4  11  25  45  63 101 138 175 233 289 338 422
#     4  11  25  41  65 100 134 182 232 280 349 412
#
# _framework density 24.202469000000001
#
# number of rings (size 3 to 8) (size 9 to 14) (size 15 to 20)
#    0.000    1.500    1.250    2.625    3.500    5.000 
#    2.250    8.750    0.000    0.000    0.000    0.000 
#    0.000    0.000    0.000    0.000    0.000    0.000 
#
# Total GULP energy -89557.389722 kJ/mol
# GULP energy per Si atom -5597.336858 kJ/mol
# Density = 2.414738 g / cm^3
# Si number density = 24.202469 Si / 1000 Ang^3
#
#
#
# Elastic Constant Matrix: (Units=GPa)
#
#
# Indices 1 2 3 4 5 6 
#
# 1 124.8573 27.1374 37.3536 -13.8394 -0.3977 23.4876
# 2 27.1374 35.1593 13.8365 2.4663 -1.6768 15.2840
# 3 37.3536 13.8365 90.7909 5.3053 -1.9142 18.6166
# 4 -13.8394 2.4663 5.3053 40.2945 3.3415 -3.5849
# 5 -0.3977 -1.6768 -1.9142 3.3415 58.5806 -1.1353
# 6 23.4876 15.2840 18.6166 -3.5849 -1.1353 35.1223
#
#
#
# Elastic Compliance Matrix: (Units=1/GPa)
#
#
# Indices 1 2 3 4 5 6 
#
# 1 0.011500 -0.006803 -0.003480 0.004653 -0.000543 -0.002428
# 2 -0.006803 0.040056 -0.000187 -0.006050 0.001180 -0.013361
# 3 -0.003480 -0.000187 0.013762 -0.003504 0.000519 -0.005227
# 4 0.004653 -0.006050 -0.003504 0.027763 -0.001759 0.004155
# 5 -0.000543 0.001180 0.000519 -0.001759 0.017217 -0.000049
# 6 -0.002428 -0.013361 -0.005227 0.004155 -0.000049 0.039103
#
#
# Mechanical properties :
#
#
# Convention : Reuss Voigt Hill
#
# Bulk Modulus (GPa) = 22.53453 45.27361 33.90407
# Shear Modulus (GPa) = 27.00757 38.29816 32.65287
#
# Velocity S-wave (km/s) = 3.34414 3.98226 3.67707
# Velocity P-wave (km/s) = 4.92362 6.31596 5.66275
#
# Compressibility (1/GPa) = 0.04437635
#
# Stress axis : x y z
#
# Youngs Moduli (GPa) = 86.95898 24.96515 72.66373
#
# Poissons Ratio (x) = 0.16985 0.25287
# Poissons Ratio (y) = 0.59161 0.01361
# Poissons Ratio (z) = 0.30261 0.00467
#
# Static dielectric constant tensor:
#      x y z
#    x 1.989690 0.004190 0.001620 
#    y 0.004190 1.913280 -0.016200 
#    z 0.001620 -0.016200 1.944830 
# 
# From -- ./inp_files/603234.got.cif
#   From: 2010.05.17/outbox.cif.g08.bks.cpg/sg2_302_cif.got.tgz:603234.got - 2010.06.03 11:33:40.
