data_PCOD9032525
_publ_section_title
;
Structure prediction by ZEFSAII (Michael W. Deem and Ramdas Pophale) SiO2 
 PCOD9032525
Probable space group: P -1
;
_chemical_formula_sum "Si O2"
_cell_formula_units_Z 14
_cell_length_a 8.207695
_cell_length_b 8.984856
_cell_length_c 15.595118
_cell_angle_alpha 63.331615
_cell_angle_beta 48.105333
_cell_angle_gamma 48.978459
_cell_volume 645.763255
_symmetry_space_group_name_H-M "P -1"
_symmetry_group_IT_number 2
_symmetry_cell_setting 'triclinic'
loop_
_space_group_symop_operation_xyz
x,y,z
-x,-y,-z
loop_
_atom_site_type_symbol
_atom_site_label
_atom_site_fract_x
_atom_site_fract_y
_atom_site_fract_z
Si Si1 0.510871 0.000276 0.394375
Si Si2 0.450018 0.716264 0.965276
Si Si3 0.209287 0.230237 0.292048
Si Si4 0.969320 0.030348 0.827198
Si Si5 0.191511 0.274971 0.014646
Si Si6 0.634805 0.590698 0.375844
Si Si7 0.385894 0.835085 0.237275
O O1 0.570593 0.792232 0.391101
O O2 0.749099 0.016745 0.276625
O O3 0.500000 0.000000 0.500000
O O4 0.257008 0.174744 0.389995
O O5 0.550362 0.759941 0.831874
O O6 0.631677 0.730676 0.968920
O O7 0.500000 0.500000 0.000000
O O8 0.160950 0.860117 0.065999
O O9 0.941828 0.429148 0.310975
O O10 0.225879 0.042467 0.289544
O O11 0.790857 0.168066 0.774998
O O12 0.947432 0.839279 0.883011
O O13 0.379160 0.171230 0.894329
O O14 0.000000 0.500000 0.000000
O O15 0.500000 0.500000 0.500000
O O16 0.513064 0.657566 0.306268
#
# Coordination Sequence:
#
# PCOD9032525 Si02
#       7
#     2   2   2   2   2   2   2
#     4  11  29  46  67 100 139 182 227 284 346 403
#     4  11  22  40  67 102 138 175 223 279 343 404
#     4  11  23  46  69  98 139 175 229 283 341 409
#     4  11  23  45  68 102 143 180 222 283 344 412
#     4  11  22  39  68 105 138 181 226 277 345 416
#     4  11  27  47  72 100 128 186 237 283 340 411
#     4  10  22  43  71  99 135 178 228 281 342 403
#
# _framework density 21.679773000000001
#
# number of rings (size 3 to 8) (size 9 to 14) (size 15 to 20)
#    0.000    1.143    2.857    2.571    6.000    3.429 
#    2.571    0.000    0.000    0.000    0.000    0.000 
#    0.000    0.000    0.000    0.000    0.000    0.000 
#
# Total GULP energy -78317.984787 kJ/mol
# GULP energy per Si atom -5594.141770 kJ/mol
# Density = 2.163043 g / cm^3
# Si number density = 21.679773 Si / 1000 Ang^3
#
#
#
# Elastic Constant Matrix: (Units=GPa)
#
#
# Indices 1 2 3 4 5 6 
#
# 1 55.8961 33.7768 48.1487 -16.3777 11.2237 -13.5605
# 2 33.7768 104.6709 26.6389 -11.9805 11.2106 -15.5167
# 3 48.1487 26.6389 112.4878 -19.7579 13.5305 -6.7050
# 4 -16.3777 -11.9805 -19.7579 33.4041 -2.7203 0.8662
# 5 11.2237 11.2106 13.5305 -2.7203 45.0288 -14.6905
# 6 -13.5605 -15.5167 -6.7050 0.8662 -14.6905 41.1018
#
#
#
# Elastic Compliance Matrix: (Units=1/GPa)
#
#
# Indices 1 2 3 4 5 6 
#
# 1 0.036689 -0.006656 -0.012151 0.008146 -0.001039 0.007067
# 2 -0.006656 0.012136 0.000402 0.001214 -0.000700 0.002175
# 3 -0.012151 0.000402 0.014580 0.002704 -0.002026 -0.002260
# 4 0.008146 0.001214 0.002704 0.035887 -0.000061 0.002809
# 5 -0.001039 -0.000700 -0.002026 -0.000061 0.025969 0.008345
# 6 0.007067 0.002175 -0.002260 0.002809 0.008345 0.030037
#
#
# Mechanical properties :
#
#
# Convention : Reuss Voigt Hill
#
# Bulk Modulus (GPa) = 37.60114 54.46483 46.03299
# Shear Modulus (GPa) = 24.87911 34.87296 29.87604
#
# Velocity S-wave (km/s) = 3.39126 4.01502 3.71625
# Velocity P-wave (km/s) = 5.71977 6.83161 6.30026
#
# Compressibility (1/GPa) = 0.02659494
#
# Stress axis : x y z
#
# Youngs Moduli (GPa) = 27.25626 82.40249 68.58895
#
# Poissons Ratio (x) = 0.54844 0.83342
# Poissons Ratio (y) = 0.18141 -0.02757
# Poissons Ratio (z) = 0.33119 -0.03312
#
# Static dielectric constant tensor:
#      x y z
#    x 1.802730 -0.034670 0.023150 
#    y -0.034670 1.790970 0.013780 
#    z 0.023150 0.013780 1.796260 
# 
# From -- ./inp_files/177209.got.cif
#   From: 2010.05.17/outbox.cif.g08.bks.cpg/sg2_89_cif.got.tgz:177209.got - 2010.06.03 11:33:40.
