data_PCOD9032092
_publ_section_title
;
Structure prediction by ZEFSAII (Michael W. Deem and Ramdas Pophale) SiO2 
 PCOD9032092
Probable space group: P -1
;
_chemical_formula_sum "Si O2"
_cell_formula_units_Z 16
_cell_length_a 15.353635
_cell_length_b 8.466583
_cell_length_c 13.886838
_cell_angle_alpha 91.042433
_cell_angle_beta 30.658213
_cell_angle_gamma 73.566978
_cell_volume 746.046228
_symmetry_space_group_name_H-M "P -1"
_symmetry_group_IT_number 2
_symmetry_cell_setting 'triclinic'
loop_
_space_group_symop_operation_xyz
x,y,z
-x,-y,-z
loop_
_atom_site_type_symbol
_atom_site_label
_atom_site_fract_x
_atom_site_fract_y
_atom_site_fract_z
Si Si1 0.324499 0.587138 0.889495
Si Si2 0.132722 0.374710 0.464483
Si Si3 0.332090 0.849168 0.431745
Si Si4 0.210038 0.969571 0.337552
Si Si5 0.877168 0.721230 0.319208
Si Si6 0.470185 0.645336 0.946429
Si Si7 0.393742 0.381588 0.533425
Si Si8 0.801494 0.182145 0.246332
O O1 0.441516 0.354615 0.774434
O O2 0.329939 0.653467 0.993487
O O3 0.468489 0.622194 0.686674
O O4 0.085881 0.695993 0.083701
O O5 0.046282 0.403350 0.655534
O O6 0.313943 0.407221 0.302115
O O7 0.000000 0.500000 0.500000
O O8 0.195008 0.162368 0.374918
O O9 0.267983 0.856777 0.382495
O O10 0.183324 0.848256 0.653309
O O11 0.299471 0.052235 0.484220
O O12 0.374009 0.845716 0.096232
O O13 0.000000 0.000000 0.500000
O O14 0.768997 0.659133 0.349314
O O15 0.500000 0.500000 0.000000
O O16 0.579357 0.220859 0.425810
O O17 0.259876 0.600052 0.707266
O O18 0.000000 0.000000 0.000000
#
# Coordination Sequence:
#
# PCOD9032092 Si02
#       8
#     2   2   2   2   2   2   2   2
#     4  11  22  42  66  94 135 176 211 268 325 376
#     4  11  24  39  59  95 131 172 223 266 320 389
#     4  10  23  41  64  94 130 168 219 264 322 394
#     4  11  23  39  62  94 129 174 220 266 323 390
#     4  11  23  43  65  96 132 170 217 267 325 386
#     4  12  21  39  63  90 129 176 214 267 319 379
#     4  10  23  43  67  98 130 165 220 268 321 394
#     4  10  22  43  69  96 129 169 212 270 334 388
#
# _framework density 21.446393
#
# number of rings (size 3 to 8) (size 9 to 14) (size 15 to 20)
#    0.000    1.250    2.500    4.125    0.000    1.500 
#    0.000    8.750    0.000    0.000    0.000    0.000 
#    0.000    0.000    0.000    0.000    0.000    0.000 
#
# Total GULP energy -89313.457889 kJ/mol
# GULP energy per Si atom -5582.091118 kJ/mol
# Density = 2.139758 g / cm^3
# Si number density = 21.446393 Si / 1000 Ang^3
#
#
#
# Elastic Constant Matrix: (Units=GPa)
#
#
# Indices 1 2 3 4 5 6 
#
# 1 111.5329 19.7541 36.1974 -1.0062 0.3637 13.3636
# 2 19.7541 57.1060 22.9075 2.4738 -6.7522 3.4686
# 3 36.1974 22.9075 84.6071 5.4659 2.4793 10.7091
# 4 -1.0062 2.4738 5.4659 35.2806 5.5498 -0.0320
# 5 0.3637 -6.7522 2.4793 5.5498 42.8804 -9.2348
# 6 13.3636 3.4686 10.7091 -0.0320 -9.2348 42.8081
#
#
#
# Elastic Compliance Matrix: (Units=1/GPa)
#
#
# Indices 1 2 3 4 5 6 
#
# 1 0.010907 -0.002262 -0.003792 0.001199 -0.000917 -0.002470
# 2 -0.002262 0.020681 -0.004795 -0.001395 0.003967 0.001085
# 3 -0.003792 -0.004795 0.015252 -0.001832 -0.001941 -0.002664
# 4 0.001199 -0.001395 -0.001832 0.029400 -0.004071 -0.000659
# 5 -0.000917 0.003967 -0.001941 -0.004071 0.025892 0.006033
# 6 -0.002470 0.001085 -0.002664 -0.000659 0.006033 0.026010
#
#
# Mechanical properties :
#
#
# Convention : Reuss Voigt Hill
#
# Bulk Modulus (GPa) = 39.77401 45.66267 42.71834
# Shear Modulus (GPa) = 31.60146 35.81961 33.71054
#
# Velocity S-wave (km/s) = 3.84280 4.09123 3.96896
# Velocity P-wave (km/s) = 6.18672 6.60722 6.40042
#
# Compressibility (1/GPa) = 0.02514205
#
# Stress axis : x y z
#
# Youngs Moduli (GPa) = 91.68437 48.35382 65.56424
#
# Poissons Ratio (x) = 0.10939 0.24861
# Poissons Ratio (y) = 0.20741 0.31438
# Poissons Ratio (z) = 0.34765 0.23186
#
# Static dielectric constant tensor:
#      x y z
#    x 1.815900 -0.059070 0.066520 
#    y -0.059070 1.796200 0.031210 
#    z 0.066520 0.031210 1.635290 
# 
# From -- ./inp_files/529865.got.cif
#   From: 2010.05.17/outbox.cif.g08.bks.cpg/sg2_265_cif.got.tgz:529865.got - 2010.06.03 11:33:40.
