data_PCOD9032409
_publ_section_title
;
Structure prediction by ZEFSAII (Michael W. Deem and Ramdas Pophale) SiO2 
 PCOD9032409
Probable space group: P -1
;
_chemical_formula_sum "Si O2"
_cell_formula_units_Z 14
_cell_length_a 8.341703
_cell_length_b 9.759376
_cell_length_c 9.554063
_cell_angle_alpha 72.450781
_cell_angle_beta 66.376243
_cell_angle_gamma 64.359613
_cell_volume 634.664355
_symmetry_space_group_name_H-M "P -1"
_symmetry_group_IT_number 2
_symmetry_cell_setting 'triclinic'
loop_
_space_group_symop_operation_xyz
x,y,z
-x,-y,-z
loop_
_atom_site_type_symbol
_atom_site_label
_atom_site_fract_x
_atom_site_fract_y
_atom_site_fract_z
Si Si1 0.306105 0.542219 0.466548
Si Si2 0.061835 0.068483 0.257960
Si Si3 0.267671 0.863895 0.479019
Si Si4 0.028817 0.853003 0.132413
Si Si5 0.310216 0.516488 0.138756
Si Si6 0.699174 0.734825 0.297729
Si Si7 0.830061 0.655763 0.972920
O O1 0.500000 0.500000 0.500000
O O2 0.215625 0.721816 0.477254
O O3 0.212701 0.428591 0.602358
O O4 0.671998 0.487773 0.697762
O O5 0.105621 0.201125 0.122412
O O6 0.838834 0.114705 0.342763
O O7 0.169127 0.022776 0.381462
O O8 0.129748 0.905652 0.206908
O O9 0.490269 0.817088 0.405324
O O10 0.832220 0.832813 0.238986
O O11 0.160711 0.682777 0.095844
O O12 0.000000 0.000000 0.000000
O O13 0.252361 0.383356 0.129427
O O14 0.500000 0.500000 0.000000
O O15 0.695997 0.699027 0.143449
O O16 0.000000 0.500000 0.000000
#
# Coordination Sequence:
#
# PCOD9032409 Si02
#       7
#     2   2   2   2   2   2   2
#     4  10  22  43  71 102 139 181 235 298 348 423
#     4  11  24  43  68 100 141 183 233 296 356 426
#     4  10  23  42  67  99 137 183 231 292 363 420
#     4  12  25  45  69 105 144 184 239 298 357 426
#     4  12  26  45  74 109 142 191 244 293 361 433
#     4  11  24  43  71 100 142 188 233 296 358 420
#     4  12  24  45  71 104 141 187 237 292 361 428
#
# _framework density 22.058903999999998
#
# number of rings (size 3 to 8) (size 9 to 14) (size 15 to 20)
#    0.000    0.857    4.286    2.571    0.000    8.571 
#    0.000    0.000    0.000    0.000    0.000    0.000 
#    0.000    0.000    0.000    0.000    0.000    0.000 
#
# Total GULP energy -78114.864016 kJ/mol
# GULP energy per Si atom -5579.633144 kJ/mol
# Density = 2.200870 g / cm^3
# Si number density = 22.058904 Si / 1000 Ang^3
#
#
#
# Elastic Constant Matrix: (Units=GPa)
#
#
# Indices 1 2 3 4 5 6 
#
# 1 58.2874 29.8298 21.4374 -10.9194 -0.9362 9.4268
# 2 29.8298 110.2338 46.4654 -23.5152 -9.0365 12.1162
# 3 21.4374 46.4654 111.2970 -27.3291 -3.3884 -1.8946
# 4 -10.9194 -23.5152 -27.3291 46.0120 0.7015 0.5524
# 5 -0.9362 -9.0365 -3.3884 0.7015 46.9870 4.7318
# 6 9.4268 12.1162 -1.8946 0.5524 4.7318 44.5702
#
#
#
# Elastic Compliance Matrix: (Units=1/GPa)
#
#
# Indices 1 2 3 4 5 6 
#
# 1 0.020834 -0.004093 -0.001939 0.001744 -0.000198 -0.003377
# 2 -0.004093 0.013060 -0.003797 0.003449 0.002422 -0.003146
# 3 -0.001939 -0.003797 0.012149 0.004795 -0.000157 0.001916
# 4 0.001744 0.003449 0.004795 0.026764 0.000797 -0.001519
# 5 -0.000198 0.002422 -0.000157 0.000797 0.022020 -0.002971
# 6 -0.003377 -0.003146 0.001916 -0.001519 -0.002971 0.024422
#
#
# Mechanical properties :
#
#
# Convention : Reuss Voigt Hill
#
# Bulk Modulus (GPa) = 37.90237 52.80927 45.35582
# Shear Modulus (GPa) = 33.85201 39.65286 36.75243
#
# Velocity S-wave (km/s) = 3.92167 4.24440 4.08622
# Velocity P-wave (km/s) = 6.14212 6.92907 6.54743
#
# Compressibility (1/GPa) = 0.02638357
#
# Stress axis : x y z
#
# Youngs Moduli (GPa) = 47.99804 76.57146 82.31267
#
# Poissons Ratio (x) = 0.31344 0.15963
# Poissons Ratio (y) = 0.19648 0.31253
# Poissons Ratio (z) = 0.09308 0.29073
#
# Static dielectric constant tensor:
#      x y z
#    x 1.928410 0.029070 0.072800 
#    y 0.029070 1.814610 0.045530 
#    z 0.072800 0.045530 1.877410 
# 
# From -- ./inp_files/378141.got.cif
#   From: 2010.05.17/outbox.cif.g08.bks.cpg/sg2_190_cif.got.tgz:378141.got - 2010.06.03 11:33:40.
