data_PCOD9032599
_publ_section_title
;
Structure prediction by ZEFSAII (Michael W. Deem and Ramdas Pophale) SiO2 
 PCOD9032599
Probable space group: P -1
;
_chemical_formula_sum "Si O2"
_cell_formula_units_Z 16
_cell_length_a 13.718985
_cell_length_b 8.877387
_cell_length_c 21.927457
_cell_angle_alpha 70.594859
_cell_angle_beta 162.935890
_cell_angle_gamma 108.937455
_cell_volume 738.893550
_symmetry_space_group_name_H-M "P -1"
_symmetry_group_IT_number 2
_symmetry_cell_setting 'triclinic'
loop_
_space_group_symop_operation_xyz
x,y,z
-x,-y,-z
loop_
_atom_site_type_symbol
_atom_site_label
_atom_site_fract_x
_atom_site_fract_y
_atom_site_fract_z
Si Si1 0.390653 0.228587 0.286537
Si Si2 0.707859 0.163529 0.601301
Si Si3 0.787936 0.515606 0.432127
Si Si4 0.629255 0.067009 0.761561
Si Si5 0.194905 0.613384 0.783249
Si Si6 0.437882 0.058212 0.024375
Si Si7 0.613562 0.167474 0.862364
Si Si8 0.533492 0.653637 0.454969
O O1 0.548714 0.272880 0.440309
O O2 0.528264 0.366998 0.306351
O O3 0.522008 0.060586 0.360220
O O4 0.001248 0.205151 0.072352
O O5 0.651935 0.228323 0.625618
O O6 0.500000 0.000000 0.500000
O O7 0.074967 0.130858 0.804215
O O8 0.574740 0.670614 0.275035
O O9 0.000000 0.500000 0.500000
O O10 0.024339 0.543464 0.629111
O O11 0.481119 0.056777 0.742202
O O12 0.605808 0.253221 0.701900
O O13 0.000000 0.000000 0.000000
O O14 0.323231 0.796942 0.829882
O O15 0.914325 0.631331 0.665123
O O16 0.500000 0.500000 0.000000
O O17 0.433938 0.914695 0.089850
O O18 0.500000 0.000000 0.000000
O O19 0.500000 0.500000 0.500000
#
# Coordination Sequence:
#
# PCOD9032599 Si02
#       8
#     2   2   2   2   2   2   2   2
#     4  11  24  45  76 102 145 188 253 306 368 446
#     4  12  22  44  73 109 137 187 247 306 369 446
#     4  12  29  48  70 106 151 202 245 305 380 451
#     4  10  22  43  72 109 139 186 246 312 372 436
#     4  12  29  51  70 110 155 200 250 310 385 455
#     4  12  28  47  76 111 151 193 245 313 389 457
#     4  11  25  47  73 106 142 192 253 310 376 445
#     4  12  24  45  74 105 144 193 252 309 368 443
#
# _framework density 21.654
#
# number of rings (size 3 to 8) (size 9 to 14) (size 15 to 20)
#    0.000    0.500    3.750    4.125    5.250    0.500 
#    2.250    0.000    0.000    0.000    0.000    0.000 
#    0.000    0.000    0.000    0.000    0.000    0.000 
#
# Total GULP energy -89128.879983 kJ/mol
# GULP energy per Si atom -5570.554999 kJ/mol
# Density = 2.160471 g / cm^3
# Si number density = 21.654000 Si / 1000 Ang^3
#
#
#
# Elastic Constant Matrix: (Units=GPa)
#
#
# Indices 1 2 3 4 5 6 
#
# 1 178.1888 47.8530 53.5223 -1.0176 21.8552 8.3987
# 2 47.8530 109.8435 45.4272 -4.6110 7.9719 24.7857
# 3 53.5223 45.4272 88.3535 -10.5548 16.1053 21.9386
# 4 -1.0176 -4.6110 -10.5548 42.4735 4.0468 -0.8052
# 5 21.8552 7.9719 16.1053 4.0468 42.8628 -4.4321
# 6 8.3987 24.7857 21.9386 -0.8052 -4.4321 36.9241
#
#
#
# Elastic Compliance Matrix: (Units=1/GPa)
#
#
# Indices 1 2 3 4 5 6 
#
# 1 0.007365 -0.001973 -0.003588 -0.000727 -0.001811 0.001548
# 2 -0.001973 0.012967 -0.003808 0.000360 -0.000636 -0.006061
# 3 -0.003588 -0.003808 0.019275 0.004702 -0.006049 -0.008703
# 4 -0.000727 0.000360 0.004702 0.025073 -0.004121 -0.002818
# 5 -0.001811 -0.000636 -0.006049 -0.004121 0.027828 0.007683
# 6 0.001548 -0.006061 -0.008703 -0.002818 0.007683 0.036831
#
#
# Mechanical properties :
#
#
# Convention : Reuss Voigt Hill
#
# Bulk Modulus (GPa) = 47.91793 74.44343 61.18068
# Shear Modulus (GPa) = 32.25101 39.75763 36.00432
#
# Velocity S-wave (km/s) = 3.86343 4.28955 4.08206
# Velocity P-wave (km/s) = 6.48679 7.68029 7.10863
#
# Compressibility (1/GPa) = 0.02086901
#
# Stress axis : x y z
#
# Youngs Moduli (GPa) = 135.78463 77.11774 51.88081
#
# Poissons Ratio (x) = 0.15214 0.18615
# Poissons Ratio (y) = 0.26788 0.19757
# Poissons Ratio (z) = 0.48719 0.29367
#
# Static dielectric constant tensor:
#      x y z
#    x 1.731160 -0.083010 0.127290 
#    y -0.083010 1.767520 0.253910 
#    z 0.127290 0.253910 1.465830 
# 
# From -- ./inp_files/594099.got.cif
#   From: 2010.05.17/outbox.cif.g08.bks.cpg/sg2_298_cif.got.tgz:594099.got - 2010.06.03 11:33:40.
