data_PCOD9032305
_publ_section_title
;
Structure prediction by ZEFSAII (Michael W. Deem and Ramdas Pophale) SiO2 
 PCOD9032305
Probable space group: P -1
;
_chemical_formula_sum "Si O2"
_cell_formula_units_Z 14
_cell_length_a 9.288251
_cell_length_b 9.448046
_cell_length_c 9.244128
_cell_angle_alpha 68.267043
_cell_angle_beta 70.895697
_cell_angle_gamma 64.296000
_cell_volume 665.395131
_symmetry_space_group_name_H-M "P -1"
_symmetry_group_IT_number 2
_symmetry_cell_setting 'triclinic'
loop_
_space_group_symop_operation_xyz
x,y,z
-x,-y,-z
loop_
_atom_site_type_symbol
_atom_site_label
_atom_site_fract_x
_atom_site_fract_y
_atom_site_fract_z
Si Si1 0.662348 0.978226 0.873277
Si Si2 0.468078 0.939065 0.688261
Si Si3 0.905722 0.174739 0.388840
Si Si4 0.609359 0.564754 0.834947
Si Si5 0.109882 0.358453 0.118798
Si Si6 0.213271 0.733248 0.309895
Si Si7 0.096743 0.026343 0.814751
O O1 0.607716 0.965492 0.731893
O O2 0.796076 0.806984 0.937165
O O3 0.718029 0.129207 0.818768
O O4 0.500000 0.000000 0.000000
O O5 0.505632 0.745820 0.747803
O O6 0.281314 0.024004 0.774468
O O7 0.500000 0.000000 0.500000
O O8 0.775478 0.264506 0.520440
O O9 0.875029 0.119047 0.259341
O O10 0.008505 0.292080 0.289583
O O11 0.000000 0.000000 0.500000
O O12 0.758285 0.582340 0.870303
O O13 0.685643 0.436965 0.730782
O O14 0.500000 0.500000 0.000000
O O15 0.000000 0.500000 0.000000
O O16 0.025783 0.808333 0.284743
O O17 0.000000 0.000000 0.000000
#
# Coordination Sequence:
#
# PCOD9032305 Si02
#       7
#     2   2   2   2   2   2   2
#     4  11  22  44  67  97 134 181 223 276 345 410
#     4  11  26  44  69 101 142 176 225 289 351 402
#     4  10  22  43  70  95 138 174 229 280 339 396
#     4  11  26  46  67 101 143 180 224 285 348 411
#     4  11  25  43  69  98 137 175 228 283 336 403
#     4  11  23  43  72  96 133 185 229 280 340 406
#     4  11  22  40  73 101 131 179 238 272 336 415
#
# _framework density 21.040127999999999
#
# number of rings (size 3 to 8) (size 9 to 14) (size 15 to 20)
#    0.000    1.143    2.857    4.286   10.000    0.571 
#    2.571    1.429    0.000    0.000    0.000    0.000 
#    0.000    0.000    0.000    0.000    0.000    0.000 
#
# Total GULP energy -78162.951704 kJ/mol
# GULP energy per Si atom -5583.067979 kJ/mol
# Density = 2.099224 g / cm^3
# Si number density = 21.040128 Si / 1000 Ang^3
#
#
#
# Elastic Constant Matrix: (Units=GPa)
#
#
# Indices 1 2 3 4 5 6 
#
# 1 92.3308 25.3110 25.6545 -17.2089 -7.7902 -2.9753
# 2 25.3110 81.5041 32.9823 -6.4609 -1.3802 -1.9671
# 3 25.6545 32.9823 125.3919 -8.2950 -6.0072 -5.9582
# 4 -17.2089 -6.4609 -8.2950 43.2537 4.5393 -3.0398
# 5 -7.7902 -1.3802 -6.0072 4.5393 34.9804 -1.1454
# 6 -2.9753 -1.9671 -5.9582 -3.0398 -1.1454 36.8432
#
#
#
# Elastic Compliance Matrix: (Units=1/GPa)
#
#
# Indices 1 2 3 4 5 6 
#
# 1 0.013086 -0.003080 -0.001432 0.004336 0.002020 0.001081
# 2 -0.003080 0.014542 -0.003201 0.000409 -0.000714 0.000022
# 3 -0.001432 -0.003201 0.009271 0.000707 0.001098 0.001305
# 4 0.004336 0.000409 0.000707 0.025440 -0.002116 0.002519
# 5 0.002020 -0.000714 0.001098 -0.002116 0.029506 0.001045
# 6 0.001081 0.000022 0.001305 0.002519 0.001045 0.027682
#
#
# Mechanical properties :
#
#
# Convention : Reuss Voigt Hill
#
# Bulk Modulus (GPa) = 46.57070 51.90250 49.23660
# Shear Modulus (GPa) = 35.18326 37.36738 36.27532
#
# Velocity S-wave (km/s) = 4.09369 4.21884 4.15674
# Velocity P-wave (km/s) = 6.67283 6.96085 6.81836
#
# Compressibility (1/GPa) = 0.02147273
#
# Stress axis : x y z
#
# Youngs Moduli (GPa) = 76.41544 68.76571 107.85918
#
# Poissons Ratio (x) = 0.21182 0.15448
# Poissons Ratio (y) = 0.23539 0.34525
# Poissons Ratio (z) = 0.10944 0.22012
#
# Static dielectric constant tensor:
#      x y z
#    x 1.840370 0.023760 0.041070 
#    y 0.023760 1.756500 0.056780 
#    z 0.041070 0.056780 1.776060 
# 
# From -- ./inp_files/157109.got.cif
#   From: 2010.05.17/outbox.cif.g08.bks.cpg/sg2_79_cif.got.tgz:157109.got - 2010.06.03 11:33:40.
