data_PCOD9032269
_publ_section_title
;
Structure prediction by ZEFSAII (Michael W. Deem and Ramdas Pophale) SiO2 
 PCOD9032269
Probable space group: P -1
;
_chemical_formula_sum "Si O2"
_cell_formula_units_Z 14
_cell_length_a 10.025123
_cell_length_b 7.513169
_cell_length_c 8.388022
_cell_angle_alpha 101.893310
_cell_angle_beta 95.970653
_cell_angle_gamma 82.479659
_cell_volume 610.973222
_symmetry_space_group_name_H-M "P -1"
_symmetry_group_IT_number 2
_symmetry_cell_setting 'triclinic'
loop_
_space_group_symop_operation_xyz
x,y,z
-x,-y,-z
loop_
_atom_site_type_symbol
_atom_site_label
_atom_site_fract_x
_atom_site_fract_y
_atom_site_fract_z
Si Si1 0.526250 0.464248 0.811597
Si Si2 0.111906 0.834598 0.444248
Si Si3 0.859316 0.917854 0.973580
Si Si4 0.754766 0.435208 0.346888
Si Si5 0.932418 0.615577 0.159808
Si Si6 0.342768 0.925908 0.247852
Si Si7 0.722224 0.684140 0.689795
O O1 0.401182 0.559597 0.714533
O O2 0.546420 0.245091 0.753900
O O3 0.657886 0.546245 0.774723
O O4 0.500000 0.500000 0.000000
O O5 0.227828 0.899069 0.358339
O O6 0.041097 0.682654 0.307997
O O7 0.000000 0.000000 0.500000
O O8 0.177546 0.748386 0.597533
O O9 0.147374 0.197850 0.888189
O O10 0.846771 0.768060 0.804269
O O11 0.000000 0.000000 0.000000
O O12 0.834102 0.494918 0.215813
O O13 0.760461 0.589283 0.512110
O O14 0.734502 0.065777 0.933311
O O15 0.000000 0.500000 0.000000
O O16 0.381726 0.130758 0.310357
#
# Coordination Sequence:
#
# PCOD9032269 Si02
#       7
#     2   2   2   2   2   2   2
#     4  12  27  49  75 108 151 202 254 307 370 453
#     4  12  26  46  72 111 150 193 252 316 377 455
#     4  10  22  43  70 106 146 193 237 307 373 438
#     4  12  27  47  76 107 149 202 252 303 384 449
#     4  12  26  42  73 105 149 194 246 310 382 445
#     4  10  25  46  76 107 151 186 257 300 376 440
#     4  10  23  48  72 106 152 191 253 308 371 442
#
# _framework density 22.914262000000001
#
# number of rings (size 3 to 8) (size 9 to 14) (size 15 to 20)
#    0.857    0.000    2.857    3.429    4.000    2.286 
#    2.571    0.000    0.000    0.000    0.000    0.000 
#    0.000    0.000    0.000    0.000    0.000    0.000 
#
# Total GULP energy -78324.281445 kJ/mol
# GULP energy per Si atom -5594.591532 kJ/mol
# Density = 2.286211 g / cm^3
# Si number density = 22.914262 Si / 1000 Ang^3
#
#
#
# Elastic Constant Matrix: (Units=GPa)
#
#
# Indices 1 2 3 4 5 6 
#
# 1 76.9950 36.1505 38.9537 -8.4247 7.5067 -23.1666
# 2 36.1505 144.6046 19.7859 -20.7895 -6.1126 -30.8433
# 3 38.9537 19.7859 79.9928 3.0634 -7.2382 -3.2155
# 4 -8.4247 -20.7895 3.0634 45.0150 -1.3770 -0.3955
# 5 7.5067 -6.1126 -7.2382 -1.3770 39.1464 0.5517
# 6 -23.1666 -30.8433 -3.2155 -0.3955 0.5517 44.3988
#
#
#
# Elastic Compliance Matrix: (Units=1/GPa)
#
#
# Indices 1 2 3 4 5 6 
#
# 1 0.024096 -0.001852 -0.011655 0.004324 -0.007062 0.010569
# 2 -0.001852 0.009382 -0.001208 0.004168 0.001666 0.005480
# 3 -0.011655 -0.001208 0.018894 -0.003907 0.005482 -0.005655
# 4 0.004324 0.004168 -0.003907 0.025257 -0.000084 0.005095
# 5 -0.007062 0.001666 0.005482 -0.000084 0.028205 -0.002481
# 6 0.010569 0.005480 -0.005655 0.005095 -0.002481 0.031512
#
#
# Mechanical properties :
#
#
# Convention : Reuss Voigt Hill
#
# Bulk Modulus (GPa) = 43.58718 54.59695 49.09206
# Shear Modulus (GPa) = 28.66612 39.49220 34.07916
#
# Velocity S-wave (km/s) = 3.54081 4.15598 3.86067
# Velocity P-wave (km/s) = 5.98160 6.84894 6.42991
#
# Compressibility (1/GPa) = 0.02294253
#
# Stress axis : x y z
#
# Youngs Moduli (GPa) = 41.50140 106.58606 52.92697
#
# Poissons Ratio (x) = 0.19735 0.61689
# Poissons Ratio (y) = 0.07684 0.06391
# Poissons Ratio (z) = 0.48372 0.12871
#
# Static dielectric constant tensor:
#      x y z
#    x 1.878640 -0.071440 0.018880 
#    y -0.071440 1.897540 0.013310 
#    z 0.018880 0.013310 1.847190 
# 
# From -- ./inp_files/245868.got.cif
#   From: 2010.05.17/outbox.cif.g08.bks.cpg/sg2_123_cif.got.tgz:245868.got - 2010.06.03 11:33:40.
