data_PCOD9032858
_publ_section_title
;
Structure prediction by ZEFSAII (Michael W. Deem and Ramdas Pophale) SiO2 
 PCOD9032858
Probable space group: P -1
;
_chemical_formula_sum "Si O2"
_cell_formula_units_Z 13
_cell_length_a 13.506289
_cell_length_b 8.488340
_cell_length_c 11.625242
_cell_angle_alpha 144.627706
_cell_angle_beta 44.245893
_cell_angle_gamma 125.046188
_cell_volume 538.167666
_symmetry_space_group_name_H-M "P -1"
_symmetry_group_IT_number 2
_symmetry_cell_setting 'triclinic'
loop_
_space_group_symop_operation_xyz
x,y,z
-x,-y,-z
loop_
_atom_site_type_symbol
_atom_site_label
_atom_site_fract_x
_atom_site_fract_y
_atom_site_fract_z
Si Si1 0.901714 0.025459 0.969940
Si Si2 0.500000 0.500000 0.000000
Si Si3 0.226050 0.375657 0.007068
Si Si4 0.373778 0.429624 0.676597
Si Si5 0.133690 0.356214 0.648609
Si Si6 0.417563 0.956613 0.838785
Si Si7 0.007838 0.834939 0.549914
O O1 0.933220 0.341892 0.122697
O O2 0.749772 0.015580 0.025285
O O3 0.864026 0.890801 0.042863
O O4 0.999774 0.836833 0.694825
O O5 0.631087 0.629941 0.039426
O O6 0.510698 0.753238 0.045907
O O7 0.274230 0.388134 0.843515
O O8 0.134355 0.638180 0.282056
O O9 0.278510 0.370008 0.606883
O O10 0.428216 0.736197 0.802293
O O11 0.503314 0.211932 0.431566
O O12 0.131125 0.255900 0.458899
O O13 0.038445 0.141338 0.666857
#
# Coordination Sequence:
#
# PCOD9032858 Si02
#       7
#     2   1   2   2   2   2   2
#     4  10  23  45  64  97 135 173 216 271 325 393
#     4  10  22  44  60 100 126 166 220 270 322 380
#     4  11  25  43  67  96 134 172 220 269 331 385
#     4  10  22  44  67  95 130 175 218 267 325 393
#     4  10  24  42  69  96 132 176 218 269 325 384
#     4   9  21  43  64  94 129 168 219 267 326 381
#     4  11  24  42  69  99 130 174 220 268 324 395
#
# _framework density 24.156040000000001
#
# number of rings (size 3 to 8) (size 9 to 14) (size 15 to 20)
#    0.000    1.846    0.000    1.846   10.769    3.692 
#   24.923    0.000    0.000    0.000    0.000    0.000 
#    0.000    0.000    0.000    0.000    0.000    0.000 
#
# Total GULP energy -72385.386597 kJ/mol
# GULP energy per Si atom -5568.106661 kJ/mol
# Density = 2.410106 g / cm^3
# Si number density = 24.156040 Si / 1000 Ang^3
#
#
#
# Elastic Constant Matrix: (Units=GPa)
#
#
# Indices 1 2 3 4 5 6 
#
# 1 72.9011 -4.2401 12.1794 -2.0155 10.8568 -5.1099
# 2 -4.2401 149.5358 57.3968 10.8951 23.8437 -11.9435
# 3 12.1794 57.3968 98.3024 -15.0767 8.2871 -14.4840
# 4 -2.0155 10.8951 -15.0767 43.5181 -4.3813 9.8464
# 5 10.8568 23.8437 8.2871 -4.3813 29.7681 2.6365
# 6 -5.1099 -11.9435 -14.4840 9.8464 2.6365 32.8449
#
#
#
# Elastic Compliance Matrix: (Units=1/GPa)
#
#
# Indices 1 2 3 4 5 6 
#
# 1 0.015943 0.003606 -0.003239 -0.003050 -0.008602 0.003968
# 2 0.003606 0.012134 -0.007057 -0.007508 -0.010615 0.004964
# 3 -0.003239 -0.007057 0.015710 0.007066 0.003370 0.001469
# 4 -0.003050 -0.007508 0.007066 0.030507 0.010542 -0.010080
# 5 -0.008602 -0.010615 0.003370 0.010542 0.046787 -0.010628
# 6 0.003968 0.004964 0.001469 -0.010080 -0.010628 0.037392
#
#
# Mechanical properties :
#
#
# Convention : Reuss Voigt Hill
#
# Bulk Modulus (GPa) = 32.88586 50.15685 41.52135
# Shear Modulus (GPa) = 27.47420 38.25309 32.86365
#
# Velocity S-wave (km/s) = 3.37614 3.98374 3.69246
# Velocity P-wave (km/s) = 5.37041 6.47835 5.95022
#
# Compressibility (1/GPa) = 0.03040821
#
# Stress axis : x y z
#
# Youngs Moduli (GPa) = 62.72409 82.41117 63.65171
#
# Poissons Ratio (x) = -0.29717 0.20615
# Poissons Ratio (y) = -0.22618 0.44918
# Poissons Ratio (z) = 0.20314 0.58157
#
# Static dielectric constant tensor:
#      x y z
#    x 2.027840 -0.034980 -0.011030 
#    y -0.034980 1.928730 0.010210 
#    z -0.011030 0.010210 1.894900 
# 
# From -- ./inp_files/76016.got.cif
#   From: 2010.05.17/outbox.cif.g08.bks.cpg/sg2_39_cif.got.tgz:76016.got - 2010.06.03 11:33:40.
