data_PCOD9032121
_publ_section_title
;
Structure prediction by ZEFSAII (Michael W. Deem and Ramdas Pophale) SiO2 
 PCOD9032121
Probable space group: P -1
;
_chemical_formula_sum "Si O2"
_cell_formula_units_Z 14
_cell_length_a 14.719809
_cell_length_b 8.309571
_cell_length_c 15.117123
_cell_angle_alpha 43.484845
_cell_angle_beta 151.064916
_cell_angle_gamma 136.853675
_cell_volume 590.248148
_symmetry_space_group_name_H-M "P -1"
_symmetry_group_IT_number 2
_symmetry_cell_setting 'triclinic'
loop_
_space_group_symop_operation_xyz
x,y,z
-x,-y,-z
loop_
_atom_site_type_symbol
_atom_site_label
_atom_site_fract_x
_atom_site_fract_y
_atom_site_fract_z
Si Si1 0.654353 0.683109 0.494518
Si Si2 0.393556 0.816897 0.795362
Si Si3 0.586996 0.577208 0.178159
Si Si4 0.362254 0.466887 0.196048
Si Si5 0.957543 0.019058 0.850302
Si Si6 0.074086 0.743170 0.908737
Si Si7 0.023366 0.467842 0.426127
O O1 0.500000 0.500000 0.500000
O O2 0.576035 0.555636 0.386464
O O3 0.883942 0.740223 0.688519
O O4 0.601226 0.936050 0.346477
O O5 0.409384 0.623566 0.811915
O O6 0.182399 0.715887 0.702418
O O7 0.552809 0.808575 0.007650
O O8 0.404743 0.455527 0.133948
O O9 0.793496 0.639302 0.378163
O O10 0.240704 0.206824 0.236220
O O11 0.247352 0.669411 0.034679
O O12 0.102014 0.952148 0.925603
O O13 0.938280 0.279212 0.696613
O O14 0.000000 0.000000 0.000000
O O15 0.000000 0.500000 0.000000
O O16 0.000000 0.500000 0.500000
#
# Coordination Sequence:
#
# PCOD9032121 Si02
#       7
#     2   2   2   2   2   2   2
#     4  12  24  45  71  99 134 183 234 284 353 415
#     4  10  24  45  71  98 138 182 234 290 349 416
#     4  10  23  45  68 105 135 184 233 287 347 418
#     4  11  26  43  68 106 142 180 235 281 356 417
#     4  11  23  42  72 107 137 184 238 297 348 410
#     4  10  22  44  65  99 141 183 221 288 353 412
#     4  10  22  43  69  97 138 180 231 284 351 409
#
# _framework density 23.718838000000002
#
# number of rings (size 3 to 8) (size 9 to 14) (size 15 to 20)
#    0.000    1.429    2.857    2.571    0.000   10.286 
#    0.000    1.429    0.000    0.000    0.000    0.000 
#    0.000    0.000    0.000    0.000    0.000    0.000 
#
# Total GULP energy -78119.828025 kJ/mol
# GULP energy per Si atom -5579.987716 kJ/mol
# Density = 2.366485 g / cm^3
# Si number density = 23.718838 Si / 1000 Ang^3
#
#
#
# Elastic Constant Matrix: (Units=GPa)
#
#
# Indices 1 2 3 4 5 6 
#
# 1 89.1195 20.7937 55.3411 10.2390 10.5933 34.5779
# 2 20.7937 110.7652 60.2818 -25.8773 -1.2917 13.4018
# 3 55.3411 60.2818 178.8796 -19.8329 -6.1353 6.2277
# 4 10.2390 -25.8773 -19.8329 40.6781 0.5521 -17.0990
# 5 10.5933 -1.2917 -6.1353 0.5521 20.1385 1.3313
# 6 34.5779 13.4018 6.2277 -17.0990 1.3313 20.4349
#
#
#
# Elastic Compliance Matrix: (Units=1/GPa)
#
#
# Indices 1 2 3 4 5 6 
#
# 1 -0.017515 0.000178 0.007087 0.029594 0.007157 0.051657
# 2 0.000178 0.012477 -0.003632 0.004678 -0.000301 -0.003444
# 3 0.007087 -0.003632 0.004125 -0.010187 -0.001148 -0.019316
# 4 0.029594 0.004678 -0.010187 -0.008173 -0.014448 -0.055938
# 5 0.007157 -0.000301 -0.001148 -0.014448 0.047688 -0.026761
# 6 0.051657 -0.003444 -0.019316 -0.055938 -0.026761 -0.075390
#
#
# Mechanical properties :
#
#
# Convention : Reuss Voigt Hill
#
# Bulk Modulus (GPa) = 157.36016 72.39971 114.87993
# Shear Modulus (GPa) = -119.22841 32.40681 -43.41080
#
# Velocity S-wave (km/s) = -7.09764 3.70035 -4.28275
# Velocity P-wave (km/s) = 0.82505 6.98907 4.90747
#
# Compressibility (1/GPa) = 0.00635485
#
# Stress axis : x y z
#
# Youngs Moduli (GPa) = -57.09457 80.14605 242.39744
#
# Poissons Ratio (x) = -0.01430 -1.71781
# Poissons Ratio (y) = 0.01019 0.88031
# Poissons Ratio (z) = 0.40462 0.29107
#
# Static dielectric constant tensor:
#      x y z
#    x 1.931900 -0.079450 -0.086990 
#    y -0.079450 1.821310 -0.011470 
#    z -0.086990 -0.011470 1.908630 
# 
# From -- ./inp_files/529329.got.cif
#   From: 2010.05.17/outbox.cif.g08.bks.cpg/sg2_265_cif.got.tgz:529329.got - 2010.06.03 11:33:40.
