data_PCOD9032494
_publ_section_title
;
Structure prediction by ZEFSAII (Michael W. Deem and Ramdas Pophale) SiO2 
 PCOD9032494
Probable space group: P -1
;
_chemical_formula_sum "Si O2"
_cell_formula_units_Z 16
_cell_length_a 11.241468
_cell_length_b 7.716274
_cell_length_c 10.553061
_cell_angle_alpha 62.487161
_cell_angle_beta 48.379221
_cell_angle_gamma 81.056639
_cell_volume 590.892247
_symmetry_space_group_name_H-M "P -1"
_symmetry_group_IT_number 2
_symmetry_cell_setting 'triclinic'
loop_
_space_group_symop_operation_xyz
x,y,z
-x,-y,-z
loop_
_atom_site_type_symbol
_atom_site_label
_atom_site_fract_x
_atom_site_fract_y
_atom_site_fract_z
Si Si1 0.800066 0.379017 0.053320
Si Si2 0.275761 0.979255 0.616593
Si Si3 0.358829 0.557422 0.416143
Si Si4 0.098633 0.769688 0.412806
Si Si5 0.788973 0.758825 0.809457
Si Si6 0.547005 0.711456 0.787004
Si Si7 0.660023 0.795680 0.263810
Si Si8 0.046509 0.851257 0.156068
O O1 0.643842 0.302189 0.095479
O O2 0.760546 0.257866 0.252788
O O3 0.816709 0.615647 0.953766
O O4 0.946651 0.295399 0.917618
O O5 0.349205 0.067482 0.403108
O O6 0.386348 0.085765 0.620143
O O7 0.111808 0.063757 0.727420
O O8 0.215644 0.658026 0.440914
O O9 0.400705 0.429618 0.310229
O O10 0.518291 0.723710 0.287233
O O11 0.315624 0.406453 0.616643
O O12 0.072812 0.716491 0.302183
O O13 0.927912 0.742371 0.614793
O O14 0.179857 0.007588 0.263338
O O15 0.615064 0.683981 0.887299
O O16 0.811530 0.953584 0.043360
#
# Coordination Sequence:
#
# PCOD9032494 Si02
#       8
#     2   2   2   2   2   2   2   2
#     4  11  24  40  69  99 128 172 216 277 322 383
#     4  10  22  43  71  97 131 175 218 264 329 393
#     4  10  23  42  70  95 132 176 215 267 331 390
#     4  11  26  44  66  94 132 182 210 278 326 384
#     4  11  26  44  62  97 137 167 228 267 330 384
#     4  11  23  44  66  99 133 171 217 271 327 393
#     4   9  21  40  65 104 125 158 226 271 311 392
#     4  11  23  43  71  99 127 177 223 263 324 396
#
# _framework density 27.077694999999999
#
# number of rings (size 3 to 8) (size 9 to 14) (size 15 to 20)
#    0.000    1.500    1.250    3.000   10.500    1.500 
#    2.250    0.625    0.000    0.000    0.000    0.000 
#    0.000    0.000    0.000    0.000    0.000    0.000 
#
# Total GULP energy -89719.992341 kJ/mol
# GULP energy per Si atom -5607.499521 kJ/mol
# Density = 2.701606 g / cm^3
# Si number density = 27.077695 Si / 1000 Ang^3
#
#
#
# Elastic Constant Matrix: (Units=GPa)
#
#
# Indices 1 2 3 4 5 6 
#
# 1 95.4367 27.3120 18.2007 -9.2912 1.4282 -21.1442
# 2 27.3120 115.0984 22.3797 -16.6336 2.0211 -13.1029
# 3 18.2007 22.3797 104.3492 -12.8649 6.7601 -15.7682
# 4 -9.2912 -16.6336 -12.8649 40.2572 -6.9497 3.9271
# 5 1.4282 2.0211 6.7601 -6.9497 52.5551 -8.3155
# 6 -21.1442 -13.1029 -15.7682 3.9271 -8.3155 49.0388
#
#
#
# Elastic Compliance Matrix: (Units=1/GPa)
#
#
# Indices 1 2 3 4 5 6 
#
# 1 0.012363 -0.002054 -0.000911 0.001405 0.000759 0.004505
# 2 -0.002054 0.010012 -0.001238 0.003227 0.000448 0.001209
# 3 -0.000911 -0.001238 0.010704 0.002357 -0.000609 0.002426
# 4 0.001405 0.003227 0.002357 0.027765 0.003295 0.000561
# 5 0.000759 0.000448 -0.000609 0.003295 0.020039 0.003385
# 6 0.004505 0.001209 0.002426 0.000561 0.003385 0.023967
#
#
# Mechanical properties :
#
#
# Convention : Reuss Voigt Hill
#
# Bulk Modulus (GPa) = 40.52735 50.07435 45.30085
# Shear Modulus (GPa) = 41.15853 44.83635 42.99744
#
# Velocity S-wave (km/s) = 3.90297 4.07362 3.98920
# Velocity P-wave (km/s) = 5.94226 6.37642 6.16317
#
# Compressibility (1/GPa) = 0.02467469
#
# Stress axis : x y z
#
# Youngs Moduli (GPa) = 80.88489 99.87657 93.42079
#
# Poissons Ratio (x) = 0.20514 0.08511
# Poissons Ratio (y) = 0.16613 0.11561
# Poissons Ratio (z) = 0.07369 0.12360
#
# Static dielectric constant tensor:
#      x y z
#    x 2.143040 0.008660 -0.044420 
#    y 0.008660 2.126920 -0.055100 
#    z -0.044420 -0.055100 2.109490 
# 
# From -- ./inp_files/418831.got.cif
#   From: 2010.05.17/outbox.cif.g08.bks.cpg/sg2_210_cif.got.tgz:418831.got - 2010.06.03 11:33:40.
