data_PCOD9032924
_publ_section_title
;
Structure prediction by ZEFSAII (Michael W. Deem and Ramdas Pophale) SiO2 
 PCOD9032924
Probable space group: P -1
;
_chemical_formula_sum "Si O2"
_cell_formula_units_Z 14
_cell_length_a 11.863695
_cell_length_b 12.944229
_cell_length_c 5.304394
_cell_angle_alpha 82.386483
_cell_angle_beta 81.081226
_cell_angle_gamma 133.785707
_cell_volume 547.145288
_symmetry_space_group_name_H-M "P -1"
_symmetry_group_IT_number 2
_symmetry_cell_setting 'triclinic'
loop_
_space_group_symop_operation_xyz
x,y,z
-x,-y,-z
loop_
_atom_site_type_symbol
_atom_site_label
_atom_site_fract_x
_atom_site_fract_y
_atom_site_fract_z
Si Si1 0.936148 0.064919 0.605132
Si Si2 0.695333 0.629260 0.558420
Si Si3 0.642658 0.176918 0.667903
Si Si4 0.890441 0.232842 0.249871
Si Si5 0.582551 0.433601 0.165197
Si Si6 0.833174 0.437240 0.942354
Si Si7 0.301134 0.988056 0.003983
O O1 0.869693 0.104363 0.413935
O O2 0.785570 0.964899 0.889344
O O3 0.108992 0.228578 0.582501
O O4 0.000000 0.000000 0.500000
O O5 0.647668 0.552629 0.326252
O O6 0.612218 0.684575 0.658354
O O7 0.624985 0.507490 0.847839
O O8 0.749369 0.224606 0.367964
O O9 0.752984 0.318350 0.779873
O O10 0.624941 0.043837 0.806873
O O11 0.460516 0.105123 0.732528
O O12 0.063978 0.391352 0.236882
O O13 0.854239 0.183312 0.989788
O O14 0.679384 0.388071 0.162678
O O15 0.000000 0.500000 0.000000
#
# Coordination Sequence:
#
# PCOD9032924 Si02
#       7
#     2   2   2   2   2   2   2
#     4  11  25  41  67  91 129 173 230 278 341 405
#     4  10  22  45  67  97 134 183 227 287 343 407
#     4  10  23  39  65  95 132 172 216 269 337 409
#     4  11  22  43  66  93 130 174 221 278 344 406
#     4  10  23  42  70  96 140 177 225 288 352 404
#     4  12  23  39  68 102 133 173 226 281 343 412
#     4  10  22  44  63  92 135 171 215 275 335 415
#
# _framework density 25.587353
#
# number of rings (size 3 to 8) (size 9 to 14) (size 15 to 20)
#    0.000    1.429    2.857    1.714    4.000    1.714 
#    0.000    1.429    0.000    0.000    0.000    0.000 
#    0.000    0.000    0.000    0.000    0.000    0.000 
#
# Total GULP energy -77972.565294 kJ/mol
# GULP energy per Si atom -5569.468950 kJ/mol
# Density = 2.552911 g / cm^3
# Si number density = 25.587353 Si / 1000 Ang^3
#
#
#
# Elastic Constant Matrix: (Units=GPa)
#
#
# Indices 1 2 3 4 5 6 
#
# 1 188.5496 34.1216 55.6863 8.5127 -66.6772 -2.2955
# 2 34.1216 77.6388 19.7429 19.6796 -11.7845 7.0910
# 3 55.6863 19.7429 87.1940 12.5279 -39.6248 6.2235
# 4 8.5127 19.6796 12.5279 37.7501 2.6314 -6.9161
# 5 -66.6772 -11.7845 -39.6248 2.6314 56.2123 4.3097
# 6 -2.2955 7.0910 6.2235 -6.9161 4.3097 38.2412
#
#
#
# Elastic Compliance Matrix: (Units=1/GPa)
#
#
# Indices 1 2 3 4 5 6 
#
# 1 0.009752 -0.001980 -0.000514 -0.001854 0.010917 -0.000530
# 2 -0.001980 0.016940 0.000161 -0.009552 0.002167 -0.005258
# 3 -0.000514 0.000161 0.020093 -0.008850 0.014505 -0.006566
# 4 -0.001854 -0.009552 -0.008850 0.037829 -0.013087 0.011417
# 5 0.010917 0.002167 0.014505 -0.013087 0.042743 -0.009291
# 6 -0.000530 -0.005258 -0.006566 0.011417 -0.009291 0.031273
#
#
# Mechanical properties :
#
#
# Convention : Reuss Voigt Hill
#
# Bulk Modulus (GPa) = 23.74237 63.60932 43.67585
# Shear Modulus (GPa) = 28.19544 42.69616 35.44580
#
# Velocity S-wave (km/s) = 3.32313 4.08933 3.72598
# Velocity P-wave (km/s) = 4.90136 6.87099 5.96799
#
# Compressibility (1/GPa) = 0.04211879
#
# Stress axis : x y z
#
# Youngs Moduli (GPa) = 102.54710 59.03320 49.76974
#
# Poissons Ratio (x) = 0.11686 0.02559
# Poissons Ratio (y) = 0.20300 -0.00803
# Poissons Ratio (z) = 0.05274 -0.00952
#
# Static dielectric constant tensor:
#      x y z
#    x 2.140090 -0.068620 0.097980 
#    y -0.068620 2.304950 -0.175810 
#    z 0.097980 -0.175810 2.212240 
# 
# From -- ./inp_files/71138.got.cif
#   From: 2010.05.17/outbox.cif.g08.bks.cpg/sg2_36_cif.got.tgz:71138.got - 2010.06.03 11:33:40.
