data_PCOD9032243
_publ_section_title
;
Structure prediction by ZEFSAII (Michael W. Deem and Ramdas Pophale) SiO2 
 PCOD9032243
Probable space group: P -1
;
_chemical_formula_sum "Si O2"
_cell_formula_units_Z 16
_cell_length_a 9.616691
_cell_length_b 9.387939
_cell_length_c 14.982367
_cell_angle_alpha 137.168421
_cell_angle_beta 78.923585
_cell_angle_gamma 74.055697
_cell_volume 705.976432
_symmetry_space_group_name_H-M "P -1"
_symmetry_group_IT_number 2
_symmetry_cell_setting 'triclinic'
loop_
_space_group_symop_operation_xyz
x,y,z
-x,-y,-z
loop_
_atom_site_type_symbol
_atom_site_label
_atom_site_fract_x
_atom_site_fract_y
_atom_site_fract_z
Si Si1 0.823874 0.769218 0.109754
Si Si2 0.803165 0.580178 0.559807
Si Si3 0.566745 0.704301 0.334625
Si Si4 0.631336 0.305474 0.474607
Si Si5 0.326376 0.487377 0.095348
Si Si6 0.001851 0.760454 0.914968
Si Si7 0.382169 0.862109 0.235106
Si Si8 0.708242 0.745222 0.846005
O O1 0.711294 0.004668 0.302012
O O2 0.731395 0.659264 0.022903
O O3 0.000000 0.500000 0.000000
O O4 0.892449 0.856830 0.064787
O O5 0.784471 0.345279 0.458045
O O6 0.721412 0.704662 0.722332
O O7 0.000000 0.500000 0.500000
O O8 0.691450 0.832436 0.620522
O O9 0.473876 0.633198 0.388775
O O10 0.786635 0.499033 0.221469
O O11 0.502982 0.722278 0.247165
O O12 0.500000 0.000000 0.500000
O O13 0.500000 0.500000 0.500000
O O14 0.244383 0.792543 0.229423
O O15 0.280793 0.470809 0.193856
O O16 0.531894 0.286221 0.940032
O O17 0.873780 0.740406 0.856275
O O18 0.000000 0.000000 0.000000
O O19 0.500000 0.000000 0.000000
#
# Coordination Sequence:
#
# PCOD9032243 Si02
#       8
#     2   2   2   2   2   2   2   2
#     4  11  24  45  69 102 141 186 248 304 367 439
#     4  12  29  47  72 112 151 197 252 309 379 454
#     4  12  26  47  74 110 151 200 247 310 382 453
#     4  12  27  47  76 103 154 200 243 309 383 447
#     4  10  22  43  70 103 135 190 244 299 369 437
#     4  11  27  42  75 107 139 186 254 306 356 444
#     4  11  24  43  73 103 148 190 243 307 377 437
#     4  11  25  47  74 104 150 191 249 307 374 450
#
# _framework density 22.663644000000001
#
# number of rings (size 3 to 8) (size 9 to 14) (size 15 to 20)
#    0.000    0.750    1.250    5.250   12.250    0.000 
#    0.000    1.250    0.000    0.000    0.000    0.000 
#    0.000    0.000    0.000    0.000    0.000    0.000 
#
# Total GULP energy -89093.232919 kJ/mol
# GULP energy per Si atom -5568.327057 kJ/mol
# Density = 2.261206 g / cm^3
# Si number density = 22.663644 Si / 1000 Ang^3
#
#
#
# Elastic Constant Matrix: (Units=GPa)
#
#
# Indices 1 2 3 4 5 6 
#
# 1 112.3861 51.9125 28.7732 11.3213 -8.7957 18.1632
# 2 51.9125 90.1826 -12.1134 17.3299 39.3553 13.9455
# 3 28.7732 -12.1134 57.8309 21.9256 29.0440 -10.3549
# 4 11.3213 17.3299 21.9256 15.1306 -26.9088 -5.3581
# 5 -8.7957 39.3553 29.0440 -26.9088 -10.7851 2.8029
# 6 18.1632 13.9455 -10.3549 -5.3581 2.8029 45.2658
#
#
#
# Elastic Compliance Matrix: (Units=1/GPa)
#
#
# Indices 1 2 3 4 5 6 
#
# 1 0.012681 -0.003219 -0.002288 -0.010546 -0.003406 -0.005657
# 2 -0.003219 0.008541 -0.002961 0.007652 0.006335 -0.001504
# 3 -0.002288 -0.002961 0.011788 0.005956 0.009156 0.004665
# 4 -0.010546 0.007652 0.005956 0.028757 -0.017183 0.007705
# 5 -0.003406 0.006335 0.009156 -0.017183 0.000557 -0.000559
# 6 -0.005657 -0.001504 0.004665 0.007705 -0.000559 0.026839
#
#
# Mechanical properties :
#
#
# Convention : Reuss Voigt Hill
#
# Bulk Modulus (GPa) = 62.21178 44.17157 53.19168
# Shear Modulus (GPa) = 44.86011 22.71074 33.78542
#
# Velocity S-wave (km/s) = 4.45386 3.16900 3.86519
# Velocity P-wave (km/s) = 7.34566 5.73781 6.59095
#
# Compressibility (1/GPa) = 0.01607413
#
# Stress axis : x y z
#
# Youngs Moduli (GPa) = 78.86035 117.07931 84.82978
#
# Poissons Ratio (x) = 0.37689 0.19405
# Poissons Ratio (y) = 0.25386 0.25122
# Poissons Ratio (z) = 0.18040 0.34672
#
# Static dielectric constant tensor:
#      x y z
#    x 2.157750 0.060690 0.012890 
#    y 0.060690 1.891620 0.027860 
#    z 0.012890 0.027860 1.813900 
# 
# From -- ./inp_files/495687.got.cif
#   From: 2010.05.17/outbox.cif.g08.bks.cpg/sg2_248_cif.got.tgz:495687.got - 2010.06.03 11:33:40.
