data_PCOD9032586
_publ_section_title
;
Structure prediction by ZEFSAII (Michael W. Deem and Ramdas Pophale) SiO2 
 PCOD9032586
Probable space group: P -1
;
_chemical_formula_sum "Si O2"
_cell_formula_units_Z 14
_cell_length_a 15.673413
_cell_length_b 8.254329
_cell_length_c 7.007378
_cell_angle_alpha 100.261079
_cell_angle_beta 55.746750
_cell_angle_gamma 127.598784
_cell_volume 574.478810
_symmetry_space_group_name_H-M "P -1"
_symmetry_group_IT_number 2
_symmetry_cell_setting 'triclinic'
loop_
_space_group_symop_operation_xyz
x,y,z
-x,-y,-z
loop_
_atom_site_type_symbol
_atom_site_label
_atom_site_fract_x
_atom_site_fract_y
_atom_site_fract_z
Si Si1 0.879648 0.948114 0.918359
Si Si2 0.651462 0.624551 0.389341
Si Si3 0.309647 0.702127 0.678147
Si Si4 0.731985 0.868270 0.713341
Si Si5 0.047273 0.429597 0.711459
Si Si6 0.546412 0.950097 0.122963
Si Si7 0.004398 0.726089 0.675113
O O1 0.961299 0.862212 0.834151
O O2 0.818203 0.869210 0.768077
O O3 0.754010 0.839563 0.190741
O O4 0.964715 0.199152 0.862063
O O5 0.500000 0.500000 0.500000
O O6 0.689716 0.476897 0.265952
O O7 0.678893 0.688714 0.588136
O O8 0.180201 0.594198 0.692970
O O9 0.339803 0.853274 0.847110
O O10 0.427262 0.820627 0.397249
O O11 0.838056 0.100133 0.532646
O O12 0.609030 0.842416 0.951217
O O13 0.066236 0.383948 0.460814
O O14 0.020290 0.459384 0.205843
O O15 0.500000 0.000000 0.000000
#
# Coordination Sequence:
#
# PCOD9032586 Si02
#       7
#     2   2   2   2   2   2   2
#     4  11  25  47  71 101 145 187 233 296 357 424
#     4  12  27  45  70 103 138 184 241 293 353 425
#     4  11  25  45  72 107 141 187 244 291 351 427
#     4  11  24  45  70 101 143 186 234 295 355 420
#     4  10  22  43  72 106 142 185 240 294 355 426
#     4  11  25  46  71 103 147 189 235 297 355 418
#     4  10  22  43  72 105 144 189 234 292 362 424
#
# _framework density 24.369914000000001
#
# number of rings (size 3 to 8) (size 9 to 14) (size 15 to 20)
#    0.000    1.143    0.000    6.000    0.000   14.857 
#    0.000   10.000    0.000    0.000    0.000    0.000 
#    0.000    0.000    0.000    0.000    0.000    0.000 
#
# Total GULP energy -78472.098535 kJ/mol
# GULP energy per Si atom -5605.149895 kJ/mol
# Density = 2.431445 g / cm^3
# Si number density = 24.369914 Si / 1000 Ang^3
#
#
#
# Elastic Constant Matrix: (Units=GPa)
#
#
# Indices 1 2 3 4 5 6 
#
# 1 120.0540 54.6652 22.7547 -15.6676 11.4664 0.7203
# 2 54.6652 99.5669 44.9872 9.7565 15.2249 1.6700
# 3 22.7547 44.9872 80.9197 -5.4427 -7.2188 7.8726
# 4 -15.6676 9.7565 -5.4427 43.5245 0.3438 5.2999
# 5 11.4664 15.2249 -7.2188 0.3438 26.3048 7.8278
# 6 0.7203 1.6700 7.8726 5.2999 7.8278 57.0036
#
#
#
# Elastic Compliance Matrix: (Units=1/GPa)
#
#
# Indices 1 2 3 4 5 6 
#
# 1 0.012713 -0.008294 0.001542 0.006719 -0.000189 -0.000729
# 2 -0.008294 0.023914 -0.013425 -0.010429 -0.015052 0.004295
# 3 0.001542 -0.013425 0.021649 0.006795 0.014510 -0.005240
# 4 0.006719 -0.010429 0.006795 0.029049 0.005849 -0.004222
# 5 -0.000189 -0.015052 0.014510 0.005849 0.053529 -0.009455
# 6 -0.000729 0.004295 -0.005240 -0.004222 -0.009455 0.019841
#
#
# Mechanical properties :
#
#
# Convention : Reuss Voigt Hill
#
# Bulk Modulus (GPa) = 55.79418 60.59498 58.19458
# Shear Modulus (GPa) = 24.15174 37.24214 30.69694
#
# Velocity S-wave (km/s) = 3.15151 3.91346 3.55297
# Velocity P-wave (km/s) = 6.01557 6.73342 6.38459
#
# Compressibility (1/GPa) = 0.01792302
#
# Stress axis : x y z
#
# Youngs Moduli (GPa) = 78.65935 41.81576 46.19089
#
# Poissons Ratio (x) = 0.34681 -0.07123
# Poissons Ratio (y) = 0.65239 0.62012
# Poissons Ratio (z) = -0.12129 0.56138
#
# Static dielectric constant tensor:
#      x y z
#    x 1.925270 0.003320 -0.003700 
#    y 0.003320 1.921330 -0.056780 
#    z -0.003700 -0.056780 1.991820 
# 
# From -- ./inp_files/107110.got.cif
#   From: 2010.05.17/outbox.cif.g08.bks.cpg/sg2_54_cif.got.tgz:107110.got - 2010.06.03 11:33:40.
