data_PCOD9032520
_publ_section_title
;
Structure prediction by ZEFSAII (Michael W. Deem and Ramdas Pophale) SiO2 
 PCOD9032520
Probable space group: P -1
;
_chemical_formula_sum "Si O2"
_cell_formula_units_Z 16
_cell_length_a 9.446838
_cell_length_b 12.246002
_cell_length_c 8.889282
_cell_angle_alpha 124.578534
_cell_angle_beta 125.672021
_cell_angle_gamma 63.497865
_cell_volume 677.542861
_symmetry_space_group_name_H-M "P -1"
_symmetry_group_IT_number 2
_symmetry_cell_setting 'triclinic'
loop_
_space_group_symop_operation_xyz
x,y,z
-x,-y,-z
loop_
_atom_site_type_symbol
_atom_site_label
_atom_site_fract_x
_atom_site_fract_y
_atom_site_fract_z
Si Si1 0.048912 0.905680 0.315202
Si Si2 0.417368 0.763479 0.534401
Si Si3 0.783119 0.908170 0.584228
Si Si4 0.007614 0.347747 0.338191
Si Si5 0.471142 0.970026 0.215891
Si Si6 0.562529 0.468758 0.843893
Si Si7 0.021541 0.624375 0.002387
Si Si8 0.653805 0.274207 0.208284
O O1 0.256166 0.841940 0.398038
O O2 0.963168 0.772640 0.154869
O O3 0.047341 0.015504 0.269290
O O4 0.000000 0.000000 0.500000
O O5 0.512122 0.641956 0.393581
O O6 0.326045 0.718481 0.593160
O O7 0.521044 0.883422 0.735113
O O8 0.660853 0.905115 0.357116
O O9 0.851992 0.759079 0.568714
O O10 0.659968 0.993296 0.697152
O O11 0.818448 0.307352 0.238186
O O12 0.000000 0.500000 0.500000
O O13 0.054448 0.351572 0.193802
O O14 0.396112 0.867120 0.982076
O O15 0.769108 0.411689 0.928776
O O16 0.512167 0.609858 0.839517
O O17 0.500000 0.500000 0.000000
O O18 0.000000 0.500000 0.000000
#
# Coordination Sequence:
#
# PCOD9032520 Si02
#       8
#     2   2   2   2   2   2   2   2
#     4  10  22  43  71  98 144 192 228 301 371 431
#     4  10  24  43  68 108 141 179 245 299 363 433
#     4  10  24  44  71 102 147 184 247 296 367 444
#     4  12  29  44  73 108 146 193 248 306 370 434
#     4  10  24  42  75 104 141 188 235 301 376 437
#     4  11  25  45  73  98 148 196 244 292 365 445
#     4  11  27  46  71 110 149 194 250 301 372 438
#     4  12  25  44  74 105 142 191 244 301 368 439
#
# _framework density 23.614742
#
# number of rings (size 3 to 8) (size 9 to 14) (size 15 to 20)
#    0.000    1.250    1.250    2.250   14.000    5.000 
#    0.000    0.000    0.000    0.000    0.000    0.000 
#    0.000    0.000    0.000    0.000    0.000    0.000 
#
# Total GULP energy -89305.146185 kJ/mol
# GULP energy per Si atom -5581.571637 kJ/mol
# Density = 2.356099 g / cm^3
# Si number density = 23.614742 Si / 1000 Ang^3
#
#
#
# Elastic Constant Matrix: (Units=GPa)
#
#
# Indices 1 2 3 4 5 6 
#
# 1 85.0988 42.4938 43.7962 18.7308 -21.8038 18.7583
# 2 42.4938 122.9754 48.4005 27.8995 -16.7714 18.4217
# 3 43.7962 48.4005 98.5227 39.9765 -21.0196 9.9856
# 4 18.7308 27.8995 39.9765 52.8267 -6.4764 -1.5836
# 5 -21.8038 -16.7714 -21.0196 -6.4764 29.8598 -1.1970
# 6 18.7583 18.4217 9.9856 -1.5836 -1.1970 47.4688
#
#
#
# Elastic Compliance Matrix: (Units=1/GPa)
#
#
# Indices 1 2 3 4 5 6 
#
# 1 0.018966 -0.002585 -0.004192 -0.001251 0.008957 -0.005425
# 2 -0.002585 0.011412 -0.002490 -0.003071 0.001986 -0.002936
# 3 -0.004192 -0.002490 0.019305 -0.011039 0.006670 -0.001638
# 4 -0.001251 -0.003071 -0.011039 0.029015 -0.003921 0.004877
# 5 0.008957 0.001986 0.006670 -0.003921 0.044801 -0.004714
# 6 -0.005425 -0.002936 -0.001638 0.004877 -0.004714 0.024738
#
#
# Mechanical properties :
#
#
# Convention : Reuss Voigt Hill
#
# Bulk Modulus (GPa) = 32.10482 63.99755 48.05119
# Shear Modulus (GPa) = 28.22386 37.49148 32.85767
#
# Velocity S-wave (km/s) = 3.46089 3.98883 3.73420
# Velocity P-wave (km/s) = 5.44014 6.95513 6.24375
#
# Compressibility (1/GPa) = 0.03114797
#
# Stress axis : x y z
#
# Youngs Moduli (GPa) = 52.72622 87.62429 51.80037
#
# Poissons Ratio (x) = 0.22655 0.21715
# Poissons Ratio (y) = 0.13632 0.12898
# Poissons Ratio (z) = 0.22104 0.21818
#
# Static dielectric constant tensor:
#      x y z
#    x 2.003440 0.066300 0.031780 
#    y 0.066300 1.946210 -0.040450 
#    z 0.031780 -0.040450 1.844290 
# 
# From -- ./inp_files/190356.got.cif
#   From: 2010.05.17/outbox.cif.g08.bks.cpg/sg2_96_cif.got.tgz:190356.got - 2010.06.03 11:33:40.
