data_PCOD9032598
_publ_section_title
;
Structure prediction by ZEFSAII (Michael W. Deem and Ramdas Pophale) SiO2 
 PCOD9032598
Probable space group: P -1
;
_chemical_formula_sum "Si O2"
_cell_formula_units_Z 14
_cell_length_a 14.837022
_cell_length_b 7.291831
_cell_length_c 8.531308
_cell_angle_alpha 128.303920
_cell_angle_beta 87.725657
_cell_angle_gamma 61.645695
_cell_volume 557.871290
_symmetry_space_group_name_H-M "P -1"
_symmetry_group_IT_number 2
_symmetry_cell_setting 'triclinic'
loop_
_space_group_symop_operation_xyz
x,y,z
-x,-y,-z
loop_
_atom_site_type_symbol
_atom_site_label
_atom_site_fract_x
_atom_site_fract_y
_atom_site_fract_z
Si Si1 0.903707 0.115445 0.438787
Si Si2 0.175481 0.376943 0.541878
Si Si3 0.327098 0.392433 0.123348
Si Si4 0.524801 0.463515 0.663366
Si Si5 0.038809 0.194192 0.038914
Si Si6 0.634782 0.813099 0.342517
Si Si7 0.718079 0.042529 0.955185
O O1 0.879541 0.380742 0.468496
O O2 0.784678 0.285357 0.632479
O O3 0.000000 0.000000 0.500000
O O4 0.945184 0.853196 0.172986
O O5 0.265797 0.386931 0.639801
O O6 0.250296 0.056498 0.279619
O O7 0.068195 0.476119 0.711421
O O8 0.434179 0.360463 0.171717
O O9 0.314558 0.151671 0.065709
O O10 0.334995 0.346538 0.912049
O O11 0.500000 0.500000 0.500000
O O12 0.628404 0.106354 0.484145
O O13 0.399119 0.613270 0.830780
O O14 0.163549 0.059559 0.028874
O O15 0.000000 0.000000 0.000000
O O16 0.500000 0.000000 0.500000
#
# Coordination Sequence:
#
# PCOD9032598 Si02
#       7
#     2   2   2   2   2   2   2
#     4  10  22  44  74 103 141 193 240 296 359 437
#     4  10  24  45  68 106 147 184 240 301 363 425
#     4  11  25  47  72 109 146 191 250 298 360 440
#     4  12  26  46  76 107 147 193 252 296 362 439
#     4  10  22  43  72 108 145 186 240 305 367 425
#     4  12  28  46  74 109 151 192 240 307 369 428
#     4  11  23  44  76 103 146 197 241 301 362 433
#
# _framework density 25.095395
#
# number of rings (size 3 to 8) (size 9 to 14) (size 15 to 20)
#    0.000    1.143    1.429    3.429    8.000    2.286 
#   10.286    3.571    0.000    0.000    0.000    0.000 
#    0.000    0.000    0.000    0.000    0.000    0.000 
#
# Total GULP energy -78377.936313 kJ/mol
# GULP energy per Si atom -5598.424022 kJ/mol
# Density = 2.503828 g / cm^3
# Si number density = 25.095395 Si / 1000 Ang^3
#
#
#
# Elastic Constant Matrix: (Units=GPa)
#
#
# Indices 1 2 3 4 5 6 
#
# 1 168.5671 47.4309 66.3120 -19.1854 -1.3021 -44.8335
# 2 47.4309 102.5553 55.6447 -24.4137 1.1616 -22.8870
# 3 66.3120 55.6447 272.8326 -27.4712 -25.2636 -30.5136
# 4 -19.1854 -24.4137 -27.4712 43.9538 -12.2347 5.3510
# 5 -1.3021 1.1616 -25.2636 -12.2347 51.4275 0.4121
# 6 -44.8335 -22.8870 -30.5136 5.3510 0.4121 53.8641
#
#
#
# Elastic Compliance Matrix: (Units=1/GPa)
#
#
# Indices 1 2 3 4 5 6 
#
# 1 0.008459 -0.001825 -0.000898 0.001468 0.000119 0.005610
# 2 -0.001825 0.013256 -0.001378 0.005435 0.000248 0.002791
# 3 -0.000898 -0.001378 0.004822 0.002548 0.002974 0.001123
# 4 0.001468 0.005435 0.002548 0.030081 0.008307 0.001922
# 5 0.000119 0.000248 0.002974 0.008307 0.022872 0.000889
# 6 0.005610 0.002791 0.001123 0.001922 0.000889 0.024859
#
#
# Mechanical properties :
#
#
# Convention : Reuss Voigt Hill
#
# Bulk Modulus (GPa) = 54.53608 98.08114 76.30861
# Shear Modulus (GPa) = 42.13598 54.82024 48.47811
#
# Velocity S-wave (km/s) = 4.10205 4.67891 4.39994
# Velocity P-wave (km/s) = 6.64939 8.26787 7.50240
#
# Compressibility (1/GPa) = 0.01833649
#
# Stress axis : x y z
#
# Youngs Moduli (GPa) = 118.21597 75.43569 207.38438
#
# Poissons Ratio (x) = 0.13769 0.18613
# Poissons Ratio (y) = 0.21577 0.28571
# Poissons Ratio (z) = 0.10610 0.10393
#
# Static dielectric constant tensor:
#      x y z
#    x 2.052090 0.074770 0.023930 
#    y 0.074770 2.049660 0.119090 
#    z 0.023930 0.119090 2.029910 
# 
# From -- ./inp_files/296764.got.cif
#   From: 2010.05.17/outbox.cif.g08.bks.cpg/sg2_149_cif.got.tgz:296764.got - 2010.06.03 11:33:40.
