data_PCOD9032135
_publ_section_title
;
Structure prediction by ZEFSAII (Michael W. Deem and Ramdas Pophale) SiO2 
 PCOD9032135
Probable space group: P -1
;
_chemical_formula_sum "Si O2"
_cell_formula_units_Z 12
_cell_length_a 5.538523
_cell_length_b 18.972400
_cell_length_c 8.952991
_cell_angle_alpha 41.886520
_cell_angle_beta 52.087862
_cell_angle_gamma 71.147127
_cell_volume 479.175089
_symmetry_space_group_name_H-M "P -1"
_symmetry_group_IT_number 2
_symmetry_cell_setting 'triclinic'
loop_
_space_group_symop_operation_xyz
x,y,z
-x,-y,-z
loop_
_atom_site_type_symbol
_atom_site_label
_atom_site_fract_x
_atom_site_fract_y
_atom_site_fract_z
Si Si1 0.825711 0.220245 0.643182
Si Si2 0.505471 0.751245 0.975247
Si Si3 0.478606 0.659502 0.678388
Si Si4 0.136865 0.934812 0.354151
Si Si5 0.764588 0.095294 0.322943
Si Si6 0.323506 0.539395 0.227317
O O1 0.596194 0.236888 0.836500
O O2 0.720242 0.278351 0.446417
O O3 0.183010 0.269695 0.493129
O O4 0.781943 0.096521 0.792646
O O5 0.533392 0.633156 0.104599
O O6 0.815600 0.841099 0.665102
O O7 0.230459 0.787557 0.928441
O O8 0.546563 0.563522 0.700930
O O9 0.293354 0.598732 0.988375
O O10 0.337594 0.912802 0.453057
O O11 0.068018 0.051488 0.230683
O O12 0.500000 0.000000 0.500000
O O13 0.000000 0.500000 0.500000
#
# Coordination Sequence:
#
# PCOD9032135 Si02
#       6
#     2   2   2   2   2   2
#     4  12  26  44  71 102 140 181 228 282 343 403
#     4  11  23  42  68 101 135 183 228 280 338 409
#     4  11  27  46  65 105 139 183 231 281 336 403
#     4  10  22  43  69  98 136 180 222 290 340 405
#     4   9  21  43  70  97 132 176 230 279 349 403
#     4  11  23  46  71 100 140 185 229 280 336 405
#
# _framework density 25.043036000000001
#
# number of rings (size 3 to 8) (size 9 to 14) (size 15 to 20)
#    0.000    1.333    3.333    1.000    4.667    5.333 
#    3.000    7.500    0.000    0.000    0.000    0.000 
#    0.000    0.000    0.000    0.000    0.000    0.000 
#
# Total GULP energy -67080.800136 kJ/mol
# GULP energy per Si atom -5590.066678 kJ/mol
# Density = 2.498604 g / cm^3
# Si number density = 25.043036 Si / 1000 Ang^3
#
#
#
# Elastic Constant Matrix: (Units=GPa)
#
#
# Indices 1 2 3 4 5 6 
#
# 1 102.6801 38.8721 26.6729 -6.8337 5.5717 2.6412
# 2 38.8721 192.7229 32.4001 11.8624 5.0348 25.9268
# 3 26.6729 32.4001 67.3918 23.8992 -2.4160 0.0667
# 4 -6.8337 11.8624 23.8992 49.0768 7.3795 0.9243
# 5 5.5717 5.0348 -2.4160 7.3795 26.4273 -6.2838
# 6 2.6412 25.9268 0.0667 0.9243 -6.2838 28.7858
#
#
#
# Elastic Compliance Matrix: (Units=1/GPa)
#
#
# Indices 1 2 3 4 5 6 
#
# 1 0.012771 -0.001567 -0.006667 0.006170 -0.004971 -0.001029
# 2 -0.001567 0.006962 -0.002838 0.000040 -0.002871 -0.006749
# 3 -0.006667 -0.002838 0.023906 -0.013370 0.009184 0.005546
# 4 0.006170 0.000040 -0.013370 0.029582 -0.011763 -0.004089
# 5 -0.004971 -0.002871 0.009184 -0.011763 0.046796 0.013614
# 6 -0.001029 -0.006749 0.005546 -0.004089 0.013614 0.044002
#
#
# Mechanical properties :
#
#
# Convention : Reuss Voigt Hill
#
# Bulk Modulus (GPa) = 46.51643 62.07611 54.29627
# Shear Modulus (GPa) = 25.86284 38.51463 32.18873
#
# Velocity S-wave (km/s) = 3.21711 3.92591 3.58905
# Velocity P-wave (km/s) = 5.69338 6.73735 6.23725
#
# Compressibility (1/GPa) = 0.02149778
#
# Stress axis : x y z
#
# Youngs Moduli (GPa) = 78.30429 143.63155 41.82972
#
# Poissons Ratio (x) = 0.22502 0.27886
# Poissons Ratio (y) = 0.12267 0.11869
# Poissons Ratio (z) = 0.52203 0.40756
#
# Static dielectric constant tensor:
#      x y z
#    x 2.138980 -0.042720 -0.031430 
#    y -0.042720 2.043650 0.007100 
#    z -0.031430 0.007100 1.996070 
# 
# From -- ./inp_files/28603.got.cif
#   From: 2010.05.17/outbox.cif.g08.bks.cpg/sg2_15_cif.got.tgz:28603.got - 2010.06.03 11:33:40.
