data_PCOD9032370
_publ_section_title
;
Structure prediction by ZEFSAII (Michael W. Deem and Ramdas Pophale) SiO2 
 PCOD9032370
Probable space group: P -1
;
_chemical_formula_sum "Si O2"
_cell_formula_units_Z 12
_cell_length_a 11.949815
_cell_length_b 4.987853
_cell_length_c 25.763498
_cell_angle_alpha 109.570158
_cell_angle_beta 161.668652
_cell_angle_gamma 67.815815
_cell_volume 445.760730
_symmetry_space_group_name_H-M "P -1"
_symmetry_group_IT_number 2
_symmetry_cell_setting 'triclinic'
loop_
_space_group_symop_operation_xyz
x,y,z
-x,-y,-z
loop_
_atom_site_type_symbol
_atom_site_label
_atom_site_fract_x
_atom_site_fract_y
_atom_site_fract_z
Si Si1 0.291036 0.370640 0.559286
Si Si2 0.709253 0.580535 0.547395
Si Si3 0.528350 0.923944 0.726328
Si Si4 0.705566 0.006840 0.258203
Si Si5 0.791480 0.196691 0.152651
Si Si6 0.790043 0.227399 0.041722
O O1 0.496738 0.334339 0.591877
O O2 0.257110 0.703653 0.582469
O O3 0.467634 0.174819 0.672351
O O4 0.916249 0.269805 0.374029
O O5 0.500000 0.500000 0.500000
O O6 0.989635 0.282596 0.636121
O O7 0.915748 0.833468 0.674548
O O8 0.923966 0.736148 0.873824
O O9 0.492809 0.018553 0.776054
O O10 0.409575 0.025101 0.083333
O O11 0.978684 0.197434 0.178954
O O12 0.537223 0.503916 0.074920
O O13 0.500000 0.000000 0.000000
#
# Coordination Sequence:
#
# PCOD9032370 Si02
#       6
#     2   2   2   2   2   2
#     4  12  26  48  72 108 144 187 236 293 356 422
#     4  11  25  45  73 105 142 187 238 294 353 421
#     4  12  27  46  75 106 145 188 236 293 355 424
#     4  11  25  47  73 105 145 187 239 293 356 422
#     4  10  22  43  70  99 141 185 236 290 351 418
#     4  10  24  46  68 105 139 189 236 292 353 421
#
# _framework density 26.920269000000001
#
# number of rings (size 3 to 8) (size 9 to 14) (size 15 to 20)
#    0.000    1.000    1.667    3.500    4.667    0.667 
#    0.000    1.667    0.000    0.000    0.000    0.000 
#    0.000    0.000    0.000    0.000    0.000    0.000 
#
# Total GULP energy -67210.855267 kJ/mol
# GULP energy per Si atom -5600.904606 kJ/mol
# Density = 2.685900 g / cm^3
# Si number density = 26.920269 Si / 1000 Ang^3
#
#
#
# Elastic Constant Matrix: (Units=GPa)
#
#
# Indices 1 2 3 4 5 6 
#
# 1 226.9678 61.7576 32.8570 -6.2758 -0.2048 -35.4149
# 2 61.7576 109.7509 28.3037 14.5025 -9.9748 -7.5189
# 3 32.8570 28.3037 73.7631 24.2526 -12.1522 -14.4759
# 4 -6.2758 14.5025 24.2526 50.2212 -5.0012 2.3296
# 5 -0.2048 -9.9748 -12.1522 -5.0012 55.1999 -3.8702
# 6 -35.4149 -7.5189 -14.4759 2.3296 -3.8702 53.8132
#
#
#
# Elastic Compliance Matrix: (Units=1/GPa)
#
#
# Indices 1 2 3 4 5 6 
#
# 1 0.006020 -0.003083 -0.001770 0.002311 -0.000510 0.002918
# 2 -0.003083 0.011835 -0.002264 -0.002539 0.001344 -0.000778
# 3 -0.001770 -0.002264 0.019558 -0.008878 0.003395 0.004409
# 4 0.002311 -0.002539 -0.008878 0.025302 -0.000276 -0.002338
# 5 -0.000510 0.001344 0.003395 -0.000276 0.019231 0.002160
# 6 0.002918 -0.000778 0.004409 -0.002338 0.002160 0.021837
#
#
# Mechanical properties :
#
#
# Convention : Reuss Voigt Hill
#
# Bulk Modulus (GPa) = 43.14333 72.92428 58.03380
# Shear Modulus (GPa) = 39.76417 51.01776 45.39097
#
# Velocity S-wave (km/s) = 3.84749 4.35805 4.11070
# Velocity P-wave (km/s) = 5.98320 7.24370 6.64341
#
# Compressibility (1/GPa) = 0.02317856
#
# Stress axis : x y z
#
# Youngs Moduli (GPa) = 166.12198 84.49826 51.13115
#
# Poissons Ratio (x) = 0.26049 0.09049
# Poissons Ratio (y) = 0.51211 0.11577
# Poissons Ratio (z) = 0.29399 0.19131
#
# Static dielectric constant tensor:
#      x y z
#    x 2.144830 0.047730 0.047560 
#    y 0.047730 2.109570 -0.004970 
#    z 0.047560 -0.004970 2.203930 
# 
# From -- ./inp_files/363775.got.cif
#   From: 2010.05.17/outbox.cif.g08.bks.cpg/sg2_182_cif.got.tgz:363775.got - 2010.06.03 11:33:40.
