data_PCOD9032075
_publ_section_title
;
Structure prediction by ZEFSAII (Michael W. Deem and Ramdas Pophale) SiO2 
 PCOD9032075
Probable space group: P -1
;
_chemical_formula_sum "Si O2"
_cell_formula_units_Z 16
_cell_length_a 14.612316
_cell_length_b 10.608827
_cell_length_c 9.161322
_cell_angle_alpha 111.012447
_cell_angle_beta 117.074155
_cell_angle_gamma 118.043885
_cell_volume 764.496321
_symmetry_space_group_name_H-M "P -1"
_symmetry_group_IT_number 2
_symmetry_cell_setting 'triclinic'
loop_
_space_group_symop_operation_xyz
x,y,z
-x,-y,-z
loop_
_atom_site_type_symbol
_atom_site_label
_atom_site_fract_x
_atom_site_fract_y
_atom_site_fract_z
Si Si1 0.155372 0.189587 0.089351
Si Si2 0.115355 0.668554 0.282770
Si Si3 0.329537 0.617579 0.866892
Si Si4 0.165895 0.222399 0.763996
Si Si5 0.303762 0.055874 0.073737
Si Si6 0.309634 0.087163 0.743790
Si Si7 0.116638 0.628545 0.773789
Si Si8 0.673896 0.377041 0.480584
O O1 0.267744 0.169590 0.152194
O O2 0.242351 0.407234 0.305332
O O3 0.139763 0.208571 0.913056
O O4 0.000000 0.000000 0.000000
O O5 0.238733 0.671383 0.418038
O O6 0.980996 0.550360 0.255831
O O7 0.210258 0.905118 0.473357
O O8 0.000000 0.500000 0.000000
O O9 0.219425 0.408506 0.794093
O O10 0.283952 0.725216 0.911193
O O11 0.305052 0.585011 0.662346
O O12 0.508858 0.763697 0.093808
O O13 0.284640 0.222257 0.797310
O O14 0.000000 0.000000 0.500000
O O15 0.484244 0.193624 0.296555
O O16 0.278886 0.012680 0.861006
O O17 0.162225 0.822810 0.938573
O O18 0.000000 0.500000 0.500000
#
# Coordination Sequence:
#
# PCOD9032075 Si02
#       8
#     2   2   2   2   2   2   2   2
#     4  11  24  41  67  97 133 167 213 267 322 379
#     4  12  26  42  64  96 132 169 216 269 321 377
#     4  11  23  42  70  96 127 170 216 266 318 384
#     4  11  24  40  68  97 128 172 216 261 317 387
#     4  10  22  43  69  95 124 173 220 260 315 387
#     4  10  22  44  67  94 130 170 216 262 319 384
#     4  12  22  41  68  94 126 167 222 262 313 384
#     4  11  23  43  67  96 131 168 212 269 326 376
#
# _framework density 20.928813999999999
#
# number of rings (size 3 to 8) (size 9 to 14) (size 15 to 20)
#    0.000    1.000    2.500    3.750    5.250    2.000 
#    4.500    1.250    0.000    0.000    0.000    0.000 
#    0.000    0.000    0.000    0.000    0.000    0.000 
#
# Total GULP energy -89160.873403 kJ/mol
# GULP energy per Si atom -5572.554588 kJ/mol
# Density = 2.088118 g / cm^3
# Si number density = 20.928814 Si / 1000 Ang^3
#
#
#
# Elastic Constant Matrix: (Units=GPa)
#
#
# Indices 1 2 3 4 5 6 
#
# 1 96.7781 9.4927 21.6927 -3.6821 5.9733 -0.0575
# 2 9.4927 56.9511 16.2485 5.2534 -0.6699 0.7649
# 3 21.6927 16.2485 93.4860 -2.6535 -12.7055 2.8843
# 4 -3.6821 5.2534 -2.6535 31.7069 -3.8989 -4.2422
# 5 5.9733 -0.6699 -12.7055 -3.8989 35.1179 5.0472
# 6 -0.0575 0.7649 2.8843 -4.2422 5.0472 30.3876
#
#
#
# Elastic Compliance Matrix: (Units=1/GPa)
#
#
# Indices 1 2 3 4 5 6 
#
# 1 0.011309 -0.001225 -0.002818 0.001042 -0.002989 0.000962
# 2 -0.001225 0.019030 -0.003241 -0.003755 -0.000940 -0.000542
# 3 -0.002818 -0.003241 0.012764 0.001711 0.005485 -0.001807
# 4 0.001042 -0.003755 0.001711 0.033393 0.003500 0.004014
# 5 -0.002989 -0.000940 0.005485 0.003500 0.032108 -0.005347
# 6 0.000962 -0.000542 -0.001807 0.004014 -0.005347 0.034544
#
#
# Mechanical properties :
#
#
# Convention : Reuss Voigt Hill
#
# Bulk Modulus (GPa) = 35.04383 38.00923 36.52653
# Shear Modulus (GPa) = 29.89949 32.76120 31.33035
#
# Velocity S-wave (km/s) = 3.78382 3.96076 3.87330
# Velocity P-wave (km/s) = 5.98919 6.25439 6.12323
#
# Compressibility (1/GPa) = 0.02853569
#
# Stress axis : x y z
#
# Youngs Moduli (GPa) = 88.42235 52.54750 78.34751
#
# Poissons Ratio (x) = 0.06439 0.22075
# Poissons Ratio (y) = 0.10835 0.25392
# Poissons Ratio (z) = 0.24914 0.17030
#
# Static dielectric constant tensor:
#      x y z
#    x 1.799470 0.007600 -0.030610 
#    y 0.007600 1.760040 -0.044030 
#    z -0.030610 -0.044030 1.743930 
# 
# From -- ./inp_files/308355.got.cif
#   From: 2010.05.17/outbox.cif.g08.bks.cpg/sg2_155_cif.got.tgz:308355.got - 2010.06.03 11:33:40.
