data_PCOD9032443
_publ_section_title
;
Structure prediction by ZEFSAII (Michael W. Deem and Ramdas Pophale) SiO2 
 PCOD9032443
Probable space group: P -1
;
_chemical_formula_sum "Si O2"
_cell_formula_units_Z 16
_cell_length_a 14.292141
_cell_length_b 7.831939
_cell_length_c 13.911424
_cell_angle_alpha 131.481457
_cell_angle_beta 139.327295
_cell_angle_gamma 41.545470
_cell_volume 656.711641
_symmetry_space_group_name_H-M "P -1"
_symmetry_group_IT_number 2
_symmetry_cell_setting 'triclinic'
loop_
_space_group_symop_operation_xyz
x,y,z
-x,-y,-z
loop_
_atom_site_type_symbol
_atom_site_label
_atom_site_fract_x
_atom_site_fract_y
_atom_site_fract_z
Si Si1 0.740995 0.694452 0.603810
Si Si2 0.540605 0.571712 0.955129
Si Si3 0.812943 0.149708 0.872381
Si Si4 0.813415 0.606138 0.930230
Si Si5 0.792949 0.373942 0.333655
Si Si6 0.735936 0.781127 0.281769
Si Si7 0.931743 0.805336 0.266386
Si Si8 0.516356 0.758983 0.613903
O O1 0.764996 0.569884 0.471537
O O2 0.566731 0.791063 0.557528
O O3 0.884950 0.450245 0.686831
O O4 0.776830 0.931618 0.722436
O O5 0.687970 0.318043 0.923214
O O6 0.372450 0.652419 0.798471
O O7 0.500000 0.500000 0.000000
O O8 0.601079 0.775957 0.102306
O O9 0.796279 0.361456 0.860955
O O10 0.000000 0.000000 0.000000
O O11 0.666405 0.747165 0.791413
O O12 0.814166 0.771004 0.084669
O O13 0.000000 0.500000 0.000000
O O14 0.809535 0.508807 0.299318
O O15 0.933662 0.070854 0.342469
O O16 0.860810 0.808067 0.318167
O O17 0.646003 0.010506 0.375294
O O18 0.500000 0.500000 0.500000
#
# Coordination Sequence:
#
# PCOD9032443 Si02
#       8
#     2   2   2   2   2   2   2   2
#     4  12  26  48  69 110 152 193 247 312 369 452
#     4  10  22  43  71 105 140 188 245 303 362 447
#     4  12  24  45  77 106 143 190 251 306 371 446
#     4  12  26  48  76 107 145 200 245 311 376 438
#     4  11  27  43  74 106 150 196 238 306 382 433
#     4  11  25  47  72 106 146 193 250 307 365 452
#     4  12  25  49  74 105 149 194 256 304 365 452
#     4  12  28  47  74 112 152 190 253 310 374 445
#
# _framework density 24.363813
#
# number of rings (size 3 to 8) (size 9 to 14) (size 15 to 20)
#    0.000    0.500    3.750    3.375    5.250    6.500 
#    0.000    0.000    0.000    0.000    0.000    0.000 
#    0.000    0.000    0.000    0.000    0.000    0.000 
#
# Total GULP energy -89612.889991 kJ/mol
# GULP energy per Si atom -5600.805624 kJ/mol
# Density = 2.430836 g / cm^3
# Si number density = 24.363813 Si / 1000 Ang^3
#
#
#
# Elastic Constant Matrix: (Units=GPa)
#
#
# Indices 1 2 3 4 5 6 
#
# 1 122.0015 54.0991 13.6186 13.3602 -9.4086 2.8607
# 2 54.0991 104.9464 35.1473 32.5202 -6.1862 -9.4859
# 3 13.6186 35.1473 133.5594 23.6846 -1.8738 7.5220
# 4 13.3602 32.5202 23.6846 51.3546 1.7179 6.9456
# 5 -9.4086 -6.1862 -1.8738 1.7179 30.6735 0.4633
# 6 2.8607 -9.4859 7.5220 6.9456 0.4633 36.2372
#
#
#
# Elastic Compliance Matrix: (Units=1/GPa)
#
#
# Indices 1 2 3 4 5 6 
#
# 1 0.011078 -0.006422 0.000531 0.001266 0.002109 -0.002935
# 2 -0.006422 0.017326 -0.002676 -0.009116 0.001761 0.007322
# 3 0.000531 -0.002676 0.008643 -0.002152 0.000304 -0.002128
# 4 0.001266 -0.009116 -0.002152 0.026978 -0.002984 -0.007172
# 5 0.002109 0.001761 0.000304 -0.002984 0.033783 0.000372
# 6 -0.002935 0.007322 -0.002128 -0.007172 0.000372 0.031556
#
#
# Mechanical properties :
#
#
# Convention : Reuss Voigt Hill
#
# Bulk Modulus (GPa) = 50.21815 62.91526 56.56671
# Shear Modulus (GPa) = 32.65091 40.82919 36.74005
#
# Velocity S-wave (km/s) = 3.66476 4.09811 3.88748
# Velocity P-wave (km/s) = 6.20998 6.94780 6.58923
#
# Compressibility (1/GPa) = 0.01991312
#
# Stress axis : x y z
#
# Youngs Moduli (GPa) = 90.27150 57.71823 115.69947
#
# Poissons Ratio (x) = 0.37064 -0.06140
# Poissons Ratio (y) = 0.57969 0.30958
# Poissons Ratio (z) = -0.04791 0.15444
#
# Static dielectric constant tensor:
#      x y z
#    x 1.833740 -0.114860 0.035500 
#    y -0.114860 1.767380 0.005120 
#    z 0.035500 0.005120 1.944300 
# 
# From -- ./inp_files/530261.got.cif
#   From: 2010.05.17/outbox.cif.g08.bks.cpg/sg2_266_cif.got.tgz:530261.got - 2010.06.03 11:33:40.
