data_PCOD9032558
_publ_section_title
;
Structure prediction by ZEFSAII (Michael W. Deem and Ramdas Pophale) SiO2 
 PCOD9032558
Probable space group: P -1
;
_chemical_formula_sum "Si O2"
_cell_formula_units_Z 16
_cell_length_a 12.740537
_cell_length_b 17.703394
_cell_length_c 10.324130
_cell_angle_alpha 134.664787
_cell_angle_beta 158.198384
_cell_angle_gamma 46.275725
_cell_volume 608.525268
_symmetry_space_group_name_H-M "P -1"
_symmetry_group_IT_number 2
_symmetry_cell_setting 'triclinic'
loop_
_space_group_symop_operation_xyz
x,y,z
-x,-y,-z
loop_
_atom_site_type_symbol
_atom_site_label
_atom_site_fract_x
_atom_site_fract_y
_atom_site_fract_z
Si Si1 0.718977 0.043547 0.406498
Si Si2 0.116185 0.601798 0.817887
Si Si3 0.317066 0.936484 0.308108
Si Si4 0.604794 0.252332 0.402330
Si Si5 0.657585 0.752525 0.328837
Si Si6 0.151916 0.168847 0.611241
Si Si7 0.301428 0.629767 0.594258
Si Si8 0.732714 0.597194 0.604328
O O1 0.947536 0.936891 0.568190
O O2 0.190993 0.845669 0.411790
O O3 0.609341 0.066929 0.457507
O O4 0.500000 0.000000 0.000000
O O5 0.931171 0.704874 0.667330
O O6 0.013103 0.606075 0.853969
O O7 0.000000 0.500000 0.500000
O O8 0.456071 0.594921 0.190813
O O9 0.408041 0.815624 0.207615
O O10 0.500000 0.000000 0.500000
O O11 0.000000 0.000000 0.000000
O O12 0.676909 0.347509 0.506256
O O13 0.375983 0.304365 0.308140
O O14 0.439533 0.187926 0.034179
O O15 0.757479 0.832129 0.433827
O O16 0.562183 0.656032 0.015673
O O17 0.938032 0.275225 0.520258
O O18 0.233135 0.513336 0.410422
#
# Coordination Sequence:
#
# PCOD9032558 Si02
#       8
#     2   2   2   2   2   2   2   2
#     4  10  22  49  72 105 151 191 249 302 374 438
#     4  12  26  46  72 104 144 193 240 303 368 438
#     4  12  26  47  74 110 145 192 246 303 365 438
#     4  10  25  44  67 106 139 194 244 304 366 440
#     4  11  24  42  72 104 146 187 247 295 371 435
#     4  10  22  43  72 102 143 192 242 302 369 440
#     4  11  24  43  71 101 144 194 241 304 369 439
#     4  12  27  46  73 105 146 190 246 303 369 436
#
# _framework density 26.293073
#
# number of rings (size 3 to 8) (size 9 to 14) (size 15 to 20)
#    0.000    1.000    2.500    3.000    5.250    2.000 
#    4.500    0.000    0.000    0.000    0.000    0.000 
#    0.000    0.000    0.000    0.000    0.000    0.000 
#
# Total GULP energy -89478.872648 kJ/mol
# GULP energy per Si atom -5592.429540 kJ/mol
# Density = 2.623323 g / cm^3
# Si number density = 26.293073 Si / 1000 Ang^3
#
#
#
# Elastic Constant Matrix: (Units=GPa)
#
#
# Indices 1 2 3 4 5 6 
#
# 1 103.5661 36.4356 28.9205 0.0905 -31.9784 -6.4750
# 2 36.4356 130.5971 10.0116 -24.3818 -24.8711 13.2446
# 3 28.9205 10.0116 80.0251 -3.1114 -27.2827 -3.6920
# 4 0.0905 -24.3818 -3.1114 42.3913 -9.4358 -8.9269
# 5 -31.9784 -24.8711 -27.2827 -9.4358 44.5108 -4.6001
# 6 -6.4750 13.2446 -3.6920 -8.9269 -4.6001 62.3474
#
#
#
# Elastic Compliance Matrix: (Units=1/GPa)
#
#
# Indices 1 2 3 4 5 6 
#
# 1 0.013500 -0.002255 -0.001811 0.000784 0.007750 0.002458
# 2 -0.002255 0.011173 0.002327 0.008163 0.007704 -0.000733
# 3 -0.001811 0.002327 0.017269 0.005713 0.012007 0.002044
# 4 0.000784 0.008163 0.005713 0.033277 0.016160 0.004643
# 5 0.007750 0.007704 0.012007 0.016160 0.043684 0.005416
# 6 0.002458 -0.000733 0.002044 0.004643 0.005416 0.017635
#
#
# Mechanical properties :
#
#
# Convention : Reuss Voigt Hill
#
# Bulk Modulus (GPa) = 25.99702 51.65818 38.82760
# Shear Modulus (GPa) = 32.71432 45.77127 39.24279
#
# Velocity S-wave (km/s) = 3.53117 4.17683 3.86750
# Velocity P-wave (km/s) = 5.15116 6.55370 5.89429
#
# Compressibility (1/GPa) = 0.03846594
#
# Stress axis : x y z
#
# Youngs Moduli (GPa) = 74.07155 89.49925 57.90640
#
# Poissons Ratio (x) = 0.20180 0.10487
# Poissons Ratio (y) = 0.16701 -0.13476
# Poissons Ratio (z) = 0.13414 -0.20829
#
# Static dielectric constant tensor:
#      x y z
#    x -21.304190 8.202210 -2.391720 
#    y 8.202210 -0.783140 0.863590 
#    z -2.391720 0.863590 1.912150 
# 
# From -- ./inp_files/283308.got.cif
#   From: 2010.05.17/outbox.cif.g08.bks.cpg/sg2_142_cif.got.tgz:283308.got - 2010.06.03 11:33:40.
