data_PCOD9032037
_publ_section_title
;
Structure prediction by ZEFSAII (Michael W. Deem and Ramdas Pophale) SiO2 
 PCOD9032037
Probable space group: P -1
;
_chemical_formula_sum "Si O2"
_cell_formula_units_Z 11
_cell_length_a 10.510899
_cell_length_b 8.070224
_cell_length_c 8.503882
_cell_angle_alpha 85.979312
_cell_angle_beta 116.455079
_cell_angle_gamma 136.011588
_cell_volume 410.541592
_symmetry_space_group_name_H-M "P -1"
_symmetry_group_IT_number 2
_symmetry_cell_setting 'triclinic'
loop_
_space_group_symop_operation_xyz
x,y,z
-x,-y,-z
loop_
_atom_site_type_symbol
_atom_site_label
_atom_site_fract_x
_atom_site_fract_y
_atom_site_fract_z
Si Si1 0.024046 0.399478 0.664646
Si Si2 0.309679 0.809905 0.272653
Si Si3 0.558839 0.416474 0.805974
Si Si4 0.155460 0.115430 0.428050
Si Si5 0.468828 0.149592 0.058119
Si Si6 0.000000 0.000000 0.000000
O O1 0.277940 0.572310 0.782633
O O2 0.000000 0.500000 0.500000
O O3 0.936152 0.413069 0.771188
O O4 0.858650 0.095980 0.589448
O O5 0.359258 0.681973 0.221433
O O6 0.500000 0.000000 0.500000
O O7 0.330323 0.984258 0.149916
O O8 0.401981 0.379563 0.606968
O O9 0.772551 0.709504 0.960176
O O10 0.405034 0.218443 0.881638
O O11 0.000000 0.000000 0.500000
O O12 0.084918 0.124558 0.221584
O O13 0.500000 0.000000 0.000000
#
# Coordination Sequence:
#
# PCOD9032037 Si02
#       6
#     2   2   2   2   2   1
#     4  12  23  45  75 114 149 194 260 314 390 453
#     4  11  22  42  80 112 150 196 247 333 384 450
#     4  11  25  51  73 113 152 202 263 313 389 467
#     4  12  29  51  74 111 157 208 256 321 385 472
#     4  10  22  43  69 111 149 187 250 316 383 450
#     4  12  28  52  76 110 156 212 258 310 396 472
#
# _framework density 26.793875
#
# number of rings (size 3 to 8) (size 9 to 14) (size 15 to 20)
#    0.000    0.727    5.455    1.636    2.545    5.091 
#    3.273    0.000    0.000    0.000    0.000    0.000 
#    0.000    0.000    0.000    0.000    0.000    0.000 
#
# Total GULP energy -61396.902565 kJ/mol
# GULP energy per Si atom -5581.536597 kJ/mol
# Density = 2.673289 g / cm^3
# Si number density = 26.793875 Si / 1000 Ang^3
#
#
#
# Elastic Constant Matrix: (Units=GPa)
#
#
# Indices 1 2 3 4 5 6 
#
# 1 101.7952 17.8584 18.0144 -14.1928 -25.3028 21.9774
# 2 17.8584 126.6831 46.5256 -21.4021 -15.0213 26.1709
# 3 18.0144 46.5256 157.0807 -19.6081 -1.6927 15.8862
# 4 -14.1928 -21.4021 -19.6081 76.8247 16.8402 -22.4596
# 5 -25.3028 -15.0213 -1.6927 16.8402 29.5532 -0.9330
# 6 21.9774 26.1709 15.8862 -22.4596 -0.9330 46.2622
#
#
#
# Elastic Compliance Matrix: (Units=1/GPa)
#
#
# Indices 1 2 3 4 5 6 
#
# 1 0.014974 0.001477 -0.001498 -0.002983 0.014914 -0.008582
# 2 0.001477 0.010592 -0.002717 -0.000677 0.006691 -0.005955
# 3 -0.001498 -0.002717 0.007476 0.001704 -0.003193 0.000445
# 4 -0.002983 -0.000677 0.001704 0.018462 -0.013007 0.009916
# 5 0.014914 0.006691 -0.003193 -0.013007 0.056764 -0.014944
# 6 -0.008582 -0.005955 0.000445 0.009916 -0.014944 0.033421
#
#
# Mechanical properties :
#
#
# Convention : Reuss Voigt Hill
#
# Bulk Modulus (GPa) = 36.27781 61.15066 48.71423
# Shear Modulus (GPa) = 31.97859 50.73871 41.35865
#
# Velocity S-wave (km/s) = 3.45846 4.35635 3.93311
# Velocity P-wave (km/s) = 5.43295 6.94089 6.23269
#
# Compressibility (1/GPa) = 0.02756506
#
# Stress axis : x y z
#
# Youngs Moduli (GPa) = 66.78413 94.40709 133.75968
#
# Poissons Ratio (x) = -0.13942 0.20042
# Poissons Ratio (y) = -0.09862 0.36342
# Poissons Ratio (z) = 0.10007 0.25650
#
# Static dielectric constant tensor:
#      x y z
#    x 4.919630 -0.366160 -3.100560 
#    y -0.366160 2.016070 0.502240 
#    z -3.100560 0.502240 5.639170 
# 
# From -- ./inp_files/234466.got.cif
#   From: 2010.05.17/outbox.cif.g08.bks.cpg/sg2_118_cif.got.tgz:234466.got - 2010.06.03 11:33:40.
