data_PCOD9032994
_publ_section_title
;
Structure prediction by ZEFSAII (Michael W. Deem and Ramdas Pophale) SiO2 
 PCOD9032994
Probable space group: P -1
;
_chemical_formula_sum "Si O2"
_cell_formula_units_Z 16
_cell_length_a 10.166729
_cell_length_b 8.724481
_cell_length_c 14.435782
_cell_angle_alpha 66.814823
_cell_angle_beta 47.581025
_cell_angle_gamma 49.247841
_cell_volume 713.583347
_symmetry_space_group_name_H-M "P -1"
_symmetry_group_IT_number 2
_symmetry_cell_setting 'triclinic'
loop_
_space_group_symop_operation_xyz
x,y,z
-x,-y,-z
loop_
_atom_site_type_symbol
_atom_site_label
_atom_site_fract_x
_atom_site_fract_y
_atom_site_fract_z
Si Si1 0.411833 0.027470 0.153855
Si Si2 0.554241 0.359057 0.595268
Si Si3 0.177578 0.862928 0.809139
Si Si4 0.713483 0.124152 0.897311
Si Si5 0.242586 0.992064 0.549375
Si Si6 0.237559 0.611992 0.322173
Si Si7 0.558486 0.850433 0.692337
Si Si8 0.766923 0.556725 0.128944
O O1 0.228517 0.040686 0.173938
O O2 0.597185 0.785036 0.117585
O O3 0.366028 0.093708 0.265209
O O4 0.512719 0.142885 0.037885
O O5 0.500000 0.500000 0.500000
O O6 0.659210 0.385870 0.629906
O O7 0.326182 0.402711 0.730692
O O8 0.731229 0.142714 0.518496
O O9 0.314734 0.908223 0.800672
O O10 0.230437 0.640347 0.854116
O O11 0.255028 0.880399 0.664913
O O12 0.919962 0.025490 0.889578
O O13 0.671216 0.322314 0.820917
O O14 0.422138 0.035105 0.430305
O O15 0.015153 0.209420 0.602993
O O16 0.293208 0.390613 0.334562
O O17 0.000000 0.500000 0.000000
#
# Coordination Sequence:
#
# PCOD9032994 Si02
#       8
#     2   2   2   2   2   2   2   2
#     4  11  23  40  70  91 132 172 227 271 328 402
#     4  12  22  42  69  99 130 178 233 274 326 400
#     4  11  23  40  68  94 134 172 219 279 336 392
#     4  10  22  44  64  95 123 180 226 273 320 395
#     4  11  23  40  65  95 130 176 226 271 333 398
#     4  11  23  41  65  92 137 172 218 281 336 387
#     4  12  23  42  61  96 135 175 213 280 342 395
#     4  12  22  43  66 100 131 178 219 281 329 396
#
# _framework density 22.422049000000001
#
# number of rings (size 3 to 8) (size 9 to 14) (size 15 to 20)
#    0.000    0.750    6.250    1.125    0.000    2.000 
#    0.000    2.500    0.000    0.000    0.000    0.000 
#    0.000    0.000    0.000    0.000    0.000    0.000 
#
# Total GULP energy -89268.843653 kJ/mol
# GULP energy per Si atom -5579.302728 kJ/mol
# Density = 2.237102 g / cm^3
# Si number density = 22.422049 Si / 1000 Ang^3
#
#
#
# Elastic Constant Matrix: (Units=GPa)
#
#
# Indices 1 2 3 4 5 6 
#
# 1 50.0158 8.0554 1.0189 2.9129 -0.7381 -7.5699
# 2 8.0554 58.8033 -8.1639 -9.6068 6.9674 -3.0372
# 3 1.0189 -8.1639 96.7662 -23.3969 8.0622 -1.6324
# 4 2.9129 -9.6068 -23.3969 37.7408 -2.0623 -0.9571
# 5 -0.7381 6.9674 8.0622 -2.0623 35.2373 -3.3881
# 6 -7.5699 -3.0372 -1.6324 -0.9571 -3.3881 20.1068
#
#
#
# Elastic Compliance Matrix: (Units=1/GPa)
#
#
# Indices 1 2 3 4 5 6 
#
# 1 0.021987 -0.003539 -0.001318 -0.003105 0.002033 0.007831
# 2 -0.003539 0.019867 0.003930 0.007573 -0.004302 0.001623
# 3 -0.001318 0.003930 0.013167 0.009118 -0.003181 0.001064
# 4 -0.003105 0.007573 0.009118 0.034291 -0.001439 0.002105
# 5 0.002033 -0.004302 -0.003181 -0.001439 0.030388 0.004909
# 6 0.007831 0.001623 0.001064 0.002105 0.004909 0.053942
#
#
# Mechanical properties :
#
#
# Convention : Reuss Voigt Hill
#
# Bulk Modulus (GPa) = 18.80837 23.04511 20.92674
# Shear Modulus (GPa) = 25.87760 32.26200 29.06980
#
# Velocity S-wave (km/s) = 3.40091 3.79733 3.60458
# Velocity P-wave (km/s) = 4.88141 5.43383 5.16501
#
# Compressibility (1/GPa) = 0.05316782
#
# Stress axis : x y z
#
# Youngs Moduli (GPa) = 45.48241 50.33469 75.94553
#
# Poissons Ratio (x) = 0.17812 0.10010
# Poissons Ratio (y) = 0.16095 -0.29848
# Poissons Ratio (z) = 0.05995 -0.19783
#
# Static dielectric constant tensor:
#      x y z
#    x 1.874360 -0.014740 -0.021940 
#    y -0.014740 1.832290 -0.012780 
#    z -0.021940 -0.012780 1.883050 
# 
# From -- ./inp_files/565238.got.cif
#   From: 2010.05.17/outbox.cif.g08.bks.cpg/sg2_283_cif.got.tgz:565238.got - 2010.06.03 11:33:40.
