data_PCOD9032793
_publ_section_title
;
Structure prediction by ZEFSAII (Michael W. Deem and Ramdas Pophale) SiO2 
 PCOD9032793
Probable space group: P -1
;
_chemical_formula_sum "Si O2"
_cell_formula_units_Z 16
_cell_length_a 7.741798
_cell_length_b 18.731507
_cell_length_c 9.127349
_cell_angle_alpha 65.452854
_cell_angle_beta 118.455935
_cell_angle_gamma 142.638472
_cell_volume 704.504107
_symmetry_space_group_name_H-M "P -1"
_symmetry_group_IT_number 2
_symmetry_cell_setting 'triclinic'
loop_
_space_group_symop_operation_xyz
x,y,z
-x,-y,-z
loop_
_atom_site_type_symbol
_atom_site_label
_atom_site_fract_x
_atom_site_fract_y
_atom_site_fract_z
Si Si1 0.909016 0.021137 0.590698
Si Si2 0.175874 0.467735 0.788098
Si Si3 0.182476 0.244437 0.677505
Si Si4 0.781032 0.450707 0.821778
Si Si5 0.854204 0.043717 0.088252
Si Si6 0.178266 0.303807 0.063052
Si Si7 0.663060 0.598085 0.653334
Si Si8 0.583843 0.058544 0.740365
O O1 0.121929 0.149995 0.635503
O O2 0.632927 0.989328 0.443440
O O3 0.000000 0.000000 0.500000
O O4 0.916948 0.956737 0.776012
O O5 0.463708 0.581895 0.902671
O O6 0.920754 0.452656 0.731933
O O7 0.893821 0.183563 0.700921
O O8 0.073618 0.351436 0.899053
O O9 0.462044 0.316742 0.833100
O O10 0.329366 0.506393 0.659310
O O11 0.279268 0.340174 0.523670
O O12 0.746173 0.532981 0.729107
O O13 0.000000 0.500000 0.000000
O O14 0.026129 0.177476 0.067535
O O15 0.591088 0.958827 0.175304
O O16 0.693003 0.006751 0.896967
O O17 0.138896 0.304278 0.221209
#
# Coordination Sequence:
#
# PCOD9032793 Si02
#       8
#     2   2   2   2   2   2   2   2
#     4  10  23  48  66 103 140 182 249 291 349 442
#     4   9  21  39  70  99 140 183 239 285 362 425
#     4  12  27  44  68 100 149 182 230 305 365 416
#     4  12  24  45  68 109 138 184 247 289 355 458
#     4  10  22  43  75 102 139 194 243 283 374 425
#     4   9  18  40  69  98 139 187 227 301 352 425
#     4  10  22  44  65  99 145 181 228 297 361 425
#     4  10  24  43  68 101 144 182 240 301 350 421
#
# _framework density 22.711010999999999
#
# number of rings (size 3 to 8) (size 9 to 14) (size 15 to 20)
#    0.750    1.000    1.250    2.250    3.500    5.000 
#    4.500    0.000    0.000    0.000    0.000    0.000 
#    0.000    0.000    0.000    0.000    0.000    0.000 
#
# Total GULP energy -89165.006594 kJ/mol
# GULP energy per Si atom -5572.812912 kJ/mol
# Density = 2.265932 g / cm^3
# Si number density = 22.711011 Si / 1000 Ang^3
#
#
#
# Elastic Constant Matrix: (Units=GPa)
#
#
# Indices 1 2 3 4 5 6 
#
# 1 107.8328 43.6733 34.7750 -6.9441 -4.2523 3.7427
# 2 43.6733 118.0070 56.2145 15.5077 16.7290 -8.7908
# 3 34.7750 56.2145 172.0136 0.6577 12.0062 -0.8014
# 4 -6.9441 15.5077 0.6577 26.6968 6.6457 -2.9802
# 5 -4.2523 16.7290 12.0062 6.6457 22.6986 -7.7934
# 6 3.7427 -8.7908 -0.8014 -2.9802 -7.7934 34.4215
#
#
#
# Elastic Compliance Matrix: (Units=1/GPa)
#
#
# Indices 1 2 3 4 5 6 
#
# 1 0.012452 -0.005580 -0.001075 0.005101 0.005107 -0.001206
# 2 -0.005580 0.014073 -0.002946 -0.007604 -0.006983 0.001893
# 3 -0.001075 -0.002946 0.007169 0.001817 -0.002668 -0.000915
# 4 0.005101 -0.007604 0.001817 0.045038 -0.007689 -0.000296
# 5 0.005107 -0.006983 -0.002668 -0.007689 0.057216 0.009888
# 6 -0.001206 0.001893 -0.000915 -0.000296 0.009888 0.031858
#
#
# Mechanical properties :
#
#
# Convention : Reuss Voigt Hill
#
# Bulk Modulus (GPa) = 69.00823 74.13100 71.56962
# Shear Modulus (GPa) = 26.06366 34.30943 30.18655
#
# Velocity S-wave (km/s) = 3.39133 3.89098 3.64972
# Velocity P-wave (km/s) = 6.76655 7.27311 7.02440
#
# Compressibility (1/GPa) = 0.01449102
#
# Stress axis : x y z
#
# Youngs Moduli (GPa) = 80.30699 71.05985 139.49861
#
# Poissons Ratio (x) = 0.39654 0.15000
# Poissons Ratio (y) = 0.44814 0.41090
# Poissons Ratio (z) = 0.08635 0.20931
#
# Static dielectric constant tensor:
#      x y z
#    x 1.880680 0.015530 0.008370 
#    y 0.015530 1.837620 0.062000 
#    z 0.008370 0.062000 1.927440 
# 
# From -- ./inp_files/401175.got.cif
#   From: 2010.05.17/outbox.cif.g08.bks.cpg/sg2_201_cif.got.tgz:401175.got - 2010.06.03 11:33:40.
