data_PCOD9032644
_publ_section_title
;
Structure prediction by ZEFSAII (Michael W. Deem and Ramdas Pophale) SiO2 
 PCOD9032644
Probable space group: P -1
;
_chemical_formula_sum "Si O2"
_cell_formula_units_Z 15
_cell_length_a 12.773138
_cell_length_b 19.857478
_cell_length_c 8.538641
_cell_angle_alpha 131.766377
_cell_angle_beta 148.009793
_cell_angle_gamma 34.209386
_cell_volume 640.521916
_symmetry_space_group_name_H-M "P -1"
_symmetry_group_IT_number 2
_symmetry_cell_setting 'triclinic'
loop_
_space_group_symop_operation_xyz
x,y,z
-x,-y,-z
loop_
_atom_site_type_symbol
_atom_site_label
_atom_site_fract_x
_atom_site_fract_y
_atom_site_fract_z
Si Si1 0.066959 0.385516 0.991810
Si Si2 0.462069 0.862179 0.235725
Si Si3 0.244502 0.707295 0.150320
Si Si4 0.500000 0.500000 0.000000
Si Si5 0.590028 0.246082 0.267697
Si Si6 0.287579 0.659817 0.667087
Si Si7 0.909166 0.626991 0.626230
Si Si8 0.112132 0.117247 0.296807
O O1 0.348580 0.277256 0.103898
O O2 0.095279 0.367295 0.184820
O O3 0.000000 0.500000 0.000000
O O4 0.847522 0.380680 0.655925
O O5 0.640605 0.739089 0.372943
O O6 0.668283 0.872930 0.445200
O O7 0.261402 0.977288 0.269156
O O8 0.322944 0.858200 0.903809
O O9 0.535060 0.588758 0.285227
O O10 0.233590 0.755639 0.381353
O O11 0.125260 0.639525 0.865567
O O12 0.086488 0.817795 0.002521
O O13 0.595305 0.412184 0.136621
O O14 0.512933 0.349720 0.209726
O O15 0.056978 0.799900 0.641766
O O16 0.000000 0.500000 0.500000
#
# Coordination Sequence:
#
# PCOD9032644 Si02
#       8
#     2   2   2   1   2   2   2   2
#     4  12  26  42  65 100 142 177 220 278 340 398
#     4  10  22  43  72  99 128 183 225 275 340 402
#     4  10  23  41  64 100 134 175 216 284 331 395
#     4  10  24  38  66  92 136 178 216 270 332 390
#     4  12  25  41  69 101 131 178 224 276 343 395
#     4  11  24  45  65 100 137 177 224 280 331 399
#     4  11  25  42  67  99 136 177 224 273 338 405
#     4   9  21  46  69  94 138 174 229 277 332 405
#
# _framework density 23.418402
#
# number of rings (size 3 to 8) (size 9 to 14) (size 15 to 20)
#    0.000    1.333    2.667    1.600    9.333    3.200 
#    0.000    2.667    0.000    0.000    0.000    0.000 
#    0.000    0.000    0.000    0.000    0.000    0.000 
#
# Total GULP energy -83644.468325 kJ/mol
# GULP energy per Si atom -5576.297888 kJ/mol
# Density = 2.336510 g / cm^3
# Si number density = 23.418402 Si / 1000 Ang^3
#
#
#
# Elastic Constant Matrix: (Units=GPa)
#
#
# Indices 1 2 3 4 5 6 
#
# 1 96.2464 1.7194 21.6860 3.6544 -7.4750 11.5788
# 2 1.7194 141.7426 35.8634 16.3848 -16.7951 -4.6831
# 3 21.6860 35.8634 108.7091 20.5622 -29.0819 6.0727
# 4 3.6544 16.3848 20.5622 25.1109 -8.7739 -5.2885
# 5 -7.4750 -16.7951 -29.0819 -8.7739 40.5255 1.5100
# 6 11.5788 -4.6831 6.0727 -5.2885 1.5100 26.2489
#
#
#
# Elastic Compliance Matrix: (Units=1/GPa)
#
#
# Indices 1 2 3 4 5 6 
#
# 1 0.011470 0.000376 -0.001626 -0.001267 0.001014 -0.004930
# 2 0.000376 0.008072 -0.001830 -0.003131 0.001387 0.000987
# 3 -0.001626 -0.001830 0.013968 -0.008501 0.007311 -0.004974
# 4 -0.001267 -0.003131 -0.008501 0.052791 0.003335 0.012411
# 5 0.001014 0.001387 0.007311 0.003335 0.031519 -0.003032
# 6 -0.004930 0.000987 -0.004974 0.012411 -0.003032 0.044273
#
#
# Mechanical properties :
#
#
# Convention : Reuss Voigt Hill
#
# Bulk Modulus (GPa) = 36.56195 51.69286 44.12741
# Shear Modulus (GPa) = 28.18971 37.53902 32.86437
#
# Velocity S-wave (km/s) = 3.47326 4.00806 3.75020
# Velocity P-wave (km/s) = 5.63304 6.59855 6.13482
#
# Compressibility (1/GPa) = 0.02735084
#
# Stress axis : x y z
#
# Youngs Moduli (GPa) = 87.18759 123.87923 71.59032
#
# Poissons Ratio (x) = -0.04657 0.11638
# Poissons Ratio (y) = -0.03278 0.13101
# Poissons Ratio (z) = 0.14174 0.22670
#
# Static dielectric constant tensor:
#      x y z
#    x 1.689020 0.117900 -0.052190 
#    y 0.117900 1.756120 0.127600 
#    z -0.052190 0.127600 1.880980 
# 
# From -- ./inp_files/319128.got.cif
#   From: 2010.05.17/outbox.cif.g08.bks.cpg/sg2_160_cif.got.tgz:319128.got - 2010.06.03 11:33:40.
