data_PCOD9032768
_publ_section_title
;
Structure prediction by ZEFSAII (Michael W. Deem and Ramdas Pophale) SiO2 
 PCOD9032768
Probable space group: P -1
;
_chemical_formula_sum "Si O2"
_cell_formula_units_Z 14
_cell_length_a 7.296384
_cell_length_b 13.521287
_cell_length_c 7.921401
_cell_angle_alpha 102.590912
_cell_angle_beta 107.403468
_cell_angle_gamma 42.103077
_cell_volume 499.972513
_symmetry_space_group_name_H-M "P -1"
_symmetry_group_IT_number 2
_symmetry_cell_setting 'triclinic'
loop_
_space_group_symop_operation_xyz
x,y,z
-x,-y,-z
loop_
_atom_site_type_symbol
_atom_site_label
_atom_site_fract_x
_atom_site_fract_y
_atom_site_fract_z
Si Si1 0.140213 0.252844 0.580883
Si Si2 0.740281 0.853386 0.783311
Si Si3 0.084331 0.866502 0.371713
Si Si4 0.357720 0.675949 0.898450
Si Si5 0.144942 0.453761 0.839736
Si Si6 0.356457 0.416517 0.418529
Si Si7 0.697498 0.062969 0.042393
O O1 0.241617 0.304704 0.749423
O O2 0.438844 0.135621 0.122163
O O3 0.311661 0.163238 0.426676
O O4 0.080890 0.168881 0.621315
O O5 0.073197 0.724112 0.856896
O O6 0.169109 0.582477 0.486964
O O7 0.674450 0.997700 0.851891
O O8 0.407361 0.716199 0.442946
O O9 0.000000 0.000000 0.500000
O O10 0.971554 0.926039 0.175371
O O11 0.506404 0.606707 0.731593
O O12 0.588555 0.578018 0.072351
O O13 0.291940 0.821697 0.931018
O O14 0.888037 0.572379 0.686067
O O15 0.000000 0.500000 0.000000
#
# Coordination Sequence:
#
# PCOD9032768 Si02
#       7
#     2   2   2   2   2   2   2
#     4  10  22  43  74 108 140 194 252 291 365 445
#     4  11  25  44  71 106 145 199 245 297 368 440
#     4  12  22  42  71 108 149 191 236 307 370 430
#     4  11  20  47  74 103 145 196 242 294 377 436
#     4   8  20  38  76 105 139 189 244 299 360 438
#     4   9  20  40  75 104 139 191 242 297 362 437
#     4  11  27  44  66 108 155 185 245 314 358 430
#
# _framework density 28.001541
#
# number of rings (size 3 to 8) (size 9 to 14) (size 15 to 20)
#    0.857    0.857    2.857    0.857    4.000    0.571 
#    2.571    1.429    9.429    0.000    0.000    0.000 
#    0.000    0.000    0.000    0.000    0.000    0.000 
#
# Total GULP energy -78509.683504 kJ/mol
# GULP energy per Si atom -5607.834536 kJ/mol
# Density = 2.793781 g / cm^3
# Si number density = 28.001541 Si / 1000 Ang^3
#
#
#
# Elastic Constant Matrix: (Units=GPa)
#
#
# Indices 1 2 3 4 5 6 
#
# 1 141.4183 15.8910 44.0873 3.9896 16.0018 -33.9883
# 2 15.8910 151.5013 33.2511 -2.0603 -1.8860 -9.8859
# 3 44.0873 33.2511 172.8167 37.8434 4.2422 -16.1313
# 4 3.9896 -2.0603 37.8434 57.9480 -24.0001 16.1288
# 5 16.0018 -1.8860 4.2422 -24.0001 56.9108 1.1813
# 6 -33.9883 -9.8859 -16.1313 16.1288 1.1813 44.1449
#
#
#
# Elastic Compliance Matrix: (Units=1/GPa)
#
#
# Indices 1 2 3 4 5 6 
#
# 1 0.010393 -0.000529 -0.000247 -0.005637 -0.005506 0.010000
# 2 -0.000529 0.007066 -0.001734 0.002064 0.001388 -0.000250
# 3 -0.000247 -0.001734 0.009046 -0.009780 -0.004921 0.006432
# 4 -0.005637 0.002064 -0.009780 0.037994 0.018859 -0.021838
# 5 -0.005506 0.001388 -0.004921 0.018859 0.027763 -0.013360
# 6 0.010000 -0.000250 0.006432 -0.021838 -0.013360 0.040983
#
#
# Mechanical properties :
#
#
# Convention : Reuss Voigt Hill
#
# Bulk Modulus (GPa) = 46.54169 72.46612 59.50391
# Shear Modulus (GPa) = 34.38186 56.63454 45.50820
#
# Velocity S-wave (km/s) = 3.50788 4.50216 4.03575
# Velocity P-wave (km/s) = 5.75014 7.27746 6.55841
#
# Compressibility (1/GPa) = 0.02148611
#
# Stress axis : x y z
#
# Youngs Moduli (GPa) = 96.21809 141.52896 110.54662
#
# Poissons Ratio (x) = 0.07482 0.02726
# Poissons Ratio (y) = 0.05087 0.19169
# Poissons Ratio (z) = 0.02373 0.24542
#
# Static dielectric constant tensor:
#      x y z
#    x 2.131990 -0.044360 0.034500 
#    y -0.044360 2.245040 -0.023590 
#    z 0.034500 -0.023590 2.166840 
# 
# From -- ./inp_files/279969.got.cif
#   From: 2010.05.17/outbox.cif.g08.bks.cpg/sg2_140_cif.got.tgz:279969.got - 2010.06.03 11:33:40.
