data_PCOD9032022
_publ_section_title
;
Structure prediction by ZEFSAII (Michael W. Deem and Ramdas Pophale) SiO2 
 PCOD9032022
Probable space group: P -1
;
_chemical_formula_sum "Si O2"
_cell_formula_units_Z 14
_cell_length_a 23.135613
_cell_length_b 11.078251
_cell_length_c 20.163626
_cell_angle_alpha 159.906733
_cell_angle_beta 160.558452
_cell_angle_gamma 29.727482
_cell_volume 584.233888
_symmetry_space_group_name_H-M "P -1"
_symmetry_group_IT_number 2
_symmetry_cell_setting 'triclinic'
loop_
_space_group_symop_operation_xyz
x,y,z
-x,-y,-z
loop_
_atom_site_type_symbol
_atom_site_label
_atom_site_fract_x
_atom_site_fract_y
_atom_site_fract_z
Si Si1 0.493293 0.855014 0.494029
Si Si2 0.087737 0.922176 0.251696
Si Si3 0.969938 0.083074 0.668636
Si Si4 0.498965 0.909683 0.682337
Si Si5 0.699634 0.196199 0.164450
Si Si6 0.852874 0.935778 0.752879
Si Si7 0.603336 0.150461 0.253646
O O1 0.540667 0.988428 0.690092
O O2 0.626080 0.569041 0.485466
O O3 0.500000 0.000000 0.500000
O O4 0.279822 0.773832 0.233247
O O5 0.025306 0.060208 0.324830
O O6 0.298273 0.955881 0.501427
O O7 0.055970 0.090880 0.233822
O O8 0.012000 0.507204 0.944582
O O9 0.779663 0.004886 0.388592
O O10 0.117968 0.954162 0.717514
O O11 0.500000 0.500000 0.500000
O O12 0.633283 0.189037 0.013482
O O13 0.724224 0.559353 0.419787
O O14 0.540578 0.935579 0.889636
O O15 0.000000 0.000000 0.000000
O O16 0.500000 0.000000 0.000000
#
# Coordination Sequence:
#
# PCOD9032022 Si02
#       7
#     2   2   2   2   2   2   2
#     4  11  25  45  69 105 147 190 226 299 367 421
#     4  10  22  43  69 106 138 188 234 291 365 425
#     4  11  24  43  78 103 138 182 245 300 351 435
#     4  11  19  45  74 103 144 185 244 295 351 433
#     4  12  25  46  75 107 138 193 245 300 354 432
#     4  11  28  47  68  99 151 191 235 300 367 427
#     4  12  27  46  72 107 142 188 249 294 359 433
#
# _framework density 23.963006
#
# number of rings (size 3 to 8) (size 9 to 14) (size 15 to 20)
#    0.000    0.857    4.286    1.714    8.000    3.429 
#    2.571    0.000    0.000    0.000    0.000    0.000 
#    0.000    0.000    0.000    0.000    0.000    0.000 
#
# Total GULP energy -78081.945435 kJ/mol
# GULP energy per Si atom -5577.281817 kJ/mol
# Density = 2.390846 g / cm^3
# Si number density = 23.963006 Si / 1000 Ang^3
#
#
#
# Elastic Constant Matrix: (Units=GPa)
#
#
# Indices 1 2 3 4 5 6 
#
# 1 115.1541 24.3187 39.3311 -30.0914 -8.7587 15.3250
# 2 24.3187 72.9917 36.0364 -34.7370 -7.6007 6.7646
# 3 39.3311 36.0364 87.8769 -29.5516 -25.5218 4.1198
# 4 -30.0914 -34.7370 -29.5516 40.5045 11.2006 3.4827
# 5 -8.7587 -7.6007 -25.5218 11.2006 38.6880 -5.4050
# 6 15.3250 6.7646 4.1198 3.4827 -5.4050 37.7015
#
#
#
# Elastic Compliance Matrix: (Units=1/GPa)
#
#
# Indices 1 2 3 4 5 6 
#
# 1 0.012881 0.003128 -0.004033 0.010781 -0.003203 -0.006811
# 2 0.003128 0.026878 -0.005829 0.023462 -0.005831 -0.008460
# 3 -0.004033 -0.005829 0.019552 0.003327 0.010113 0.001691
# 4 0.010781 0.023462 0.003327 0.059430 -0.010183 -0.015905
# 5 -0.003203 -0.005831 0.010113 -0.010183 0.034594 0.007143
# 6 -0.006811 -0.008460 0.001691 -0.015905 0.007143 0.033119
#
#
# Mechanical properties :
#
#
# Convention : Reuss Voigt Hill
#
# Bulk Modulus (GPa) = 21.81394 52.82169 37.31781
# Shear Modulus (GPa) = 23.23369 35.13459 29.18414
#
# Velocity S-wave (km/s) = 3.11716 3.83325 3.49360
# Velocity P-wave (km/s) = 4.69878 6.45621 5.64629
#
# Compressibility (1/GPa) = 0.04584225
#
# Stress axis : x y z
#
# Youngs Moduli (GPa) = 77.63319 37.20447 51.14613
#
# Poissons Ratio (x) = -0.11638 0.20629
# Poissons Ratio (y) = -0.24284 0.29815
# Poissons Ratio (z) = 0.31312 0.21688
#
# Static dielectric constant tensor:
#      x y z
#    x 1.920350 0.009780 0.034380 
#    y 0.009780 1.947050 0.087180 
#    z 0.034380 0.087180 1.955740 
# 
# From -- ./inp_files/524325.got.cif
#   From: 2010.05.17/outbox.cif.g08.bks.cpg/sg2_263_cif.got.tgz:524325.got - 2010.06.03 11:33:40.
