data_PCOD9032491
_publ_section_title
;
Structure prediction by ZEFSAII (Michael W. Deem and Ramdas Pophale) SiO2 
 PCOD9032491
Probable space group: P -1
;
_chemical_formula_sum "Si O2"
_cell_formula_units_Z 16
_cell_length_a 12.060786
_cell_length_b 8.028258
_cell_length_c 22.749277
_cell_angle_alpha 126.843571
_cell_angle_beta 154.602868
_cell_angle_gamma 69.029078
_cell_volume 638.526648
_symmetry_space_group_name_H-M "P -1"
_symmetry_group_IT_number 2
_symmetry_cell_setting 'triclinic'
loop_
_space_group_symop_operation_xyz
x,y,z
-x,-y,-z
loop_
_atom_site_type_symbol
_atom_site_label
_atom_site_fract_x
_atom_site_fract_y
_atom_site_fract_z
Si Si1 0.796562 0.647190 0.234213
Si Si2 0.339891 0.179378 0.274913
Si Si3 0.995023 0.010294 0.187176
Si Si4 0.905487 0.664693 0.163701
Si Si5 0.475386 0.374018 0.211466
Si Si6 0.113849 0.829337 0.625393
Si Si7 0.979394 0.613290 0.645845
Si Si8 0.048651 0.727469 0.972941
O O1 0.448032 0.418839 0.016690
O O2 0.933120 0.587134 0.342344
O O3 0.793666 0.895872 0.285383
O O4 0.987292 0.663402 0.270509
O O5 0.615381 0.445503 0.444884
O O6 0.037819 0.155439 0.097135
O O7 0.277174 0.142488 0.305795
O O8 0.326722 0.943980 0.189902
O O9 0.080699 0.921251 0.267937
O O10 0.721987 0.779583 0.972062
O O11 0.891072 0.190612 0.197717
O O12 0.909920 0.472222 0.081284
O O13 0.636295 0.236291 0.287577
O O14 0.238984 0.388572 0.144426
O O15 0.772379 0.641852 0.398281
O O16 0.079268 0.757681 0.663213
#
# Coordination Sequence:
#
# PCOD9032491 Si02
#       8
#     2   2   2   2   2   2   2   2
#     4  11  27  43  70 105 139 184 231 292 341 411
#     4  10  23  41  68 101 134 188 228 280 348 410
#     4  11  24  43  70 101 140 186 228 290 345 409
#     4  11  25  44  67 107 137 181 240 282 345 417
#     4  10  24  43  71 101 139 188 226 286 350 409
#     4  11  24  46  71 103 142 179 235 285 346 414
#     4  12  24  46  70 104 142 183 232 284 350 410
#     4  10  22  43  71  96 142 185 226 283 348 412
#
# _framework density 25.057686
#
# number of rings (size 3 to 8) (size 9 to 14) (size 15 to 20)
#    0.000    1.250    2.500    1.875    8.750    5.000 
#    0.000    5.625    0.000    0.000    0.000    0.000 
#    0.000    0.000    0.000    0.000    0.000    0.000 
#
# Total GULP energy -89507.423745 kJ/mol
# GULP energy per Si atom -5594.213984 kJ/mol
# Density = 2.500065 g / cm^3
# Si number density = 25.057686 Si / 1000 Ang^3
#
#
#
# Elastic Constant Matrix: (Units=GPa)
#
#
# Indices 1 2 3 4 5 6 
#
# 1 164.2936 29.2161 10.8339 9.1178 3.3433 2.2080
# 2 29.2161 91.4675 -16.6714 18.3873 -5.5559 5.4572
# 3 10.8339 -16.6714 52.4468 -2.5900 6.7027 -1.2171
# 4 9.1178 18.3873 -2.5900 25.1009 -1.0833 -2.7489
# 5 3.3433 -5.5559 6.7027 -1.0833 27.8051 9.2092
# 6 2.2080 5.4572 -1.2171 -2.7489 9.2092 44.9632
#
#
#
# Elastic Compliance Matrix: (Units=1/GPa)
#
#
# Indices 1 2 3 4 5 6 
#
# 1 0.006718 -0.002388 -0.002088 -0.000940 -0.000823 0.000015
# 2 -0.002388 0.014749 0.004294 -0.009673 0.002718 -0.002705
# 3 -0.002088 0.004294 0.021440 -0.000250 -0.004417 0.001051
# 4 -0.000940 -0.009673 -0.000250 0.047664 -0.001362 0.004406
# 5 -0.000823 0.002718 -0.004417 -0.001362 0.040531 -0.008794
# 6 0.000015 -0.002705 0.001051 0.004406 -0.008794 0.024667
#
#
# Mechanical properties :
#
#
# Convention : Reuss Voigt Hill
#
# Bulk Modulus (GPa) = 23.50581 39.44055 31.47318
# Shear Modulus (GPa) = 29.35762 38.56247 33.96005
#
# Velocity S-wave (km/s) = 3.42658 3.92720 3.68540
# Velocity P-wave (km/s) = 5.00563 6.02809 5.54050
#
# Compressibility (1/GPa) = 0.04254268
#
# Stress axis : x y z
#
# Youngs Moduli (GPa) = 148.85960 67.80026 46.64255
#
# Poissons Ratio (x) = 0.16192 0.09738
# Poissons Ratio (y) = 0.35550 -0.20028
# Poissons Ratio (z) = 0.31077 -0.29113
#
# Static dielectric constant tensor:
#      x y z
#    x 2.027820 -0.010920 -0.051590 
#    y -0.010920 2.021390 0.016030 
#    z -0.051590 0.016030 2.011140 
# 
# From -- ./inp_files/609906.got.cif
#   From: 2010.05.17/outbox.cif.g08.bks.cpg/sg2_305_cif.got.tgz:609906.got - 2010.06.03 11:33:40.
