data_PCOD9032193
_publ_section_title
;
Structure prediction by ZEFSAII (Michael W. Deem and Ramdas Pophale) SiO2 
 PCOD9032193
Probable space group: P -1
;
_chemical_formula_sum "Si O2"
_cell_formula_units_Z 16
_cell_length_a 10.783626
_cell_length_b 5.111377
_cell_length_c 18.012610
_cell_angle_alpha 129.715120
_cell_angle_beta 51.264169
_cell_angle_gamma 108.661465
_cell_volume 590.435971
_symmetry_space_group_name_H-M "P -1"
_symmetry_group_IT_number 2
_symmetry_cell_setting 'triclinic'
loop_
_space_group_symop_operation_xyz
x,y,z
-x,-y,-z
loop_
_atom_site_type_symbol
_atom_site_label
_atom_site_fract_x
_atom_site_fract_y
_atom_site_fract_z
Si Si1 0.002887 0.475060 0.306067
Si Si2 0.196421 0.992195 0.627905
Si Si3 0.224006 0.275012 0.450586
Si Si4 0.358848 0.720306 0.789740
Si Si5 0.531262 0.997727 0.357704
Si Si6 0.343521 0.619225 0.186587
Si Si7 0.983653 0.409118 0.074248
Si Si8 0.668249 0.532071 0.002899
O O1 0.193771 0.410462 0.217011
O O2 0.917211 0.140751 0.289801
O O3 0.948297 0.697005 0.440203
O O4 0.911405 0.689766 0.312571
O O5 0.216876 0.673880 0.503640
O O6 0.369328 0.972125 0.598806
O O7 0.356051 0.212647 0.456343
O O8 0.286025 0.981182 0.315181
O O9 0.487733 0.405795 0.710068
O O10 0.200445 0.524429 0.818544
O O11 0.354287 0.049674 0.904083
O O12 0.142311 0.540472 0.069207
O O13 0.616349 0.135501 0.276756
O O14 0.528746 0.451047 0.097687
O O15 0.352235 0.653666 0.100695
O O16 0.000000 0.500000 0.000000
O O17 0.000000 0.000000 0.000000
#
# Coordination Sequence:
#
# PCOD9032193 Si02
#       8
#     2   2   2   2   2   2   2   2
#     4  10  25  47  73 105 144 189 241 298 353 428
#     4  10  25  45  73 111 138 184 239 300 375 412
#     4  10  25  44  77 103 149 183 247 291 369 419
#     4  11  24  44  72 109 146 185 235 293 370 425
#     4  12  24  42  78 109 144 185 231 308 368 433
#     4  11  23  50  70 106 146 200 245 289 350 426
#     4  10  22  43  70 100 139 178 235 291 356 411
#     4  10  24  45  76 105 149 193 241 295 351 432
#
# _framework density 27.098617999999998
#
# number of rings (size 3 to 8) (size 9 to 14) (size 15 to 20)
#    0.750    0.750    1.250    3.000    5.250    1.000 
#    2.250    1.875    0.000    0.000    0.000    0.000 
#    0.000    0.000    0.000    0.000    0.000    0.000 
#
# Total GULP energy -89255.921077 kJ/mol
# GULP energy per Si atom -5578.495067 kJ/mol
# Density = 2.703694 g / cm^3
# Si number density = 27.098618 Si / 1000 Ang^3
#
#
#
# Elastic Constant Matrix: (Units=GPa)
#
#
# Indices 1 2 3 4 5 6 
#
# 1 84.3495 42.7912 32.2545 -19.4183 -12.6400 32.2159
# 2 42.7912 153.4365 28.3307 -17.7563 -16.4616 -10.4684
# 3 32.2545 28.3307 122.2558 -29.0670 -23.3163 3.4717
# 4 -19.4183 -17.7563 -29.0670 46.9520 12.3341 -17.7386
# 5 -12.6400 -16.4616 -23.3163 12.3341 58.8470 -6.2209
# 6 32.2159 -10.4684 3.4717 -17.7386 -6.2209 39.6058
#
#
#
# Elastic Compliance Matrix: (Units=1/GPa)
#
#
# Indices 1 2 3 4 5 6 
#
# 1 0.027768 -0.009245 -0.005904 -0.005779 -0.000625 -0.027199
# 2 -0.009245 0.010546 0.001220 0.005333 0.001689 0.012855
# 3 -0.005904 0.001220 0.011543 0.007370 0.002934 0.007875
# 4 -0.005779 0.005333 0.007370 0.033587 -0.001730 0.020236
# 5 -0.000625 0.001689 0.002934 -0.001730 0.019167 0.002934
# 6 -0.027199 0.012855 0.007875 0.020236 0.002934 0.059604
#
#
# Mechanical properties :
#
#
# Convention : Reuss Voigt Hill
#
# Bulk Modulus (GPa) = 45.46004 62.97716 54.21860
# Shear Modulus (GPa) = 25.32857 46.19200 35.76028
#
# Velocity S-wave (km/s) = 3.06057 4.13315 3.63662
# Velocity P-wave (km/s) = 5.41310 6.78731 6.13878
#
# Compressibility (1/GPa) = 0.02199734
#
# Stress axis : x y z
#
# Youngs Moduli (GPa) = 36.01307 94.82462 86.63452
#
# Poissons Ratio (x) = 0.87670 0.51152
# Poissons Ratio (y) = 0.33296 -0.10573
# Poissons Ratio (z) = 0.21263 -0.11572
#
# Static dielectric constant tensor:
#      x y z
#    x 2.382310 -0.039440 0.037660 
#    y -0.039440 2.162880 -0.011870 
#    z 0.037660 -0.011870 2.232310 
# 
# From -- ./inp_files/564311.got.cif
#   From: 2010.05.17/outbox.cif.g08.bks.cpg/sg2_283_cif.got.tgz:564311.got - 2010.06.03 11:33:40.
