data_PCOD9032933
_publ_section_title
;
Structure prediction by ZEFSAII (Michael W. Deem and Ramdas Pophale) SiO2 
 PCOD9032933
Probable space group: P -1
;
_chemical_formula_sum "Si O2"
_cell_formula_units_Z 16
_cell_length_a 24.484275
_cell_length_b 5.849951
_cell_length_c 11.831628
_cell_angle_alpha 121.361660
_cell_angle_beta 151.511794
_cell_angle_gamma 62.974847
_cell_volume 690.202822
_symmetry_space_group_name_H-M "P -1"
_symmetry_group_IT_number 2
_symmetry_cell_setting 'triclinic'
loop_
_space_group_symop_operation_xyz
x,y,z
-x,-y,-z
loop_
_atom_site_type_symbol
_atom_site_label
_atom_site_fract_x
_atom_site_fract_y
_atom_site_fract_z
Si Si1 0.056621 0.789195 0.635933
Si Si2 0.724278 0.352068 0.634769
Si Si3 0.045779 0.827647 0.876285
Si Si4 0.618307 0.696199 0.065565
Si Si5 0.463449 0.241564 0.578292
Si Si6 0.152823 0.566824 0.562232
Si Si7 0.537155 0.888409 0.192139
Si Si8 0.108449 0.694753 0.266711
O O1 0.066664 0.924102 0.810640
O O2 0.168524 0.722519 0.749012
O O3 0.000000 0.500000 0.500000
O O4 0.000000 0.000000 0.500000
O O5 0.655713 0.604091 0.626431
O O6 0.786296 0.408481 0.643024
O O7 0.628969 0.122692 0.389488
O O8 0.829484 0.227690 0.863165
O O9 0.975017 0.551874 0.689983
O O10 0.952566 0.030958 0.809149
O O11 0.751105 0.656143 0.317035
O O12 0.562084 0.676252 0.083643
O O13 0.563312 0.467684 0.827048
O O14 0.584626 0.977174 0.021565
O O15 0.450125 0.158966 0.664468
O O16 0.500000 0.000000 0.500000
O O17 0.152514 0.713910 0.480337
O O18 0.000000 0.500000 0.000000
#
# Coordination Sequence:
#
# PCOD9032933 Si02
#       8
#     2   2   2   2   2   2   2   2
#     4  10  22  44  63  94 138 189 231 285 347 432
#     4  11  25  41  69 104 136 187 225 293 356 425
#     4  11  24  41  65  99 143 178 231 284 359 427
#     4  10  23  43  69 101 127 183 233 290 359 413
#     4  11  26  47  70 100 136 181 238 294 356 423
#     4  11  23  41  66  97 140 180 232 285 348 433
#     4  10  23  45  71  94 139 171 238 297 355 418
#     4  12  24  39  66 103 141 176 232 279 358 424
#
# _framework density 23.181591999999998
#
# number of rings (size 3 to 8) (size 9 to 14) (size 15 to 20)
#    0.000    1.250    2.500    2.250    3.500    7.000 
#    4.500    0.000    0.000    0.000    0.000    0.000 
#    0.000    0.000    0.000    0.000    0.000    0.000 
#
# Total GULP energy -89192.867985 kJ/mol
# GULP energy per Si atom -5574.554249 kJ/mol
# Density = 2.312883 g / cm^3
# Si number density = 23.181592 Si / 1000 Ang^3
#
#
#
# Elastic Constant Matrix: (Units=GPa)
#
#
# Indices 1 2 3 4 5 6 
#
# 1 104.3329 33.0129 27.8238 -12.7855 -10.3302 -19.2158
# 2 33.0129 96.4075 39.9789 -18.8863 -0.1549 -29.2923
# 3 27.8238 39.9789 91.5193 -27.6526 5.6756 -10.2890
# 4 -12.7855 -18.8863 -27.6526 48.0109 -0.2624 -1.4231
# 5 -10.3302 -0.1549 5.6756 -0.2624 28.1027 -2.5933
# 6 -19.2158 -29.2923 -10.2890 -1.4231 -2.5933 45.6774
#
#
#
# Elastic Compliance Matrix: (Units=1/GPa)
#
#
# Indices 1 2 3 4 5 6 
#
# 1 0.012173 -0.001735 -0.002458 0.001285 0.005324 0.003797
# 2 -0.001735 0.016251 -0.004577 0.003563 0.001225 0.008841
# 3 -0.002458 -0.004577 0.015896 0.006666 -0.004115 -0.000414
# 4 0.001285 0.003563 0.006666 0.026564 -0.000131 0.005147
# 5 0.005324 0.001225 -0.004115 -0.000131 0.038774 0.004296
# 6 0.003797 0.008841 -0.000414 0.005147 0.004296 0.029471
#
#
# Mechanical properties :
#
#
# Convention : Reuss Voigt Hill
#
# Bulk Modulus (GPa) = 37.34099 54.87678 46.10889
# Shear Modulus (GPa) = 30.19414 37.12115 33.65765
#
# Velocity S-wave (km/s) = 3.61294 4.00599 3.81453
# Velocity P-wave (km/s) = 5.79202 6.71724 6.27171
#
# Compressibility (1/GPa) = 0.02678022
#
# Stress axis : x y z
#
# Youngs Moduli (GPa) = 82.14785 61.53402 62.90935
#
# Poissons Ratio (x) = 0.10678 0.15462
# Poissons Ratio (y) = 0.14255 0.28793
# Poissons Ratio (z) = 0.20191 0.28163
#
# Static dielectric constant tensor:
#      x y z
#    x 1.940280 -0.032930 -0.056780 
#    y -0.032930 2.095250 0.094860 
#    z -0.056780 0.094860 1.887730 
# 
# From -- ./inp_files/411314.got.cif
#   From: 2010.05.17/outbox.cif.g08.bks.cpg/sg2_206_cif.got.tgz:411314.got - 2010.06.03 11:33:40.
