data_PCOD9032351
_publ_section_title
;
Structure prediction by ZEFSAII (Michael W. Deem and Ramdas Pophale) SiO2 
 PCOD9032351
Probable space group: P -1
;
_chemical_formula_sum "Si O2"
_cell_formula_units_Z 16
_cell_length_a 23.756522
_cell_length_b 8.487361
_cell_length_c 5.159891
_cell_angle_alpha 113.444545
_cell_angle_beta 50.659944
_cell_angle_gamma 128.972327
_cell_volume 625.562364
_symmetry_space_group_name_H-M "P -1"
_symmetry_group_IT_number 2
_symmetry_cell_setting 'triclinic'
loop_
_space_group_symop_operation_xyz
x,y,z
-x,-y,-z
loop_
_atom_site_type_symbol
_atom_site_label
_atom_site_fract_x
_atom_site_fract_y
_atom_site_fract_z
Si Si1 0.441154 0.960377 0.397842
Si Si2 0.230583 0.894769 0.632169
Si Si3 0.950498 0.764722 0.748104
Si Si4 0.105022 0.949197 0.760189
Si Si5 0.158015 0.445327 0.553290
Si Si6 0.741868 0.759009 0.829279
Si Si7 0.595957 0.445874 0.711632
Si Si8 0.595536 0.776393 0.657698
O O1 0.375656 0.718406 0.471035
O O2 0.500000 0.000000 0.500000
O O3 0.411295 0.116648 0.516044
O O4 0.500000 0.000000 0.000000
O O5 0.138856 0.827290 0.730093
O O6 0.219002 0.682202 0.583011
O O7 0.322737 0.034103 0.311917
O O8 0.244434 0.053416 0.920038
O O9 0.910881 0.624542 0.523621
O O10 0.046660 0.841146 0.609071
O O11 0.894067 0.650932 0.093132
O O12 0.942792 0.963293 0.879524
O O13 0.196164 0.140053 0.533103
O O14 0.216625 0.357192 0.239238
O O15 0.649388 0.605570 0.883619
O O16 0.609427 0.586386 0.515203
O O17 0.495442 0.319681 0.995425
#
# Coordination Sequence:
#
# PCOD9032351 Si02
#       8
#     2   2   2   2   2   2   2   2
#     4  10  23  43  67  98 136 181 239 298 350 419
#     4  12  25  42  71 103 141 184 236 301 349 424
#     4  10  24  46  73 102 140 187 230 289 358 440
#     4  10  23  44  70 100 143 179 235 289 359 418
#     4  11  26  45  72 103 141 184 235 289 362 428
#     4  11  24  45  67 103 140 188 232 298 353 425
#     4  10  22  43  70  98 143 192 239 297 364 427
#     4  10  23  43  66 105 135 188 242 293 352 430
#
# _framework density 25.576986000000002
#
# number of rings (size 3 to 8) (size 9 to 14) (size 15 to 20)
#    0.000    1.500    2.500    0.750    3.500    8.500 
#    0.000    6.250    0.000    0.000    0.000    0.000 
#    0.000    0.000    0.000    0.000    0.000    0.000 
#
# Total GULP energy -89331.281583 kJ/mol
# GULP energy per Si atom -5583.205099 kJ/mol
# Density = 2.551877 g / cm^3
# Si number density = 25.576986 Si / 1000 Ang^3
#
#
#
# Elastic Constant Matrix: (Units=GPa)
#
#
# Indices 1 2 3 4 5 6 
#
# 1 179.8010 63.7406 45.8350 7.3515 4.6731 -6.7518
# 2 63.7406 178.8422 40.8016 9.3801 4.7265 -15.8134
# 3 45.8350 40.8016 63.0027 -0.8939 12.6221 3.1778
# 4 7.3515 9.3801 -0.8939 29.3103 5.8408 -2.7742
# 5 4.6731 4.7265 12.6221 5.8408 39.3821 -11.6648
# 6 -6.7518 -15.8134 3.1778 -2.7742 -11.6648 43.5718
#
#
#
# Elastic Compliance Matrix: (Units=1/GPa)
#
#
# Indices 1 2 3 4 5 6 
#
# 1 0.007362 -0.001346 -0.004874 -0.001739 0.001492 0.001297
# 2 -0.001346 0.007428 -0.004419 -0.002264 0.001965 0.003192
# 3 -0.004874 -0.004419 0.024533 0.004642 -0.009323 -0.006349
# 4 -0.001739 -0.002264 0.004642 0.036673 -0.006713 -0.000892
# 5 0.001492 0.001965 -0.009323 -0.006713 0.031843 0.009722
# 6 0.001297 0.003192 -0.006349 -0.000892 0.009722 0.027319
#
#
# Mechanical properties :
#
#
# Convention : Reuss Voigt Hill
#
# Bulk Modulus (GPa) = 55.40703 80.26671 67.83687
# Shear Modulus (GPa) = 30.77876 40.53742 35.65809
#
# Velocity S-wave (km/s) = 3.47274 3.98542 3.73788
# Velocity P-wave (km/s) = 6.14734 7.25456 6.72378
#
# Compressibility (1/GPa) = 0.01804825
#
# Stress axis : x y z
#
# Youngs Moduli (GPa) = 135.83053 134.62230 40.76091
#
# Poissons Ratio (x) = 0.18115 0.19865
# Poissons Ratio (y) = 0.18278 0.18010
# Poissons Ratio (z) = 0.66197 0.59484
#
# Static dielectric constant tensor:
#      x y z
#    x 2.154320 -0.079690 -0.060620 
#    y -0.079690 2.024280 -0.021790 
#    z -0.060620 -0.021790 2.048840 
# 
# From -- ./inp_files/122966.got.cif
#   From: 2010.05.17/outbox.cif.g08.bks.cpg/sg2_62_cif.got.tgz:122966.got - 2010.06.03 11:33:40.
