data_PCOD9032626
_publ_section_title
;
Structure prediction by ZEFSAII (Michael W. Deem and Ramdas Pophale) SiO2 
 PCOD9032626
Probable space group: P -1
;
_chemical_formula_sum "Si O2"
_cell_formula_units_Z 14
_cell_length_a 11.427412
_cell_length_b 15.505900
_cell_length_c 14.532939
_cell_angle_alpha 153.898595
_cell_angle_beta 152.683405
_cell_angle_gamma 38.310059
_cell_volume 518.807491
_symmetry_space_group_name_H-M "P -1"
_symmetry_group_IT_number 2
_symmetry_cell_setting 'triclinic'
loop_
_space_group_symop_operation_xyz
x,y,z
-x,-y,-z
loop_
_atom_site_type_symbol
_atom_site_label
_atom_site_fract_x
_atom_site_fract_y
_atom_site_fract_z
Si Si1 0.207117 0.649035 0.126058
Si Si2 0.709072 0.476275 0.240762
Si Si3 0.841676 0.923938 0.421056
Si Si4 0.065056 0.234022 0.458519
Si Si5 0.256757 0.666767 0.441110
Si Si6 0.484920 0.652357 0.779176
Si Si7 0.240114 0.871281 0.174115
O O1 0.478912 0.548913 0.210761
O O2 0.160353 0.725452 0.062244
O O3 0.206637 0.850815 0.376589
O O4 0.973937 0.496883 0.848764
O O5 0.721705 0.621146 0.300122
O O6 0.000000 0.500000 0.500000
O O7 0.804862 0.342020 0.385066
O O8 0.699037 0.250468 0.989045
O O9 0.861599 0.832635 0.451645
O O10 0.117306 0.866182 0.519358
O O11 0.644887 0.802747 0.100595
O O12 0.035133 0.036077 0.186973
O O13 0.455307 0.708585 0.703687
O O14 0.395038 0.558133 0.351324
O O15 0.500000 0.000000 0.500000
#
# Coordination Sequence:
#
# PCOD9032626 Si02
#       7
#     2   2   2   2   2   2   2
#     4  11  25  43  68  98 136 180 222 277 338 392
#     4  12  28  42  67 102 135 179 226 275 334 404
#     4  10  23  43  71  97 131 182 222 277 333 395
#     4  10  24  44  66 100 137 173 227 276 335 395
#     4  10  23  45  68 101 139 174 220 281 337 398
#     4  10  22  43  72  97 135 179 224 273 337 403
#     4  11  23  42  68  92 134 183 218 273 335 394
#
# _framework density 26.984960000000001
#
# number of rings (size 3 to 8) (size 9 to 14) (size 15 to 20)
#    0.000    1.429    1.429    2.571   10.000    1.143 
#    0.000   12.857    0.000    0.000    0.000    0.000 
#    0.000    0.000    0.000    0.000    0.000    0.000 
#
# Total GULP energy -78415.403507 kJ/mol
# GULP energy per Si atom -5601.100251 kJ/mol
# Density = 2.692354 g / cm^3
# Si number density = 26.984960 Si / 1000 Ang^3
#
#
#
# Elastic Constant Matrix: (Units=GPa)
#
#
# Indices 1 2 3 4 5 6 
#
# 1 201.6221 82.1795 49.5796 21.9534 -31.7836 -39.9475
# 2 82.1795 160.9977 89.1959 19.0263 -13.8908 -47.6113
# 3 49.5796 89.1959 166.4702 10.3186 -41.1838 -30.8743
# 4 21.9534 19.0263 10.3186 44.2367 -11.1078 -9.6554
# 5 -31.7836 -13.8908 -41.1838 -11.1078 55.7258 17.3325
# 6 -39.9475 -47.6113 -30.8743 -9.6554 17.3325 66.5324
#
#
#
# Elastic Compliance Matrix: (Units=1/GPa)
#
#
# Indices 1 2 3 4 5 6 
#
# 1 0.006932 -0.003133 0.000675 -0.001211 0.003036 0.001267
# 2 -0.003133 0.012516 -0.005916 -0.002597 -0.005208 0.005310
# 3 0.000675 -0.005916 0.010553 0.001420 0.007178 -0.000594
# 4 -0.001211 -0.002597 0.001420 0.025261 0.004576 0.000547
# 5 0.003036 -0.005208 0.007178 0.004576 0.026056 -0.004697
# 6 0.001267 0.005310 -0.000594 0.000547 -0.004697 0.020618
#
#
# Mechanical properties :
#
#
# Convention : Reuss Voigt Hill
#
# Bulk Modulus (GPa) = 75.44584 107.88889 91.66736
# Shear Modulus (GPa) = 40.61715 53.84132 47.22924
#
# Velocity S-wave (km/s) = 3.88387 4.47165 4.18808
# Velocity P-wave (km/s) = 6.93771 8.16877 7.57828
#
# Compressibility (1/GPa) = 0.01325454
#
# Stress axis : x y z
#
# Youngs Moduli (GPa) = 144.25462 79.90041 94.75946
#
# Poissons Ratio (x) = 0.25031 -0.06398
# Poissons Ratio (y) = 0.45191 0.56056
# Poissons Ratio (z) = -0.09740 0.47266
#
# Static dielectric constant tensor:
#      x y z
#    x 2.164870 0.051640 -0.074570 
#    y 0.051640 2.257340 -0.076620 
#    z -0.074570 -0.076620 2.129450 
# 
# From -- ./inp_files/533943.got.cif
#   From: 2010.05.17/outbox.cif.g08.bks.cpg/sg2_267_cif.got.tgz:533943.got - 2010.06.03 11:33:40.
