data_PCOD9032635
_publ_section_title
;
Structure prediction by ZEFSAII (Michael W. Deem and Ramdas Pophale) SiO2 
 PCOD9032635
Probable space group: P -1
;
_chemical_formula_sum "Si O2"
_cell_formula_units_Z 14
_cell_length_a 6.614194
_cell_length_b 24.059828
_cell_length_c 5.266229
_cell_angle_alpha 122.380308
_cell_angle_beta 105.175261
_cell_angle_gamma 46.215878
_cell_volume 502.756306
_symmetry_space_group_name_H-M "P -1"
_symmetry_group_IT_number 2
_symmetry_cell_setting 'triclinic'
loop_
_space_group_symop_operation_xyz
x,y,z
-x,-y,-z
loop_
_atom_site_type_symbol
_atom_site_label
_atom_site_fract_x
_atom_site_fract_y
_atom_site_fract_z
Si Si1 0.599424 0.083050 0.783036
Si Si2 0.532561 0.336959 0.432797
Si Si3 0.828287 0.786401 0.665074
Si Si4 0.802078 0.918187 0.678070
Si Si5 0.218213 0.533015 0.624817
Si Si6 0.899088 0.596664 0.185851
Si Si7 0.345049 0.812537 0.248626
O O1 0.472402 0.058710 0.482064
O O2 0.779095 0.101636 0.757268
O O3 0.739391 0.009340 0.869641
O O4 0.326200 0.180868 0.037045
O O5 0.315789 0.436251 0.476956
O O6 0.435222 0.338935 0.694383
O O7 0.844830 0.302673 0.461030
O O8 0.561813 0.267779 0.091953
O O9 0.840069 0.862345 0.791433
O O10 0.616288 0.787796 0.424174
O O11 0.088295 0.849439 0.441192
O O12 0.500000 0.500000 0.500000
O O13 0.997815 0.601799 0.504251
O O14 0.924729 0.415159 0.027561
O O15 0.000000 0.500000 0.000000
#
# Coordination Sequence:
#
# PCOD9032635 Si02
#       7
#     2   2   2   2   2   2   2
#     4  10  22  44  67 104 140 194 251 297 359 444
#     4  11  25  49  71 104 155 182 245 318 362 453
#     4  11  25  44  69 106 142 192 245 297 380 430
#     4  10  22  43  72  97 147 190 247 308 353 439
#     4  11  25  51  80 113 144 195 253 301 378 457
#     4  10  23  49  77 106 145 196 239 299 381 445
#     4  11  25  44  69 105 143 193 244 298 382 427
#
# _framework density 27.846492999999999
#
# number of rings (size 3 to 8) (size 9 to 14) (size 15 to 20)
#    0.000    1.429    1.429    3.000    2.000    5.143 
#   10.286    0.000    0.000    0.000    0.000    0.000 
#    0.000    0.000    0.000    0.000    0.000    0.000 
#
# Total GULP energy -78265.475057 kJ/mol
# GULP energy per Si atom -5590.391076 kJ/mol
# Density = 2.778311 g / cm^3
# Si number density = 27.846493 Si / 1000 Ang^3
#
#
#
# Elastic Constant Matrix: (Units=GPa)
#
#
# Indices 1 2 3 4 5 6 
#
# 1 149.2312 24.0059 58.8317 2.3141 -20.0129 13.7871
# 2 24.0059 96.6096 20.3495 15.1165 -0.5410 -2.1116
# 3 58.8317 20.3495 127.3608 9.0788 -33.3769 3.6727
# 4 2.3141 15.1165 9.0788 49.1906 2.6357 -5.0318
# 5 -20.0129 -0.5410 -33.3769 2.6357 66.7968 2.0183
# 6 13.7871 -2.1116 3.6727 -5.0318 2.0183 42.9260
#
#
#
# Elastic Compliance Matrix: (Units=1/GPa)
#
#
# Indices 1 2 3 4 5 6 
#
# 1 0.008671 -0.001535 -0.003476 0.000395 0.000910 -0.002560
# 2 -0.001535 0.011474 -0.001147 -0.003112 -0.000842 0.000830
# 3 -0.003476 -0.001147 0.010956 -0.001778 0.004503 -0.000298
# 4 0.000395 -0.003112 -0.001778 0.021947 -0.001738 0.002527
# 5 0.000910 -0.000842 0.004503 -0.001738 0.017608 -0.001751
# 6 -0.002560 0.000830 -0.000298 0.002527 -0.001751 0.024563
#
#
# Mechanical properties :
#
#
# Convention : Reuss Voigt Hill
#
# Bulk Modulus (GPa) = 53.23358 64.39731 58.81545
# Shear Modulus (GPa) = 43.93833 49.78365 46.86099
#
# Velocity S-wave (km/s) = 3.97656 4.23281 4.10668
# Velocity P-wave (km/s) = 6.34368 6.86039 6.60709
#
# Compressibility (1/GPa) = 0.01878514
#
# Stress axis : x y z
#
# Youngs Moduli (GPa) = 115.33223 87.15063 91.27497
#
# Poissons Ratio (x) = 0.13378 0.31724
# Poissons Ratio (y) = 0.17704 0.10471
# Poissons Ratio (z) = 0.40086 0.09998
#
# Static dielectric constant tensor:
#      x y z
#    x 1.911640 0.037760 0.410500 
#    y 0.037760 2.351240 -0.086310 
#    z 0.410500 -0.086310 1.740680 
# 
# From -- ./inp_files/14712.got.cif
#   From: 2010.05.17/outbox.cif.g08.bks.cpg/sg2_8_cif.got.tgz:14712.got - 2010.06.03 11:33:40.
