data_PCOD9032437
_publ_section_title
;
Structure prediction by ZEFSAII (Michael W. Deem and Ramdas Pophale) SiO2 
 PCOD9032437
Probable space group: P -1
;
_chemical_formula_sum "Si O2"
_cell_formula_units_Z 16
_cell_length_a 19.067357
_cell_length_b 8.597410
_cell_length_c 13.390916
_cell_angle_alpha 115.199045
_cell_angle_beta 21.540184
_cell_angle_gamma 105.108880
_cell_volume 665.970477
_symmetry_space_group_name_H-M "P -1"
_symmetry_group_IT_number 2
_symmetry_cell_setting 'triclinic'
loop_
_space_group_symop_operation_xyz
x,y,z
-x,-y,-z
loop_
_atom_site_type_symbol
_atom_site_label
_atom_site_fract_x
_atom_site_fract_y
_atom_site_fract_z
Si Si1 0.033813 0.000122 0.309733
Si Si2 0.680164 0.962806 0.431115
Si Si3 0.299564 0.178617 0.278451
Si Si4 0.950981 0.098716 0.223467
Si Si5 0.402660 0.320358 0.799567
Si Si6 0.600058 0.484680 0.751259
Si Si7 0.473516 0.712464 0.593127
Si Si8 0.008905 0.366002 0.545636
O O1 0.888577 0.885236 0.471736
O O2 0.970027 0.180746 0.515941
O O3 0.269561 0.844859 0.960932
O O4 0.010629 0.090656 0.256096
O O5 0.656034 0.768330 0.408321
O O6 0.786630 0.001069 0.399455
O O7 0.456856 0.127162 0.738051
O O8 0.845183 0.974639 0.135027
O O9 0.349155 0.343726 0.305758
O O10 0.229610 0.272607 0.285707
O O11 0.500000 0.000000 0.000000
O O12 0.818598 0.308501 0.421524
O O13 0.470315 0.438400 0.823306
O O14 0.533272 0.248667 0.505814
O O15 0.176787 0.472176 0.102702
O O16 0.500000 0.500000 0.000000
O O17 0.500000 0.500000 0.500000
O O18 0.000000 0.500000 0.500000
#
# Coordination Sequence:
#
# PCOD9032437 Si02
#       8
#     2   2   2   2   2   2   2   2
#     4  12  26  45  70 109 145 192 245 302 379 443
#     4  10  23  43  71 100 147 190 243 308 357 437
#     4  12  27  46  71 106 155 194 237 315 379 440
#     4  10  22  43  71 104 141 193 252 299 367 433
#     4  11  23  45  70 104 137 188 247 301 363 429
#     4  11  24  44  71 103 141 193 251 302 365 445
#     4  12  27  43  66 101 148 191 240 298 374 444
#     4  12  26  45  77 107 141 193 257 305 361 443
#
# _framework density 24.025088
#
# number of rings (size 3 to 8) (size 9 to 14) (size 15 to 20)
#    0.000    0.750    1.250    6.000    5.250    5.000 
#    0.000    1.250    0.000    0.000    0.000    0.000 
#    0.000    0.000    0.000    0.000    0.000    0.000 
#
# Total GULP energy -89287.482459 kJ/mol
# GULP energy per Si atom -5580.467654 kJ/mol
# Density = 2.397041 g / cm^3
# Si number density = 24.025088 Si / 1000 Ang^3
#
#
#
# Elastic Constant Matrix: (Units=GPa)
#
#
# Indices 1 2 3 4 5 6 
#
# 1 61.1736 -3.1167 23.8332 4.6936 -14.5878 3.5771
# 2 -3.1167 158.6402 33.7242 7.3570 -17.2399 35.3532
# 3 23.8332 33.7242 97.7111 13.1663 -7.9452 0.4954
# 4 4.6936 7.3570 13.1663 39.0404 -3.1612 -5.2085
# 5 -14.5878 -17.2399 -7.9452 -3.1612 36.0699 5.3395
# 6 3.5771 35.3532 0.4954 -5.2085 5.3395 36.8191
#
#
#
# Elastic Compliance Matrix: (Units=1/GPa)
#
#
# Indices 1 2 3 4 5 6 
#
# 1 0.022218 0.004932 -0.005919 -0.001861 0.011164 -0.008697
# 2 0.004932 0.011010 -0.003971 -0.002345 0.008026 -0.012493
# 3 -0.005919 -0.003971 0.013199 -0.002616 -0.002230 0.004164
# 4 -0.001861 -0.002345 -0.002616 0.027960 -0.000971 0.006564
# 5 0.011164 0.008026 -0.002230 -0.000971 0.037624 -0.014355
# 6 -0.008697 -0.012493 0.004164 0.006564 -0.014355 0.042954
#
#
# Mechanical properties :
#
#
# Convention : Reuss Voigt Hill
#
# Bulk Modulus (GPa) = 27.38917 47.37848 37.38383
# Shear Modulus (GPa) = 28.24075 39.92484 34.08279
#
# Velocity S-wave (km/s) = 3.43223 4.08094 3.77056
# Velocity P-wave (km/s) = 5.20883 6.47832 5.87795
#
# Compressibility (1/GPa) = 0.03651078
#
# Stress axis : x y z
#
# Youngs Moduli (GPa) = 45.00908 90.82932 75.76523
#
# Poissons Ratio (x) = -0.44801 0.44846
# Poissons Ratio (y) = -0.22200 0.30086
# Poissons Ratio (z) = 0.26641 0.36068
#
# Static dielectric constant tensor:
#      x y z
#    x 1.586440 0.004710 -0.250410 
#    y 0.004710 1.955390 -0.051140 
#    z -0.250410 -0.051140 1.868790 
# 
# From -- ./inp_files/540531.got.cif
#   From: 2010.05.17/outbox.cif.g08.bks.cpg/sg2_271_cif.got.tgz:540531.got - 2010.06.03 11:33:40.
