data_PCOD9032470
_publ_section_title
;
Structure prediction by ZEFSAII (Michael W. Deem and Ramdas Pophale) SiO2 
 PCOD9032470
Probable space group: P -1
;
_chemical_formula_sum "Si O2"
_cell_formula_units_Z 14
_cell_length_a 7.283947
_cell_length_b 5.305180
_cell_length_c 16.387844
_cell_angle_alpha 83.837282
_cell_angle_beta 81.174922
_cell_angle_gamma 117.871027
_cell_volume 541.436094
_symmetry_space_group_name_H-M "P -1"
_symmetry_group_IT_number 2
_symmetry_cell_setting 'triclinic'
loop_
_space_group_symop_operation_xyz
x,y,z
-x,-y,-z
loop_
_atom_site_type_symbol
_atom_site_label
_atom_site_fract_x
_atom_site_fract_y
_atom_site_fract_z
Si Si1 0.368799 0.650908 0.678842
Si Si2 0.709155 0.840446 0.099968
Si Si3 0.740961 0.142019 0.542313
Si Si4 0.859735 0.212862 0.924009
Si Si5 0.832802 0.735974 0.433510
Si Si6 0.932175 0.232710 0.205608
Si Si7 0.651867 0.763195 0.815211
O O1 0.297226 0.367565 0.637857
O O2 0.153134 0.634014 0.726201
O O3 0.509618 0.707832 0.747365
O O4 0.512318 0.919432 0.600912
O O5 0.495782 0.535751 0.114758
O O6 0.920479 0.803619 0.085831
O O7 0.729453 0.970898 0.184462
O O8 0.736335 0.067356 0.020033
O O9 0.754156 0.445232 0.505804
O O10 0.921036 0.183860 0.594611
O O11 0.802422 0.983028 0.471737
O O12 0.946046 0.547217 0.885769
O O13 0.714525 0.028412 0.863917
O O14 0.117336 0.183836 0.229223
#
# Coordination Sequence:
#
# PCOD9032470 Si02
#       7
#     2   2   2   2   2   2   2
#     4  12  26  44  71 101 145 173 226 289 354 421
#     4  10  22  43  71  93 134 187 238 290 343 408
#     4  10  24  47  75 105 139 187 236 288 355 426
#     4  10  22  45  65  98 137 179 240 290 339 423
#     4  10  24  47  74 107 138 185 240 286 350 437
#     4  11  26  42  66 102 137 181 237 283 354 415
#     4  11  26  42  66 102 136 184 232 287 355 410
#
# _framework density 25.857163
#
# number of rings (size 3 to 8) (size 9 to 14) (size 15 to 20)
#    0.000    1.429    1.429    1.714    4.000    6.286 
#    0.000    0.000    0.000    0.000    0.000    0.000 
#    0.000    0.000    0.000    0.000    0.000    0.000 
#
# Total GULP energy -78410.713234 kJ/mol
# GULP energy per Si atom -5600.765231 kJ/mol
# Density = 2.579831 g / cm^3
# Si number density = 25.857163 Si / 1000 Ang^3
#
#
#
# Elastic Constant Matrix: (Units=GPa)
#
#
# Indices 1 2 3 4 5 6 
#
# 1 99.8983 14.2100 33.0080 17.0705 18.8348 13.1542
# 2 14.2100 97.9991 7.2088 8.1767 12.1843 20.6114
# 3 33.0080 7.2088 62.6794 8.4098 21.2073 3.8256
# 4 17.0705 8.1767 8.4098 47.6262 10.3140 3.6288
# 5 18.8348 12.1843 21.2073 10.3140 34.5295 4.1551
# 6 13.1542 20.6114 3.8256 3.6288 4.1551 40.9274
#
#
#
# Elastic Compliance Matrix: (Units=1/GPa)
#
#
# Indices 1 2 3 4 5 6 
#
# 1 0.013256 -0.000316 -0.005523 -0.002952 -0.002476 -0.003072
# 2 -0.000316 0.011863 0.000378 -0.000850 -0.003331 -0.005495
# 3 -0.005523 0.000378 0.022499 0.000301 -0.011099 0.000582
# 4 -0.002952 -0.000850 0.000301 0.023290 -0.005209 -0.000187
# 5 -0.002476 -0.003331 -0.011099 -0.005209 0.039868 -0.000075
# 6 -0.003072 -0.005495 0.000582 -0.000187 -0.000075 0.028158
#
#
# Mechanical properties :
#
#
# Convention : Reuss Voigt Hill
#
# Bulk Modulus (GPa) = 27.25080 41.04784 34.14932
# Shear Modulus (GPa) = 30.84775 38.35995 34.60385
#
# Velocity S-wave (km/s) = 3.45774 3.85584 3.66221
# Velocity P-wave (km/s) = 5.14812 5.97768 5.57834
#
# Compressibility (1/GPa) = 0.03669618
#
# Stress axis : x y z
#
# Youngs Moduli (GPa) = 75.43942 84.29692 44.44702
#
# Poissons Ratio (x) = 0.02660 0.24549
# Poissons Ratio (y) = 0.02381 -0.01682
# Poissons Ratio (z) = 0.41667 -0.03189
#
# Static dielectric constant tensor:
#      x y z
#    x 2.022620 -0.027220 0.045480 
#    y -0.027220 2.028120 -0.040590 
#    z 0.045480 -0.040590 2.031870 
# 
# From -- ./inp_files/487096.got.cif
#   From: 2010.05.17/outbox.cif.g08.bks.cpg/sg2_244_cif.got.tgz:487096.got - 2010.06.03 11:33:40.
