data_PCOD9032652
_publ_section_title
;
Structure prediction by ZEFSAII (Michael W. Deem and Ramdas Pophale) SiO2 
 PCOD9032652
Probable space group: P -1
;
_chemical_formula_sum "Si O2"
_cell_formula_units_Z 16
_cell_length_a 6.422805
_cell_length_b 8.133755
_cell_length_c 20.152933
_cell_angle_alpha 50.304807
_cell_angle_beta 63.198930
_cell_angle_gamma 84.813827
_cell_volume 692.500630
_symmetry_space_group_name_H-M "P -1"
_symmetry_group_IT_number 2
_symmetry_cell_setting 'triclinic'
loop_
_space_group_symop_operation_xyz
x,y,z
-x,-y,-z
loop_
_atom_site_type_symbol
_atom_site_label
_atom_site_fract_x
_atom_site_fract_y
_atom_site_fract_z
Si Si1 0.972698 0.873600 0.395804
Si Si2 0.599364 0.749644 0.722128
Si Si3 0.668914 0.203234 0.382941
Si Si4 0.819757 0.269677 0.109746
Si Si5 0.753744 0.065518 0.030161
Si Si6 0.502672 0.499789 0.578965
Si Si7 0.074691 0.129939 0.748095
Si Si8 0.273079 0.689285 0.155864
O O1 0.778515 0.657233 0.513402
O O2 0.002669 0.822227 0.327510
O O3 0.854566 0.079896 0.358712
O O4 0.224286 0.995276 0.365015
O O5 0.461286 0.718810 0.680047
O O6 0.401757 0.705660 0.820364
O O7 0.737167 0.560195 0.758479
O O8 0.692309 0.389740 0.387935
O O9 0.500000 0.000000 0.500000
O O10 0.726958 0.129528 0.092836
O O11 0.964542 0.130334 0.167134
O O12 0.000000 0.500000 0.000000
O O13 0.534559 0.853506 0.095512
O O14 0.758842 0.271428 0.927568
O O15 0.000000 0.000000 0.000000
O O16 0.500000 0.500000 0.500000
O O17 0.368689 0.244834 0.683207
O O18 0.922320 0.218766 0.801039
#
# Coordination Sequence:
#
# PCOD9032652 Si02
#       8
#     2   2   2   2   2   2   2   2
#     4  10  22  44  70 100 139 181 232 288 348 415
#     4  12  26  43  72 108 137 185 236 286 352 417
#     4  10  22  43  72  99 144 178 230 283 354 411
#     4  12  27  43  72 101 142 188 234 286 352 414
#     4  11  24  46  68  98 142 184 236 291 344 406
#     4   9  21  40  69  98 132 181 225 285 342 408
#     4  11  22  45  70  99 139 188 231 286 352 412
#     4  11  26  42  71 103 139 186 238 287 345 413
#
# _framework density 23.104672000000001
#
# number of rings (size 3 to 8) (size 9 to 14) (size 15 to 20)
#    0.000    1.250    2.500    2.250    5.250    4.500 
#    0.000    0.625    0.000    0.000    0.000    0.000 
#    0.000    0.000    0.000    0.000    0.000    0.000 
#
# Total GULP energy -89331.630087 kJ/mol
# GULP energy per Si atom -5583.226880 kJ/mol
# Density = 2.305208 g / cm^3
# Si number density = 23.104672 Si / 1000 Ang^3
#
#
#
# Elastic Constant Matrix: (Units=GPa)
#
#
# Indices 1 2 3 4 5 6 
#
# 1 45.6438 14.6332 26.1789 0.4789 -7.0517 -1.7221
# 2 14.6332 77.3607 28.8065 19.0250 2.6470 2.9194
# 3 26.1789 28.8065 111.0214 -3.3324 -14.9116 -0.5582
# 4 0.4789 19.0250 -3.3324 51.8671 12.5961 4.6646
# 5 -7.0517 2.6470 -14.9116 12.5961 37.4364 0.4471
# 6 -1.7221 2.9194 -0.5582 4.6646 0.4471 25.9953
#
#
#
# Elastic Compliance Matrix: (Units=1/GPa)
#
#
# Indices 1 2 3 4 5 6 
#
# 1 0.026373 -0.003256 -0.004927 -0.000356 0.003331 0.002014
# 2 -0.003256 0.016513 -0.003878 -0.005852 -0.001344 -0.001080
# 3 -0.004927 -0.003878 0.011693 0.001353 0.003548 0.000057
# 4 -0.000356 -0.005852 0.001353 0.023523 -0.006988 -0.003438
# 5 0.003331 -0.001344 0.003548 -0.006988 0.031185 0.001165
# 6 0.002014 -0.001080 0.000057 -0.003438 0.001165 0.039321
#
#
# Mechanical properties :
#
#
# Convention : Reuss Voigt Hill
#
# Bulk Modulus (GPa) = 32.83524 41.47367 37.15445
# Shear Modulus (GPa) = 27.33995 34.02025 30.68010
#
# Velocity S-wave (km/s) = 3.44366 3.84140 3.64795
# Velocity P-wave (km/s) = 5.48216 6.13714 5.81887
#
# Compressibility (1/GPa) = 0.03045509
#
# Stress axis : x y z
#
# Youngs Moduli (GPa) = 37.91758 60.56004 85.52344
#
# Poissons Ratio (x) = 0.19721 0.42137
# Poissons Ratio (y) = 0.12348 0.33167
# Poissons Ratio (z) = 0.18682 0.23486
#
# Static dielectric constant tensor:
#      x y z
#    x 1.936280 0.005650 -0.040550 
#    y 0.005650 1.913790 -0.052540 
#    z -0.040550 -0.052540 1.835820 
# 
# From -- ./inp_files/582241.got.cif
#   From: 2010.05.17/outbox.cif.g08.bks.cpg/sg2_292_cif.got.tgz:582241.got - 2010.06.03 11:33:40.
