data_PCOD9032682
_publ_section_title
;
Structure prediction by ZEFSAII (Michael W. Deem and Ramdas Pophale) SiO2 
 PCOD9032682
Probable space group: P -1
;
_chemical_formula_sum "Si O2"
_cell_formula_units_Z 16
_cell_length_a 10.305677
_cell_length_b 14.645800
_cell_length_c 7.795814
_cell_angle_alpha 42.239212
_cell_angle_beta 99.860516
_cell_angle_gamma 74.206041
_cell_volume 622.035930
_symmetry_space_group_name_H-M "P -1"
_symmetry_group_IT_number 2
_symmetry_cell_setting 'triclinic'
loop_
_space_group_symop_operation_xyz
x,y,z
-x,-y,-z
loop_
_atom_site_type_symbol
_atom_site_label
_atom_site_fract_x
_atom_site_fract_y
_atom_site_fract_z
Si Si1 0.406519 0.243836 0.577799
Si Si2 0.705029 0.476843 0.117314
Si Si3 0.096377 0.248519 0.570201
Si Si4 0.632045 0.669768 0.174851
Si Si5 0.244706 0.827465 0.635593
Si Si6 0.678409 0.944348 0.809963
Si Si7 0.695768 0.374498 0.727668
Si Si8 0.911702 0.037807 0.107305
O O1 0.228556 0.279754 0.504061
O O2 0.465641 0.236452 0.798028
O O3 0.539520 0.071238 0.743732
O O4 0.369441 0.398429 0.237695
O O5 0.701536 0.318657 0.291091
O O6 0.900553 0.394441 0.301376
O O7 0.610844 0.590347 0.108594
O O8 0.136650 0.086861 0.699767
O O9 0.150730 0.175389 0.878026
O O10 0.761749 0.485826 0.556445
O O11 0.262283 0.733790 0.943094
O O12 0.659823 0.804730 0.925252
O O13 0.323118 0.928069 0.496730
O O14 0.053626 0.980531 0.352806
O O15 0.500000 0.500000 0.500000
O O16 0.766928 0.233639 0.796409
O O17 0.000000 0.000000 0.000000
#
# Coordination Sequence:
#
# PCOD9032682 Si02
#       8
#     2   2   2   2   2   2   2   2
#     4  11  25  46  72 103 151 192 245 300 377 438
#     4  11  25  46  76 106 146 186 255 304 365 442
#     4  10  22  43  73 103 144 196 236 303 373 438
#     4  11  26  46  69 109 146 190 240 305 369 435
#     4  11  25  50  72 111 146 199 244 307 372 451
#     4  11  26  45  74 103 152 193 243 299 378 442
#     4  12  28  45  77 113 149 194 258 312 371 443
#     4  11  23  46  75 107 152 198 251 302 379 451
#
# _framework density 25.721985
#
# number of rings (size 3 to 8) (size 9 to 14) (size 15 to 20)
#    0.000    1.000    2.500    3.750    5.250    4.000 
#    0.000    0.000    0.000    0.000    0.000    0.000 
#    0.000    0.000    0.000    0.000    0.000    0.000 
#
# Total GULP energy -89333.236191 kJ/mol
# GULP energy per Si atom -5583.327262 kJ/mol
# Density = 2.566344 g / cm^3
# Si number density = 25.721985 Si / 1000 Ang^3
#
#
#
# Elastic Constant Matrix: (Units=GPa)
#
#
# Indices 1 2 3 4 5 6 
#
# 1 108.7826 44.2688 52.2045 -16.5058 -16.6247 12.5884
# 2 44.2688 114.0054 38.8826 -18.7454 -14.0431 -16.0886
# 3 52.2045 38.8826 168.1677 -9.6835 -18.9048 -7.1212
# 4 -16.5058 -18.7454 -9.6835 58.4649 2.7856 -4.1733
# 5 -16.6247 -14.0431 -18.9048 2.7856 64.0058 -0.1565
# 6 12.5884 -16.0886 -7.1212 -4.1733 -0.1565 36.1336
#
#
#
# Elastic Compliance Matrix: (Units=1/GPa)
#
#
# Indices 1 2 3 4 5 6 
#
# 1 0.014144 -0.005066 -0.003306 0.001200 0.001515 -0.007690
# 2 -0.005066 0.012703 -0.000740 0.003010 0.001140 0.007628
# 3 -0.003306 -0.000740 0.007381 0.000161 0.001158 0.002300
# 4 0.001200 0.003010 0.000161 0.018647 0.000216 0.003108
# 5 0.001515 0.001140 0.001158 0.000216 0.016601 0.000305
# 6 -0.007690 0.007628 0.002300 0.003108 0.000305 0.034564
#
#
# Mechanical properties :
#
#
# Convention : Reuss Voigt Hill
#
# Bulk Modulus (GPa) = 62.48292 73.51863 68.00078
# Shear Modulus (GPa) = 39.18609 48.76084 43.97346
#
# Velocity S-wave (km/s) = 3.90737 4.35867 4.13918
# Velocity P-wave (km/s) = 6.68589 7.34675 7.02410
#
# Compressibility (1/GPa) = 0.01600437
#
# Stress axis : x y z
#
# Youngs Moduli (GPa) = 70.70099 78.72241 135.49199
#
# Poissons Ratio (x) = 0.39881 0.44789
# Poissons Ratio (y) = 0.35817 0.10025
# Poissons Ratio (z) = 0.23371 0.05825
#
# Static dielectric constant tensor:
#      x y z
#    x 2.151400 0.026250 -0.029910 
#    y 0.026250 2.141770 0.004720 
#    z -0.029910 0.004720 2.039360 
# 
# From -- ./inp_files/436385.got.cif
#   From: 2010.05.17/outbox.cif.g08.bks.cpg/sg2_219_cif.got.tgz:436385.got - 2010.06.03 11:33:40.
