data_PCOD9032149
_publ_section_title
;
Structure prediction by ZEFSAII (Michael W. Deem and Ramdas Pophale) SiO2 
 PCOD9032149
Probable space group: P -1
;
_chemical_formula_sum "Si O2"
_cell_formula_units_Z 14
_cell_length_a 9.139708
_cell_length_b 11.154516
_cell_length_c 8.224701
_cell_angle_alpha 140.232391
_cell_angle_beta 98.971899
_cell_angle_gamma 82.338569
_cell_volume 529.685320
_symmetry_space_group_name_H-M "P -1"
_symmetry_group_IT_number 2
_symmetry_cell_setting 'triclinic'
loop_
_space_group_symop_operation_xyz
x,y,z
-x,-y,-z
loop_
_atom_site_type_symbol
_atom_site_label
_atom_site_fract_x
_atom_site_fract_y
_atom_site_fract_z
Si Si1 0.810358 0.645890 0.471721
Si Si2 0.650424 0.168599 0.262861
Si Si3 0.123034 0.555070 0.263226
Si Si4 0.994923 0.200961 0.794441
Si Si5 0.249140 0.938386 0.192188
Si Si6 0.440843 0.625591 0.973803
Si Si7 0.343775 0.239567 0.122977
O O1 0.697165 0.486307 0.238883
O O2 0.785966 0.683837 0.699126
O O3 0.975823 0.592420 0.385622
O O4 0.766983 0.838458 0.569486
O O5 0.742740 0.337710 0.522389
O O6 0.477758 0.215946 0.259852
O O7 0.707894 0.117276 0.040086
O O8 0.679514 0.975016 0.162160
O O9 0.096622 0.661081 0.197798
O O10 0.134322 0.331583 0.993800
O O11 0.907846 0.150944 0.888948
O O12 0.000000 0.000000 0.500000
O O13 0.370966 0.832465 0.215579
O O14 0.566375 0.654162 0.890237
O O15 0.500000 0.500000 0.000000
#
# Coordination Sequence:
#
# PCOD9032149 Si02
#       7
#     2   2   2   2   2   2   2
#     4  11  22  43  70 104 143 183 240 302 353 421
#     4   9  21  44  73 106 140 189 238 292 362 420
#     4  11  24  42  73 107 141 187 243 293 359 431
#     4  11  23  45  65 100 152 185 230 292 361 428
#     4  10  22  43  69  98 148 181 234 304 347 420
#     4  11  24  43  68 101 142 198 241 286 358 427
#     4   9  21  44  69 104 149 182 237 300 348 429
#
# _framework density 26.430786999999999
#
# number of rings (size 3 to 8) (size 9 to 14) (size 15 to 20)
#    0.000    1.714    2.857    1.286    0.000    5.714 
#    0.000    0.000    0.000    0.000    0.000    0.000 
#    0.000    0.000    0.000    0.000    0.000    0.000 
#
# Total GULP energy -78429.026037 kJ/mol
# GULP energy per Si atom -5602.073288 kJ/mol
# Density = 2.637063 g / cm^3
# Si number density = 26.430787 Si / 1000 Ang^3
#
#
#
# Elastic Constant Matrix: (Units=GPa)
#
#
# Indices 1 2 3 4 5 6 
#
# 1 132.5989 26.2143 62.2926 24.4471 13.4182 33.3461
# 2 26.2143 157.6351 42.7181 43.1387 -1.5117 23.4641
# 3 62.2926 42.7181 128.8642 41.1243 9.0398 9.2475
# 4 24.4471 43.1387 41.1243 54.6817 0.7257 -0.6249
# 5 13.4182 -1.5117 9.0398 0.7257 32.9739 13.7464
# 6 33.3461 23.4641 9.2475 -0.6249 13.7464 43.6703
#
#
#
# Elastic Compliance Matrix: (Units=1/GPa)
#
#
# Indices 1 2 3 4 5 6 
#
# 1 0.012458 0.001546 -0.004837 -0.003265 0.000350 -0.009476
# 2 0.001546 0.009561 -0.001270 -0.007405 0.003322 -0.007201
# 3 -0.004837 -0.001270 0.012481 -0.006163 -0.002373 0.002392
# 4 -0.003265 -0.007405 -0.006163 0.030346 -0.001626 0.008723
# 5 0.000350 0.003322 -0.002373 -0.001626 0.036464 -0.013051
# 6 -0.009476 -0.007201 0.002392 0.008723 -0.013051 0.037730
#
#
# Mechanical properties :
#
#
# Convention : Reuss Voigt Hill
#
# Bulk Modulus (GPa) = 39.40424 75.72758 57.56591
# Shear Modulus (GPa) = 31.92414 45.45673 38.69043
#
# Velocity S-wave (km/s) = 3.47917 4.15159 3.83017
# Velocity P-wave (km/s) = 5.57497 7.18989 6.43330
#
# Compressibility (1/GPa) = 0.02537798
#
# Stress axis : x y z
#
# Youngs Moduli (GPa) = 80.27033 104.59144 80.12038
#
# Poissons Ratio (x) = -0.16175 0.38758
# Poissons Ratio (y) = -0.12413 0.10176
# Poissons Ratio (z) = 0.38831 0.13284
#
# Static dielectric constant tensor:
#      x y z
#    x 2.219200 -0.304710 -0.016920 
#    y -0.304710 2.413600 0.003950 
#    z -0.016920 0.003950 2.064040 
# 
# From -- ./inp_files/191143.got.cif
#   From: 2010.05.17/outbox.cif.g08.bks.cpg/sg2_96_cif.got.tgz:191143.got - 2010.06.03 11:33:40.
