data_PCOD9032668
_publ_section_title
;
Structure prediction by ZEFSAII (Michael W. Deem and Ramdas Pophale) SiO2 
 PCOD9032668
Probable space group: P -1
;
_chemical_formula_sum "Si O2"
_cell_formula_units_Z 12
_cell_length_a 11.728198
_cell_length_b 7.909522
_cell_length_c 7.229826
_cell_angle_alpha 103.501182
_cell_angle_beta 128.231530
_cell_angle_gamma 69.387812
_cell_volume 492.987055
_symmetry_space_group_name_H-M "P -1"
_symmetry_group_IT_number 2
_symmetry_cell_setting 'triclinic'
loop_
_space_group_symop_operation_xyz
x,y,z
-x,-y,-z
loop_
_atom_site_type_symbol
_atom_site_label
_atom_site_fract_x
_atom_site_fract_y
_atom_site_fract_z
Si Si1 0.935938 0.774819 0.884208
Si Si2 0.172107 0.581533 0.343992
Si Si3 0.973110 0.814754 0.495700
Si Si4 0.647670 0.080148 0.646912
Si Si5 0.351582 0.090969 0.761001
Si Si6 0.463710 0.399048 0.758110
O O1 0.866890 0.604472 0.792842
O O2 0.800849 0.948393 0.848059
O O3 0.085183 0.730310 0.147636
O O4 0.025043 0.206978 0.286942
O O5 0.350060 0.533375 0.540966
O O6 0.093142 0.651777 0.477553
O O7 0.802146 0.829508 0.263407
O O8 0.000000 0.000000 0.500000
O O9 0.602799 0.271410 0.752980
O O10 0.500000 0.000000 0.500000
O O11 0.672121 0.059399 0.445476
O O12 0.376931 0.258821 0.715528
O O13 0.500000 0.000000 0.000000
O O14 0.500000 0.500000 0.000000
#
# Coordination Sequence:
#
# PCOD9032668 Si02
#       6
#     2   2   2   2   2   2
#     4  10  22  43  73 101 134 190 241 292 355 429
#     4  11  23  41  72 106 142 177 240 299 364 412
#     4  11  25  43  70 103 144 187 236 293 354 425
#     4   9  18  41  67  96 139 182 233 283 355 427
#     4  10  23  42  72 101 137 192 240 281 360 431
#     4  11  24  43  70 107 144 180 236 298 363 429
#
# _framework density 24.34141
#
# number of rings (size 3 to 8) (size 9 to 14) (size 15 to 20)
#    0.000    1.667    5.000    0.500    7.000    0.667 
#    0.000    2.500    0.000    0.000    0.000    0.000 
#    0.000    0.000    0.000    0.000    0.000    0.000 
#
# Total GULP energy -67161.953302 kJ/mol
# GULP energy per Si atom -5596.829442 kJ/mol
# Density = 2.428601 g / cm^3
# Si number density = 24.341410 Si / 1000 Ang^3
#
#
#
# Elastic Constant Matrix: (Units=GPa)
#
#
# Indices 1 2 3 4 5 6 
#
# 1 63.6988 39.5511 17.7735 -16.0287 -3.2783 -16.7445
# 2 39.5511 170.4632 80.5367 -14.3590 5.7094 -44.7461
# 3 17.7735 80.5367 167.2519 -34.7085 -14.0952 -19.2438
# 4 -16.0287 -14.3590 -34.7085 58.4921 -0.8317 1.5327
# 5 -3.2783 5.7094 -14.0952 -0.8317 28.7115 1.2786
# 6 -16.7445 -44.7461 -19.2438 1.5327 1.2786 57.1626
#
#
#
# Elastic Compliance Matrix: (Units=1/GPa)
#
#
# Indices 1 2 3 4 5 6 
#
# 1 0.020339 -0.004529 0.001841 0.005540 0.004163 0.002791
# 2 -0.004529 0.010700 -0.004829 -0.001702 -0.005314 0.005588
# 3 0.001841 -0.004829 0.009657 0.005143 0.006072 -0.000263
# 4 0.005540 -0.001702 0.005143 0.021270 0.004051 0.001361
# 5 0.004163 -0.005314 0.006072 0.004051 0.039544 -0.001889
# 6 0.002791 0.005588 -0.000263 0.001361 -0.001889 0.022603
#
#
# Mechanical properties :
#
#
# Convention : Reuss Voigt Hill
#
# Bulk Modulus (GPa) = 38.96725 75.23739 57.10232
# Shear Modulus (GPa) = 33.85169 46.44343 40.14756
#
# Velocity S-wave (km/s) = 3.73326 4.37281 4.06563
# Velocity P-wave (km/s) = 5.88442 7.51476 6.74900
#
# Compressibility (1/GPa) = 0.02566257
#
# Stress axis : x y z
#
# Youngs Moduli (GPa) = 49.16572 93.45475 103.54649
#
# Poissons Ratio (x) = 0.42328 -0.19066
# Poissons Ratio (y) = 0.22269 0.50006
# Poissons Ratio (z) = -0.09053 0.45132
#
# Static dielectric constant tensor:
#      x y z
#    x 1.877640 0.068010 -0.041210 
#    y 0.068010 1.950800 0.011860 
#    z -0.041210 0.011860 1.954040 
# 
# From -- ./inp_files/151909.got.cif
#   From: 2010.05.17/outbox.cif.g08.bks.cpg/sg2_76_cif.got.tgz:151909.got - 2010.06.03 11:33:40.
