data_PCOD9032544
_publ_section_title
;
Structure prediction by ZEFSAII (Michael W. Deem and Ramdas Pophale) SiO2 
 PCOD9032544
Probable space group: P -1
;
_chemical_formula_sum "Si O2"
_cell_formula_units_Z 16
_cell_length_a 12.755496
_cell_length_b 9.753008
_cell_length_c 10.384249
_cell_angle_alpha 56.575759
_cell_angle_beta 44.997698
_cell_angle_gamma 44.985705
_cell_volume 642.407505
_symmetry_space_group_name_H-M "P -1"
_symmetry_group_IT_number 2
_symmetry_cell_setting 'triclinic'
loop_
_space_group_symop_operation_xyz
x,y,z
-x,-y,-z
loop_
_atom_site_type_symbol
_atom_site_label
_atom_site_fract_x
_atom_site_fract_y
_atom_site_fract_z
Si Si1 0.540691 0.446392 0.641254
Si Si2 0.932974 0.049002 0.180583
Si Si3 0.113106 0.778976 0.405392
Si Si4 0.193710 0.527712 0.991349
Si Si5 0.516368 0.032837 0.162158
Si Si6 0.193518 0.169228 0.177733
Si Si7 0.551637 0.132408 0.465967
Si Si8 0.660458 0.535532 0.825135
O O1 0.500000 0.500000 0.500000
O O2 0.509182 0.645949 0.629122
O O3 0.297077 0.044926 0.026301
O O4 0.398191 0.404918 0.838461
O O5 0.761541 0.033514 0.342942
O O6 0.884468 0.270667 0.119743
O O7 0.050073 0.927315 0.263498
O O8 0.000000 0.000000 0.000000
O O9 0.205398 0.574987 0.351295
O O10 0.954089 0.834787 0.610394
O O11 0.272378 0.734385 0.384701
O O12 0.114856 0.397750 0.099988
O O13 0.210976 0.549911 0.117447
O O14 0.357646 0.097751 0.168238
O O15 0.443798 0.231076 0.202929
O O16 0.528195 0.866567 0.327078
O O17 0.500000 0.000000 0.500000
O O18 0.500000 0.500000 0.000000
#
# Coordination Sequence:
#
# PCOD9032544 Si02
#       8
#     2   2   2   2   2   2   2   2
#     4  11  25  47  73 105 153 203 253 311 388 466
#     4  11  24  43  69 115 158 190 253 331 383 441
#     4  12  24  46  78 116 148 196 270 318 376 452
#     4  10  22  43  72 101 155 199 242 307 394 456
#     4  10  22  43  74 102 157 199 247 303 394 457
#     4  10  23  45  75 110 147 204 251 310 377 464
#     4  11  24  45  73 106 146 207 256 307 386 460
#     4  11  22  41  72 109 145 195 254 307 383 442
#
# _framework density 24.906310000000001
#
# number of rings (size 3 to 8) (size 9 to 14) (size 15 to 20)
#    0.000    1.250    3.750    1.500    1.750    4.000 
#    0.000   10.625    0.000    0.000    0.000    0.000 
#    0.000    0.000    0.000    0.000    0.000    0.000 
#
# Total GULP energy -89462.071902 kJ/mol
# GULP energy per Si atom -5591.379494 kJ/mol
# Density = 2.484962 g / cm^3
# Si number density = 24.906310 Si / 1000 Ang^3
#
#
#
# Elastic Constant Matrix: (Units=GPa)
#
#
# Indices 1 2 3 4 5 6 
#
# 1 108.7026 36.3623 52.8506 0.4405 8.1869 -19.5348
# 2 36.3623 112.1294 47.2088 6.6282 -2.3284 4.3121
# 3 52.8506 47.2088 163.3946 19.0456 2.2917 -8.7365
# 4 0.4405 6.6282 19.0456 56.0007 2.2734 1.0863
# 5 8.1869 -2.3284 2.2917 2.2734 37.0585 -3.2552
# 6 -19.5348 4.3121 -8.7365 1.0863 -3.2552 34.7306
#
#
#
# Elastic Compliance Matrix: (Units=1/GPa)
#
#
# Indices 1 2 3 4 5 6 
#
# 1 0.013220 -0.003393 -0.003048 0.001301 -0.002426 0.006822
# 2 -0.003393 0.011185 -0.002294 -0.000497 0.001296 -0.003737
# 3 -0.003048 -0.002294 0.008092 -0.002480 0.000243 0.000706
# 4 0.001301 -0.000497 -0.002480 0.018815 -0.001367 -0.000547
# 5 -0.002426 0.001296 0.000243 -0.001367 0.027774 0.001182
# 6 0.006822 -0.003737 0.000706 -0.000547 0.001182 0.033400
#
#
# Mechanical properties :
#
#
# Convention : Reuss Voigt Hill
#
# Bulk Modulus (GPa) = 66.55324 73.00779 69.78052
# Shear Modulus (GPa) = 37.04624 42.07830 39.56227
#
# Velocity S-wave (km/s) = 3.86090 4.11477 3.98985
# Velocity P-wave (km/s) = 6.83043 7.20775 7.02163
#
# Compressibility (1/GPa) = 0.01502556
#
# Stress axis : x y z
#
# Youngs Moduli (GPa) = 75.64241 89.40933 123.57202
#
# Poissons Ratio (x) = 0.30339 0.37671
# Poissons Ratio (y) = 0.25667 0.28347
# Poissons Ratio (z) = 0.23059 0.20510
#
# Static dielectric constant tensor:
#      x y z
#    x 2.062930 0.091700 0.064270 
#    y 0.091700 2.072510 -0.015760 
#    z 0.064270 -0.015760 1.937920 
# 
# From -- ./inp_files/446745.got.cif
#   From: 2010.05.17/outbox.cif.g08.bks.cpg/sg2_224_cif.got.tgz:446745.got - 2010.06.03 11:33:40.
