data_PCOD9032068
_publ_section_title
;
Structure prediction by ZEFSAII (Michael W. Deem and Ramdas Pophale) SiO2 
 PCOD9032068
Probable space group: P -1
;
_chemical_formula_sum "Si O2"
_cell_formula_units_Z 12
_cell_length_a 17.190332
_cell_length_b 8.389174
_cell_length_c 7.189179
_cell_angle_alpha 90.863007
_cell_angle_beta 60.250852
_cell_angle_gamma 40.996229
_cell_volume 430.755297
_symmetry_space_group_name_H-M "P -1"
_symmetry_group_IT_number 2
_symmetry_cell_setting 'triclinic'
loop_
_space_group_symop_operation_xyz
x,y,z
-x,-y,-z
loop_
_atom_site_type_symbol
_atom_site_label
_atom_site_fract_x
_atom_site_fract_y
_atom_site_fract_z
Si Si1 0.807479 0.621457 0.619848
Si Si2 0.020298 0.603952 0.223108
Si Si3 0.346076 0.614465 0.980356
Si Si4 0.842262 0.117051 0.160290
Si Si5 0.533457 0.665364 0.799589
Si Si6 0.632061 0.912478 0.457473
O O1 0.926525 0.377390 0.654054
O O2 0.737810 0.661842 0.504459
O O3 0.917836 0.606450 0.416538
O O4 0.614828 0.971310 0.958901
O O5 0.209310 0.275437 0.876891
O O6 0.891825 0.893651 0.231331
O O7 0.183698 0.875875 0.025847
O O8 0.584397 0.315199 0.066606
O O9 0.513279 0.242327 0.693591
O O10 0.315300 0.584892 0.217428
O O11 0.644566 0.489955 0.474718
O O12 0.000000 0.000000 0.000000
O O13 0.500000 0.000000 0.500000
#
# Coordination Sequence:
#
# PCOD9032068 Si02
#       6
#     2   2   2   2   2   2
#     4  10  24  45  70  96 128 175 225 273 321 383
#     4  11  24  42  67 100 132 171 223 273 324 386
#     4  10  22  43  69  94 128 177 223 268 322 388
#     4  12  25  41  66 100 137 173 212 271 336 394
#     4  10  22  44  69  93 127 175 227 270 320 387
#     4  11  23  42  68  98 135 175 214 269 335 394
#
# _framework density 27.858046000000002
#
# number of rings (size 3 to 8) (size 9 to 14) (size 15 to 20)
#    0.000    1.333    0.000    6.000    0.000    6.667 
#    0.000    6.667    0.000    0.000    0.000    0.000 
#    0.000    0.000    0.000    0.000    0.000    0.000 
#
# Total GULP energy -67311.940340 kJ/mol
# GULP energy per Si atom -5609.328362 kJ/mol
# Density = 2.779464 g / cm^3
# Si number density = 27.858046 Si / 1000 Ang^3
#
#
#
# Elastic Constant Matrix: (Units=GPa)
#
#
# Indices 1 2 3 4 5 6 
#
# 1 95.9220 28.2063 3.8211 -9.7984 19.0880 -38.8715
# 2 28.2063 155.4150 0.1959 -40.8179 20.6253 -36.9455
# 3 3.8211 0.1959 125.7676 -9.1077 12.6042 -6.7033
# 4 -9.7984 -40.8179 -9.1077 57.3168 -12.7608 23.5302
# 5 19.0880 20.6253 12.6042 -12.7608 52.3559 -11.6473
# 6 -38.8715 -36.9455 -6.7033 23.5302 -11.6473 56.9028
#
#
#
# Elastic Compliance Matrix: (Units=1/GPa)
#
#
# Indices 1 2 3 4 5 6 
#
# 1 0.015312 -0.000523 0.000270 -0.002898 -0.003795 0.010574
# 2 -0.000523 0.008683 0.000658 0.004554 -0.001577 0.003152
# 3 0.000270 0.000658 0.008252 0.001097 -0.001913 0.000739
# 4 -0.002898 0.004554 0.001097 0.024505 0.003104 -0.008391
# 5 -0.003795 -0.001577 -0.001913 0.003104 0.022192 -0.000583
# 6 0.010574 0.003152 0.000739 -0.008391 -0.000583 0.030281
#
#
# Mechanical properties :
#
#
# Convention : Reuss Voigt Hill
#
# Bulk Modulus (GPa) = 30.25039 49.06122 39.65581
# Shear Modulus (GPa) = 41.86342 56.30718 49.08530
#
# Velocity S-wave (km/s) = 3.88073 4.50067 4.20215
# Velocity P-wave (km/s) = 5.56438 6.68262 6.14898
#
# Compressibility (1/GPa) = 0.03305742
#
# Stress axis : x y z
#
# Youngs Moduli (GPa) = 65.30643 115.16636 121.17614
#
# Poissons Ratio (x) = 0.06025 -0.03268
# Poissons Ratio (y) = 0.03417 -0.07976
# Poissons Ratio (z) = -0.01761 -0.07580
#
# Static dielectric constant tensor:
#      x y z
#    x 2.170160 0.031040 -0.020340 
#    y 0.031040 2.302300 0.017110 
#    z -0.020340 0.017110 2.186610 
# 
# From -- ./inp_files/123430.got.cif
#   From: 2010.05.17/outbox.cif.g08.bks.cpg/sg2_62_cif.got.tgz:123430.got - 2010.06.03 11:33:40.
