data_PCOD9032986
_publ_section_title
;
Structure prediction by ZEFSAII (Michael W. Deem and Ramdas Pophale) SiO2 
 PCOD9032986
Probable space group: P -1
;
_chemical_formula_sum "Si O2"
_cell_formula_units_Z 16
_cell_length_a 15.591462
_cell_length_b 11.918096
_cell_length_c 12.293640
_cell_angle_alpha 111.700620
_cell_angle_beta 153.435944
_cell_angle_gamma 52.994726
_cell_volume 719.184867
_symmetry_space_group_name_H-M "P -1"
_symmetry_group_IT_number 2
_symmetry_cell_setting 'triclinic'
loop_
_space_group_symop_operation_xyz
x,y,z
-x,-y,-z
loop_
_atom_site_type_symbol
_atom_site_label
_atom_site_fract_x
_atom_site_fract_y
_atom_site_fract_z
Si Si1 0.915197 0.318358 0.683095
Si Si2 0.322815 0.838722 0.664855
Si Si3 0.992275 0.888298 0.872334
Si Si4 0.482077 0.609212 0.427141
Si Si5 0.537186 0.846798 0.689867
Si Si6 0.910847 0.359761 0.435998
Si Si7 0.358663 0.283440 0.804795
Si Si8 0.822333 0.151975 0.174117
O O1 0.795005 0.237074 0.538267
O O2 0.703738 0.497651 0.550974
O O3 0.954878 0.317991 0.598401
O O4 0.178081 0.222618 0.011393
O O5 0.470577 0.844086 0.738599
O O6 0.503353 0.737806 0.933910
O O7 0.076890 0.017653 0.481483
O O8 0.095922 0.884746 0.870720
O O9 0.696781 0.975974 0.555859
O O10 0.202899 0.711896 0.094403
O O11 0.000000 0.000000 0.000000
O O12 0.500000 0.500000 0.500000
O O13 0.518668 0.726692 0.562427
O O14 0.792151 0.541078 0.351869
O O15 0.748527 0.317696 0.185873
O O16 0.163597 0.260960 0.612139
O O17 0.590925 0.159884 0.943941
#
# Coordination Sequence:
#
# PCOD9032986 Si02
#       8
#     2   2   2   2   2   2   2   2
#     4  12  23  40  68  95 129 172 210 265 321 374
#     4  11  23  39  65  90 130 165 216 258 315 376
#     4   9  22  43  67  90 128 166 206 263 320 371
#     4  11  22  40  71  94 122 170 217 262 318 378
#     4  10  22  44  64  93 130 167 212 265 317 378
#     4  11  25  38  64  92 132 164 209 262 315 375
#     4  11  23  41  59  97 128 165 213 257 310 382
#     4  11  23  40  66  90 124 171 204 258 317 377
#
# _framework density 22.247411
#
# number of rings (size 3 to 8) (size 9 to 14) (size 15 to 20)
#    0.000    1.250    3.750    1.875    1.750    2.500 
#    0.000    0.625    5.500    0.000    0.000    0.000 
#    0.000    0.000    0.000    0.000    0.000    0.000 
#
# Total GULP energy -89421.370336 kJ/mol
# GULP energy per Si atom -5588.835646 kJ/mol
# Density = 2.219677 g / cm^3
# Si number density = 22.247411 Si / 1000 Ang^3
#
#
#
# Elastic Constant Matrix: (Units=GPa)
#
#
# Indices 1 2 3 4 5 6 
#
# 1 69.4430 15.9608 24.8924 -1.1159 5.4348 -15.3644
# 2 15.9608 24.7704 20.0911 -6.9527 3.6732 -13.0090
# 3 24.8924 20.0911 132.0896 -14.4138 3.0648 7.8264
# 4 -1.1159 -6.9527 -14.4138 26.4538 -2.0132 3.0656
# 5 5.4348 3.6732 3.0648 -2.0132 37.5343 -0.7256
# 6 -15.3644 -13.0090 7.8264 3.0656 -0.7256 27.6112
#
#
#
# Elastic Compliance Matrix: (Units=1/GPa)
#
#
# Indices 1 2 3 4 5 6 
#
# 1 0.019159 -0.004862 -0.003827 -0.003846 -0.002002 0.009830
# 2 -0.004862 0.073645 -0.011249 0.008731 -0.004457 0.034095
# 3 -0.003827 -0.011249 0.011105 0.004269 0.000764 -0.011031
# 4 -0.003846 0.008731 0.004269 0.042838 0.001575 -0.003952
# 5 -0.002002 -0.004457 0.000764 0.001575 0.027335 -0.002887
# 6 0.009830 0.034095 -0.011031 -0.003952 -0.002887 0.061240
#
#
# Mechanical properties :
#
#
# Convention : Reuss Voigt Hill
#
# Bulk Modulus (GPa) = 15.61685 38.68797 27.15241
# Shear Modulus (GPa) = 16.86102 29.34377 23.10239
#
# Velocity S-wave (km/s) = 2.75596 3.63571 3.22597
# Velocity P-wave (km/s) = 4.14270 5.92048 5.10951
#
# Compressibility (1/GPa) = 0.06403340
#
# Stress axis : x y z
#
# Youngs Moduli (GPa) = 52.19427 13.57862 90.05334
#
# Poissons Ratio (x) = 0.06601 0.34461
# Poissons Ratio (y) = 0.25375 1.01305
# Poissons Ratio (z) = 0.19974 0.15275
#
# Static dielectric constant tensor:
#      x y z
#    x 1.796610 -0.024440 0.020650 
#    y -0.024440 1.843730 -0.051370 
#    z 0.020650 -0.051370 1.862160 
# 
# From -- ./inp_files/294122.got.cif
#   From: 2010.05.17/outbox.cif.g08.bks.cpg/sg2_148_cif.got.tgz:294122.got - 2010.06.03 11:33:40.
