data_PCOD9032329
_publ_section_title
;
Structure prediction by ZEFSAII (Michael W. Deem and Ramdas Pophale) SiO2 
 PCOD9032329
Probable space group: P -1
;
_chemical_formula_sum "Si O2"
_cell_formula_units_Z 14
_cell_length_a 7.376156
_cell_length_b 14.813278
_cell_length_c 6.095309
_cell_angle_alpha 90.040050
_cell_angle_beta 109.074739
_cell_angle_gamma 64.072475
_cell_volume 558.104694
_symmetry_space_group_name_H-M "P -1"
_symmetry_group_IT_number 2
_symmetry_cell_setting 'triclinic'
loop_
_space_group_symop_operation_xyz
x,y,z
-x,-y,-z
loop_
_atom_site_type_symbol
_atom_site_label
_atom_site_fract_x
_atom_site_fract_y
_atom_site_fract_z
Si Si1 0.593861 0.307685 0.072015
Si Si2 0.220496 0.577945 0.096645
Si Si3 0.581944 0.004258 0.780125
Si Si4 0.356388 0.235171 0.709002
Si Si5 0.900209 0.253762 0.583393
Si Si6 0.141446 0.426014 0.355351
Si Si7 0.953920 0.115494 0.959695
O O1 0.699187 0.306102 0.344532
O O2 0.783606 0.204366 0.040908
O O3 0.588829 0.403209 0.937049
O O4 0.388670 0.287995 0.945084
O O5 0.247916 0.479219 0.242527
O O6 0.128178 0.667662 0.236327
O O7 0.037890 0.592239 0.847508
O O8 0.547578 0.120856 0.764711
O O9 0.500000 0.000000 0.500000
O O10 0.808635 0.902099 0.878410
O O11 0.500000 0.000000 0.000000
O O12 0.138439 0.225372 0.593970
O O13 0.328005 0.320243 0.520424
O O14 0.908427 0.153313 0.692440
O O15 0.000000 0.500000 0.500000
O O16 0.000000 0.000000 0.000000
#
# Coordination Sequence:
#
# PCOD9032329 Si02
#       7
#     2   2   2   2   2   2   2
#     4  11  24  44  68 103 139 181 239 292 360 429
#     4  10  22  43  70  97 135 182 225 291 363 421
#     4  12  27  46  73 107 146 195 248 297 361 441
#     4  12  24  44  72 104 136 190 240 290 362 432
#     4  11  23  45  69  96 143 183 230 296 356 431
#     4  11  22  43  73  97 136 182 228 287 364 428
#     4  11  24  44  64  99 147 182 233 297 355 420
#
# _framework density 25.084900000000001
#
# number of rings (size 3 to 8) (size 9 to 14) (size 15 to 20)
#    0.000    0.857    5.714    0.857    2.000    2.286 
#    5.143    2.857    0.000    0.000    0.000    0.000 
#    0.000    0.000    0.000    0.000    0.000    0.000 
#
# Total GULP energy -78125.132720 kJ/mol
# GULP energy per Si atom -5580.366623 kJ/mol
# Density = 2.502781 g / cm^3
# Si number density = 25.084900 Si / 1000 Ang^3
#
#
#
# Elastic Constant Matrix: (Units=GPa)
#
#
# Indices 1 2 3 4 5 6 
#
# 1 73.7899 23.3445 32.0415 -0.3257 2.1204 14.1978
# 2 23.3445 149.7519 40.6750 -7.2229 -6.1405 15.7591
# 3 32.0415 40.6750 136.8421 7.3992 -3.6401 17.5483
# 4 -0.3257 -7.2229 7.3992 60.5647 8.1151 -2.9588
# 5 2.1204 -6.1405 -3.6401 8.1151 20.7788 -7.0540
# 6 14.1978 15.7591 17.5483 -2.9588 -7.0540 44.3936
#
#
#
# Elastic Compliance Matrix: (Units=1/GPa)
#
#
# Indices 1 2 3 4 5 6 
#
# 1 0.016223 -0.001424 -0.002994 0.000652 -0.004258 -0.004133
# 2 -0.001424 0.007613 -0.001778 0.000880 0.001306 -0.001278
# 3 -0.002994 -0.001778 0.008892 -0.001583 0.001338 -0.001819
# 4 0.000652 0.000880 -0.001583 0.017754 -0.006955 0.000183
# 5 -0.004258 0.001306 0.001338 -0.006955 0.054822 0.008617
# 6 -0.004133 -0.001278 -0.001819 0.000183 0.008617 0.026401
#
#
# Mechanical properties :
#
#
# Convention : Reuss Voigt Hill
#
# Bulk Modulus (GPa) = 49.17604 61.38954 55.28279
# Shear Modulus (GPa) = 33.13959 42.76895 37.95427
#
# Velocity S-wave (km/s) = 3.63863 4.13361 3.89399
# Velocity P-wave (km/s) = 6.10731 6.87809 6.50413
#
# Compressibility (1/GPa) = 0.02033511
#
# Stress axis : x y z
#
# Youngs Moduli (GPa) = 61.64121 131.34978 112.46357
#
# Poissons Ratio (x) = 0.18705 0.33670
# Poissons Ratio (y) = 0.08778 0.20002
# Poissons Ratio (z) = 0.18455 0.23360
#
# Static dielectric constant tensor:
#      x y z
#    x 2.222720 0.042400 0.035830 
#    y 0.042400 1.966160 0.015860 
#    z 0.035830 0.015860 2.044450 
# 
# From -- ./inp_files/38378.got.cif
#   From: 2010.05.17/outbox.cif.g08.bks.cpg/sg2_20_cif.got.tgz:38378.got - 2010.06.03 11:33:40.
