data_PCOD9032065
_publ_section_title
;
Structure prediction by ZEFSAII (Michael W. Deem and Ramdas Pophale) SiO2 
 PCOD9032065
Probable space group: P -1
;
_chemical_formula_sum "Si O2"
_cell_formula_units_Z 16
_cell_length_a 10.770693
_cell_length_b 8.353550
_cell_length_c 15.941959
_cell_angle_alpha 132.064272
_cell_angle_beta 70.140450
_cell_angle_gamma 134.174661
_cell_volume 741.640108
_symmetry_space_group_name_H-M "P -1"
_symmetry_group_IT_number 2
_symmetry_cell_setting 'triclinic'
loop_
_space_group_symop_operation_xyz
x,y,z
-x,-y,-z
loop_
_atom_site_type_symbol
_atom_site_label
_atom_site_fract_x
_atom_site_fract_y
_atom_site_fract_z
Si Si1 0.166716 0.157806 0.579750
Si Si2 0.478351 0.730671 0.084340
Si Si3 0.090837 0.204090 0.792054
Si Si4 0.068001 0.222328 0.987221
Si Si5 0.497839 0.768009 0.465214
Si Si6 0.315144 0.139488 0.241510
Si Si7 0.415094 0.776245 0.670916
Si Si8 0.724579 0.143732 0.018576
O O1 0.128645 0.096511 0.666170
O O2 0.308732 0.122638 0.517454
O O3 0.264752 0.494449 0.661013
O O4 0.000000 0.000000 0.500000
O O5 0.265202 0.532879 0.065229
O O6 0.565799 0.950665 0.219990
O O7 0.590243 0.936245 0.050919
O O8 0.500000 0.500000 0.000000
O O9 0.230597 0.554502 0.888057
O O10 0.080131 0.106073 0.855261
O O11 0.894690 0.079599 0.775167
O O12 0.916796 0.238090 0.018113
O O13 0.000000 0.000000 0.000000
O O14 0.397461 0.470160 0.331790
O O15 0.396780 0.692027 0.549635
O O16 0.500000 0.000000 0.500000
O O17 0.408063 0.135259 0.298650
O O18 0.348994 0.038743 0.114805
#
# Coordination Sequence:
#
# PCOD9032065 Si02
#       8
#     2   2   2   2   2   2   2   2
#     4  11  23  44  71 100 131 178 241 292 337 414
#     4  12  25  40  68  99 141 176 223 285 355 415
#     4  11  22  41  69 101 130 173 233 287 339 413
#     4  11  24  40  60  97 141 178 215 274 352 415
#     4  11  26  44  66  97 136 184 234 283 354 415
#     4  10  22  43  69  93 137 176 227 286 345 416
#     4  11  23  43  67  96 131 182 231 277 347 417
#     4  11  23  43  66 104 131 176 227 283 347 416
#
# _framework density 21.573808
#
# number of rings (size 3 to 8) (size 9 to 14) (size 15 to 20)
#    0.000    1.000    2.500    6.000    5.250    1.000 
#    0.000    5.000    0.000    0.000    0.000    0.000 
#    0.000    0.000    0.000    0.000    0.000    0.000 
#
# Total GULP energy -89405.143943 kJ/mol
# GULP energy per Si atom -5587.821496 kJ/mol
# Density = 2.152471 g / cm^3
# Si number density = 21.573808 Si / 1000 Ang^3
#
#
#
# Elastic Constant Matrix: (Units=GPa)
#
#
# Indices 1 2 3 4 5 6 
#
# 1 71.7771 27.3745 24.1700 21.7044 -5.3035 3.7047
# 2 27.3745 116.2943 37.6059 -4.4902 4.3467 2.7336
# 3 24.1700 37.6059 115.1037 0.3776 -0.6237 -3.7116
# 4 21.7044 -4.4902 0.3776 46.6196 -0.8853 0.9952
# 5 -5.3035 4.3467 -0.6237 -0.8853 31.6212 4.8022
# 6 3.7047 2.7336 -3.7116 0.9952 4.8022 40.7589
#
#
#
# Elastic Compliance Matrix: (Units=1/GPa)
#
#
# Indices 1 2 3 4 5 6 
#
# 1 0.019716 -0.004205 -0.002778 -0.009446 0.003867 -0.001988
# 2 -0.004205 0.010640 -0.002627 0.002973 -0.002076 -0.000399
# 3 -0.002778 -0.002627 0.010169 0.000928 -0.000082 0.001342
# 4 -0.009446 0.002973 0.000928 0.026097 -0.001283 0.000258
# 5 0.003867 -0.002076 -0.000082 -0.001283 0.033142 -0.004093
# 6 -0.001988 -0.000399 0.001342 0.000258 -0.004093 0.025340
#
#
# Mechanical properties :
#
#
# Convention : Reuss Voigt Hill
#
# Bulk Modulus (GPa) = 46.93898 53.49730 50.21814
# Shear Modulus (GPa) = 33.01927 38.06826 35.54377
#
# Velocity S-wave (km/s) = 3.91644 4.20522 4.06340
# Velocity P-wave (km/s) = 6.50046 6.95915 6.73371
#
# Compressibility (1/GPa) = 0.02130426
#
# Stress axis : x y z
#
# Youngs Moduli (GPa) = 50.72047 93.98542 98.33509
#
# Poissons Ratio (x) = 0.39521 0.27321
# Poissons Ratio (y) = 0.21328 0.25833
# Poissons Ratio (z) = 0.14092 0.24691
#
# Static dielectric constant tensor:
#      x y z
#    x 1.822690 0.013990 -0.001390 
#    y 0.013990 1.786690 -0.013130 
#    z -0.001390 -0.013130 1.809560 
# 
# From -- ./inp_files/403435.got.cif
#   From: 2010.05.17/outbox.cif.g08.bks.cpg/sg2_202_cif.got.tgz:403435.got - 2010.06.03 11:33:40.
