data_PCOD9032221
_publ_section_title
;
Structure prediction by ZEFSAII (Michael W. Deem and Ramdas Pophale) SiO2 
 PCOD9032221
Probable space group: P -1
;
_chemical_formula_sum "Si O2"
_cell_formula_units_Z 16
_cell_length_a 9.137943
_cell_length_b 17.591073
_cell_length_c 5.533964
_cell_angle_alpha 98.315993
_cell_angle_beta 97.665823
_cell_angle_gamma 50.252542
_cell_volume 675.788111
_symmetry_space_group_name_H-M "P -1"
_symmetry_group_IT_number 2
_symmetry_cell_setting 'triclinic'
loop_
_space_group_symop_operation_xyz
x,y,z
-x,-y,-z
loop_
_atom_site_type_symbol
_atom_site_label
_atom_site_fract_x
_atom_site_fract_y
_atom_site_fract_z
Si Si1 0.262193 0.820695 0.019974
Si Si2 0.041347 0.895400 0.490356
Si Si3 0.533801 0.087675 0.823864
Si Si4 0.188236 0.268473 0.137000
Si Si5 0.502443 0.566775 0.334357
Si Si6 0.739747 0.884021 0.614860
Si Si7 0.610688 0.642574 0.750893
Si Si8 0.793767 0.440323 0.951078
O O1 0.147182 0.852782 0.755660
O O2 0.462139 0.711220 0.963083
O O3 0.148551 0.834473 0.240593
O O4 0.321022 0.889638 0.116481
O O5 0.854928 0.903140 0.475111
O O6 0.000000 0.000000 0.500000
O O7 0.430908 0.104932 0.552129
O O8 0.652000 0.970948 0.833611
O O9 0.361518 0.169854 0.994366
O O10 0.125575 0.226595 0.300724
O O11 0.273626 0.319989 0.276520
O O12 0.013268 0.348158 0.966744
O O13 0.500000 0.500000 0.500000
O O14 0.488211 0.651092 0.506342
O O15 0.328904 0.596136 0.144343
O O16 0.703568 0.497453 0.210253
O O17 0.745853 0.527770 0.807124
#
# Coordination Sequence:
#
# PCOD9032221 Si02
#       8
#     2   2   2   2   2   2   2   2
#     4  11  27  47  79 111 151 197 252 305 374 442
#     4  12  27  48  77 112 151 196 255 310 369 442
#     4  10  25  47  71  99 149 193 246 301 377 440
#     4  11  25  42  68 105 141 188 247 302 372 441
#     4   9  21  42  67  95 136 184 233 299 369 429
#     4  11  26  45  72 103 146 197 243 312 369 446
#     4  10  24  43  70 102 144 195 243 304 368 447
#     4  10  22  43  70 101 142 186 245 306 369 439
#
# _framework density 23.676062999999999
#
# number of rings (size 3 to 8) (size 9 to 14) (size 15 to 20)
#    0.000    1.500    1.250    1.125    7.000    7.500 
#    0.000    0.000    0.000    0.000    0.000    0.000 
#    0.000    0.000    0.000    0.000    0.000    0.000 
#
# Total GULP energy -89431.702163 kJ/mol
# GULP energy per Si atom -5589.481385 kJ/mol
# Density = 2.362217 g / cm^3
# Si number density = 23.676063 Si / 1000 Ang^3
#
#
#
# Elastic Constant Matrix: (Units=GPa)
#
#
# Indices 1 2 3 4 5 6 
#
# 1 101.3078 43.8063 39.9217 11.5695 -3.0433 4.0250
# 2 43.8063 108.2646 23.4378 -16.5460 3.2963 16.5205
# 3 39.9217 23.4378 93.8841 6.9960 2.5011 5.6075
# 4 11.5695 -16.5460 6.9960 28.6273 3.4331 4.9951
# 5 -3.0433 3.2963 2.5011 3.4331 33.8573 2.6285
# 6 4.0250 16.5205 5.6075 4.9951 2.6285 26.3560
#
#
#
# Elastic Compliance Matrix: (Units=1/GPa)
#
#
# Indices 1 2 3 4 5 6 
#
# 1 0.016552 -0.008530 -0.004451 -0.011934 0.003416 0.005687
# 2 -0.008530 0.017348 -0.001108 0.016226 -0.003080 -0.012104
# 3 -0.004451 -0.001108 0.013035 -0.001738 -0.001004 -0.000970
# 4 -0.011934 0.016226 -0.001738 0.053390 -0.006584 -0.017441
# 5 0.003416 -0.003080 -0.001004 -0.006584 0.030901 -0.000212
# 6 0.005687 -0.012104 -0.000970 -0.017441 -0.000212 0.048194
#
#
# Mechanical properties :
#
#
# Convention : Reuss Voigt Hill
#
# Bulk Modulus (GPa) = 53.30740 57.53201 55.41970
# Shear Modulus (GPa) = 23.38090 30.85417 27.11753
#
# Velocity S-wave (km/s) = 3.14591 3.61387 3.38798
# Velocity P-wave (km/s) = 5.97996 6.46265 6.22598
#
# Compressibility (1/GPa) = 0.01875912
#
# Stress axis : x y z
#
# Youngs Moduli (GPa) = 60.41393 57.64220 76.71849
#
# Poissons Ratio (x) = 0.49166 0.34144
# Poissons Ratio (y) = 0.51531 0.08501
# Poissons Ratio (z) = 0.26887 0.06387
#
# Static dielectric constant tensor:
#      x y z
#    x 1.885400 -0.022580 -0.023080 
#    y -0.022580 1.925920 -0.031650 
#    z -0.023080 -0.031650 1.948510 
# 
# From -- ./inp_files/48347.got.cif
#   From: 2010.05.17/outbox.cif.g08.bks.cpg/sg2_25_cif.got.tgz:48347.got - 2010.06.03 11:33:40.
