data_PCOD9032874
_publ_section_title
;
Structure prediction by ZEFSAII (Michael W. Deem and Ramdas Pophale) SiO2 
 PCOD9032874
Probable space group: P -1
;
_chemical_formula_sum "Si O2"
_cell_formula_units_Z 16
_cell_length_a 9.814173
_cell_length_b 6.739151
_cell_length_c 16.195832
_cell_angle_alpha 82.619029
_cell_angle_beta 93.950972
_cell_angle_gamma 43.209215
_cell_volume 706.175149
_symmetry_space_group_name_H-M "P -1"
_symmetry_group_IT_number 2
_symmetry_cell_setting 'triclinic'
loop_
_space_group_symop_operation_xyz
x,y,z
-x,-y,-z
loop_
_atom_site_type_symbol
_atom_site_label
_atom_site_fract_x
_atom_site_fract_y
_atom_site_fract_z
Si Si1 0.813119 0.671328 0.794483
Si Si2 0.547281 0.611006 0.861662
Si Si3 0.001855 0.140100 0.411829
Si Si4 0.105397 0.467089 0.386306
Si Si5 0.741536 0.777745 0.084133
Si Si6 0.616308 0.494619 0.576176
Si Si7 0.286127 0.813198 0.682811
Si Si8 0.384144 0.894406 0.096234
O O1 0.712122 0.575655 0.827610
O O2 0.814627 0.666111 0.695995
O O3 0.680985 0.985673 0.819098
O O4 0.044841 0.443461 0.848495
O O5 0.414926 0.884862 0.904723
O O6 0.386235 0.710106 0.781331
O O7 0.648399 0.300194 0.916632
O O8 0.042059 0.323119 0.428087
O O9 0.797700 0.311016 0.343906
O O10 0.189612 0.858987 0.378089
O O11 0.000000 0.000000 0.500000
O O12 0.279797 0.404454 0.443912
O O13 0.905148 0.825752 0.350051
O O14 0.617832 0.708478 0.099506
O O15 0.750881 0.818161 0.985470
O O16 0.500000 0.500000 0.500000
O O17 0.459374 0.690777 0.632757
#
# Coordination Sequence:
#
# PCOD9032874 Si02
#       8
#     2   2   2   2   2   2   2   2
#     4  11  23  40  63  99 129 170 224 264 325 388
#     4  11  23  40  66  95 131 169 223 269 321 384
#     4  11  26  46  66  99 129 168 220 265 328 397
#     4  11  26  43  70  95 135 173 213 276 327 383
#     4  10  22  44  61  96 134 174 219 266 327 385
#     4  11  24  47  67  99 129 164 217 267 325 401
#     4  11  24  43  64  95 130 167 218 270 325 391
#     4  10  24  39  67  94 133 174 218 269 323 385
#
# _framework density 22.657267999999998
#
# number of rings (size 3 to 8) (size 9 to 14) (size 15 to 20)
#    0.000    1.250    3.750    0.750    3.500    5.000 
#    0.000    0.000    0.000    0.000    0.000    0.000 
#    0.000    0.000    0.000    0.000    0.000    0.000 
#
# Total GULP energy -89476.701209 kJ/mol
# GULP energy per Si atom -5592.293826 kJ/mol
# Density = 2.260570 g / cm^3
# Si number density = 22.657268 Si / 1000 Ang^3
#
#
#
# Elastic Constant Matrix: (Units=GPa)
#
#
# Indices 1 2 3 4 5 6 
#
# 1 146.2923 33.2518 24.3199 -6.6825 17.0049 15.8356
# 2 33.2518 54.1692 -5.6106 12.1512 -15.1128 3.8403
# 3 24.3199 -5.6106 76.1597 14.6638 8.9629 -1.3872
# 4 -6.6825 12.1512 14.6638 29.8718 -7.0045 1.0755
# 5 17.0049 -15.1128 8.9629 -7.0045 42.2647 1.6590
# 6 15.8356 3.8403 -1.3872 1.0755 1.6590 41.8887
#
#
#
# Elastic Compliance Matrix: (Units=1/GPa)
#
#
# Indices 1 2 3 4 5 6 
#
# 1 0.011790 -0.011175 -0.005621 0.008673 -0.005969 -0.003605
# 2 -0.011175 0.033186 0.007966 -0.017202 0.011767 0.001422
# 3 -0.005621 0.007966 0.018367 -0.013877 -0.001179 0.002406
# 4 0.008673 -0.017202 -0.013877 0.049747 0.001685 -0.003505
# 5 -0.005969 0.011767 -0.001179 0.001685 0.030803 -0.000125
# 6 -0.003605 0.001422 0.002406 -0.003505 -0.000125 0.025280
#
#
# Mechanical properties :
#
#
# Convention : Reuss Voigt Hill
#
# Bulk Modulus (GPa) = 21.88958 42.28259 32.08608
# Shear Modulus (GPa) = 24.74492 37.78239 31.26366
#
# Velocity S-wave (km/s) = 3.30834 4.08801 3.71866
# Velocity P-wave (km/s) = 4.92703 6.40193 5.71228
#
# Compressibility (1/GPa) = 0.04568383
#
# Stress axis : x y z
#
# Youngs Moduli (GPa) = 84.81503 30.13295 54.44616
#
# Poissons Ratio (x) = 0.33673 0.30606
# Poissons Ratio (y) = 0.94780 -0.43374
# Poissons Ratio (z) = 0.47678 -0.24005
#
# Static dielectric constant tensor:
#      x y z
#    x 1.855750 0.021650 -0.002700 
#    y 0.021650 1.855570 0.015500 
#    z -0.002700 0.015500 1.869740 
# 
# From -- ./inp_files/53616.got.cif
#   From: 2010.05.17/outbox.cif.g08.bks.cpg/sg2_27_cif.got.tgz:53616.got - 2010.06.03 11:33:40.
