data_PCOD9032797
_publ_section_title
;
Structure prediction by ZEFSAII (Michael W. Deem and Ramdas Pophale) SiO2 
 PCOD9032797
Probable space group: P -1
;
_chemical_formula_sum "Si O2"
_cell_formula_units_Z 14
_cell_length_a 6.786847
_cell_length_b 18.256677
_cell_length_c 5.158856
_cell_angle_alpha 77.426625
_cell_angle_beta 75.010557
_cell_angle_gamma 65.190371
_cell_volume 556.111630
_symmetry_space_group_name_H-M "P -1"
_symmetry_group_IT_number 2
_symmetry_cell_setting 'triclinic'
loop_
_space_group_symop_operation_xyz
x,y,z
-x,-y,-z
loop_
_atom_site_type_symbol
_atom_site_label
_atom_site_fract_x
_atom_site_fract_y
_atom_site_fract_z
Si Si1 0.360062 0.828972 0.036395
Si Si2 0.821607 0.016679 0.700297
Si Si3 0.984163 0.322482 0.507082
Si Si4 0.422562 0.329284 0.582231
Si Si5 0.638778 0.019618 0.288671
Si Si6 0.840250 0.264551 0.129756
Si Si7 0.142773 0.500988 0.702006
O O1 0.254275 0.887782 0.269118
O O2 0.504424 0.741717 0.172937
O O3 0.469367 0.882774 0.807098
O O4 0.184583 0.814718 0.916711
O O5 0.892382 0.011533 0.358689
O O6 0.588571 0.007957 0.633402
O O7 0.770257 0.977949 0.013994
O O8 0.218683 0.323181 0.501340
O O9 0.003408 0.259436 0.317163
O O10 0.836436 0.412603 0.382206
O O11 0.889055 0.305670 0.824073
O O12 0.611450 0.313234 0.317997
O O13 0.351936 0.416793 0.675193
O O14 0.000000 0.500000 0.500000
O O15 0.000000 0.500000 0.000000
#
# Coordination Sequence:
#
# PCOD9032797 Si02
#       7
#     2   2   2   2   2   2   2
#     4  10  25  44  75 104 151 188 242 301 382 428
#     4  10  22  44  75  98 141 182 232 295 367 438
#     4  11  26  44  73 107 143 200 260 289 371 443
#     4  11  25  48  75 101 158 196 238 322 367 414
#     4  10  22  43  75 104 136 179 243 292 358 455
#     4  12  25  46  70 108 151 189 251 307 362 443
#     4  10  23  43  71 104 144 197 252 303 356 431
#
# _framework density 25.174804000000002
#
# number of rings (size 3 to 8) (size 9 to 14) (size 15 to 20)
#    0.857    0.571    1.429    3.429    6.000    1.143 
#    0.000    5.714    0.000    0.000    0.000    0.000 
#    0.000    0.000    0.000    0.000    0.000    0.000 
#
# Total GULP energy -78153.847804 kJ/mol
# GULP energy per Si atom -5582.417700 kJ/mol
# Density = 2.511750 g / cm^3
# Si number density = 25.174804 Si / 1000 Ang^3
#
#
#
# Elastic Constant Matrix: (Units=GPa)
#
#
# Indices 1 2 3 4 5 6 
#
# 1 158.0847 47.2537 70.5745 8.6006 -3.8033 20.6983
# 2 47.2537 54.1070 21.1165 6.6494 16.5499 -1.6880
# 3 70.5745 21.1165 238.3029 9.8767 -7.5120 11.8694
# 4 8.6006 6.6494 9.8767 43.1639 13.8984 10.8913
# 5 -3.8033 16.5499 -7.5120 13.8984 71.5322 9.3591
# 6 20.6983 -1.6880 11.8694 10.8913 9.3591 40.4026
#
#
#
# Elastic Compliance Matrix: (Units=1/GPa)
#
#
# Indices 1 2 3 4 5 6 
#
# 1 0.011236 -0.010375 -0.001983 0.000304 0.003583 -0.006519
# 2 -0.010375 0.030817 -0.000295 -0.002213 -0.008493 0.009253
# 3 -0.001983 -0.000295 0.004883 -0.000802 0.000680 -0.000372
# 4 0.000304 -0.002213 -0.000802 0.026456 -0.003879 -0.006246
# 5 0.003583 -0.008493 0.000680 -0.003879 0.017672 -0.005438
# 6 -0.006519 0.009253 -0.000372 -0.006246 -0.005438 0.031530
#
#
# Mechanical properties :
#
#
# Convention : Reuss Voigt Hill
#
# Bulk Modulus (GPa) = 46.23528 80.93157 63.58342
# Shear Modulus (GPa) = 32.23525 51.78974 42.01250
#
# Velocity S-wave (km/s) = 3.58223 4.54056 4.08956
# Velocity P-wave (km/s) = 5.95948 7.72700 6.90007
#
# Compressibility (1/GPa) = 0.02162851
#
# Stress axis : x y z
#
# Youngs Moduli (GPa) = 89.00311 32.44997 204.79325
#
# Poissons Ratio (x) = 0.33668 0.40611
# Poissons Ratio (y) = 0.92344 0.06040
# Poissons Ratio (z) = 0.17650 0.00957
#
# Static dielectric constant tensor:
#      x y z
#    x 2.197370 0.008080 0.020580 
#    y 0.008080 1.957640 -0.020220 
#    z 0.020580 -0.020220 1.909480 
# 
# From -- ./inp_files/10551.got.cif
#   From: 2010.05.17/outbox.cif.g08.bks.cpg/sg2_6_cif.got.tgz:10551.got - 2010.06.03 11:33:40.
