data_PCOD9032237
_publ_section_title
;
Structure prediction by ZEFSAII (Michael W. Deem and Ramdas Pophale) SiO2 
 PCOD9032237
Probable space group: P -1
;
_chemical_formula_sum "Si O2"
_cell_formula_units_Z 16
_cell_length_a 5.712411
_cell_length_b 13.829138
_cell_length_c 16.528318
_cell_angle_alpha 145.685704
_cell_angle_beta 104.485172
_cell_angle_gamma 84.003387
_cell_volume 700.080670
_symmetry_space_group_name_H-M "P -1"
_symmetry_group_IT_number 2
_symmetry_cell_setting 'triclinic'
loop_
_space_group_symop_operation_xyz
x,y,z
-x,-y,-z
loop_
_atom_site_type_symbol
_atom_site_label
_atom_site_fract_x
_atom_site_fract_y
_atom_site_fract_z
Si Si1 0.516933 0.504721 0.891351
Si Si2 0.492475 0.214411 0.021801
Si Si3 0.108300 0.606730 0.711734
Si Si4 0.876653 0.626729 0.134371
Si Si5 0.666190 0.128340 0.663750
Si Si6 0.640133 0.976119 0.737855
Si Si7 0.461569 0.564834 0.450478
Si Si8 0.922479 0.038210 0.110891
O O1 0.602022 0.611087 0.892246
O O2 0.225400 0.471137 0.860578
O O3 0.579992 0.313722 0.770337
O O4 0.640411 0.630377 0.061048
O O5 0.765170 0.285087 0.126021
O O6 0.493890 0.091332 0.859909
O O7 0.330440 0.096607 0.991509
O O8 0.319879 0.500819 0.627411
O O9 0.095061 0.757347 0.748123
O O10 0.831178 0.509404 0.640806
O O11 0.045088 0.811820 0.290963
O O12 0.000000 0.500000 0.000000
O O13 0.658879 0.052178 0.701157
O O14 0.500000 0.000000 0.500000
O O15 0.512217 0.773537 0.589246
O O16 0.896222 0.989493 0.819187
O O17 0.500000 0.500000 0.500000
O O18 0.000000 0.000000 0.000000
#
# Coordination Sequence:
#
# PCOD9032237 Si02
#       8
#     2   2   2   2   2   2   2   2
#     4  10  22  43  70 102 141 189 249 303 373 441
#     4  12  26  43  77 109 145 199 261 314 379 460
#     4  12  27  48  75 108 157 202 252 316 383 453
#     4   9  18  40  68  92 134 179 239 302 360 427
#     4  11  26  46  68 107 151 193 244 315 377 454
#     4  12  27  44  76 107 148 203 258 311 394 451
#     4  12  27  49  73 111 157 205 251 317 389 468
#     4  12  25  48  74 113 151 193 258 325 374 459
#
# _framework density 22.854510000000001
#
# number of rings (size 3 to 8) (size 9 to 14) (size 15 to 20)
#    0.000    0.750    2.500    5.250    3.500    2.500 
#    0.000    0.000    0.000    0.000    0.000    0.000 
#    0.000    0.000    0.000    0.000    0.000    0.000 
#
# Total GULP energy -89268.937523 kJ/mol
# GULP energy per Si atom -5579.308595 kJ/mol
# Density = 2.280249 g / cm^3
# Si number density = 22.854510 Si / 1000 Ang^3
#
#
#
# Elastic Constant Matrix: (Units=GPa)
#
#
# Indices 1 2 3 4 5 6 
#
# 1 118.4031 49.1199 75.8153 12.3486 26.0390 13.3235
# 2 49.1199 135.0860 61.3793 17.2000 7.4231 -5.6476
# 3 75.8153 61.3793 152.9058 14.1824 26.8300 -1.8237
# 4 12.3486 17.2000 14.1824 39.6866 -2.4962 -2.9078
# 5 26.0390 7.4231 26.8300 -2.4962 49.5399 8.5440
# 6 13.3235 -5.6476 -1.8237 -2.9078 8.5440 30.0044
#
#
#
# Elastic Compliance Matrix: (Units=1/GPa)
#
#
# Indices 1 2 3 4 5 6 
#
# 1 0.014842 -0.002685 -0.005576 -0.002162 -0.003333 -0.006695
# 2 -0.002685 0.009882 -0.002524 -0.002318 0.000757 0.002459
# 3 -0.005576 -0.002524 0.011044 -0.001070 -0.003333 0.003517
# 4 -0.002162 -0.002318 -0.001070 0.027615 0.003064 0.002262
# 5 -0.003333 0.000757 -0.003333 0.003064 0.024701 -0.005317
# 6 -0.006695 0.002459 0.003517 0.002262 -0.005317 0.038711
#
#
# Mechanical properties :
#
#
# Convention : Reuss Voigt Hill
#
# Bulk Modulus (GPa) = 70.43026 86.55821 78.49424
# Shear Modulus (GPa) = 32.65906 38.51818 35.58862
#
# Velocity S-wave (km/s) = 3.78431 4.10977 3.95039
# Velocity P-wave (km/s) = 7.06954 7.77664 7.43150
#
# Compressibility (1/GPa) = 0.01419844
#
# Stress axis : x y z
#
# Youngs Moduli (GPa) = 67.37839 101.19256 90.54893
#
# Poissons Ratio (x) = 0.27167 0.50487
# Poissons Ratio (y) = 0.18089 0.22856
# Poissons Ratio (z) = 0.37568 0.25543
#
# Static dielectric constant tensor:
#      x y z
#    x 47.992740 -14.666350 -4.727670 
#    y -14.666350 6.602960 1.502780 
#    z -4.727670 1.502780 2.342260 
# 
# From -- ./inp_files/550202.got.cif
#   From: 2010.05.17/outbox.cif.g08.bks.cpg/sg2_276_cif.got.tgz:550202.got - 2010.06.03 11:33:40.
