data_PCOD9032864
_publ_section_title
;
Structure prediction by ZEFSAII (Michael W. Deem and Ramdas Pophale) SiO2 
 PCOD9032864
Probable space group: P -1
;
_chemical_formula_sum "Si O2"
_cell_formula_units_Z 16
_cell_length_a 5.128501
_cell_length_b 9.287850
_cell_length_c 19.687910
_cell_angle_alpha 131.699745
_cell_angle_beta 74.975851
_cell_angle_gamma 111.186354
_cell_volume 652.627608
_symmetry_space_group_name_H-M "P -1"
_symmetry_group_IT_number 2
_symmetry_cell_setting 'triclinic'
loop_
_space_group_symop_operation_xyz
x,y,z
-x,-y,-z
loop_
_atom_site_type_symbol
_atom_site_label
_atom_site_fract_x
_atom_site_fract_y
_atom_site_fract_z
Si Si1 0.204967 0.698131 0.017439
Si Si2 0.680830 0.258242 0.464921
Si Si3 0.931114 0.611315 0.877649
Si Si4 0.419240 0.767253 0.162645
Si Si5 0.669606 0.489160 0.267693
Si Si6 0.844784 0.870017 0.280843
Si Si7 0.185360 0.403111 0.556249
Si Si8 0.305396 0.100025 0.091898
O O1 0.442649 0.768577 0.080351
O O2 0.119441 0.907021 0.082679
O O3 0.000000 0.500000 0.000000
O O4 0.185248 0.628996 0.918710
O O5 0.346854 0.227392 0.482049
O O6 0.747568 0.430807 0.456243
O O7 0.850476 0.328312 0.545897
O O8 0.805715 0.076252 0.377983
O O9 0.667080 0.466158 0.884562
O O10 0.867310 0.809705 0.921170
O O11 0.018030 0.523932 0.775993
O O12 0.689244 0.858679 0.215935
O O13 0.155995 0.846453 0.233899
O O14 0.677421 0.690214 0.286382
O O15 0.681215 0.504899 0.352868
O O16 0.460922 0.281155 0.188973
O O17 0.500000 0.000000 0.000000
#
# Coordination Sequence:
#
# PCOD9032864 Si02
#       8
#     2   2   2   2   2   2   2   2
#     4  10  23  41  63  94 130 179 227 277 332 394
#     4  10  23  45  67  97 134 173 213 279 339 403
#     4  10  22  44  60  92 137 171 225 281 331 390
#     4  10  23  41  65  98 134 179 223 277 331 399
#     4  11  25  41  66  99 129 176 223 278 332 405
#     4  11  23  43  68  99 138 172 225 281 334 400
#     4  10  24  43  69  98 134 171 221 269 339 410
#     4  12  24  41  68  93 134 181 227 282 340 393
#
# _framework density 24.516278
#
# number of rings (size 3 to 8) (size 9 to 14) (size 15 to 20)
#    0.000    1.500    2.500    1.125    3.500    3.000 
#    0.000    3.750    0.000    0.000    0.000    0.000 
#    0.000    0.000    0.000    0.000    0.000    0.000 
#
# Total GULP energy -89105.359394 kJ/mol
# GULP energy per Si atom -5569.084962 kJ/mol
# Density = 2.446048 g / cm^3
# Si number density = 24.516278 Si / 1000 Ang^3
#
#
#
# Elastic Constant Matrix: (Units=GPa)
#
#
# Indices 1 2 3 4 5 6 
#
# 1 126.9775 40.6327 45.5734 -3.9397 8.7949 -34.8748
# 2 40.6327 73.4466 30.2109 12.1099 -1.9286 -29.3317
# 3 45.5734 30.2109 110.7700 -5.6076 15.4052 -24.8414
# 4 -3.9397 12.1099 -5.6076 39.5296 -14.0246 -1.1955
# 5 8.7949 -1.9286 15.4052 -14.0246 33.4262 0.9907
# 6 -34.8748 -29.3317 -24.8414 -1.1955 0.9907 33.4136
#
#
#
# Elastic Compliance Matrix: (Units=1/GPa)
#
#
# Indices 1 2 3 4 5 6 
#
# 1 0.012032 -0.002526 -0.001858 0.001195 -0.002223 0.009068
# 2 -0.002526 0.023578 -0.002019 -0.007508 -0.000678 0.016311
# 3 -0.001858 -0.002019 0.012373 0.000481 -0.005296 0.005662
# 4 0.001195 -0.007508 0.000481 0.032143 0.012642 -0.004211
# 5 -0.002223 -0.000678 -0.005296 0.012642 0.038431 -0.007540
# 6 0.009068 0.016311 0.005662 -0.004211 -0.007540 0.057993
#
#
# Mechanical properties :
#
#
# Convention : Reuss Voigt Hill
#
# Bulk Modulus (GPa) = 28.42814 60.44758 44.43786
# Shear Modulus (GPa) = 24.86551 34.25902 29.56227
#
# Velocity S-wave (km/s) = 3.18818 3.74224 3.47626
# Velocity P-wave (km/s) = 5.01731 6.58651 5.85472
#
# Compressibility (1/GPa) = 0.03517641
#
# Stress axis : x y z
#
# Youngs Moduli (GPa) = 83.10951 42.41326 80.81851
#
# Poissons Ratio (x) = 0.10715 0.15017
# Poissons Ratio (y) = 0.20996 0.16317
# Poissons Ratio (z) = 0.15443 0.08563
#
# Static dielectric constant tensor:
#      x y z
#    x 2.016950 0.031840 -0.015610 
#    y 0.031840 2.113280 0.053080 
#    z -0.015610 0.053080 2.027830 
# 
# From -- ./inp_files/94330.got.cif
#   From: 2010.05.17/outbox.cif.g08.bks.cpg/sg2_48_cif.got.tgz:94330.got - 2010.06.03 11:33:40.
