data_PCOD9032001
_publ_section_title
;
Structure prediction by ZEFSAII (Michael W. Deem and Ramdas Pophale) SiO2 
 PCOD9032001
Probable space group: P -1
;
_chemical_formula_sum "Si O2"
_cell_formula_units_Z 13
_cell_length_a 15.970727
_cell_length_b 8.996668
_cell_length_c 5.205557
_cell_angle_alpha 69.893096
_cell_angle_beta 118.099330
_cell_angle_gamma 136.748120
_cell_volume 452.094018
_symmetry_space_group_name_H-M "P -1"
_symmetry_group_IT_number 2
_symmetry_cell_setting 'triclinic'
loop_
_space_group_symop_operation_xyz
x,y,z
-x,-y,-z
loop_
_atom_site_type_symbol
_atom_site_label
_atom_site_fract_x
_atom_site_fract_y
_atom_site_fract_z
Si Si1 0.555342 0.397663 0.263332
Si Si2 0.340433 0.966337 0.974649
Si Si3 0.689446 0.770727 0.559157
Si Si4 0.251358 0.569283 0.840834
Si Si5 0.097214 0.182750 0.241033
Si Si6 0.000000 0.500000 0.500000
Si Si7 0.119101 0.861169 0.005905
O O1 0.593010 0.513499 0.525504
O O2 0.675630 0.453870 0.252291
O O3 0.500000 0.500000 0.000000
O O4 0.443460 0.137754 0.235707
O O5 0.356837 0.117052 0.689664
O O6 0.352321 0.806684 0.974684
O O7 0.190667 0.819458 0.945688
O O8 0.809539 0.848321 0.505448
O O9 0.763953 0.895963 0.855648
O O10 0.131426 0.541211 0.594228
O O11 0.192809 0.398849 0.084578
O O12 0.000317 0.177869 0.268790
O O13 0.000000 0.000000 0.000000
O O14 0.947804 0.306886 0.753329
#
# Coordination Sequence:
#
# PCOD9032001 Si02
#       7
#     2   2   2   2   2   1   2
#     4  10  25  44  69  99 139 186 231 284 331 407
#     4  11  24  44  70  98 137 185 225 287 334 414
#     4  10  22  44  66 100 136 182 224 288 335 399
#     4  11  23  45  69 103 139 176 237 279 348 401
#     4   9  22  40  66 102 135 179 224 290 335 414
#     4  10  22  44  72 104 136 178 214 302 340 412
#     4  10  22  43  69 103 138 172 236 271 357 403
#
# _framework density 28.755078000000001
#
# number of rings (size 3 to 8) (size 9 to 14) (size 15 to 20)
#    0.000    1.846    1.538    0.462    8.615    6.154 
#    2.769    1.538    0.000    0.000    0.000    0.000 
#    0.000    0.000    0.000    0.000    0.000    0.000 
#
# Total GULP energy -72522.460016 kJ/mol
# GULP energy per Si atom -5578.650770 kJ/mol
# Density = 2.868963 g / cm^3
# Si number density = 28.755078 Si / 1000 Ang^3
#
#
#
# Elastic Constant Matrix: (Units=GPa)
#
#
# Indices 1 2 3 4 5 6 
#
# 1 238.9762 59.0203 37.4718 0.4920 -10.2267 10.9695
# 2 59.0203 175.0274 20.2265 14.4429 -23.0324 -34.0324
# 3 37.4718 20.2265 49.0042 11.0219 1.7596 -19.2527
# 4 0.4920 14.4429 11.0219 45.6715 -9.4258 -20.7004
# 5 -10.2267 -23.0324 1.7596 -9.4258 45.9579 -0.1506
# 6 10.9695 -34.0324 -19.2527 -20.7004 -0.1506 53.8171
#
#
#
# Elastic Compliance Matrix: (Units=1/GPa)
#
#
# Indices 1 2 3 4 5 6 
#
# 1 0.005758 -0.002139 -0.005262 -0.000040 0.000388 -0.004423
# 2 -0.002139 0.007965 0.000354 0.000879 0.003702 0.005948
# 3 -0.005262 0.000354 0.029198 -0.002823 -0.002655 0.010649
# 4 -0.000040 0.000879 -0.002823 0.028371 0.006393 0.010484
# 5 0.000388 0.003702 -0.002655 0.006393 0.025126 0.003841
# 6 -0.004423 0.005948 0.010649 0.010484 0.003841 0.031097
#
#
# Mechanical properties :
#
#
# Convention : Reuss Voigt Hill
#
# Bulk Modulus (GPa) = 34.69029 77.38277 56.03653
# Shear Modulus (GPa) = 33.06487 52.17525 42.62006
#
# Velocity S-wave (km/s) = 3.39467 4.26428 3.85408
# Velocity P-wave (km/s) = 5.23978 7.15646 6.27177
#
# Compressibility (1/GPa) = 0.02882651
#
# Stress axis : x y z
#
# Youngs Moduli (GPa) = 173.68044 125.55106 34.24869
#
# Poissons Ratio (x) = 0.26857 0.18023
# Poissons Ratio (y) = 0.37152 -0.01214
# Poissons Ratio (z) = 0.91399 -0.04450
#
# Static dielectric constant tensor:
#      x y z
#    x 2.432040 -0.019540 0.095960 
#    y -0.019540 2.297690 0.135030 
#    z 0.095960 0.135030 2.407930 
# 
# From -- ./inp_files/60044.got.cif
#   From: 2010.05.17/outbox.cif.g08.bks.cpg/sg2_31_cif.got.tgz:60044.got - 2010.06.03 11:33:40.
