data_PCOD9032327
_publ_section_title
;
Structure prediction by ZEFSAII (Michael W. Deem and Ramdas Pophale) SiO2 
 PCOD9032327
Probable space group: P -1
;
_chemical_formula_sum "Si O2"
_cell_formula_units_Z 16
_cell_length_a 20.885437
_cell_length_b 8.366533
_cell_length_c 7.936434
_cell_angle_alpha 97.499989
_cell_angle_beta 48.661399
_cell_angle_gamma 132.607988
_cell_volume 628.087996
_symmetry_space_group_name_H-M "P -1"
_symmetry_group_IT_number 2
_symmetry_cell_setting 'triclinic'
loop_
_space_group_symop_operation_xyz
x,y,z
-x,-y,-z
loop_
_atom_site_type_symbol
_atom_site_label
_atom_site_fract_x
_atom_site_fract_y
_atom_site_fract_z
Si Si1 0.680993 0.677448 0.714888
Si Si2 0.576898 0.841556 0.763723
Si Si3 0.207193 0.508698 0.012118
Si Si4 0.959131 0.946781 0.259545
Si Si5 0.679609 0.869034 0.231696
Si Si6 0.790072 0.382830 0.593385
Si Si7 0.960269 0.441891 0.757312
Si Si8 0.416984 0.599674 0.512349
O O1 0.631536 0.786474 0.792383
O O2 0.845453 0.915530 0.490987
O O3 0.646534 0.539715 0.577366
O O4 0.589128 0.440015 0.976378
O O5 0.638433 0.888257 0.483015
O O6 0.641480 0.108465 0.738821
O O7 0.227199 0.605588 0.177417
O O8 0.123195 0.519061 0.054171
O O9 0.350705 0.665896 0.699776
O O10 0.098721 0.195835 0.154755
O O11 0.871569 0.656429 0.414020
O O12 0.000000 0.000000 0.000000
O O13 0.583781 0.821373 0.257318
O O14 0.635115 0.617824 0.298172
O O15 0.842481 0.130093 0.949602
O O16 0.897136 0.393677 0.376389
O O17 0.000000 0.500000 0.500000
#
# Coordination Sequence:
#
# PCOD9032327 Si02
#       8
#     2   2   2   2   2   2   2   2
#     4  10  23  45  70  98 135 178 224 279 333 408
#     4  10  24  45  69  99 134 180 226 276 338 394
#     4  11  24  45  67 102 131 183 222 278 340 398
#     4  12  25  43  67 100 136 176 224 281 342 399
#     4  10  23  42  70  97 135 177 227 276 329 411
#     4  11  26  45  69  98 138 178 227 280 338 408
#     4  10  24  43  66 101 131 178 221 279 337 396
#     4  10  22  43  70  97 134 180 225 272 339 394
#
# _framework density 25.474139000000001
#
# number of rings (size 3 to 8) (size 9 to 14) (size 15 to 20)
#    0.000    1.500    1.250    1.875    8.750    2.500 
#    6.750    0.000    0.000    0.000    0.000    0.000 
#    0.000    0.000    0.000    0.000    0.000    0.000 
#
# Total GULP energy -89621.916022 kJ/mol
# GULP energy per Si atom -5601.369751 kJ/mol
# Density = 2.541616 g / cm^3
# Si number density = 25.474139 Si / 1000 Ang^3
#
#
#
# Elastic Constant Matrix: (Units=GPa)
#
#
# Indices 1 2 3 4 5 6 
#
# 1 50.5633 7.0651 15.1639 12.7024 -13.6145 -3.5761
# 2 7.0651 89.0717 15.5445 -1.4155 10.4226 5.1073
# 3 15.1639 15.5445 110.7638 -3.8663 -4.1796 10.8805
# 4 12.7024 -1.4155 -3.8663 46.5792 -3.7768 -3.2189
# 5 -13.6145 10.4226 -4.1796 -3.7768 46.1040 0.4114
# 6 -3.5761 5.1073 10.8805 -3.2189 0.4114 42.9923
#
#
#
# Elastic Compliance Matrix: (Units=1/GPa)
#
#
# Indices 1 2 3 4 5 6 
#
# 1 0.024776 -0.002472 -0.003260 -0.006350 0.007036 0.002637
# 2 -0.002472 0.012155 -0.001361 0.000558 -0.003544 -0.001229
# 3 -0.003260 -0.001361 0.009982 0.001534 0.000398 -0.002525
# 4 -0.006350 0.000558 0.001534 0.023402 0.000048 0.000769
# 5 0.007036 -0.003544 0.000398 0.000048 0.024603 0.000674
# 6 0.002637 -0.001229 -0.002525 0.000769 0.000674 0.024315
#
#
# Mechanical properties :
#
#
# Convention : Reuss Voigt Hill
#
# Bulk Modulus (GPa) = 30.55537 36.21619 33.38578
# Shear Modulus (GPa) = 34.64326 41.31012 37.97669
#
# Velocity S-wave (km/s) = 3.69173 4.03134 3.86527
# Velocity P-wave (km/s) = 5.49478 5.99305 5.74931
#
# Compressibility (1/GPa) = 0.03272748
#
# Stress axis : x y z
#
# Youngs Moduli (GPa) = 40.36088 82.27365 100.17906
#
# Poissons Ratio (x) = 0.20336 0.32661
# Poissons Ratio (y) = 0.09976 0.13633
# Poissons Ratio (z) = 0.13159 0.11196
#
# Static dielectric constant tensor:
#      x y z
#    x 2.057910 -0.060130 -0.022180 
#    y -0.060130 2.002380 -0.009050 
#    z -0.022180 -0.009050 1.962060 
# 
# From -- ./inp_files/356616.got.cif
#   From: 2010.05.17/outbox.cif.g08.bks.cpg/sg2_179_cif.got.tgz:356616.got - 2010.06.03 11:33:40.
