data_PCOD9032398
_publ_section_title
;
Structure prediction by ZEFSAII (Michael W. Deem and Ramdas Pophale) SiO2 
 PCOD9032398
Probable space group: P -1
;
_chemical_formula_sum "Si O2"
_cell_formula_units_Z 16
_cell_length_a 11.353780
_cell_length_b 9.459322
_cell_length_c 20.482248
_cell_angle_alpha 144.635169
_cell_angle_beta 135.062284
_cell_angle_gamma 71.740473
_cell_volume 686.759101
_symmetry_space_group_name_H-M "P -1"
_symmetry_group_IT_number 2
_symmetry_cell_setting 'triclinic'
loop_
_space_group_symop_operation_xyz
x,y,z
-x,-y,-z
loop_
_atom_site_type_symbol
_atom_site_label
_atom_site_fract_x
_atom_site_fract_y
_atom_site_fract_z
Si Si1 0.619927 0.311548 0.618535
Si Si2 0.420700 0.151815 0.658345
Si Si3 0.097254 0.262173 0.917664
Si Si4 0.485449 0.625952 0.610347
Si Si5 0.239588 0.472850 0.694840
Si Si6 0.334023 0.032182 0.863706
Si Si7 0.927140 0.261917 0.981381
Si Si8 0.255889 0.895372 0.631955
O O1 0.485894 0.426159 0.592322
O O2 0.500000 0.000000 0.500000
O O3 0.652528 0.184308 0.517792
O O4 0.855852 0.612231 0.849262
O O5 0.672469 0.429255 0.844660
O O6 0.281148 0.232496 0.601117
O O7 0.400389 0.149866 0.727528
O O8 0.048463 0.426335 0.907506
O O9 0.161586 0.061654 0.838280
O O10 0.928058 0.128311 0.860410
O O11 0.500000 0.500000 0.500000
O O12 0.295560 0.642802 0.549123
O O13 0.711756 0.995784 0.837038
O O14 0.992865 0.273426 0.545846
O O15 0.271113 0.698726 0.734938
O O16 0.428622 0.701855 0.909355
O O17 0.322915 0.044920 0.786541
#
# Coordination Sequence:
#
# PCOD9032398 Si02
#       8
#     2   2   2   2   2   2   2   2
#     4  12  26  43  74 103 138 189 235 300 357 421
#     4  11  23  47  65 104 143 177 239 294 351 429
#     4  10  22  43  71 101 141 182 237 286 359 421
#     4  12  27  48  67 104 145 183 238 293 358 422
#     4  10  25  45  68 103 140 185 236 293 353 421
#     4  10  25  44  71 103 139 186 237 294 355 430
#     4  11  24  44  73 103 143 188 235 296 358 423
#     4  12  25  45  70 100 143 185 232 293 356 422
#
# _framework density 23.297836
#
# number of rings (size 3 to 8) (size 9 to 14) (size 15 to 20)
#    0.000    1.000    3.750    1.125    7.000    4.000 
#    0.000    0.000    0.000    0.000    0.000    0.000 
#    0.000    0.000    0.000    0.000    0.000    0.000 
#
# Total GULP energy -89507.271206 kJ/mol
# GULP energy per Si atom -5594.204450 kJ/mol
# Density = 2.324481 g / cm^3
# Si number density = 23.297836 Si / 1000 Ang^3
#
#
#
# Elastic Constant Matrix: (Units=GPa)
#
#
# Indices 1 2 3 4 5 6 
#
# 1 78.8926 34.1896 13.3601 -7.5670 0.5310 -0.4253
# 2 34.1896 135.6539 3.0602 -0.0373 -0.1020 -20.8587
# 3 13.3601 3.0602 43.3581 -1.2067 15.3476 3.6431
# 4 -7.5670 -0.0373 -1.2067 24.0129 -4.0381 9.5553
# 5 0.5310 -0.1020 15.3476 -4.0381 37.4802 -3.6402
# 6 -0.4253 -20.8587 3.6431 9.5553 -3.6402 47.8670
#
#
#
# Elastic Compliance Matrix: (Units=1/GPa)
#
#
# Indices 1 2 3 4 5 6 
#
# 1 0.015932 -0.004264 -0.005035 0.006085 0.002249 -0.002377
# 2 -0.004264 0.009145 0.000151 -0.003117 0.000131 0.004568
# 3 -0.005035 0.000151 0.029164 -0.001018 -0.012264 -0.002928
# 4 0.006085 -0.003117 -0.001018 0.048467 0.004519 -0.010558
# 5 0.002249 0.000131 -0.012264 0.004519 0.032408 0.002573
# 6 -0.002377 0.004568 -0.002928 -0.010558 0.002573 0.025387
#
#
# Mechanical properties :
#
#
# Convention : Reuss Voigt Hill
#
# Bulk Modulus (GPa) = 27.82074 39.90270 33.86172
# Shear Modulus (GPa) = 26.20841 35.69165 30.95003
#
# Velocity S-wave (km/s) = 3.35763 3.91829 3.64875
# Velocity P-wave (km/s) = 5.19604 6.13474 5.68480
#
# Compressibility (1/GPa) = 0.03594441
#
# Stress axis : x y z
#
# Youngs Moduli (GPa) = 62.76802 109.35507 34.28940
#
# Poissons Ratio (x) = 0.46628 0.17266
# Poissons Ratio (y) = 0.26763 -0.00519
# Poissons Ratio (z) = 0.31606 -0.01657
#
# Static dielectric constant tensor:
#      x y z
#    x 1.898210 0.031420 -0.020510 
#    y 0.031420 1.889670 0.006900 
#    z -0.020510 0.006900 1.906370 
# 
# From -- ./inp_files/594269.got.cif
#   From: 2010.05.17/outbox.cif.g08.bks.cpg/sg2_298_cif.got.tgz:594269.got - 2010.06.03 11:33:40.
