data_PCOD9032059
_publ_section_title
;
Structure prediction by ZEFSAII (Michael W. Deem and Ramdas Pophale) SiO2 
 PCOD9032059
Probable space group: P -1
;
_chemical_formula_sum "Si O2"
_cell_formula_units_Z 16
_cell_length_a 8.276523
_cell_length_b 12.289331
_cell_length_c 14.600318
_cell_angle_alpha 150.421504
_cell_angle_beta 70.688253
_cell_angle_gamma 109.771224
_cell_volume 687.691397
_symmetry_space_group_name_H-M "P -1"
_symmetry_group_IT_number 2
_symmetry_cell_setting 'triclinic'
loop_
_space_group_symop_operation_xyz
x,y,z
-x,-y,-z
loop_
_atom_site_type_symbol
_atom_site_label
_atom_site_fract_x
_atom_site_fract_y
_atom_site_fract_z
Si Si1 0.003441 0.354731 0.682728
Si Si2 0.500185 0.766518 0.279389
Si Si3 0.515112 0.301205 0.974171
Si Si4 0.884878 0.461475 0.402559
Si Si5 0.319571 0.190863 0.238451
Si Si6 0.876465 0.215046 0.920674
Si Si7 0.321731 0.986476 0.903918
Si Si8 0.861867 0.883730 0.352032
O O1 0.048001 0.422586 0.619699
O O2 0.133664 0.227350 0.629775
O O3 0.005341 0.587730 0.906100
O O4 0.852877 0.149135 0.556457
O O5 0.434572 0.744320 0.172636
O O6 0.707735 0.760911 0.232957
O O7 0.500000 0.000000 0.500000
O O8 0.440469 0.536063 0.171781
O O9 0.688359 0.294369 0.995421
O O10 0.371563 0.106294 0.887909
O O11 0.714557 0.575755 0.543989
O O12 0.835435 0.201877 0.206159
O O13 0.000000 0.500000 0.500000
O O14 0.507608 0.125762 0.180278
O O15 0.174215 0.006293 0.172573
O O16 0.299837 0.172423 0.119797
O O17 0.967704 0.155435 0.765940
#
# Coordination Sequence:
#
# PCOD9032059 Si02
#       8
#     2   2   2   2   2   2   2   2
#     4  11  24  41  68  98 130 173 226 270 332 392
#     4  11  26  44  65 100 141 171 213 279 338 398
#     4  10  25  43  65 100 131 173 227 270 335 394
#     4  12  26  44  64 101 137 171 220 281 338 396
#     4  10  22  43  69  93 128 174 229 269 323 399
#     4  11  21  44  70  95 130 173 228 280 312 398
#     4  10  23  44  69  92 127 181 222 273 330 385
#     4  11  25  41  71  98 130 180 222 272 332 391
#
# _framework density 23.266252000000001
#
# number of rings (size 3 to 8) (size 9 to 14) (size 15 to 20)
#    0.000    1.250    3.750    0.750    5.250    2.500 
#    2.250    0.000    0.000    0.000    0.000    0.000 
#    0.000    0.000    0.000    0.000    0.000    0.000 
#
# Total GULP energy -89351.706952 kJ/mol
# GULP energy per Si atom -5584.481684 kJ/mol
# Density = 2.321330 g / cm^3
# Si number density = 23.266252 Si / 1000 Ang^3
#
#
#
# Elastic Constant Matrix: (Units=GPa)
#
#
# Indices 1 2 3 4 5 6 
#
# 1 37.3388 18.4449 -1.3153 0.2691 19.6201 -0.2529
# 2 18.4449 104.4820 19.3407 -4.1448 3.7189 -5.7673
# 3 -1.3153 19.3407 107.5427 -2.8270 15.3556 -7.2517
# 4 0.2691 -4.1448 -2.8270 30.2992 4.3094 12.7379
# 5 19.6201 3.7189 15.3556 4.3094 37.5396 6.4417
# 6 -0.2529 -5.7673 -7.2517 12.7379 6.4417 17.1872
#
#
#
# Elastic Compliance Matrix: (Units=1/GPa)
#
#
# Indices 1 2 3 4 5 6 
#
# 1 0.045476 -0.007656 0.006712 -0.002385 -0.027728 0.013093
# 2 -0.007656 0.011335 -0.002598 0.000498 0.003743 0.000823
# 3 0.006712 -0.002598 0.011753 -0.001776 -0.009403 0.009026
# 4 -0.002385 0.000498 -0.001776 0.048270 0.002808 -0.037444
# 5 -0.027728 0.003743 -0.009403 0.002808 0.048282 -0.023296
# 6 0.013093 0.000823 0.009026 -0.037444 -0.023296 0.098942
#
#
# Mechanical properties :
#
#
# Convention : Reuss Voigt Hill
#
# Bulk Modulus (GPa) = 16.26509 35.81156 26.03833
# Shear Modulus (GPa) = 17.14475 31.19807 24.17141
#
# Velocity S-wave (km/s) = 2.71752 3.66582 3.22670
# Velocity P-wave (km/s) = 4.10519 5.77435 5.00978
#
# Compressibility (1/GPa) = 0.06148136
#
# Stress axis : x y z
#
# Youngs Moduli (GPa) = 21.98957 88.21892 85.08783
#
# Poissons Ratio (x) = 0.67538 -0.57114
# Poissons Ratio (y) = 0.16835 0.22106
# Poissons Ratio (z) = -0.14760 0.22919
#
# Static dielectric constant tensor:
#      x y z
#    x 1.914200 0.000520 -0.049890 
#    y 0.000520 1.849970 0.025910 
#    z -0.049890 0.025910 1.853250 
# 
# From -- ./inp_files/501125.got.cif
#   From: 2010.05.17/outbox.cif.g08.bks.cpg/sg2_251_cif.got.tgz:501125.got - 2010.06.03 11:33:40.
