data_PCOD9032317
_publ_section_title
;
Structure prediction by ZEFSAII (Michael W. Deem and Ramdas Pophale) SiO2 
 PCOD9032317
Probable space group: P -1
;
_chemical_formula_sum "Si O2"
_cell_formula_units_Z 12
_cell_length_a 17.033578
_cell_length_b 4.983825
_cell_length_c 21.645295
_cell_angle_alpha 83.042890
_cell_angle_beta 162.132996
_cell_angle_gamma 99.914130
_cell_volume 549.766473
_symmetry_space_group_name_H-M "P -1"
_symmetry_group_IT_number 2
_symmetry_cell_setting 'triclinic'
loop_
_space_group_symop_operation_xyz
x,y,z
-x,-y,-z
loop_
_atom_site_type_symbol
_atom_site_label
_atom_site_fract_x
_atom_site_fract_y
_atom_site_fract_z
Si Si1 0.724976 0.871756 0.826079
Si Si2 0.375735 0.331149 0.564534
Si Si3 0.803762 0.287103 0.114112
Si Si4 0.088585 0.789165 0.524256
Si Si5 0.472044 0.436480 0.201774
Si Si6 0.272025 0.264407 0.861838
O O1 0.542787 0.095000 0.690949
O O2 0.558531 0.614298 0.671316
O O3 0.747726 0.743246 0.914953
O O4 0.000000 0.000000 0.000000
O O5 0.339625 0.397053 0.609030
O O6 0.099349 0.248204 0.326963
O O7 0.838481 0.568622 0.171588
O O8 0.641636 0.354899 0.932455
O O9 0.662366 0.017196 0.053334
O O10 0.377673 0.760226 0.719579
O O11 0.000000 0.500000 0.500000
O O12 0.931483 0.812770 0.343260
O O13 0.000000 0.000000 0.500000
O O14 0.500000 0.500000 0.000000
#
# Coordination Sequence:
#
# PCOD9032317 Si02
#       6
#     2   2   2   2   2   2
#     4  10  22  44  73 101 139 177 225 283 352 413
#     4  10  22  43  70  96 139 174 227 279 348 402
#     4  12  24  44  69  97 136 181 233 281 349 409
#     4  12  26  44  68  97 137 183 234 281 338 409
#     4  10  26  41  73  98 135 184 231 277 350 404
#     4  12  26  45  63  98 139 180 235 297 338 401
#
# _framework density 21.827449999999999
#
# number of rings (size 3 to 8) (size 9 to 14) (size 15 to 20)
#    1.000    0.000    1.667    5.000    4.667    2.667 
#    0.000    1.667    0.000    0.000    0.000    0.000 
#    0.000    0.000    0.000    0.000    0.000    0.000 
#
# Total GULP energy -67041.850734 kJ/mol
# GULP energy per Si atom -5586.820894 kJ/mol
# Density = 2.177777 g / cm^3
# Si number density = 21.827450 Si / 1000 Ang^3
#
#
#
# Elastic Constant Matrix: (Units=GPa)
#
#
# Indices 1 2 3 4 5 6 
#
# 1 92.8909 36.8349 50.9005 -7.8690 3.9116 31.7487
# 2 36.8349 155.0654 31.6306 -12.3300 -2.5294 24.8789
# 3 50.9005 31.6306 111.2618 -10.1940 -4.7105 26.6721
# 4 -7.8690 -12.3300 -10.1940 36.3527 8.0143 3.0358
# 5 3.9116 -2.5294 -4.7105 8.0143 30.1053 8.7954
# 6 31.7487 24.8789 26.6721 3.0358 8.7954 26.7031
#
#
#
# Elastic Compliance Matrix: (Units=1/GPa)
#
#
# Indices 1 2 3 4 5 6 
#
# 1 0.020642 -0.000250 -0.003619 0.004787 0.001838 -0.021844
# 2 -0.000250 0.008126 0.000268 0.002950 0.002515 -0.008705
# 3 -0.003619 0.000268 0.013948 0.003036 0.005370 -0.011992
# 4 0.004787 0.002950 0.003036 0.032545 -0.004570 -0.013667
# 5 0.001838 0.002515 0.005370 -0.004570 0.042029 -0.023216
# 6 -0.021844 -0.008705 -0.011992 -0.013667 -0.023216 0.092708
#
#
# Mechanical properties :
#
#
# Convention : Reuss Voigt Hill
#
# Bulk Modulus (GPa) = 28.15926 66.43888 47.29907
# Shear Modulus (GPa) = 21.83048 34.62239 28.22643
#
# Velocity S-wave (km/s) = 3.16593 3.98702 3.59996
# Velocity P-wave (km/s) = 5.12767 7.19023 6.24469
#
# Compressibility (1/GPa) = 0.03551230
#
# Stress axis : x y z
#
# Youngs Moduli (GPa) = 48.44599 123.06506 71.69637
#
# Poissons Ratio (x) = 0.03073 0.25949
# Poissons Ratio (y) = 0.01210 -0.01919
# Poissons Ratio (z) = 0.17534 -0.03294
#
# Static dielectric constant tensor:
#      x y z
#    x 1.802590 -0.002030 0.011280 
#    y -0.002030 1.847790 0.022440 
#    z 0.011280 0.022440 1.822730 
# 
# From -- ./inp_files/91452.got.cif
#   From: 2010.05.17/outbox.cif.g08.bks.cpg/sg2_46_cif.got.tgz:91452.got - 2010.06.03 11:33:40.
