data_PCOD9032962
_publ_section_title
;
Structure prediction by ZEFSAII (Michael W. Deem and Ramdas Pophale) SiO2 
 PCOD9032962
Probable space group: P -1
;
_chemical_formula_sum "Si O2"
_cell_formula_units_Z 14
_cell_length_a 20.754009
_cell_length_b 7.040180
_cell_length_c 8.797259
_cell_angle_alpha 93.284257
_cell_angle_beta 147.466699
_cell_angle_gamma 75.543405
_cell_volume 639.765329
_symmetry_space_group_name_H-M "P -1"
_symmetry_group_IT_number 2
_symmetry_cell_setting 'triclinic'
loop_
_space_group_symop_operation_xyz
x,y,z
-x,-y,-z
loop_
_atom_site_type_symbol
_atom_site_label
_atom_site_fract_x
_atom_site_fract_y
_atom_site_fract_z
Si Si1 0.527991 0.866165 0.269129
Si Si2 0.418008 0.511684 0.485218
Si Si3 0.963961 0.623223 0.777086
Si Si4 0.549238 0.244044 0.194982
Si Si5 0.131519 0.807270 0.934725
Si Si6 0.941284 0.241307 0.555556
Si Si7 0.750780 0.072981 0.345061
O O1 0.603661 0.697064 0.533154
O O2 0.558875 0.067082 0.325531
O O3 0.546585 0.772264 0.129215
O O4 0.374899 0.926574 0.996820
O O5 0.500000 0.500000 0.500000
O O6 0.491548 0.548272 0.782901
O O7 0.283993 0.700869 0.222283
O O8 0.939108 0.461845 0.607244
O O9 0.077921 0.692128 0.947227
O O10 0.842533 0.839283 0.552699
O O11 0.000000 0.500000 0.000000
O O12 0.684579 0.188995 0.373410
O O13 0.076377 0.772248 0.660212
O O14 0.072788 0.051905 0.855214
O O15 0.830212 0.185333 0.418295
#
# Coordination Sequence:
#
# PCOD9032962 Si02
#       7
#     2   2   2   2   2   2   2
#     4   9  21  40  62  88 124 160 199 252 304 353
#     4  12  25  39  63  94 121 164 207 247 306 363
#     4  11  25  37  68  98 117 158 208 252 309 359
#     4   9  22  40  62  88 126 161 201 254 302 359
#     4  10  25  42  60  90 128 163 202 249 304 363
#     4  10  22  44  64  85 127 165 199 250 306 366
#     4   9  21  38  64  93 119 160 203 247 311 359
#
# _framework density 21.883023000000001
#
# number of rings (size 3 to 8) (size 9 to 14) (size 15 to 20)
#    0.857    1.143    0.000    1.714    6.000    4.000 
#    0.000    0.000    0.000    0.000    0.000    0.000 
#    0.000    0.000    0.000    0.000    0.000    0.000 
#
# Total GULP energy -78180.578837 kJ/mol
# GULP energy per Si atom -5584.327060 kJ/mol
# Density = 2.183322 g / cm^3
# Si number density = 21.883023 Si / 1000 Ang^3
#
#
#
# Elastic Constant Matrix: (Units=GPa)
#
#
# Indices 1 2 3 4 5 6 
#
# 1 99.3868 25.1034 20.7742 -23.5067 8.9867 5.5107
# 2 25.1034 80.7766 9.1729 -15.0537 -7.9848 6.4095
# 3 20.7742 9.1729 57.9756 -15.4375 12.7879 2.3435
# 4 -23.5067 -15.0537 -15.4375 20.9280 2.1351 -6.2120
# 5 8.9867 -7.9848 12.7879 2.1351 31.6929 -7.2476
# 6 5.5107 6.4095 2.3435 -6.2120 -7.2476 31.5442
#
#
#
# Elastic Compliance Matrix: (Units=1/GPa)
#
#
# Indices 1 2 3 4 5 6 
#
# 1 0.014896 -0.002292 0.000722 0.016120 -0.006284 -0.000459
# 2 -0.002292 0.014932 -0.000474 0.007337 0.004058 -0.000221
# 3 0.000722 -0.000474 0.025036 0.019946 -0.011931 -0.000703
# 4 0.016120 0.007337 0.019946 0.089922 -0.014885 0.008499
# 5 -0.006284 0.004058 -0.011931 -0.014885 0.041974 0.007872
# 6 -0.000459 -0.000221 -0.000703 0.008499 0.007872 0.035361
#
#
# Mechanical properties :
#
#
# Convention : Reuss Voigt Hill
#
# Bulk Modulus (GPa) = 19.69398 38.69333 29.19366
# Shear Modulus (GPa) = 20.56478 29.03894 24.80186
#
# Velocity S-wave (km/s) = 3.06888 3.64676 3.37023
# Velocity P-wave (km/s) = 4.64505 5.95417 5.33988
#
# Compressibility (1/GPa) = 0.05077694
#
# Stress axis : x y z
#
# Youngs Moduli (GPa) = 67.13202 66.97048 39.94226
#
# Poissons Ratio (x) = 0.15348 -0.02884
# Poissons Ratio (y) = 0.15385 0.01892
# Poissons Ratio (z) = -0.04847 0.03173
#
# Static dielectric constant tensor:
#      x y z
#    x 1.778280 -0.009510 -0.024070 
#    y -0.009510 1.830530 0.005780 
#    z -0.024070 0.005780 1.864170 
# 
# From -- ./inp_files/340421.got.cif
#   From: 2010.05.17/outbox.cif.g08.bks.cpg/sg2_171_cif.got.tgz:340421.got - 2010.06.03 11:33:40.
