data_PCOD9032936
_publ_section_title
;
Structure prediction by ZEFSAII (Michael W. Deem and Ramdas Pophale) SiO2 
 PCOD9032936
Probable space group: P -1
;
_chemical_formula_sum "Si O2"
_cell_formula_units_Z 14
_cell_length_a 11.022807
_cell_length_b 10.134484
_cell_length_c 8.982143
_cell_angle_alpha 133.882999
_cell_angle_beta 60.401027
_cell_angle_gamma 130.391587
_cell_volume 548.986602
_symmetry_space_group_name_H-M "P -1"
_symmetry_group_IT_number 2
_symmetry_cell_setting 'triclinic'
loop_
_space_group_symop_operation_xyz
x,y,z
-x,-y,-z
loop_
_atom_site_type_symbol
_atom_site_label
_atom_site_fract_x
_atom_site_fract_y
_atom_site_fract_z
Si Si1 0.548642 0.279562 0.649574
Si Si2 0.609592 0.397320 0.398422
Si Si3 0.819643 0.557879 0.143812
Si Si4 0.908266 0.805560 0.573234
Si Si5 0.706271 0.696998 0.047419
Si Si6 0.856365 0.261107 0.429823
Si Si7 0.949856 0.188055 0.016423
O O1 0.520822 0.232920 0.454136
O O2 0.385801 0.174569 0.760934
O O3 0.697534 0.250747 0.582443
O O4 0.613101 0.522622 0.845502
O O5 0.500000 0.500000 0.500000
O O6 0.698129 0.368275 0.176372
O O7 0.764088 0.580051 0.531434
O O8 0.895858 0.758433 0.367220
O O9 0.705638 0.589846 0.122505
O O10 0.966620 0.602256 0.976410
O O11 0.068950 0.833424 0.572075
O O12 0.877034 0.986619 0.797319
O O13 0.895286 0.803525 0.987182
O O14 0.000000 0.500000 0.500000
O O15 0.835649 0.179164 0.208312
#
# Coordination Sequence:
#
# PCOD9032936 Si02
#       7
#     2   2   2   2   2   2   2
#     4  11  19  35  52  82 109 140 177 227 263 314
#     4  10  17  32  55  80 104 136 182 219 261 313
#     4   8  18  31  55  77 101 141 182 216 257 316
#     4  10  20  32  56  80 108 142 178 221 263 324
#     4   9  19  33  58  73 107 141 183 211 269 314
#     4  12  20  34  54  83 113 138 176 225 269 307
#     4  10  19  36  53  83 104 146 181 213 269 319
#
# _framework density 25.501535000000001
#
# number of rings (size 3 to 8) (size 9 to 14) (size 15 to 20)
#    1.714    0.286    4.286    0.857    0.000    0.000 
#    0.000    7.143    0.000    3.429    0.000    0.000 
#    0.000    0.000    0.000    0.000    0.000    0.000 
#
# Total GULP energy -77953.873861 kJ/mol
# GULP energy per Si atom -5568.133847 kJ/mol
# Density = 2.544349 g / cm^3
# Si number density = 25.501535 Si / 1000 Ang^3
#
#
#
# Elastic Constant Matrix: (Units=GPa)
#
#
# Indices 1 2 3 4 5 6 
#
# 1 98.5372 -4.2382 19.4940 -16.8961 -6.5166 -0.7151
# 2 -4.2382 63.3517 28.5735 -29.3663 -1.9222 -6.7455
# 3 19.4940 28.5735 110.7833 -41.2144 -6.0251 -0.5325
# 4 -16.8961 -29.3663 -41.2144 46.3232 4.7256 -0.9232
# 5 -6.5166 -1.9222 -6.0251 4.7256 45.7587 -10.9777
# 6 -0.7151 -6.7455 -0.5325 -0.9232 -10.9777 20.5911
#
#
#
# Elastic Compliance Matrix: (Units=1/GPa)
#
#
# Indices 1 2 3 4 5 6 
#
# 1 0.011708 0.004417 -0.000748 0.006278 0.001850 0.003102
# 2 0.004417 0.025544 -0.000859 0.017010 0.002356 0.010518
# 3 -0.000748 -0.000859 0.013600 0.011229 0.000711 0.000927
# 4 0.006278 0.017010 0.011229 0.044770 0.000463 0.008335
# 5 0.001850 0.002356 0.000711 0.000463 0.025768 0.014613
# 6 0.003102 0.010518 0.000927 0.008335 0.014613 0.060306
#
#
# Mechanical properties :
#
#
# Convention : Reuss Voigt Hill
#
# Bulk Modulus (GPa) = 17.70779 40.03676 28.87227
# Shear Modulus (GPa) = 25.65421 37.79080 31.72250
#
# Velocity S-wave (km/s) = 3.17517 3.85373 3.53079
# Velocity P-wave (km/s) = 4.51676 5.96116 5.28851
#
# Compressibility (1/GPa) = 0.05647234
#
# Stress axis : x y z
#
# Youngs Moduli (GPa) = 85.41278 39.14821 73.52686
#
# Poissons Ratio (x) = -0.17293 0.05503
# Poissons Ratio (y) = -0.37730 0.06315
# Poissons Ratio (z) = 0.06392 0.03362
#
# Static dielectric constant tensor:
#      x y z
#    x 2.031290 -0.011940 -0.056690 
#    y -0.011940 2.207770 -0.019010 
#    z -0.056690 -0.019010 2.028440 
# 
# From -- ./inp_files/255230.got.cif
#   From: 2010.05.17/outbox.cif.g08.bks.cpg/sg2_128_cif.got.tgz:255230.got - 2010.06.03 11:33:40.
