data_PCOD9032503
_publ_section_title
;
Structure prediction by ZEFSAII (Michael W. Deem and Ramdas Pophale) SiO2 
 PCOD9032503
Probable space group: P -1
;
_chemical_formula_sum "Si O2"
_cell_formula_units_Z 14
_cell_length_a 10.380281
_cell_length_b 19.157988
_cell_length_c 20.703907
_cell_angle_alpha 159.209654
_cell_angle_beta 155.329155
_cell_angle_gamma 33.917893
_cell_volume 604.584477
_symmetry_space_group_name_H-M "P -1"
_symmetry_group_IT_number 2
_symmetry_cell_setting 'triclinic'
loop_
_space_group_symop_operation_xyz
x,y,z
-x,-y,-z
loop_
_atom_site_type_symbol
_atom_site_label
_atom_site_fract_x
_atom_site_fract_y
_atom_site_fract_z
Si Si1 0.138387 0.157609 0.922989
Si Si2 0.121345 0.175903 0.157938
Si Si3 0.161977 0.219564 0.840790
Si Si4 0.766848 0.211988 0.536374
Si Si5 0.855216 0.121084 0.205359
Si Si6 0.680045 0.501162 0.262938
Si Si7 0.260085 0.506797 0.953623
O O1 0.055039 0.159158 0.811054
O O2 0.975639 0.335697 0.031598
O O3 0.034163 0.961179 0.747243
O O4 0.514531 0.183521 0.116777
O O5 0.449780 0.277968 0.424182
O O6 0.886391 0.337940 0.188120
O O7 0.172378 0.062631 0.016248
O O8 0.000000 0.000000 0.000000
O O9 0.886822 0.272096 0.714623
O O10 0.274876 0.025398 0.692137
O O11 0.457399 0.388325 0.118176
O O12 0.045628 0.300810 0.693312
O O13 0.092376 0.303633 0.444835
O O14 0.455748 0.555449 0.150399
O O15 0.500000 0.500000 0.000000
#
# Coordination Sequence:
#
# PCOD9032503 Si02
#       7
#     2   2   2   2   2   2   2
#     4  11  24  47  68 101 141 185 232 289 350 417
#     4  12  23  44  74 106 140 186 228 289 354 415
#     4  10  22  45  69 101 136 184 232 278 356 406
#     4  10  22  43  71  97 140 178 232 287 336 423
#     4  11  26  44  71 108 141 181 236 287 353 420
#     4  11  25  45  69 108 142 180 234 291 345 423
#     4  11  26  44  69 102 136 190 237 285 354 414
#
# _framework density 23.156400999999999
#
# number of rings (size 3 to 8) (size 9 to 14) (size 15 to 20)
#    0.000    1.143    2.857    1.714    2.000    7.429 
#    0.000    3.571    0.000    0.000    0.000    0.000 
#    0.000    0.000    0.000    0.000    0.000    0.000 
#
# Total GULP energy -78361.472418 kJ/mol
# GULP energy per Si atom -5597.248030 kJ/mol
# Density = 2.310370 g / cm^3
# Si number density = 23.156401 Si / 1000 Ang^3
#
#
#
# Elastic Constant Matrix: (Units=GPa)
#
#
# Indices 1 2 3 4 5 6 
#
# 1 112.8201 44.7576 27.2161 -3.9504 0.1182 12.5388
# 2 44.7576 143.6801 41.9451 0.2053 -0.2727 -17.5865
# 3 27.2161 41.9451 112.8584 2.2348 9.3685 1.4184
# 4 -3.9504 0.2053 2.2348 25.9917 1.1544 0.6801
# 5 0.1182 -0.2727 9.3685 1.1544 15.0018 8.7833
# 6 12.5388 -17.5865 1.4184 0.6801 8.7833 37.7996
#
#
#
# Elastic Compliance Matrix: (Units=1/GPa)
#
#
# Indices 1 2 3 4 5 6 
#
# 1 0.011657 -0.003964 -0.001681 0.001916 0.004706 -0.006776
# 2 -0.003964 0.009724 -0.002571 -0.000542 -0.001881 0.006382
# 3 -0.001681 -0.002571 0.010819 -0.000867 -0.007085 0.000617
# 4 0.001916 -0.000542 -0.000867 0.038954 -0.001817 -0.001134
# 5 0.004706 -0.001881 -0.007085 -0.001817 0.083804 -0.021611
# 6 -0.006776 0.006382 0.000617 -0.001134 -0.021611 0.036691
#
#
# Mechanical properties :
#
#
# Convention : Reuss Voigt Hill
#
# Bulk Modulus (GPa) = 63.42286 66.35513 64.88900
# Shear Modulus (GPa) = 23.43700 32.78793 28.11246
#
# Velocity S-wave (km/s) = 3.18483 3.76697 3.48807
# Velocity P-wave (km/s) = 6.40098 6.90199 6.65620
#
# Compressibility (1/GPa) = 0.01576718
#
# Stress axis : x y z
#
# Youngs Moduli (GPa) = 85.78621 102.84225 92.42682
#
# Poissons Ratio (x) = 0.40762 0.15541
# Poissons Ratio (y) = 0.34001 0.23767
# Poissons Ratio (z) = 0.14424 0.26445
#
# Static dielectric constant tensor:
#      x y z
#    x 1.864660 0.004560 -0.023530 
#    y 0.004560 1.880910 -0.008930 
#    z -0.023530 -0.008930 1.871800 
# 
# From -- ./inp_files/610926.got.cif
#   From: 2010.05.17/outbox.cif.g08.bks.cpg/sg2_306_cif.got.tgz:610926.got - 2010.06.03 11:33:40.
