data_PCOD9032917
_publ_section_title
;
Structure prediction by ZEFSAII (Michael W. Deem and Ramdas Pophale) SiO2 
 PCOD9032917
Probable space group: P -1
;
_chemical_formula_sum "Si O2"
_cell_formula_units_Z 16
_cell_length_a 12.265304
_cell_length_b 15.403780
_cell_length_c 8.986441
_cell_angle_alpha 118.960176
_cell_angle_beta 126.420527
_cell_angle_gamma 104.964977
_cell_volume 755.314592
_symmetry_space_group_name_H-M "P -1"
_symmetry_group_IT_number 2
_symmetry_cell_setting 'triclinic'
loop_
_space_group_symop_operation_xyz
x,y,z
-x,-y,-z
loop_
_atom_site_type_symbol
_atom_site_label
_atom_site_fract_x
_atom_site_fract_y
_atom_site_fract_z
Si Si1 0.595648 0.473940 0.743683
Si Si2 0.981625 0.595095 0.983574
Si Si3 0.570162 0.088150 0.978666
Si Si4 0.482783 0.279519 0.762881
Si Si5 0.212471 0.041240 0.572939
Si Si6 0.283654 0.251104 0.038780
Si Si7 0.814827 0.419036 0.399399
Si Si8 0.456250 0.892954 0.500155
O O1 0.825101 0.568123 0.941809
O O2 0.536134 0.399598 0.796227
O O3 0.419071 0.329680 0.365782
O O4 0.608632 0.599986 0.846689
O O5 0.874164 0.520049 0.671386
O O6 0.000000 0.500000 0.000000
O O7 0.222937 0.765711 0.283183
O O8 0.375070 0.041172 0.709135
O O9 0.626496 0.025605 0.870894
O O10 0.747260 0.273353 0.288863
O O11 0.500000 0.000000 0.000000
O O12 0.254316 0.131474 0.534251
O O13 0.525015 0.204696 0.636214
O O14 0.635964 0.364088 0.101547
O O15 0.274713 0.143130 0.851753
O O16 0.967052 0.868954 0.235924
O O17 0.000000 0.500000 0.500000
O O18 0.500000 0.000000 0.500000
#
# Coordination Sequence:
#
# PCOD9032917 Si02
#       8
#     2   2   2   2   2   2   2   2
#     4  11  23  41  65  91 118 164 212 256 307 365
#     4  12  22  38  65  93 128 162 199 253 316 373
#     4  11  23  36  63  93 125 157 199 246 312 374
#     4  11  23  38  64  90 128 160 203 259 313 367
#     4  10  22  44  63  87 124 164 204 261 304 360
#     4  10  24  44  65  85 118 167 220 255 299 359
#     4  11  20  37  54  88 130 162 189 240 307 373
#     4  12  21  38  57  95 129 162 193 244 316 385
#
# _framework density 21.183228
#
# number of rings (size 3 to 8) (size 9 to 14) (size 15 to 20)
#    0.000    1.000    5.000    3.000    1.750    2.000 
#    0.000    0.000    0.000    0.000    0.000    0.000 
#    0.000    0.000    0.000    0.000    0.000    0.000 
#
# Total GULP energy -89294.249337 kJ/mol
# GULP energy per Si atom -5580.890584 kJ/mol
# Density = 2.113501 g / cm^3
# Si number density = 21.183228 Si / 1000 Ang^3
#
#
#
# Elastic Constant Matrix: (Units=GPa)
#
#
# Indices 1 2 3 4 5 6 
#
# 1 35.0027 -3.7777 3.5206 2.8242 1.8469 3.8537
# 2 -3.7777 146.8415 15.4608 16.0155 2.3338 26.4065
# 3 3.5206 15.4608 45.7378 20.3487 4.1460 0.0042
# 4 2.8242 16.0155 20.3487 32.2817 9.6934 3.8892
# 5 1.8469 2.3338 4.1460 9.6934 28.8438 3.6369
# 6 3.8537 26.4065 0.0042 3.8892 3.6369 29.7984
#
#
#
# Elastic Compliance Matrix: (Units=1/GPa)
#
#
# Indices 1 2 3 4 5 6 
#
# 1 0.029789 0.002165 -0.002375 -0.001340 -0.000595 -0.005524
# 2 0.002165 0.008769 -0.002048 -0.002706 0.001347 -0.007862
# 3 -0.002375 -0.002048 0.031285 -0.019586 0.001842 0.004449
# 4 -0.001340 -0.002706 -0.019586 0.048972 -0.013057 -0.002224
# 5 -0.000595 0.001347 0.001842 -0.013057 0.039252 -0.004203
# 6 -0.005524 -0.007862 0.004449 -0.002224 -0.004203 0.042043
#
#
# Mechanical properties :
#
#
# Convention : Reuss Voigt Hill
#
# Bulk Modulus (GPa) = 15.30730 28.66550 21.98640
# Shear Modulus (GPa) = 22.08469 32.34332 27.21400
#
# Velocity S-wave (km/s) = 3.23237 3.91171 3.58815
# Velocity P-wave (km/s) = 4.60138 5.82783 5.25054
#
# Compressibility (1/GPa) = 0.06532831
#
# Stress axis : x y z
#
# Youngs Moduli (GPa) = 33.56909 114.03903 31.96390
#
# Poissons Ratio (x) = -0.24692 0.07590
# Poissons Ratio (y) = -0.07268 0.06547
# Poissons Ratio (z) = 0.07971 0.23359
#
# Static dielectric constant tensor:
#      x y z
#    x 1.730590 -0.056790 0.025020 
#    y -0.056790 1.666200 0.013640 
#    z 0.025020 0.013640 1.829720 
# 
# From -- ./inp_files/224843.got.cif
#   From: 2010.05.17/outbox.cif.g08.bks.cpg/sg2_113_cif.got.tgz:224843.got - 2010.06.03 11:33:40.
