data_PCOD9032335
_publ_section_title
;
Structure prediction by ZEFSAII (Michael W. Deem and Ramdas Pophale) SiO2 
 PCOD9032335
Probable space group: P -1
;
_chemical_formula_sum "Si O2"
_cell_formula_units_Z 14
_cell_length_a 7.536335
_cell_length_b 16.904034
_cell_length_c 6.924557
_cell_angle_alpha 66.757965
_cell_angle_beta 52.502894
_cell_angle_gamma 53.424280
_cell_volume 561.351455
_symmetry_space_group_name_H-M "P -1"
_symmetry_group_IT_number 2
_symmetry_cell_setting 'triclinic'
loop_
_space_group_symop_operation_xyz
x,y,z
-x,-y,-z
loop_
_atom_site_type_symbol
_atom_site_label
_atom_site_fract_x
_atom_site_fract_y
_atom_site_fract_z
Si Si1 0.381641 0.028330 0.773344
Si Si2 0.351864 0.201004 0.478772
Si Si3 0.636877 0.485609 0.217404
Si Si4 0.937441 0.081325 0.287724
Si Si5 0.246718 0.355070 0.941382
Si Si6 0.718652 0.593138 0.570156
Si Si7 0.191200 0.175359 0.222224
O O1 0.318685 0.141570 0.736617
O O2 0.500000 0.000000 0.500000
O O3 0.609284 0.939695 0.819934
O O4 0.133635 0.031640 0.028792
O O5 0.296308 0.311842 0.409499
O O6 0.159764 0.196986 0.451100
O O7 0.658289 0.132226 0.324103
O O8 0.500000 0.500000 0.500000
O O9 0.635267 0.588041 0.068087
O O10 0.494244 0.440943 0.226229
O O11 0.938166 0.410311 0.116404
O O12 0.951078 0.175821 0.279956
O O13 0.000000 0.000000 0.500000
O O14 0.301361 0.373537 0.670811
O O15 0.320853 0.241968 0.021155
O O16 0.000000 0.500000 0.500000
#
# Coordination Sequence:
#
# PCOD9032335 Si02
#       7
#     2   2   2   2   2   2   2
#     4  10  24  48  71 109 153 187 244 304 365 452
#     4  11  26  47  68 107 148 193 246 307 375 444
#     4   9  21  42  67  94 132 180 242 298 366 432
#     4  12  25  45  79 106 148 202 244 303 377 444
#     4  10  22  43  70  97 139 187 243 302 370 448
#     4  11  25  44  69 102 147 186 244 311 375 439
#     4  11  24  45  73 104 146 189 246 300 367 448
#
# _framework density 24.939813000000001
#
# number of rings (size 3 to 8) (size 9 to 14) (size 15 to 20)
#    0.000    1.429    1.429    2.143    8.000    2.857 
#    5.143    0.000    0.000    0.000    0.000    0.000 
#    0.000    0.000    0.000    0.000    0.000    0.000 
#
# Total GULP energy -77981.691778 kJ/mol
# GULP energy per Si atom -5570.120841 kJ/mol
# Density = 2.488305 g / cm^3
# Si number density = 24.939813 Si / 1000 Ang^3
#
#
#
# Elastic Constant Matrix: (Units=GPa)
#
#
# Indices 1 2 3 4 5 6 
#
# 1 116.4942 35.5922 18.1493 -7.9966 -21.5577 48.4365
# 2 35.5922 138.4303 36.2565 -46.0807 -7.5365 31.8169
# 3 18.1493 36.2565 122.8054 -15.6939 -9.5968 7.1647
# 4 -7.9966 -46.0807 -15.6939 53.7105 2.7568 -1.9864
# 5 -21.5577 -7.5365 -9.5968 2.7568 40.0729 -11.2706
# 6 48.4365 31.8169 7.1647 -1.9864 -11.2706 46.1307
#
#
#
# Elastic Compliance Matrix: (Units=1/GPa)
#
#
# Indices 1 2 3 4 5 6 
#
# 1 0.016131 0.000713 -0.001105 0.001892 0.003851 -0.016235
# 2 0.000713 0.013189 -0.002194 0.010488 -0.000998 -0.009296
# 3 -0.001105 -0.002194 0.009055 0.000579 0.001595 0.001682
# 4 0.001892 0.010488 0.000579 0.027815 -0.001145 -0.008392
# 5 0.003851 -0.000998 0.001595 -0.001145 0.028211 0.003240
# 6 -0.016235 -0.009296 0.001682 -0.008392 0.003240 0.045305
#
#
# Mechanical properties :
#
#
# Convention : Reuss Voigt Hill
#
# Bulk Modulus (GPa) = 30.11815 61.96955 46.04385
# Shear Modulus (GPa) = 32.06242 47.16495 39.61369
#
# Velocity S-wave (km/s) = 3.58941 4.35345 3.98976
# Velocity P-wave (km/s) = 5.41119 7.08320 6.30288
#
# Compressibility (1/GPa) = 0.03320257
#
# Stress axis : x y z
#
# Youngs Moduli (GPa) = 61.99079 75.82195 110.44143
#
# Poissons Ratio (x) = -0.05405 0.12198
# Poissons Ratio (y) = -0.04419 0.24236
# Poissons Ratio (z) = 0.06847 0.16639
#
# Static dielectric constant tensor:
#      x y z
#    x 2.306880 0.134800 0.008710 
#    y 0.134800 2.066790 -0.043500 
#    z 0.008710 -0.043500 2.045980 
# 
# From -- ./inp_files/214633.got.cif
#   From: 2010.05.17/outbox.cif.g08.bks.cpg/sg2_108_cif.got.tgz:214633.got - 2010.06.03 11:33:40.
