data_PCOD9032728
_publ_section_title
;
Structure prediction by ZEFSAII (Michael W. Deem and Ramdas Pophale) SiO2 
 PCOD9032728
Probable space group: P -1
;
_chemical_formula_sum "Si O2"
_cell_formula_units_Z 11
_cell_length_a 11.538445
_cell_length_b 9.645838
_cell_length_c 5.034954
_cell_angle_alpha 132.033375
_cell_angle_beta 74.842457
_cell_angle_gamma 106.656933
_cell_volume 396.850345
_symmetry_space_group_name_H-M "P -1"
_symmetry_group_IT_number 2
_symmetry_cell_setting 'triclinic'
loop_
_space_group_symop_operation_xyz
x,y,z
-x,-y,-z
loop_
_atom_site_type_symbol
_atom_site_label
_atom_site_fract_x
_atom_site_fract_y
_atom_site_fract_z
Si Si1 0.625216 0.591109 0.675254
Si Si2 0.872954 0.210142 0.256322
Si Si3 0.315303 0.070016 0.261039
Si Si4 0.094461 0.122855 0.793733
Si Si5 0.304852 0.602559 0.095123
Si Si6 0.500000 0.000000 0.500000
O O1 0.500000 0.500000 0.500000
O O2 0.641265 0.816550 0.893487
O O3 0.640408 0.522211 0.872139
O O4 0.714127 0.502055 0.309779
O O5 0.822563 0.353593 0.662897
O O6 0.877735 0.015553 0.166371
O O7 0.009870 0.267441 0.141638
O O8 0.763564 0.133368 0.018333
O O9 0.216232 0.168305 0.609184
O O10 0.433886 0.074552 0.371195
O O11 0.000000 0.000000 0.500000
O O12 0.397910 0.799756 0.288594
#
# Coordination Sequence:
#
# PCOD9032728 Si02
#       6
#     2   2   2   2   2   1
#     4  12  28  45  65 102 154 185 221 285 371 415
#     4  10  22  43  73  99 132 183 247 288 334 410
#     4  11  24  43  71 102 142 187 232 287 353 417
#     4   9  20  41  72 100 132 176 243 294 339 398
#     4  12  27  44  69 104 142 184 235 291 341 427
#     4  12  24  42  74 100 138 180 248 272 340 410
#
# _framework density 27.718260999999998
#
# number of rings (size 3 to 8) (size 9 to 14) (size 15 to 20)
#    0.000    1.091    3.636    1.636    7.636    1.455 
#    0.000    1.818    0.000    0.000    0.000    0.000 
#    0.000    0.000    0.000    0.000    0.000    0.000 
#
# Total GULP energy -61418.002044 kJ/mol
# GULP energy per Si atom -5583.454731 kJ/mol
# Density = 2.765517 g / cm^3
# Si number density = 27.718261 Si / 1000 Ang^3
#
#
#
# Elastic Constant Matrix: (Units=GPa)
#
#
# Indices 1 2 3 4 5 6 
#
# 1 92.6805 -1.2275 5.5798 -3.8507 7.2208 -9.4628
# 2 -1.2275 145.2699 -7.8950 9.3966 13.0129 -6.1000
# 3 5.5798 -7.8950 57.5637 -10.2895 -8.4402 6.2921
# 4 -3.8507 9.3966 -10.2895 41.7456 8.9321 -4.7673
# 5 7.2208 13.0129 -8.4402 8.9321 53.9448 -11.3439
# 6 -9.4628 -6.1000 6.2921 -4.7673 -11.3439 41.3444
#
#
#
# Elastic Compliance Matrix: (Units=1/GPa)
#
#
# Indices 1 2 3 4 5 6 
#
# 1 0.011299 0.000177 -0.001334 0.001274 -0.001435 0.002569
# 2 0.000177 0.007129 0.000505 -0.001112 -0.001373 0.000511
# 3 -0.001334 0.000505 0.018752 0.003730 0.001926 -0.002126
# 4 0.001274 -0.001112 0.003730 0.026138 -0.003295 0.001669
# 5 -0.001435 -0.001373 0.001926 -0.003295 0.020858 0.004519
# 6 0.002569 0.000511 -0.002126 0.001669 0.004519 0.026606
#
#
# Mechanical properties :
#
#
# Convention : Reuss Voigt Hill
#
# Bulk Modulus (GPa) = 27.87443 32.04761 29.96102
# Shear Modulus (GPa) = 40.30747 47.34407 43.82577
#
# Velocity S-wave (km/s) = 3.81751 4.13734 3.98064
# Velocity P-wave (km/s) = 5.43226 5.86604 5.65331
#
# Compressibility (1/GPa) = 0.03587517
#
# Stress axis : x y z
#
# Youngs Moduli (GPa) = 88.50023 140.27191 53.32685
#
# Poissons Ratio (x) = -0.02482 0.07116
# Poissons Ratio (y) = -0.01566 -0.02692
# Poissons Ratio (z) = 0.11810 -0.07080
#
# Static dielectric constant tensor:
#      x y z
#    x 1.897530 0.143710 -0.276980 
#    y 0.143710 2.391320 -0.428860 
#    z -0.276980 -0.428860 3.339620 
# 
# From -- ./inp_files/60090.got.cif
#   From: 2010.05.17/outbox.cif.g08.bks.cpg/sg2_31_cif.got.tgz:60090.got - 2010.06.03 11:33:40.
