data_PCOD9032566
_publ_section_title
;
Structure prediction by ZEFSAII (Michael W. Deem and Ramdas Pophale) SiO2 
 PCOD9032566
Probable space group: P -1
;
_chemical_formula_sum "Si O2"
_cell_formula_units_Z 12
_cell_length_a 21.572884
_cell_length_b 5.485828
_cell_length_c 21.965369
_cell_angle_alpha 52.631984
_cell_angle_beta 12.373557
_cell_angle_gamma 52.385948
_cell_volume 440.357823
_symmetry_space_group_name_H-M "P -1"
_symmetry_group_IT_number 2
_symmetry_cell_setting 'triclinic'
loop_
_space_group_symop_operation_xyz
x,y,z
-x,-y,-z
loop_
_atom_site_type_symbol
_atom_site_label
_atom_site_fract_x
_atom_site_fract_y
_atom_site_fract_z
Si Si1 0.744339 0.727993 0.235267
Si Si2 0.360497 0.781426 0.440501
Si Si3 0.167351 0.802771 0.121993
Si Si4 0.077562 0.658216 0.045197
Si Si5 0.480274 0.793783 0.111246
Si Si6 0.144714 0.283706 0.446573
O O1 0.500000 0.500000 0.500000
O O2 0.829247 0.783839 0.215646
O O3 0.000000 0.500000 0.000000
O O4 0.758182 0.047647 0.137271
O O5 0.118556 0.540781 0.693406
O O6 0.650322 0.554019 0.214087
O O7 0.115180 0.033406 0.668258
O O8 0.550200 0.014963 0.186913
O O9 0.076813 0.838999 0.274370
O O10 0.244532 0.435699 0.094051
O O11 0.292395 0.532721 0.306549
O O12 0.329156 0.009954 0.275257
O O13 0.500000 0.000000 0.000000
O O14 0.000000 0.500000 0.500000
#
# Coordination Sequence:
#
# PCOD9032566 Si02
#       6
#     2   2   2   2   2   2
#     4  11  22  39  72 112 144 185 255 305 373 438
#     4  10  22  45  70  98 150 202 250 298 388 462
#     4  11  24  45  72 103 146 196 260 318 386 477
#     4  10  22  43  72 102 150 198 242 316 370 450
#     4  12  26  45  76 110 146 192 255 334 404 462
#     4  12  26  45  76 110 146 192 255 334 404 462
#
# _framework density 27.250565999999999
#
# number of rings (size 3 to 8) (size 9 to 14) (size 15 to 20)
#    0.000    1.000    3.333    3.000    0.000    2.667 
#    0.000    8.333    7.333    0.000    0.000    0.000 
#    0.000    0.000    0.000    0.000    0.000    0.000 
#
# Total GULP energy -66821.845487 kJ/mol
# GULP energy per Si atom -5568.487124 kJ/mol
# Density = 2.718854 g / cm^3
# Si number density = 27.250566 Si / 1000 Ang^3
#
#
#
# Elastic Constant Matrix: (Units=GPa)
#
#
# Indices 1 2 3 4 5 6 
#
# 1 52.5057 49.3145 38.3318 -8.0034 0.6473 12.4207
# 2 49.3145 243.3011 116.1559 -2.1816 12.4155 1.4610
# 3 38.3318 116.1559 251.6318 -28.4209 10.8161 3.3438
# 4 -8.0034 -2.1816 -28.4209 77.6072 -10.5113 7.5238
# 5 0.6473 12.4155 10.8161 -10.5113 50.0773 3.2860
# 6 12.4207 1.4610 3.3438 7.5238 3.2860 45.5755
#
#
#
# Elastic Compliance Matrix: (Units=1/GPa)
#
#
# Indices 1 2 3 4 5 6 
#
# 1 0.026938 -0.004767 -0.001545 0.003148 0.002337 -0.007763
# 2 -0.004767 0.006209 -0.002270 -0.001495 -0.001407 0.001615
# 3 -0.001545 -0.002270 0.005469 0.001768 -0.000215 -0.000184
# 4 0.003148 -0.001495 0.001768 0.014603 0.003249 -0.003585
# 5 0.002337 -0.001407 -0.000215 0.003249 0.021189 -0.002640
# 6 -0.007763 0.001615 -0.000184 -0.003585 -0.002640 0.024801
#
#
# Mechanical properties :
#
#
# Convention : Reuss Voigt Hill
#
# Bulk Modulus (GPa) = 46.61528 106.11589 76.36559
# Shear Modulus (GPa) = 40.47842 57.56109 49.01976
#
# Velocity S-wave (km/s) = 3.85829 4.60095 4.24589
# Velocity P-wave (km/s) = 6.08209 8.20063 7.21949
#
# Compressibility (1/GPa) = 0.02145219
#
# Stress axis : x y z
#
# Youngs Moduli (GPa) = 37.12219 161.06612 182.86510
#
# Poissons Ratio (x) = 0.76779 0.28251
# Poissons Ratio (y) = 0.17696 0.41505
# Poissons Ratio (z) = 0.05735 0.36557
#
# Static dielectric constant tensor:
#      x y z
#    x 2.226960 -0.286250 0.407800 
#    y -0.286250 1.935690 0.792350 
#    z 0.407800 0.792350 -0.498280 
# 
# From -- ./inp_files/621009.got.cif
#   From: 2010.05.17/outbox.cif.g08.bks.cpg/sg2_311_cif.got.tgz:621009.got - 2010.06.03 11:33:40.
