data_PCOD9032154
_publ_section_title
;
Structure prediction by ZEFSAII (Michael W. Deem and Ramdas Pophale) SiO2 
 PCOD9032154
Probable space group: P -1
;
_chemical_formula_sum "Si O2"
_cell_formula_units_Z 14
_cell_length_a 12.693975
_cell_length_b 6.901940
_cell_length_c 10.592362
_cell_angle_alpha 68.413414
_cell_angle_beta 75.939963
_cell_angle_gamma 42.581321
_cell_volume 583.319271
_symmetry_space_group_name_H-M "P -1"
_symmetry_group_IT_number 2
_symmetry_cell_setting 'triclinic'
loop_
_space_group_symop_operation_xyz
x,y,z
-x,-y,-z
loop_
_atom_site_type_symbol
_atom_site_label
_atom_site_fract_x
_atom_site_fract_y
_atom_site_fract_z
Si Si1 0.837055 0.715000 0.066195
Si Si2 0.408480 0.809513 0.170488
Si Si3 0.477998 0.254653 0.314078
Si Si4 0.322212 0.376136 0.728667
Si Si5 0.238628 0.904530 0.594599
Si Si6 0.769974 0.735407 0.659622
Si Si7 0.953940 0.896737 0.147178
O O1 0.832325 0.517696 0.199830
O O2 0.829666 0.923592 0.106646
O O3 0.000000 0.500000 0.000000
O O4 0.692175 0.928081 0.964115
O O5 0.406630 0.565349 0.201651
O O6 0.583072 0.652485 0.174931
O O7 0.334939 0.974526 0.287539
O O8 0.603905 0.186665 0.388430
O O9 0.334133 0.295764 0.375823
O O10 0.580619 0.953448 0.272894
O O11 0.294064 0.609219 0.588086
O O12 0.152815 0.196878 0.467917
O O13 0.129423 0.970541 0.723694
O O14 0.890177 0.445320 0.781139
O O15 0.000000 0.000000 0.000000
#
# Coordination Sequence:
#
# PCOD9032154 Si02
#       7
#     2   2   2   2   2   2   2
#     4  12  22  42  67  92 137 173 219 274 329 388
#     4  10  23  41  67 100 131 173 219 274 331 391
#     4  10  22  43  69  99 131 175 220 277 328 393
#     4  10  23  42  65  98 132 172 220 276 326 392
#     4  11  24  44  69 100 132 175 221 272 333 395
#     4  11  24  44  68 100 136 172 219 275 330 396
#     4  12  25  45  69  97 136 177 221 274 332 393
#
# _framework density 24.000578999999998
#
# number of rings (size 3 to 8) (size 9 to 14) (size 15 to 20)
#    0.000    1.143    2.857    3.000    0.000    6.857 
#    2.571    0.714    0.000    0.000    0.000    0.000 
#    0.000    0.000    0.000    0.000    0.000    0.000 
#
# Total GULP energy -78051.216134 kJ/mol
# GULP energy per Si atom -5575.086867 kJ/mol
# Density = 2.394595 g / cm^3
# Si number density = 24.000579 Si / 1000 Ang^3
#
#
#
# Elastic Constant Matrix: (Units=GPa)
#
#
# Indices 1 2 3 4 5 6 
#
# 1 83.1700 32.5614 39.2498 -11.6328 -30.5132 24.0742
# 2 32.5614 109.6910 45.6379 -20.8361 -24.7514 19.9838
# 3 39.2498 45.6379 116.9471 -32.0267 -33.7148 12.0798
# 4 -11.6328 -20.8361 -32.0267 38.7323 9.0757 -2.6682
# 5 -30.5132 -24.7514 -33.7148 9.0757 29.9371 -6.7374
# 6 24.0742 19.9838 12.0798 -2.6682 -6.7374 46.4455
#
#
#
# Elastic Compliance Matrix: (Units=1/GPa)
#
#
# Indices 1 2 3 4 5 6 
#
# 1 0.022080 -0.000222 -0.000603 0.000870 0.019507 -0.008313
# 2 -0.000222 0.012703 -0.001623 0.003643 0.006495 -0.003777
# 3 -0.000603 -0.001623 0.015519 0.008752 0.012715 -0.000678
# 4 0.000870 0.003643 0.008752 0.034471 0.002878 -0.001897
# 5 0.019507 0.006495 0.012715 0.002878 0.070803 -0.005777
# 6 -0.008313 -0.003777 -0.000678 -0.001897 -0.005777 0.026694
#
#
# Mechanical properties :
#
#
# Convention : Reuss Voigt Hill
#
# Bulk Modulus (GPa) = 22.02323 60.52291 41.27307
# Shear Modulus (GPa) = 24.71563 35.84691 30.28127
#
# Velocity S-wave (km/s) = 3.21252 3.86889 3.55588
# Velocity P-wave (km/s) = 4.79129 6.72530 5.83893
#
# Compressibility (1/GPa) = 0.04540659
#
# Stress axis : x y z
#
# Youngs Moduli (GPa) = 45.29041 78.72030 64.43676
#
# Poissons Ratio (x) = 0.01747 0.03887
# Poissons Ratio (y) = 0.01005 0.10456
# Poissons Ratio (z) = 0.02732 0.12773
#
# Static dielectric constant tensor:
#      x y z
#    x 1.895900 -0.014370 -0.016460 
#    y -0.014370 2.061050 0.027790 
#    z -0.016460 0.027790 2.020310 
# 
# From -- ./inp_files/410045.got.cif
#   From: 2010.05.17/outbox.cif.g08.bks.cpg/sg2_206_cif.got.tgz:410045.got - 2010.06.03 11:33:40.
