data_PCOD9032446
_publ_section_title
;
Structure prediction by ZEFSAII (Michael W. Deem and Ramdas Pophale) SiO2 
 PCOD9032446
Probable space group: P -1
;
_chemical_formula_sum "Si O2"
_cell_formula_units_Z 13
_cell_length_a 5.357836
_cell_length_b 11.340840
_cell_length_c 20.926728
_cell_angle_alpha 31.114558
_cell_angle_beta 123.511930
_cell_angle_gamma 122.002067
_cell_volume 542.991719
_symmetry_space_group_name_H-M "P -1"
_symmetry_group_IT_number 2
_symmetry_cell_setting 'triclinic'
loop_
_space_group_symop_operation_xyz
x,y,z
-x,-y,-z
loop_
_atom_site_type_symbol
_atom_site_label
_atom_site_fract_x
_atom_site_fract_y
_atom_site_fract_z
Si Si1 0.000000 0.500000 0.500000
Si Si2 0.904552 0.005835 0.681400
Si Si3 0.897809 0.864253 0.612564
Si Si4 0.555885 0.383126 0.160663
Si Si5 0.076077 0.804131 0.150454
Si Si6 0.391014 0.471150 0.697679
Si Si7 0.484889 0.153874 0.119595
O O1 0.821545 0.232373 0.597769
O O2 0.839072 0.539962 0.389193
O O3 0.969724 0.043646 0.597955
O O4 0.668558 0.776367 0.752083
O O5 0.200096 0.944823 0.787047
O O6 0.565944 0.726108 0.618973
O O7 0.112883 0.670736 0.750571
O O8 0.000000 0.000000 0.500000
O O9 0.460370 0.273523 0.128768
O O10 0.519141 0.648419 0.026051
O O11 0.341142 0.675151 0.217909
O O12 0.792918 0.635099 0.216906
O O13 0.223139 0.950227 0.163633
O O14 0.000000 0.000000 0.000000
#
# Coordination Sequence:
#
# PCOD9032446 Si02
#       7
#     1   2   2   2   2   2   2
#     4  12  26  48  76 106 154 204 262 316 386 452
#     4  11  24  46  74 104 146 196 254 316 381 457
#     4  11  27  46  71 109 148 200 253 313 389 459
#     4  10  22  43  72 105 142 195 248 319 376 461
#     4  12  27  49  76 113 156 203 256 320 395 462
#     4  12  29  49  78 113 157 203 261 319 389 466
#     4  10  22  43  71 105 146 189 258 308 385 450
#
# _framework density 23.941433
#
# number of rings (size 3 to 8) (size 9 to 14) (size 15 to 20)
#    0.000    0.923    1.538    3.692    6.462    3.077 
#    0.000    0.000    0.000    0.000    0.000    0.000 
#    0.000    0.000    0.000    0.000    0.000    0.000 
#
# Total GULP energy -72451.034470 kJ/mol
# GULP energy per Si atom -5573.156498 kJ/mol
# Density = 2.388694 g / cm^3
# Si number density = 23.941433 Si / 1000 Ang^3
#
#
#
# Elastic Constant Matrix: (Units=GPa)
#
#
# Indices 1 2 3 4 5 6 
#
# 1 78.1233 20.3887 41.5513 1.5857 -22.3245 12.8204
# 2 20.3887 142.7207 34.2967 3.7141 -8.5667 19.8162
# 3 41.5513 34.2967 109.7193 11.1233 -2.7576 2.3304
# 4 1.5857 3.7141 11.1233 50.1539 8.7760 -4.5037
# 5 -22.3245 -8.5667 -2.7576 8.7760 16.4459 -7.2202
# 6 12.8204 19.8162 2.3304 -4.5037 -7.2202 31.7440
#
#
#
# Elastic Compliance Matrix: (Units=1/GPa)
#
#
# Indices 1 2 3 4 5 6 
#
# 1 0.030915 0.001321 -0.010294 -0.006621 0.042811 -0.003756
# 2 0.001321 0.008448 -0.002808 -0.001222 0.004266 -0.004804
# 3 -0.010294 -0.002808 0.013555 -0.000157 -0.012143 0.002130
# 4 -0.006621 -0.001222 -0.000157 0.024252 -0.021738 0.001945
# 5 0.042811 0.004266 -0.012143 -0.021738 0.134404 0.008425
# 6 -0.003756 -0.004804 0.002130 0.001945 0.008425 0.038053
#
#
# Mechanical properties :
#
#
# Convention : Reuss Voigt Hill
#
# Bulk Modulus (GPa) = 34.06321 58.11520 46.08921
# Shear Modulus (GPa) = 17.66950 35.29054 26.48002
#
# Velocity S-wave (km/s) = 2.71962 3.84348 3.32932
# Velocity P-wave (km/s) = 4.91125 6.63499 5.83710
#
# Compressibility (1/GPa) = 0.02935718
#
# Stress axis : x y z
#
# Youngs Moduli (GPa) = 32.34682 118.37749 73.77111
#
# Poissons Ratio (x) = -0.15634 0.75936
# Poissons Ratio (y) = -0.04272 0.20712
# Poissons Ratio (z) = 0.33296 0.33235
#
# Static dielectric constant tensor:
#      x y z
#    x 1.955500 -0.018300 -0.014600 
#    y -0.018300 1.905960 -0.000420 
#    z -0.014600 -0.000420 1.937040 
# 
# From -- ./inp_files/65388.got.cif
#   From: 2010.05.17/outbox.cif.g08.bks.cpg/sg2_33_cif.got.tgz:65388.got - 2010.06.03 11:33:40.
