data_PCOD9032206
_publ_section_title
;
Structure prediction by ZEFSAII (Michael W. Deem and Ramdas Pophale) SiO2 
 PCOD9032206
Probable space group: P -1
;
_chemical_formula_sum "Si O2"
_cell_formula_units_Z 16
_cell_length_a 18.847192
_cell_length_b 7.575364
_cell_length_c 10.872569
_cell_angle_alpha 134.158777
_cell_angle_beta 56.204582
_cell_angle_gamma 146.213756
_cell_volume 618.290249
_symmetry_space_group_name_H-M "P -1"
_symmetry_group_IT_number 2
_symmetry_cell_setting 'triclinic'
loop_
_space_group_symop_operation_xyz
x,y,z
-x,-y,-z
loop_
_atom_site_type_symbol
_atom_site_label
_atom_site_fract_x
_atom_site_fract_y
_atom_site_fract_z
Si Si1 0.029060 0.885117 0.800834
Si Si2 0.390211 0.342463 0.624260
Si Si3 0.967927 0.039149 0.682793
Si Si4 0.232716 0.861245 0.321012
Si Si5 0.709421 0.547937 0.051855
Si Si6 0.709877 0.753448 0.779145
Si Si7 0.559982 0.909803 0.321791
Si Si8 0.786145 0.178423 0.123892
O O1 0.919609 0.445262 0.697419
O O2 0.006414 0.962413 0.727927
O O3 0.172980 0.136774 0.816752
O O4 0.000000 0.000000 0.000000
O O5 0.500000 0.500000 0.500000
O O6 0.400105 0.627744 0.824890
O O7 0.403150 0.198366 0.659259
O O8 0.270173 0.002239 0.491836
O O9 0.067927 0.480114 0.812168
O O10 0.816885 0.774963 0.706462
O O11 0.000000 0.000000 0.500000
O O12 0.296147 0.197593 0.334814
O O13 0.278090 0.689090 0.142463
O O14 0.728411 0.798892 0.049968
O O15 0.563272 0.421319 0.802569
O O16 0.773642 0.123840 0.963903
O O17 0.500000 0.000000 0.500000
O O18 0.693336 0.203654 0.263577
#
# Coordination Sequence:
#
# PCOD9032206 Si02
#       8
#     2   2   2   2   2   2   2   2
#     4  10  22  43  70 101 132 180 224 279 349 410
#     4  11  25  45  65  99 134 180 233 277 334 415
#     4  12  27  42  73 105 141 177 232 289 352 407
#     4  11  24  43  72  98 136 178 227 283 347 402
#     4  10  24  43  71  98 136 177 227 283 343 406
#     4  12  24  45  69 102 136 183 228 282 346 420
#     4  11  26  44  69  99 141 177 229 283 348 406
#     4  11  24  46  68 103 136 180 231 280 345 423
#
# _framework density 25.877814000000001
#
# number of rings (size 3 to 8) (size 9 to 14) (size 15 to 20)
#    0.000    1.000    1.250    5.250    8.750    3.000 
#    0.000    0.000    0.000    0.000    0.000    0.000 
#    0.000    0.000    0.000    0.000    0.000    0.000 
#
# Total GULP energy -89320.442085 kJ/mol
# GULP energy per Si atom -5582.527630 kJ/mol
# Density = 2.581892 g / cm^3
# Si number density = 25.877814 Si / 1000 Ang^3
#
#
#
# Elastic Constant Matrix: (Units=GPa)
#
#
# Indices 1 2 3 4 5 6 
#
# 1 77.6061 2.6241 43.4597 -1.7201 31.2573 7.3592
# 2 2.6241 57.9173 19.3810 -6.3068 11.5339 8.4209
# 3 43.4597 19.3810 164.6518 -18.5800 9.5996 18.1888
# 4 -1.7201 -6.3068 -18.5800 47.8734 11.6793 5.7652
# 5 31.2573 11.5339 9.5996 11.6793 42.3855 5.2682
# 6 7.3592 8.4209 18.1888 5.7652 5.2682 37.1899
#
#
#
# Elastic Compliance Matrix: (Units=1/GPa)
#
#
# Indices 1 2 3 4 5 6 
#
# 1 0.023047 0.004881 -0.004991 0.004122 -0.018170 -0.001290
# 2 0.004881 0.020806 -0.002181 0.004899 -0.009619 -0.004007
# 3 -0.004991 -0.002181 0.008170 0.002575 0.002113 -0.003213
# 4 0.004122 0.004899 0.002575 0.026155 -0.011465 -0.005615
# 5 -0.018170 -0.009619 0.002113 -0.011465 0.042224 0.000536
# 6 -0.001290 -0.004007 -0.003213 -0.005615 0.000536 0.030417
#
#
# Mechanical properties :
#
#
# Convention : Reuss Voigt Hill
#
# Bulk Modulus (GPa) = 21.07879 47.90052 34.48966
# Shear Modulus (GPa) = 29.20301 41.13713 35.17007
#
# Velocity S-wave (km/s) = 3.36295 3.99139 3.69057
# Velocity P-wave (km/s) = 4.82104 6.30809 5.61402
#
# Compressibility (1/GPa) = 0.04744105
#
# Stress axis : x y z
#
# Youngs Moduli (GPa) = 43.38916 48.06222 122.40202
#
# Poissons Ratio (x) = -0.23458 0.61088
# Poissons Ratio (y) = -0.21177 0.26696
# Poissons Ratio (z) = 0.21655 0.10483
#
# Static dielectric constant tensor:
#      x y z
#    x 2.124330 0.081460 -0.027750 
#    y 0.081460 3.088690 -0.741810 
#    z -0.027750 -0.741810 2.799090 
# 
# From -- ./inp_files/470138.got.cif
#   From: 2010.05.17/outbox.cif.g08.bks.cpg/sg2_236_cif.got.tgz:470138.got - 2010.06.03 11:33:40.
