data_PCOD9032417
_publ_section_title
;
Structure prediction by ZEFSAII (Michael W. Deem and Ramdas Pophale) SiO2 
 PCOD9032417
Probable space group: P -1
;
_chemical_formula_sum "Si O2"
_cell_formula_units_Z 14
_cell_length_a 7.035953
_cell_length_b 9.028142
_cell_length_c 10.822646
_cell_angle_alpha 80.680484
_cell_angle_beta 86.709361
_cell_angle_gamma 129.855349
_cell_volume 508.857066
_symmetry_space_group_name_H-M "P -1"
_symmetry_group_IT_number 2
_symmetry_cell_setting 'triclinic'
loop_
_space_group_symop_operation_xyz
x,y,z
-x,-y,-z
loop_
_atom_site_type_symbol
_atom_site_label
_atom_site_fract_x
_atom_site_fract_y
_atom_site_fract_z
Si Si1 0.576816 0.174714 0.245872
Si Si2 0.796757 0.028418 0.481543
Si Si3 0.129024 0.597508 0.203659
Si Si4 0.454185 0.275763 0.657566
Si Si5 0.677773 0.736559 0.934129
Si Si6 0.135288 0.379517 0.573982
Si Si7 0.781973 0.092941 0.041768
O O1 0.423132 0.073580 0.392945
O O2 0.873218 0.371381 0.218190
O O3 0.431862 0.245407 0.187170
O O4 0.577779 0.051260 0.152644
O O5 0.688559 0.944421 0.361311
O O6 0.000000 0.000000 0.500000
O O7 0.979134 0.260786 0.472586
O O8 0.059469 0.646624 0.325145
O O9 0.159350 0.734515 0.073911
O O10 0.378146 0.638348 0.237011
O O11 0.245103 0.297777 0.660273
O O12 0.627627 0.407028 0.514478
O O13 0.500000 0.500000 0.000000
O O14 0.959691 0.818001 0.911353
O O15 0.702587 0.896951 0.001804
#
# Coordination Sequence:
#
# PCOD9032417 Si02
#       7
#     2   2   2   2   2   2   2
#     4  12  25  48  78 114 158 206 259 323 389 470
#     4  10  23  48  73 106 148 202 261 316 382 453
#     4  12  24  43  76 113 157 202 252 317 388 460
#     4  10  23  45  70 107 152 200 257 322 373 454
#     4  11  25  50  80 109 158 206 256 325 383 466
#     4  10  22  43  71 102 150 203 256 311 382 449
#     4  11  27  50  75 116 158 203 263 313 397 469
#
# _framework density 27.512636000000001
#
# number of rings (size 3 to 8) (size 9 to 14) (size 15 to 20)
#    0.000    1.143    2.857    2.143    0.000    2.857 
#    2.571    5.714    0.000    0.000    0.000    0.000 
#    0.000    0.143    0.000    0.000    0.000    0.000 
#
# Total GULP energy -78380.733736 kJ/mol
# GULP energy per Si atom -5598.623838 kJ/mol
# Density = 2.745002 g / cm^3
# Si number density = 27.512636 Si / 1000 Ang^3
#
#
#
# Elastic Constant Matrix: (Units=GPa)
#
#
# Indices 1 2 3 4 5 6 
#
# 1 156.7263 33.8247 47.1934 2.8440 24.1527 9.1908
# 2 33.8247 147.9822 34.6703 13.8264 1.4012 11.7254
# 3 47.1934 34.6703 101.7815 -12.4762 25.9722 -1.4811
# 4 2.8440 13.8264 -12.4762 38.1078 17.7177 12.4617
# 5 24.1527 1.4012 25.9722 17.7177 51.1922 9.8209
# 6 9.1908 11.7254 -1.4811 12.4617 9.8209 32.9875
#
#
#
# Elastic Compliance Matrix: (Units=1/GPa)
#
#
# Indices 1 2 3 4 5 6 
#
# 1 0.007830 -0.001063 -0.002689 0.000394 -0.002163 -0.001429
# 2 -0.001063 0.008812 -0.004661 -0.006364 0.005250 -0.002204
# 3 -0.002689 -0.004661 0.017317 0.012521 -0.012118 0.002061
# 4 0.000394 -0.006364 0.012521 0.044709 -0.020277 -0.008139
# 5 -0.002163 0.005250 -0.012118 -0.020277 0.034420 -0.004395
# 6 -0.001429 -0.002204 0.002061 -0.008139 -0.004395 0.035972
#
#
# Mechanical properties :
#
#
# Convention : Reuss Voigt Hill
#
# Bulk Modulus (GPa) = 58.36694 70.87411 64.62053
# Shear Modulus (GPa) = 29.13835 43.84429 36.49132
#
# Velocity S-wave (km/s) = 3.25790 3.99633 3.64586
# Velocity P-wave (km/s) = 5.95084 6.86372 6.42352
#
# Compressibility (1/GPa) = 0.01713299
#
# Stress axis : x y z
#
# Youngs Moduli (GPa) = 127.72055 113.48144 57.74828
#
# Poissons Ratio (x) = 0.12060 0.15529
# Poissons Ratio (y) = 0.13573 0.26916
# Poissons Ratio (z) = 0.34344 0.52892
#
# Static dielectric constant tensor:
#      x y z
#    x 2.160050 -0.064590 0.096390 
#    y -0.064590 2.193580 0.033970 
#    z 0.096390 0.033970 2.173240 
# 
# From -- ./inp_files/316667.got.cif
#   From: 2010.05.17/outbox.cif.g08.bks.cpg/sg2_159_cif.got.tgz:316667.got - 2010.06.03 11:33:40.
