data_PCOD9032376
_publ_section_title
;
Structure prediction by ZEFSAII (Michael W. Deem and Ramdas Pophale) SiO2 
 PCOD9032376
Probable space group: P -1
;
_chemical_formula_sum "Si O2"
_cell_formula_units_Z 16
_cell_length_a 8.668815
_cell_length_b 9.784065
_cell_length_c 12.987933
_cell_angle_alpha 44.784513
_cell_angle_beta 56.319266
_cell_angle_gamma 74.807836
_cell_volume 629.274730
_symmetry_space_group_name_H-M "P -1"
_symmetry_group_IT_number 2
_symmetry_cell_setting 'triclinic'
loop_
_space_group_symop_operation_xyz
x,y,z
-x,-y,-z
loop_
_atom_site_type_symbol
_atom_site_label
_atom_site_fract_x
_atom_site_fract_y
_atom_site_fract_z
Si Si1 0.370938 0.211888 0.150543
Si Si2 0.992001 0.898717 0.193072
Si Si3 0.937834 0.608304 0.721758
Si Si4 0.234281 0.753875 0.886244
Si Si5 0.385267 0.535399 0.790572
Si Si6 0.306652 0.767747 0.378746
Si Si7 0.721832 0.777539 0.180851
Si Si8 0.211576 0.429224 0.421320
O O1 0.196913 0.245205 0.269035
O O2 0.563375 0.216942 0.142992
O O3 0.401885 0.387479 0.960066
O O4 0.314851 0.998895 0.229413
O O5 0.870640 0.066805 0.164727
O O6 0.885661 0.772241 0.204542
O O7 0.951651 0.751434 0.381662
O O8 0.201073 0.012514 0.019541
O O9 0.847968 0.510206 0.700303
O O10 0.153839 0.708329 0.558342
O O11 0.903111 0.438312 0.910324
O O12 0.270215 0.691106 0.790571
O O13 0.306348 0.392848 0.802143
O O14 0.596681 0.647041 0.622533
O O15 0.526220 0.763462 0.321810
O O16 0.259326 0.608718 0.388551
#
# Coordination Sequence:
#
# PCOD9032376 Si02
#       8
#     2   2   2   2   2   2   2   2
#     4  11  21  44  70 100 135 173 217 272 331 396
#     4  11  26  46  67  94 135 181 220 270 334 388
#     4  11  23  44  68 102 134 169 221 274 329 392
#     4  11  22  46  72  95 132 186 211 265 340 394
#     4  10  22  43  71 100 133 169 224 274 324 394
#     4  11  25  39  69  99 131 173 221 272 333 382
#     4  10  25  46  63  95 133 177 222 272 323 400
#     4  11  24  43  66 104 135 167 221 280 322 393
#
# _framework density 25.426096999999999
#
# number of rings (size 3 to 8) (size 9 to 14) (size 15 to 20)
#    0.000    1.250    3.750    1.500    5.250    6.000 
#    0.000    0.000    0.000    0.000    0.000    0.000 
#    0.000    0.000    0.000    0.000    0.000    0.000 
#
# Total GULP energy -89662.764690 kJ/mol
# GULP energy per Si atom -5603.922793 kJ/mol
# Density = 2.536823 g / cm^3
# Si number density = 25.426097 Si / 1000 Ang^3
#
#
#
# Elastic Constant Matrix: (Units=GPa)
#
#
# Indices 1 2 3 4 5 6 
#
# 1 67.6908 25.1725 35.8817 7.4969 -33.4167 -12.0580
# 2 25.1725 108.1635 15.0052 13.5139 -7.1961 -17.1870
# 3 35.8817 15.0052 98.7736 16.4641 -36.3313 -13.4578
# 4 7.4969 13.5139 16.4641 42.3156 -8.9794 -6.8853
# 5 -33.4167 -7.1961 -36.3313 -8.9794 45.0947 6.1975
# 6 -12.0580 -17.1870 -13.4578 -6.8853 6.1975 30.3643
#
#
#
# Elastic Compliance Matrix: (Units=1/GPa)
#
#
# Indices 1 2 3 4 5 6 
#
# 1 0.026476 -0.004298 -0.002612 0.001876 0.016661 0.003949
# 2 -0.004298 0.011119 -0.000026 -0.002590 -0.002567 0.004512
# 3 -0.002612 -0.000026 0.015519 -0.003027 0.009522 0.003197
# 4 0.001876 -0.002590 -0.003027 0.026553 0.003376 0.003269
# 5 0.016661 -0.002567 0.009522 0.003376 0.042246 0.001526
# 6 0.003949 0.004512 0.003197 0.003269 0.001526 0.038902
#
#
# Mechanical properties :
#
#
# Convention : Reuss Voigt Hill
#
# Bulk Modulus (GPa) = 25.48161 47.41630 36.44895
# Shear Modulus (GPa) = 26.62881 36.79282 31.71081
#
# Velocity S-wave (km/s) = 3.23972 3.80814 3.53537
# Velocity P-wave (km/s) = 4.90285 6.16644 5.57059
#
# Compressibility (1/GPa) = 0.03924399
#
# Stress axis : x y z
#
# Youngs Moduli (GPa) = 37.76995 89.93759 64.43615
#
# Poissons Ratio (x) = 0.38654 0.16828
# Poissons Ratio (y) = 0.16233 0.00164
# Poissons Ratio (z) = 0.09864 0.00229
#
# Static dielectric constant tensor:
#      x y z
#    x 2.074200 -0.008600 0.005300 
#    y -0.008600 1.996830 0.018480 
#    z 0.005300 0.018480 1.990260 
# 
# From -- ./inp_files/392029.got.cif
#   From: 2010.05.17/outbox.cif.g08.bks.cpg/sg2_197_cif.got.tgz:392029.got - 2010.06.03 11:33:40.
