data_PCOD9032233
_publ_section_title
;
Structure prediction by ZEFSAII (Michael W. Deem and Ramdas Pophale) SiO2 
 PCOD9032233
Probable space group: P -1
;
_chemical_formula_sum "Si O2"
_cell_formula_units_Z 16
_cell_length_a 17.523523
_cell_length_b 15.064184
_cell_length_c 13.230028
_cell_angle_alpha 133.470505
_cell_angle_beta 150.178398
_cell_angle_gamma 25.817082
_cell_volume 683.079501
_symmetry_space_group_name_H-M "P -1"
_symmetry_group_IT_number 2
_symmetry_cell_setting 'triclinic'
loop_
_space_group_symop_operation_xyz
x,y,z
-x,-y,-z
loop_
_atom_site_type_symbol
_atom_site_label
_atom_site_fract_x
_atom_site_fract_y
_atom_site_fract_z
Si Si1 0.981728 0.496352 0.223476
Si Si2 0.174264 0.189081 0.049113
Si Si3 0.371585 0.447970 0.544876
Si Si4 0.567526 0.954717 0.158706
Si Si5 0.762572 0.276984 0.560125
Si Si6 0.710425 0.720311 0.400751
Si Si7 0.788599 0.052512 0.555125
Si Si8 0.370700 0.706369 0.063232
O O1 0.962818 0.411055 0.046123
O O2 0.131710 0.518366 0.369296
O O3 0.185811 0.300529 0.388147
O O4 0.705022 0.727761 0.146410
O O5 0.273235 0.181782 0.052998
O O6 0.478620 0.963586 0.274835
O O7 0.033297 0.157873 0.829940
O O8 0.272760 0.640517 0.527294
O O9 0.523816 0.270751 0.490960
O O10 0.580324 0.331718 0.789032
O O11 0.780660 0.914042 0.414287
O O12 0.500000 0.000000 0.000000
O O13 0.500000 0.500000 0.500000
O O14 0.781524 0.122746 0.491943
O O15 0.000000 0.500000 0.500000
O O16 0.543406 0.707086 0.221496
O O17 0.052485 0.919268 0.821790
O O18 0.500000 0.500000 0.000000
#
# Coordination Sequence:
#
# PCOD9032233 Si02
#       8
#     2   2   2   2   2   2   2   2
#     4  11  24  43  72 102 143 185 241 294 356 428
#     4  12  24  47  73 102 145 188 235 301 360 430
#     4  10  22  43  70 102 138 191 237 286 365 424
#     4  12  27  44  73 106 140 193 245 291 364 429
#     4  10  24  44  72 105 142 183 238 296 364 427
#     4  11  23  46  68 107 143 185 244 294 360 427
#     4  11  22  47  69 103 146 183 241 300 352 432
#     4  11  24  43  70 100 143 189 236 293 356 428
#
# _framework density 23.423334000000001
#
# number of rings (size 3 to 8) (size 9 to 14) (size 15 to 20)
#    0.000    1.000    3.750    3.000    3.500    1.000 
#    6.750    1.875    0.000    0.000    0.000    0.000 
#    0.000    0.000    0.000    0.000    0.000    0.000 
#
# Total GULP energy -89344.749214 kJ/mol
# GULP energy per Si atom -5584.046826 kJ/mol
# Density = 2.337002 g / cm^3
# Si number density = 23.423334 Si / 1000 Ang^3
#
#
#
# Elastic Constant Matrix: (Units=GPa)
#
#
# Indices 1 2 3 4 5 6 
#
# 1 82.8480 13.9049 23.7296 5.4752 -21.0290 -3.7821
# 2 13.9049 74.2354 7.1854 8.7489 -13.8078 -13.6114
# 3 23.7296 7.1854 83.3586 -5.4914 -17.7625 -5.5245
# 4 5.4752 8.7489 -5.4914 40.6934 2.2281 -7.4186
# 5 -21.0290 -13.8078 -17.7625 2.2281 37.7578 -10.0672
# 6 -3.7821 -13.6114 -5.5245 -7.4186 -10.0672 31.5330
#
#
#
# Elastic Compliance Matrix: (Units=1/GPa)
#
#
# Indices 1 2 3 4 5 6 
#
# 1 0.015212 -0.000179 -0.002460 -0.002165 0.008299 0.003457
# 2 -0.000179 0.017314 0.001138 -0.002212 0.009618 0.010202
# 3 -0.002460 0.001138 0.014726 0.002722 0.007350 0.005763
# 4 -0.002165 -0.002212 0.002722 0.026716 -0.000909 0.005258
# 5 0.008299 0.009618 0.007350 -0.000909 0.043497 0.020108
# 6 0.003457 0.010202 0.005763 0.005258 0.020108 0.045198
#
#
# Mechanical properties :
#
#
# Convention : Reuss Voigt Hill
#
# Bulk Modulus (GPa) = 22.59807 36.67578 29.63693
# Shear Modulus (GPa) = 27.71398 35.03831 31.37614
#
# Velocity S-wave (km/s) = 3.44347 3.87185 3.66392
# Velocity P-wave (km/s) = 5.04763 5.97328 5.52986
#
# Compressibility (1/GPa) = 0.04425156
#
# Stress axis : x y z
#
# Youngs Moduli (GPa) = 65.73617 57.75587 67.90756
#
# Poissons Ratio (x) = 0.01032 0.16706
# Poissons Ratio (y) = 0.01175 -0.07731
# Poissons Ratio (z) = 0.16172 -0.06575
#
# Static dielectric constant tensor:
#      x y z
#    x 1.981990 0.014990 0.000370 
#    y 0.014990 1.934530 -0.078800 
#    z 0.000370 -0.078800 1.925670 
# 
# From -- ./inp_files/466133.got.cif
#   From: 2010.05.17/outbox.cif.g08.bks.cpg/sg2_234_cif.got.tgz:466133.got - 2010.06.03 11:33:40.
