data_PCOD9032819
_publ_section_title
;
Structure prediction by ZEFSAII (Michael W. Deem and Ramdas Pophale) SiO2 
 PCOD9032819
Probable space group: P -1
;
_chemical_formula_sum "Si O2"
_cell_formula_units_Z 10
_cell_length_a 18.227453
_cell_length_b 9.363474
_cell_length_c 5.355274
_cell_angle_alpha 87.132934
_cell_angle_beta 75.289609
_cell_angle_gamma 147.458122
_cell_volume 409.726407
_symmetry_space_group_name_H-M "P -1"
_symmetry_group_IT_number 2
_symmetry_cell_setting 'triclinic'
loop_
_space_group_symop_operation_xyz
x,y,z
-x,-y,-z
loop_
_atom_site_type_symbol
_atom_site_label
_atom_site_fract_x
_atom_site_fract_y
_atom_site_fract_z
Si Si1 0.733085 0.377870 0.207929
Si Si2 0.637254 0.784794 0.043840
Si Si3 0.646412 0.549238 0.399510
Si Si4 0.777666 0.298791 0.684350
Si Si5 0.958088 0.077679 0.393755
O O1 0.652687 0.397023 0.317654
O O2 0.717062 0.251292 0.473788
O O3 0.685541 0.230240 0.995375
O O4 0.927981 0.728813 0.969198
O O5 0.709429 0.767668 0.121016
O O6 0.533692 0.700700 0.347392
O O7 0.500000 0.500000 0.000000
O O8 0.750629 0.087650 0.779247
O O9 0.771063 0.770117 0.504555
O O10 0.963070 0.662050 0.537884
O O11 0.000000 0.000000 0.500000
#
# Coordination Sequence:
#
# PCOD9032819 Si02
#       5
#     2   2   2   2   2
#     4  10  23  43  75 103 132 172 240 286 342 396
#     4  11  29  45  65  98 148 191 223 275 351 420
#     4  11  24  45  70 100 140 185 225 286 347 412
#     4  10  25  44  71 106 136 177 236 285 346 403
#     4  10  22  43  76 107 131 172 237 296 342 395
#
# _framework density 24.406531999999999
#
# number of rings (size 3 to 8) (size 9 to 14) (size 15 to 20)
#    1.200    0.400    2.000    0.600   11.200    2.400 
#    0.000    2.000    0.000    0.000    0.000    0.000 
#    0.000    0.000    0.000    0.000    0.000    0.000 
#
# Total GULP energy -55929.334050 kJ/mol
# GULP energy per Si atom -5592.933405 kJ/mol
# Density = 2.435098 g / cm^3
# Si number density = 24.406532 Si / 1000 Ang^3
#
#
#
# Elastic Constant Matrix: (Units=GPa)
#
#
# Indices 1 2 3 4 5 6 
#
# 1 158.8094 35.7464 56.3152 1.3711 45.2529 -5.1095
# 2 35.7464 102.5863 14.4623 5.2632 25.2359 -8.6399
# 3 56.3152 14.4623 115.9369 14.6609 30.6546 -4.1318
# 4 1.3711 5.2632 14.6609 36.4777 -5.2521 7.3134
# 5 45.2529 25.2359 30.6546 -5.2521 55.1259 -6.2223
# 6 -5.1095 -8.6399 -4.1318 7.3134 -6.2223 40.0259
#
#
#
# Elastic Compliance Matrix: (Units=1/GPa)
#
#
# Indices 1 2 3 4 5 6 
#
# 1 0.009147 -0.001551 -0.002946 0.000390 -0.005162 -0.000345
# 2 -0.001551 0.011647 0.001015 -0.003158 -0.004667 0.002272
# 3 -0.002946 0.001015 0.012097 -0.005918 -0.005183 0.001367
# 4 0.000390 -0.003158 -0.005918 0.032440 0.006817 -0.006110
# 5 -0.005162 -0.004667 -0.005183 0.006817 0.028151 0.000929
# 6 -0.000345 0.002272 0.001367 -0.006110 0.000929 0.026832
#
#
# Mechanical properties :
#
#
# Convention : Reuss Voigt Hill
#
# Bulk Modulus (GPa) = 38.57119 65.59783 52.08451
# Shear Modulus (GPa) = 36.78574 44.37982 40.58278
#
# Velocity S-wave (km/s) = 3.88649 4.26885 4.08215
# Velocity P-wave (km/s) = 5.99814 7.15772 6.60343
#
# Compressibility (1/GPa) = 0.02592609
#
# Stress axis : x y z
#
# Youngs Moduli (GPa) = 109.32092 85.86060 82.66247
#
# Poissons Ratio (x) = 0.13319 0.24356
# Poissons Ratio (y) = 0.16958 -0.08390
# Poissons Ratio (z) = 0.32211 -0.08714
#
# Static dielectric constant tensor:
#      x y z
#    x 1.875120 -0.024360 -0.042910 
#    y -0.024360 1.957630 -0.015890 
#    z -0.042910 -0.015890 2.031620 
# 
# From -- ./inp_files/18014.got.cif
#   From: 2010.05.17/outbox.cif.g08.bks.cpg/sg2_10_cif.got.tgz:18014.got - 2010.06.03 11:33:40.
