data_PCOD9032056
_publ_section_title
;
Structure prediction by ZEFSAII (Michael W. Deem and Ramdas Pophale) SiO2 
 PCOD9032056
Probable space group: P -1
;
_chemical_formula_sum "Si O2"
_cell_formula_units_Z 16
_cell_length_a 12.541574
_cell_length_b 7.241995
_cell_length_c 10.667775
_cell_angle_alpha 140.040212
_cell_angle_beta 74.509168
_cell_angle_gamma 97.078093
_cell_volume 594.456174
_symmetry_space_group_name_H-M "P -1"
_symmetry_group_IT_number 2
_symmetry_cell_setting 'triclinic'
loop_
_space_group_symop_operation_xyz
x,y,z
-x,-y,-z
loop_
_atom_site_type_symbol
_atom_site_label
_atom_site_fract_x
_atom_site_fract_y
_atom_site_fract_z
Si Si1 0.856380 0.324952 0.806678
Si Si2 0.787590 0.932213 0.024278
Si Si3 0.672374 0.726814 0.711441
Si Si4 0.127182 0.577382 0.645726
Si Si5 0.421561 0.759746 0.597623
Si Si6 0.609875 0.300759 0.927785
Si Si7 0.462108 0.751174 0.338850
Si Si8 0.045328 0.880230 0.578705
O O1 0.744422 0.305323 0.907527
O O2 0.874616 0.135287 0.573668
O O3 0.965903 0.182292 0.772666
O O4 0.847713 0.657990 0.938019
O O5 0.862163 0.192963 0.128801
O O6 0.674384 0.063799 0.202901
O O7 0.745707 0.815874 0.847191
O O8 0.752755 0.610547 0.512224
O O9 0.618798 0.430541 0.612189
O O10 0.582416 0.982006 0.823439
O O11 0.034078 0.367621 0.558214
O O12 0.108922 0.779100 0.632273
O O13 0.500000 0.500000 0.500000
O O14 0.470907 0.959415 0.582957
O O15 0.634486 0.203798 0.709758
O O16 0.567437 0.501160 0.177867
O O17 0.500000 0.500000 0.000000
#
# Coordination Sequence:
#
# PCOD9032056 Si02
#       8
#     2   2   2   2   2   2   2   2
#     4  11  22  41  66 100 130 174 217 277 339 385
#     4  11  24  40  69  98 132 178 220 271 335 395
#     4  11  22  43  65  94 134 173 221 272 325 394
#     4  10  22  44  66  95 129 177 220 274 330 392
#     4  11  24  42  68  99 133 174 224 274 326 394
#     4  11  24  41  66  92 132 177 212 268 335 391
#     4  11  24  42  64  95 131 170 218 272 326 394
#     4  10  22  43  69  92 136 170 219 284 330 391
#
# _framework density 26.915355999999999
#
# number of rings (size 3 to 8) (size 9 to 14) (size 15 to 20)
#    0.000    1.250    2.500    3.000    1.750    6.000 
#    0.000    1.250    0.000    0.000    0.000    0.000 
#    0.000    0.000    0.000    0.000    0.000    0.000 
#
# Total GULP energy -89206.937050 kJ/mol
# GULP energy per Si atom -5575.433566 kJ/mol
# Density = 2.685410 g / cm^3
# Si number density = 26.915356 Si / 1000 Ang^3
#
#
#
# Elastic Constant Matrix: (Units=GPa)
#
#
# Indices 1 2 3 4 5 6 
#
# 1 84.3277 15.5798 41.8610 13.6721 -33.9211 2.8657
# 2 15.5798 111.7763 27.2059 25.7634 -7.2199 -17.5767
# 3 41.8610 27.2059 124.3475 26.6614 -20.5135 -1.2551
# 4 13.6721 25.7634 26.6614 47.7756 -8.3047 -14.7064
# 5 -33.9211 -7.2199 -20.5135 -8.3047 56.8109 -3.4614
# 6 2.8657 -17.5767 -1.2551 -14.7064 -3.4614 44.4827
#
#
#
# Elastic Compliance Matrix: (Units=1/GPa)
#
#
# Indices 1 2 3 4 5 6 
#
# 1 0.017843 -0.000840 -0.004121 -0.001230 0.008799 -0.001320
# 2 -0.000840 0.010733 -0.001177 -0.003976 0.000036 0.002950
# 3 -0.004121 -0.001177 0.010723 -0.004492 0.000523 -0.001341
# 4 -0.001230 -0.003976 -0.004492 0.028719 0.001825 0.008018
# 5 0.008799 0.000036 0.000523 0.001825 0.023431 0.001889
# 6 -0.001320 0.002950 -0.001341 0.008018 0.001889 0.026491
#
#
# Mechanical properties :
#
#
# Convention : Reuss Voigt Hill
#
# Bulk Modulus (GPa) = 37.00610 54.41611 45.71110
# Shear Modulus (GPa) = 35.91334 45.53418 40.72376
#
# Velocity S-wave (km/s) = 3.65678 4.11756 3.89399
# Velocity P-wave (km/s) = 5.62213 6.54730 6.10227
#
# Compressibility (1/GPa) = 0.02702257
#
# Stress axis : x y z
#
# Youngs Moduli (GPa) = 56.04422 93.17338 93.25990
#
# Poissons Ratio (x) = 0.07823 0.38433
# Poissons Ratio (y) = 0.04705 0.10980
# Poissons Ratio (z) = 0.23096 0.10969
#
# Static dielectric constant tensor:
#      x y z
#    x 2.216490 0.219810 0.191500 
#    y 0.219810 2.197420 0.284660 
#    z 0.191500 0.284660 1.791710 
# 
# From -- ./inp_files/448446.got.cif
#   From: 2010.05.17/outbox.cif.g08.bks.cpg/sg2_225_cif.got.tgz:448446.got - 2010.06.03 11:33:40.
