data_PCOD9032730
_publ_section_title
;
Structure prediction by ZEFSAII (Michael W. Deem and Ramdas Pophale) SiO2 
 PCOD9032730
Probable space group: P -1
;
_chemical_formula_sum "Si O2"
_cell_formula_units_Z 10
_cell_length_a 5.467091
_cell_length_b 8.770799
_cell_length_c 17.440500
_cell_angle_alpha 32.628452
_cell_angle_beta 71.664727
_cell_angle_gamma 80.784555
_cell_volume 418.957425
_symmetry_space_group_name_H-M "P -1"
_symmetry_group_IT_number 2
_symmetry_cell_setting 'triclinic'
loop_
_space_group_symop_operation_xyz
x,y,z
-x,-y,-z
loop_
_atom_site_type_symbol
_atom_site_label
_atom_site_fract_x
_atom_site_fract_y
_atom_site_fract_z
Si Si1 0.842640 0.238569 0.231662
Si Si2 0.300992 0.275026 0.063400
Si Si3 0.983391 0.531634 0.248127
Si Si4 0.450329 0.665352 0.512033
Si Si5 0.516984 0.252946 0.805848
O O1 0.944465 0.300185 0.281800
O O2 0.056728 0.135488 0.200440
O O3 0.575099 0.002099 0.353327
O O4 0.803349 0.538581 0.071034
O O5 0.437334 0.030620 0.120335
O O6 0.500000 0.500000 0.000000
O O7 0.845483 0.401217 0.396699
O O8 0.788876 0.745132 0.152857
O O9 0.283814 0.677343 0.172602
O O10 0.500000 0.500000 0.500000
O O11 0.594918 0.522834 0.625525
#
# Coordination Sequence:
#
# PCOD9032730 Si02
#       5
#     2   2   2   2   2
#     4  11  25  43  68 100 138 173 230 274 339 390
#     4  11  26  43  68  98 135 186 220 279 328 409
#     4  10  25  45  70 104 131 177 222 285 328 402
#     4  10  22  43  73  99 134 177 222 279 334 403
#     4  10  25  45  70  97 137 175 227 267 346 387
#
# _framework density 23.868773000000001
#
# number of rings (size 3 to 8) (size 9 to 14) (size 15 to 20)
#    1.200    0.400    0.000    3.000    8.400    7.200 
#    0.000    0.000    0.000    0.000    0.000    0.000 
#    0.000    0.000    0.000    0.000    0.000    0.000 
#
# Total GULP energy -55926.465415 kJ/mol
# GULP energy per Si atom -5592.646541 kJ/mol
# Density = 2.381445 g / cm^3
# Si number density = 23.868773 Si / 1000 Ang^3
#
#
#
# Elastic Constant Matrix: (Units=GPa)
#
#
# Indices 1 2 3 4 5 6 
#
# 1 117.9433 17.7030 14.7642 2.9640 -11.1561 5.3900
# 2 17.7030 94.1987 16.3810 4.2414 0.0846 -7.6449
# 3 14.7642 16.3810 51.5707 8.0391 -12.5475 -25.7608
# 4 2.9640 4.2414 8.0391 39.3746 -1.9043 -1.8705
# 5 -11.1561 0.0846 -12.5475 -1.9043 29.1560 0.1040
# 6 5.3900 -7.6449 -25.7608 -1.8705 0.1040 30.5084
#
#
#
# Elastic Compliance Matrix: (Units=1/GPa)
#
#
# Indices 1 2 3 4 5 6 
#
# 1 0.009796 -0.001467 -0.005278 0.000261 0.001522 -0.006544
# 2 -0.001467 0.011562 -0.003725 -0.000483 -0.002230 -0.000011
# 3 -0.005278 -0.003725 0.046873 -0.006059 0.017628 0.039146
# 4 0.000261 -0.000483 -0.006059 0.026456 -0.000765 -0.003659
# 5 0.001522 -0.002230 0.017628 -0.000765 0.042374 0.013866
# 6 -0.006544 -0.000011 0.039146 -0.003659 0.013866 0.066714
#
#
# Mechanical properties :
#
#
# Convention : Reuss Voigt Hill
#
# Bulk Modulus (GPa) = 21.14586 40.15658 30.65122
# Shear Modulus (GPa) = 20.79178 34.13212 27.46195
#
# Velocity S-wave (km/s) = 2.95462 3.78562 3.39564
# Velocity P-wave (km/s) = 4.52970 5.99736 5.31444
#
# Compressibility (1/GPa) = 0.04729058
#
# Stress axis : x y z
#
# Youngs Moduli (GPa) = 102.08241 86.48802 21.33415
#
# Poissons Ratio (x) = 0.12691 0.11260
# Poissons Ratio (y) = 0.14980 0.07948
# Poissons Ratio (z) = 0.53877 0.32219
#
# Static dielectric constant tensor:
#      x y z
#    x 1.923400 -0.036890 -0.016570 
#    y -0.036890 1.868210 0.074340 
#    z -0.016570 0.074340 1.962400 
# 
# From -- ./inp_files/15770.got.cif
#   From: 2010.05.17/outbox.cif.g08.bks.cpg/sg2_8_cif.got.tgz:15770.got - 2010.06.03 11:33:40.
