data_PCOD9032279
_publ_section_title
;
Structure prediction by ZEFSAII (Michael W. Deem and Ramdas Pophale) SiO2 
 PCOD9032279
Probable space group: P -1
;
_chemical_formula_sum "Si O2"
_cell_formula_units_Z 14
_cell_length_a 9.040943
_cell_length_b 12.374855
_cell_length_c 6.672808
_cell_angle_alpha 52.285919
_cell_angle_beta 72.960670
_cell_angle_gamma 73.868124
_cell_volume 559.837989
_symmetry_space_group_name_H-M "P -1"
_symmetry_group_IT_number 2
_symmetry_cell_setting 'triclinic'
loop_
_space_group_symop_operation_xyz
x,y,z
-x,-y,-z
loop_
_atom_site_type_symbol
_atom_site_label
_atom_site_fract_x
_atom_site_fract_y
_atom_site_fract_z
Si Si1 0.569349 0.683961 0.649267
Si Si2 0.934918 0.080083 0.635371
Si Si3 0.267104 0.062577 0.616387
Si Si4 0.734342 0.351626 0.442862
Si Si5 0.435798 0.773344 0.004349
Si Si6 0.842947 0.579202 0.381770
Si Si7 0.731996 0.863070 0.936658
O O1 0.627053 0.836136 0.432473
O O2 0.414419 0.655016 0.629474
O O3 0.472384 0.323244 0.091032
O O4 0.713975 0.589659 0.598432
O O5 0.870751 0.237798 0.440290
O O6 0.083979 0.075204 0.725433
O O7 0.787293 0.002153 0.844910
O O8 0.000000 0.000000 0.500000
O O9 0.262299 0.115135 0.329686
O O10 0.348677 0.907171 0.775471
O O11 0.685805 0.300479 0.739304
O O12 0.788442 0.497121 0.305008
O O13 0.557378 0.823124 0.059515
O O14 0.000000 0.500000 0.500000
O O15 0.846190 0.734317 0.124489
#
# Coordination Sequence:
#
# PCOD9032279 Si02
#       7
#     2   2   2   2   2   2   2
#     4  11  23  46  72  99 147 183 234 289 346 423
#     4  10  22  43  72 105 140 182 233 285 350 409
#     4  10  22  43  70 111 138 176 240 290 349 415
#     4  12  26  46  74 104 144 187 233 293 345 425
#     4  11  24  43  75 110 138 182 239 286 356 411
#     4  12  28  48  69 103 145 189 238 285 357 417
#     4  10  22  45  72 100 144 182 230 293 346 415
#
# _framework density 25.007237
#
# number of rings (size 3 to 8) (size 9 to 14) (size 15 to 20)
#    0.000    1.143    1.429    5.571    4.000    2.286 
#    2.571    5.714    0.000    0.000    0.000    0.000 
#    0.000    0.000    0.000    0.000    0.000    0.000 
#
# Total GULP energy -78335.306740 kJ/mol
# GULP energy per Si atom -5595.379053 kJ/mol
# Density = 2.495032 g / cm^3
# Si number density = 25.007237 Si / 1000 Ang^3
#
#
#
# Elastic Constant Matrix: (Units=GPa)
#
#
# Indices 1 2 3 4 5 6 
#
# 1 138.1863 37.9641 6.0889 -1.9889 28.5234 8.1050
# 2 37.9641 123.4376 11.0540 0.6928 10.3585 5.6712
# 3 6.0889 11.0540 65.9046 -7.5790 18.3578 8.7649
# 4 -1.9889 0.6928 -7.5790 39.3634 6.7954 -1.0038
# 5 28.5234 10.3585 18.3578 6.7954 41.6186 -8.2201
# 6 8.1050 5.6712 8.7649 -1.0038 -8.2201 48.2134
#
#
#
# Elastic Compliance Matrix: (Units=1/GPa)
#
#
# Indices 1 2 3 4 5 6 
#
# 1 0.009675 -0.002383 0.002449 0.002324 -0.008115 -0.003127
# 2 -0.002383 0.008975 -0.001277 -0.000529 -0.000038 -0.000440
# 3 0.002449 -0.001277 0.020078 0.005995 -0.012360 -0.005894
# 4 0.002324 -0.000529 0.005995 0.028210 -0.009185 -0.002397
# 5 -0.008115 -0.000038 -0.012360 -0.009185 0.038524 0.009993
# 6 -0.003127 -0.000440 -0.005894 -0.002397 0.009993 0.024044
#
#
# Mechanical properties :
#
#
# Convention : Reuss Voigt Hill
#
# Bulk Modulus (GPa) = 27.54364 48.63806 38.09085
# Shear Modulus (GPa) = 34.71501 44.00052 39.35777
#
# Velocity S-wave (km/s) = 3.72990 4.19920 3.97149
# Velocity P-wave (km/s) = 5.43946 6.55766 6.02456
#
# Compressibility (1/GPa) = 0.03630602
#
# Stress axis : x y z
#
# Youngs Moduli (GPa) = 103.35485 111.42031 49.80676
#
# Poissons Ratio (x) = 0.26557 -0.12200
# Poissons Ratio (y) = 0.24634 0.06360
# Poissons Ratio (z) = -0.25316 0.14228
#
# Static dielectric constant tensor:
#      x y z
#    x 1.984560 0.004430 -0.061830 
#    y 0.004430 2.022250 0.075260 
#    z -0.061830 0.075260 2.069260 
# 
# From -- ./inp_files/183725.got.cif
#   From: 2010.05.17/outbox.cif.g08.bks.cpg/sg2_92_cif.got.tgz:183725.got - 2010.06.03 11:33:40.
