data_PCOD9032134
_publ_section_title
;
Structure prediction by ZEFSAII (Michael W. Deem and Ramdas Pophale) SiO2 
 PCOD9032134
Probable space group: P -1
;
_chemical_formula_sum "Si O2"
_cell_formula_units_Z 16
_cell_length_a 10.203691
_cell_length_b 10.839871
_cell_length_c 11.625110
_cell_angle_alpha 51.747413
_cell_angle_beta 40.635641
_cell_angle_gamma 68.657256
_cell_volume 643.337077
_symmetry_space_group_name_H-M "P -1"
_symmetry_group_IT_number 2
_symmetry_cell_setting 'triclinic'
loop_
_space_group_symop_operation_xyz
x,y,z
-x,-y,-z
loop_
_atom_site_type_symbol
_atom_site_label
_atom_site_fract_x
_atom_site_fract_y
_atom_site_fract_z
Si Si1 0.594294 0.889310 0.411627
Si Si2 0.546574 0.624250 0.001062
Si Si3 0.254713 0.448318 0.686690
Si Si4 0.854023 0.400162 0.562174
Si Si5 0.547225 0.973377 0.793648
Si Si6 0.038859 0.859409 0.903363
Si Si7 0.712530 0.409481 0.172669
Si Si8 0.158048 0.948314 0.239945
O O1 0.522559 0.701294 0.599827
O O2 0.500000 0.000000 0.500000
O O3 0.476782 0.909154 0.360365
O O4 0.830448 0.989624 0.199754
O O5 0.369675 0.628485 0.212126
O O6 0.716600 0.560904 0.999474
O O7 0.500000 0.500000 0.000000
O O8 0.567921 0.800429 0.831876
O O9 0.500000 0.500000 0.500000
O O10 0.166335 0.522748 0.592060
O O11 0.203749 0.523676 0.798192
O O12 0.173091 0.255549 0.846098
O O13 0.939435 0.238283 0.586812
O O14 0.000000 0.500000 0.500000
O O15 0.738424 0.016987 0.726072
O O16 0.344408 0.966807 0.011670
O O17 0.168795 0.721008 0.881303
O O18 0.986939 0.937414 0.773286
#
# Coordination Sequence:
#
# PCOD9032134 Si02
#       8
#     2   2   2   2   2   2   2   2
#     4  10  23  43  67  97 138 178 229 281 343 410
#     4  11  23  42  73  99 140 184 227 284 354 410
#     4  12  26  46  72 102 142 187 234 290 349 416
#     4  11  27  46  69 103 139 181 236 293 349 416
#     4  10  22  43  69  98 135 183 226 283 351 412
#     4  11  26  44  70 107 138 183 235 286 349 417
#     4  11  24  46  72 101 141 186 235 287 348 422
#     4  10  24  43  70  97 138 179 230 285 349 414
#
# _framework density 24.870318999999999
#
# number of rings (size 3 to 8) (size 9 to 14) (size 15 to 20)
#    0.000    1.250    1.250    3.375   12.250    0.500 
#    0.000    3.125    0.000    0.000    0.000    0.000 
#    0.000    0.000    0.000    0.000    0.000    0.000 
#
# Total GULP energy -89490.714024 kJ/mol
# GULP energy per Si atom -5593.169626 kJ/mol
# Density = 2.481371 g / cm^3
# Si number density = 24.870319 Si / 1000 Ang^3
#
#
#
# Elastic Constant Matrix: (Units=GPa)
#
#
# Indices 1 2 3 4 5 6 
#
# 1 92.9518 -14.0377 17.9091 7.3508 8.4156 -17.2296
# 2 -14.0377 64.0847 4.1382 0.7205 -10.3292 -7.7907
# 3 17.9091 4.1382 68.5727 -11.3073 -7.3945 -5.4345
# 4 7.3508 0.7205 -11.3073 37.1040 6.4604 3.2976
# 5 8.4156 -10.3292 -7.3945 6.4604 47.2885 -10.1996
# 6 -17.2296 -7.7907 -5.4345 3.2976 -10.1996 47.7112
#
#
#
# Elastic Compliance Matrix: (Units=1/GPa)
#
#
# Indices 1 2 3 4 5 6 
#
# 1 0.013488 0.003827 -0.004114 -0.004381 -0.000482 0.005227
# 2 0.003827 0.017952 -0.001649 -0.002866 0.004514 0.005289
# 3 -0.004114 -0.001649 0.016951 0.005583 0.002321 0.000286
# 4 -0.004381 -0.002866 0.005583 0.030686 -0.004118 -0.004415
# 5 -0.000482 0.004514 0.002321 -0.004118 0.024514 0.006353
# 6 0.005227 0.005289 0.000286 -0.004415 0.006353 0.025406
#
#
# Mechanical properties :
#
#
# Convention : Reuss Voigt Hill
#
# Bulk Modulus (GPa) = 22.46260 26.84760 24.65510
# Shear Modulus (GPa) = 33.85056 40.92738 37.38897
#
# Velocity S-wave (km/s) = 3.69329 4.06104 3.88152
# Velocity P-wave (km/s) = 5.21907 5.72781 5.47935
#
# Compressibility (1/GPa) = 0.04451845
#
# Stress axis : x y z
#
# Youngs Moduli (GPa) = 74.14144 55.70412 58.99501
#
# Poissons Ratio (x) = -0.21319 0.24268
# Poissons Ratio (y) = -0.28375 0.09731
# Poissons Ratio (z) = 0.30499 0.09188
#
# Static dielectric constant tensor:
#      x y z
#    x 1.923710 0.018050 -0.036790 
#    y 0.018050 1.981630 0.145450 
#    z -0.036790 0.145450 2.182990 
# 
# From -- ./inp_files/391957.got.cif
#   From: 2010.05.17/outbox.cif.g08.bks.cpg/sg2_196_cif.got.tgz:391957.got - 2010.06.03 11:33:40.
