data_PCOD9032272
_publ_section_title
;
Structure prediction by ZEFSAII (Michael W. Deem and Ramdas Pophale) SiO2 
 PCOD9032272
Probable space group: P -1
;
_chemical_formula_sum "Si O2"
_cell_formula_units_Z 16
_cell_length_a 10.893412
_cell_length_b 20.398139
_cell_length_c 6.846897
_cell_angle_alpha 46.176358
_cell_angle_beta 142.746273
_cell_angle_gamma 136.852776
_cell_volume 606.474576
_symmetry_space_group_name_H-M "P -1"
_symmetry_group_IT_number 2
_symmetry_cell_setting 'triclinic'
loop_
_space_group_symop_operation_xyz
x,y,z
-x,-y,-z
loop_
_atom_site_type_symbol
_atom_site_label
_atom_site_fract_x
_atom_site_fract_y
_atom_site_fract_z
Si Si1 0.240015 0.297654 0.422905
Si Si2 0.690940 0.497157 0.100715
Si Si3 0.413817 0.001142 0.604937
Si Si4 0.059635 0.564606 0.742804
Si Si5 0.115250 0.073921 0.313882
Si Si6 0.883539 0.733811 0.222492
Si Si7 0.767244 0.166096 0.989264
Si Si8 0.506333 0.734246 0.485032
O O1 0.470805 0.297361 0.638893
O O2 0.191837 0.278720 0.625270
O O3 0.241746 0.401235 0.145457
O O4 0.033843 0.209665 0.233793
O O5 0.715667 0.427389 0.098857
O O6 0.866105 0.499455 0.482260
O O7 0.500000 0.500000 0.000000
O O8 0.209552 0.031479 0.339953
O O9 0.623436 0.081379 0.827481
O O10 0.500000 0.000000 0.500000
O O11 0.315011 0.889879 0.794476
O O12 0.026014 0.668345 0.506080
O O13 0.000000 0.500000 0.000000
O O14 0.342066 0.148946 0.545771
O O15 0.000000 0.000000 0.500000
O O16 0.013477 0.148365 0.942092
O O17 0.652798 0.692969 0.888383
O O18 0.718836 0.265266 0.723238
#
# Coordination Sequence:
#
# PCOD9032272 Si02
#       8
#     2   2   2   2   2   2   2   2
#     4  12  23  46  71 107 147 190 254 304 371 448
#     4  11  26  47  77 111 148 193 242 317 385 441
#     4  10  22  43  70 107 140 194 253 302 369 438
#     4  11  23  49  75 106 150 194 248 308 374 453
#     4   9  19  42  71  99 144 195 239 306 365 440
#     4  10  23  44  71 106 142 195 252 297 369 447
#     4  10  24  43  69 101 147 195 244 309 364 435
#     4   9  22  41  66  97 145 182 247 296 363 426
#
# _framework density 26.381981
#
# number of rings (size 3 to 8) (size 9 to 14) (size 15 to 20)
#    0.750    1.000    2.500    0.750    1.750    3.500 
#    4.500    1.250    0.000    0.000    0.000    0.000 
#    0.000    0.000    0.000    0.000    0.000    0.000 
#
# Total GULP energy -89260.580055 kJ/mol
# GULP energy per Si atom -5578.786253 kJ/mol
# Density = 2.632193 g / cm^3
# Si number density = 26.381981 Si / 1000 Ang^3
#
#
#
# Elastic Constant Matrix: (Units=GPa)
#
#
# Indices 1 2 3 4 5 6 
#
# 1 244.5408 58.4473 85.5853 -19.1026 -25.0234 -18.5217
# 2 58.4473 79.9491 45.5743 -42.3390 -5.0012 -20.8749
# 3 85.5853 45.5743 108.3554 -36.7362 -12.1238 -9.7269
# 4 -19.1026 -42.3390 -36.7362 46.9736 3.5332 -6.9881
# 5 -25.0234 -5.0012 -12.1238 3.5332 52.0312 2.2937
# 6 -18.5217 -20.8749 -9.7269 -6.9881 2.2937 42.6163
#
#
#
# Elastic Compliance Matrix: (Units=1/GPa)
#
#
# Indices 1 2 3 4 5 6 
#
# 1 0.007070 -0.007445 -0.005501 -0.008803 0.002150 -0.003389
# 2 -0.007445 0.049613 0.004335 0.049787 -0.002520 0.030356
# 3 -0.005501 0.004335 0.018081 0.016747 0.000557 0.006576
# 4 -0.008803 0.049787 0.016747 0.081526 -0.002753 0.037900
# 5 0.002150 -0.002520 0.000557 -0.002753 0.020404 -0.001723
# 6 -0.003389 0.030356 0.006576 0.037900 -0.001723 0.044670
#
#
# Mechanical properties :
#
#
# Convention : Reuss Voigt Hill
#
# Bulk Modulus (GPa) = 17.37833 90.22879 53.80356
# Shear Modulus (GPa) = 19.39751 44.54010 31.96881
#
# Velocity S-wave (km/s) = 2.71450 4.11332 3.48482
# Velocity P-wave (km/s) = 4.05292 7.53886 6.05230
#
# Compressibility (1/GPa) = 0.05754293
#
# Stress axis : x y z
#
# Youngs Moduli (GPa) = 141.45192 20.15584 55.30699
#
# Poissons Ratio (x) = 0.15006 0.30424
# Poissons Ratio (y) = 1.05310 -0.23978
# Poissons Ratio (z) = 0.77811 -0.08738
#
# Static dielectric constant tensor:
#      x y z
#    x 2.208500 -0.023530 0.122130 
#    y -0.023530 2.164070 -0.021910 
#    z 0.122130 -0.021910 2.151090 
# 
# From -- ./inp_files/56142.got.cif
#   From: 2010.05.17/outbox.cif.g08.bks.cpg/sg2_29_cif.got.tgz:56142.got - 2010.06.03 11:33:40.
