data_PCOD9032949
_publ_section_title
;
Structure prediction by ZEFSAII (Michael W. Deem and Ramdas Pophale) SiO2 
 PCOD9032949
Probable space group: P -1
;
_chemical_formula_sum "Si O2"
_cell_formula_units_Z 16
_cell_length_a 8.831247
_cell_length_b 8.896415
_cell_length_c 15.074045
_cell_angle_alpha 141.369524
_cell_angle_beta 115.082460
_cell_angle_gamma 64.913132
_cell_volume 660.552505
_symmetry_space_group_name_H-M "P -1"
_symmetry_group_IT_number 2
_symmetry_cell_setting 'triclinic'
loop_
_space_group_symop_operation_xyz
x,y,z
-x,-y,-z
loop_
_atom_site_type_symbol
_atom_site_label
_atom_site_fract_x
_atom_site_fract_y
_atom_site_fract_z
Si Si1 0.154110 0.039603 0.424357
Si Si2 0.355783 0.536163 0.290627
Si Si3 0.900130 0.767075 0.123391
Si Si4 0.665062 0.638421 0.518216
Si Si5 0.930847 0.449885 0.636829
Si Si6 0.563736 0.624076 0.959040
Si Si7 0.629556 0.110835 0.827578
Si Si8 0.016781 0.951237 0.878299
O O1 0.232448 0.226396 0.466204
O O2 0.059042 0.199685 0.553752
O O3 0.303040 0.824969 0.390054
O O4 0.013979 0.905286 0.278827
O O5 0.521763 0.509826 0.379948
O O6 0.189550 0.481198 0.276225
O O7 0.399812 0.396816 0.145427
O O8 0.862192 0.927271 0.098502
O O9 0.722350 0.711561 0.089001
O O10 0.000000 0.500000 0.000000
O O11 0.799292 0.457609 0.526166
O O12 0.579966 0.861230 0.664028
O O13 0.037836 0.662579 0.741241
O O14 0.553510 0.349511 0.862421
O O15 0.409197 0.816603 0.046397
O O16 0.831669 0.064339 0.845855
O O17 0.000000 0.000000 0.000000
#
# Coordination Sequence:
#
# PCOD9032949 Si02
#       8
#     2   2   2   2   2   2   2   2
#     4  12  24  44  71 100 131 183 232 281 330 407
#     4  12  24  44  69 104 133 175 236 285 322 408
#     4  12  21  43  69  95 133 177 224 278 334 395
#     4  11  23  46  68  96 140 179 221 280 351 398
#     4  11  26  45  65 102 141 180 223 275 355 397
#     4  11  23  41  70  98 131 173 228 278 331 398
#     4  10  22  44  64 100 133 175 218 275 348 394
#     4  11  23  43  67  95 139 175 218 281 333 403
#
# _framework density 24.222149000000002
#
# number of rings (size 3 to 8) (size 9 to 14) (size 15 to 20)
#    0.000    0.750    6.250    2.250    1.750    1.000 
#    2.250    3.125    0.000    0.000    0.000    0.000 
#    0.000    0.000    0.000    0.000    0.000    0.000 
#
# Total GULP energy -89525.562311 kJ/mol
# GULP energy per Si atom -5595.347644 kJ/mol
# Density = 2.416702 g / cm^3
# Si number density = 24.222149 Si / 1000 Ang^3
#
#
#
# Elastic Constant Matrix: (Units=GPa)
#
#
# Indices 1 2 3 4 5 6 
#
# 1 64.0592 8.4295 31.4239 15.4630 -5.3147 19.6385
# 2 8.4295 42.9873 8.7723 -2.9731 -9.4306 23.4697
# 3 31.4239 8.7723 98.3891 6.9237 -10.8260 -1.0977
# 4 15.4630 -2.9731 6.9237 29.5324 -3.8055 1.5382
# 5 -5.3147 -9.4306 -10.8260 -3.8055 28.3202 3.0067
# 6 19.6385 23.4697 -1.0977 1.5382 3.0067 32.2967
#
#
#
# Elastic Compliance Matrix: (Units=1/GPa)
#
#
# Indices 1 2 3 4 5 6 
#
# 1 0.030238 0.012216 -0.009508 -0.009928 0.007729 -0.027834
# 2 0.012216 0.056029 -0.007245 0.006756 0.024502 -0.050993
# 3 -0.009508 -0.007245 0.013944 0.000376 -0.000038 0.011506
# 4 -0.009928 0.006756 0.000376 0.040510 0.006118 -0.001359
# 5 0.007729 0.024502 -0.000038 0.006118 0.048629 -0.027325
# 6 -0.027834 -0.050993 0.011506 -0.001359 -0.027325 0.087944
#
#
# Mechanical properties :
#
#
# Convention : Reuss Voigt Hill
#
# Bulk Modulus (GPa) = 10.97257 33.63191 22.30224
# Shear Modulus (GPa) = 15.78543 28.48385 22.13464
#
# Velocity S-wave (km/s) = 2.55560 3.43292 3.02622
# Velocity P-wave (km/s) = 3.63977 5.44318 4.63013
#
# Compressibility (1/GPa) = 0.09113634
#
# Stress axis : x y z
#
# Youngs Moduli (GPa) = 33.07118 17.84791 71.71410
#
# Poissons Ratio (x) = -0.21803 0.68187
# Poissons Ratio (y) = -0.40401 0.51960
# Poissons Ratio (z) = 0.31445 0.12932
#
# Static dielectric constant tensor:
#      x y z
#    x 1.974230 0.026560 -0.012240 
#    y 0.026560 1.947310 -0.029930 
#    z -0.012240 -0.029930 1.917410 
# 
# From -- ./inp_files/398362.got.cif
#   From: 2010.05.17/outbox.cif.g08.bks.cpg/sg2_200_cif.got.tgz:398362.got - 2010.06.03 11:33:40.
