data_PCOD9032987
_publ_section_title
;
Structure prediction by ZEFSAII (Michael W. Deem and Ramdas Pophale) SiO2 
 PCOD9032987
Probable space group: P -1
;
_chemical_formula_sum "Si O2"
_cell_formula_units_Z 14
_cell_length_a 15.146014
_cell_length_b 8.033423
_cell_length_c 8.033444
_cell_angle_alpha 57.531152
_cell_angle_beta 106.261135
_cell_angle_gamma 91.969059
_cell_volume 783.522976
_symmetry_space_group_name_H-M "P -1"
_symmetry_group_IT_number 2
_symmetry_cell_setting 'triclinic'
loop_
_space_group_symop_operation_xyz
x,y,z
-x,-y,-z
loop_
_atom_site_type_symbol
_atom_site_label
_atom_site_fract_x
_atom_site_fract_y
_atom_site_fract_z
Si Si1 0.610192 0.955705 0.565905
Si Si2 0.096529 0.467056 0.968904
Si Si3 0.296083 0.881484 0.790173
Si Si4 0.096528 0.872375 0.563584
Si Si5 0.101061 0.014675 0.115737
Si Si6 0.296381 0.866452 0.162825
Si Si7 0.703916 0.505902 0.822442
O O1 0.645898 0.720370 0.697016
O O2 0.500000 0.000000 0.500000
O O3 0.645901 0.051106 0.366280
O O4 0.656252 0.046169 0.702431
O O5 0.094194 0.644551 0.738745
O O6 0.109521 0.247096 0.017452
O O7 0.186512 0.476998 0.126809
O O8 0.000000 0.500000 0.000000
O O9 0.186511 0.940301 0.663505
O O10 0.319718 0.955310 0.947397
O O11 0.310689 0.641575 0.952254
O O12 0.109521 0.907929 0.356616
O O13 0.000000 0.000000 0.500000
O O14 0.185515 0.915362 0.100875
O O15 0.000000 0.000000 0.000000
O O16 0.319719 0.627688 0.275018
#
# Coordination Sequence:
#
# PCOD9032987 Si02
#       7
#     2   2   2   2   2   2   2
#     4  12  24  44  71  95 128 172 210 268 330 376
#     4  11  20  36  63  89 129 172 207 264 314 368
#     4   9  22  44  62  94 132 161 215 271 309 377
#     4  11  20  36  63  89 129 172 207 264 314 368
#     4  12  22  38  60  94 133 165 216 256 314 391
#     4  10  22  44  64  93 131 165 213 265 315 383
#     4   9  22  44  62  94 132 161 215 271 309 377
#
# _framework density 17.868013000000001
#
# number of rings (size 3 to 8) (size 9 to 14) (size 15 to 20)
#    0.857    0.571    4.286    1.714    0.000    2.286 
#    5.143    0.000    0.000    0.000    0.000    0.000 
#    0.000    0.000    0.000    0.000    0.000    0.000 
#
# Total GULP energy -78035.113150 kJ/mol
# GULP energy per Si atom -5573.936654 kJ/mol
# Density = 1.782734 g / cm^3
# Si number density = 17.868013 Si / 1000 Ang^3
#
#
#
# Elastic Constant Matrix: (Units=GPa)
#
#
# Indices 1 2 3 4 5 6 
#
# 1 128.2201 43.9879 55.5614 -1.9070 1.2382 -13.1208
# 2 43.9879 123.9663 44.9620 -3.4084 4.1201 -10.3446
# 3 55.5614 44.9620 95.4055 0.7743 -14.7239 -11.9634
# 4 -1.9070 -3.4084 0.7743 39.0749 -5.6664 1.6652
# 5 1.2382 4.1201 -14.7239 -5.6664 29.2339 0.7364
# 6 -13.1208 -10.3446 -11.9634 1.6652 0.7364 18.7268
#
#
#
# Elastic Compliance Matrix: (Units=1/GPa)
#
#
# Indices 1 2 3 4 5 6 
#
# 1 0.011262 -0.001433 -0.005977 -0.000094 -0.003390 0.003423
# 2 -0.001433 0.010475 -0.004403 0.000317 -0.003624 0.002084
# 3 -0.005977 -0.004403 0.018141 0.000211 0.009936 0.004560
# 4 -0.000094 0.000317 0.000211 0.026471 0.005255 -0.002317
# 5 -0.003390 -0.003624 0.009936 0.005255 0.040887 -0.000104
# 6 0.003423 0.002084 0.004560 -0.002317 -0.000104 0.060072
#
#
# Mechanical properties :
#
#
# Convention : Reuss Voigt Hill
#
# Bulk Modulus (GPa) = 61.52545 70.73495 66.13020
# Shear Modulus (GPa) = 25.46467 30.94584 28.20525
#
# Velocity S-wave (km/s) = 3.77922 4.16614 3.97739
# Velocity P-wave (km/s) = 7.31788 7.92564 7.62781
#
# Compressibility (1/GPa) = 0.01625344
#
# Stress axis : x y z
#
# Youngs Moduli (GPa) = 88.79371 95.46493 55.12492
#
# Poissons Ratio (x) = 0.13678 0.32946
# Poissons Ratio (y) = 0.12723 0.24270
# Poissons Ratio (z) = 0.53069 0.42030
#
# Static dielectric constant tensor:
#      x y z
#    x 1.601490 0.007960 0.005260 
#    y 0.007960 1.612250 0.009870 
#    z 0.005260 0.009870 1.603150 
# 
# From -- ./inp_files/195952.got.cif
#   From: 2010.05.17/outbox.cif.g08.bks.cpg/sg2_98_cif.got.tgz:195952.got - 2010.06.03 11:33:40.
