data_PCOD9032603
_publ_section_title
;
Structure prediction by ZEFSAII (Michael W. Deem and Ramdas Pophale) SiO2 
 PCOD9032603
Probable space group: P -1
;
_chemical_formula_sum "Si O2"
_cell_formula_units_Z 13
_cell_length_a 14.171101
_cell_length_b 8.362917
_cell_length_c 5.286144
_cell_angle_alpha 109.631616
_cell_angle_beta 76.633890
_cell_angle_gamma 126.466178
_cell_volume 474.116498
_symmetry_space_group_name_H-M "P -1"
_symmetry_group_IT_number 2
_symmetry_cell_setting 'triclinic'
loop_
_space_group_symop_operation_xyz
x,y,z
-x,-y,-z
loop_
_atom_site_type_symbol
_atom_site_label
_atom_site_fract_x
_atom_site_fract_y
_atom_site_fract_z
Si Si1 0.946703 0.362095 0.710147
Si Si2 0.286091 0.734382 0.401067
Si Si3 0.539017 0.233025 0.073149
Si Si4 0.650040 0.861013 0.212296
Si Si5 0.852366 0.661998 0.402915
Si Si6 0.500000 0.500000 0.500000
Si Si7 0.860594 0.862028 0.000133
O O1 0.808868 0.262691 0.719986
O O2 0.000000 0.500000 0.500000
O O3 0.006273 0.235999 0.611180
O O4 0.000000 0.500000 0.000000
O O5 0.214254 0.571785 0.582699
O O6 0.363564 0.961137 0.589579
O O7 0.362792 0.683397 0.157888
O O8 0.566316 0.372316 0.373261
O O9 0.425935 0.232094 0.046138
O O10 0.500000 0.000000 0.000000
O O11 0.596477 0.674241 0.337873
O O12 0.787996 0.961145 0.146358
O O13 0.828260 0.699170 0.156801
O O14 0.823097 0.765888 0.694904
O O15 0.000000 0.000000 0.000000
#
# Coordination Sequence:
#
# PCOD9032603 Si02
#       7
#     2   2   2   2   2   1   2
#     4  10  22  43  72 116 154 205 270 339 408 494
#     4  11  25  49  77 118 158 218 282 346 420 501
#     4  12  28  51  81 118 161 218 284 345 425 498
#     4  12  29  49  79 117 164 218 281 349 423 505
#     4  11  25  47  78 112 158 214 275 335 416 502
#     4  12  28  52  78 114 170 208 284 342 420 494
#     4  12  28  50  77 117 164 215 269 344 426 497
#
# _framework density 27.419422999999998
#
# number of rings (size 3 to 8) (size 9 to 14) (size 15 to 20)
#    0.000    0.615    1.538    5.077    4.308    6.154 
#    0.000    0.000    0.000    0.000    0.000    0.000 
#    0.000    0.000    0.000    0.000    0.000    0.000 
#
# Total GULP energy -72681.526504 kJ/mol
# GULP energy per Si atom -5590.886654 kJ/mol
# Density = 2.735702 g / cm^3
# Si number density = 27.419423 Si / 1000 Ang^3
#
#
#
# Elastic Constant Matrix: (Units=GPa)
#
#
# Indices 1 2 3 4 5 6 
#
# 1 164.5773 7.1837 36.4528 -12.3254 -17.0165 8.7925
# 2 7.1837 129.0226 24.8174 -16.0111 3.2404 -8.4492
# 3 36.4528 24.8174 121.2312 -14.4455 -9.8224 -6.4245
# 4 -12.3254 -16.0111 -14.4455 36.5332 -6.1419 -7.2757
# 5 -17.0165 3.2404 -9.8224 -6.1419 59.6384 10.9047
# 6 8.7925 -8.4492 -6.4245 -7.2757 10.9047 34.0171
#
#
#
# Elastic Compliance Matrix: (Units=1/GPa)
#
#
# Indices 1 2 3 4 5 6 
#
# 1 0.006979 -0.000079 -0.001859 0.001455 0.002316 -0.002606
# 2 -0.000079 0.008674 -0.001214 0.003752 -0.000860 0.003024
# 3 -0.001859 -0.001214 0.009660 0.003308 0.001032 0.002380
# 4 0.001455 0.003752 0.003308 0.032737 0.002795 0.007286
# 5 0.002316 -0.000860 0.001032 0.002795 0.019053 -0.006127
# 6 -0.002606 0.003024 0.002380 0.007286 -0.006127 0.034794
#
#
# Mechanical properties :
#
#
# Convention : Reuss Voigt Hill
#
# Bulk Modulus (GPa) = 52.61062 61.30432 56.95747
# Shear Modulus (GPa) = 40.14834 49.12958 44.63896
#
# Velocity S-wave (km/s) = 3.83068 4.23753 4.03923
# Velocity P-wave (km/s) = 6.22852 6.80799 6.52469
#
# Compressibility (1/GPa) = 0.01900757
#
# Stress axis : x y z
#
# Youngs Moduli (GPa) = 143.28508 115.28994 103.51698
#
# Poissons Ratio (x) = 0.00913 0.19248
# Poissons Ratio (y) = 0.01134 0.12569
# Poissons Ratio (z) = 0.26643 0.13998
#
# Static dielectric constant tensor:
#      x y z
#    x 2.362960 0.233670 0.556630 
#    y 0.233670 2.346860 0.769310 
#    z 0.556630 0.769310 4.434330 
# 
# From -- ./inp_files/87947.got.cif
#   From: 2010.05.17/outbox.cif.g08.bks.cpg/sg2_44_cif.got.tgz:87947.got - 2010.06.03 11:33:40.
