data_PCOD9032694
_publ_section_title
;
Structure prediction by ZEFSAII (Michael W. Deem and Ramdas Pophale) SiO2 
 PCOD9032694
Probable space group: P -1
;
_chemical_formula_sum "Si O2"
_cell_formula_units_Z 14
_cell_length_a 27.712593
_cell_length_b 14.554746
_cell_length_c 11.377620
_cell_angle_alpha 149.179652
_cell_angle_beta 158.178839
_cell_angle_gamma 20.119382
_cell_volume 583.766594
_symmetry_space_group_name_H-M "P -1"
_symmetry_group_IT_number 2
_symmetry_cell_setting 'triclinic'
loop_
_space_group_symop_operation_xyz
x,y,z
-x,-y,-z
loop_
_atom_site_type_symbol
_atom_site_label
_atom_site_fract_x
_atom_site_fract_y
_atom_site_fract_z
Si Si1 0.731602 0.523252 0.318673
Si Si2 0.814308 0.282029 0.833213
Si Si3 0.354628 0.737641 0.784178
Si Si4 0.013570 0.940543 0.330745
Si Si5 0.340896 0.276428 0.872943
Si Si6 0.729145 0.798260 0.811609
Si Si7 0.021837 0.599464 0.849921
O O1 0.899427 0.220235 0.316544
O O2 0.625069 0.728652 0.194673
O O3 0.811717 0.591951 0.664932
O O4 0.579745 0.551001 0.073931
O O5 0.714284 0.234856 0.473802
O O6 0.678517 0.511285 0.875328
O O7 0.885269 0.377870 0.018890
O O8 0.000000 0.000000 0.000000
O O9 0.243409 0.689596 0.544205
O O10 0.265029 0.993450 0.938011
O O11 0.000000 0.000000 0.500000
O O12 0.917239 0.855984 0.978048
O O13 0.134404 0.383806 0.527803
O O14 0.500000 0.000000 0.000000
O O15 0.500000 0.000000 0.500000
O O16 0.820766 0.647895 0.978171
#
# Coordination Sequence:
#
# PCOD9032694 Si02
#       7
#     2   2   2   2   2   2   2
#     4  11  25  46  69 104 145 180 235 292 361 424
#     4  11  25  47  71  97 142 194 237 287 356 419
#     4  10  25  43  71  98 141 182 232 288 353 414
#     4  11  23  43  70 107 140 183 225 285 367 423
#     4  12  29  44  72 106 138 191 242 295 348 421
#     4  10  22  43  73 106 135 180 231 292 363 416
#     4  11  24  45  72 103 141 179 240 296 351 424
#
# _framework density 23.982187
#
# number of rings (size 3 to 8) (size 9 to 14) (size 15 to 20)
#    0.000    1.143    1.429    3.857   10.000    2.286 
#    2.571    0.000    0.000    0.000    0.000    0.000 
#    0.000    0.000    0.000    0.000    0.000    0.000 
#
# Total GULP energy -78156.618181 kJ/mol
# GULP energy per Si atom -5582.615584 kJ/mol
# Density = 2.392760 g / cm^3
# Si number density = 23.982187 Si / 1000 Ang^3
#
#
#
# Elastic Constant Matrix: (Units=GPa)
#
#
# Indices 1 2 3 4 5 6 
#
# 1 74.2008 4.3234 23.8471 -14.9162 -18.5314 7.8625
# 2 4.3234 74.6843 25.2641 -9.7182 -20.6673 3.7657
# 3 23.8471 25.2641 143.1459 -1.3115 -20.6453 -4.0154
# 4 -14.9162 -9.7182 -1.3115 47.7283 -4.5374 -19.9601
# 5 -18.5314 -20.6673 -20.6453 -4.5374 50.2441 -2.2783
# 6 7.8625 3.7657 -4.0154 -19.9601 -2.2783 40.6365
#
#
#
# Elastic Compliance Matrix: (Units=1/GPa)
#
#
# Indices 1 2 3 4 5 6 
#
# 1 0.017101 0.002544 -0.002237 0.006362 0.006998 -0.000248
# 2 0.002544 0.016669 -0.002238 0.005105 0.007366 0.000662
# 3 -0.002237 -0.002238 0.008023 -0.000183 0.001599 0.001433
# 4 0.006362 0.005105 -0.000183 0.030420 0.007737 0.013654
# 5 0.006998 0.007366 0.001599 0.007737 0.027025 0.003437
# 6 -0.000248 0.000662 0.001433 0.013654 0.003437 0.031636
#
#
# Mechanical properties :
#
#
# Convention : Reuss Voigt Hill
#
# Bulk Modulus (GPa) = 26.36491 44.32226 35.34359
# Shear Modulus (GPa) = 33.92598 43.62820 38.77709
#
# Velocity S-wave (km/s) = 3.76524 4.26983 4.02545
# Velocity P-wave (km/s) = 5.46993 6.54446 6.03117
#
# Compressibility (1/GPa) = 0.03792920
#
# Stress axis : x y z
#
# Youngs Moduli (GPa) = 58.47736 59.99246 124.64588
#
# Poissons Ratio (x) = -0.15260 0.27886
# Poissons Ratio (y) = -0.14875 0.27895
# Poissons Ratio (z) = 0.13083 0.13426
#
# Static dielectric constant tensor:
#      x y z
#    x 2.025210 -0.012370 -0.014340 
#    y -0.012370 1.963260 0.020000 
#    z -0.014340 0.020000 2.086910 
# 
# From -- ./inp_files/477699.got.cif
#   From: 2010.05.17/outbox.cif.g08.bks.cpg/sg2_239_cif.got.tgz:477699.got - 2010.06.03 11:33:40.
