data_PCOD9032146
_publ_section_title
;
Structure prediction by ZEFSAII (Michael W. Deem and Ramdas Pophale) SiO2 
 PCOD9032146
Probable space group: P -1
;
_chemical_formula_sum "Si O2"
_cell_formula_units_Z 14
_cell_length_a 5.362569
_cell_length_b 16.821233
_cell_length_c 14.352447
_cell_angle_alpha 149.764791
_cell_angle_beta 113.690388
_cell_angle_gamma 63.285435
_cell_volume 582.081422
_symmetry_space_group_name_H-M "P -1"
_symmetry_group_IT_number 2
_symmetry_cell_setting 'triclinic'
loop_
_space_group_symop_operation_xyz
x,y,z
-x,-y,-z
loop_
_atom_site_type_symbol
_atom_site_label
_atom_site_fract_x
_atom_site_fract_y
_atom_site_fract_z
Si Si1 0.808152 0.794290 0.577337
Si Si2 0.391255 0.686469 0.281160
Si Si3 0.199396 0.665497 0.033788
Si Si4 0.307566 0.403240 0.476045
Si Si5 0.226021 0.520646 0.259806
Si Si6 0.827563 0.146510 0.960525
Si Si7 0.442258 0.170158 0.109365
O O1 0.552826 0.806452 0.478515
O O2 0.714664 0.753463 0.624089
O O3 0.030181 0.633715 0.418747
O O4 0.919300 0.955725 0.756906
O O5 0.240718 0.739569 0.215334
O O6 0.200648 0.629256 0.272798
O O7 0.616414 0.518143 0.125542
O O8 0.291016 0.761913 0.059348
O O9 0.890230 0.636147 0.940288
O O10 0.531065 0.500790 0.331226
O O11 0.486378 0.321937 0.331787
O O12 0.000000 0.500000 0.500000
O O13 0.627074 0.154874 0.028348
O O14 0.108181 0.207718 0.084273
O O15 0.500000 0.000000 0.000000
#
# Coordination Sequence:
#
# PCOD9032146 Si02
#       7
#     2   2   2   2   2   2   2
#     4  10  23  44  67 103 136 187 235 294 353 432
#     4   9  21  43  72  97 141 181 232 293 367 415
#     4  10  23  43  68 105 136 181 234 298 359 430
#     4  11  26  42  72 103 142 187 246 297 351 421
#     4  10  22  43  69  98 141 184 237 292 360 426
#     4  12  28  45  72 105 143 189 243 292 357 433
#     4  12  27  49  71 100 147 196 237 291 363 424
#
# _framework density 24.051618999999999
#
# number of rings (size 3 to 8) (size 9 to 14) (size 15 to 20)
#    0.000    1.429    1.429    1.714   12.000    1.143 
#    0.000    1.429    0.000    0.000    0.000    0.000 
#    0.000    0.000    0.000    0.000    0.000    0.000 
#
# Total GULP energy -78337.353648 kJ/mol
# GULP energy per Si atom -5595.525261 kJ/mol
# Density = 2.399688 g / cm^3
# Si number density = 24.051619 Si / 1000 Ang^3
#
#
#
# Elastic Constant Matrix: (Units=GPa)
#
#
# Indices 1 2 3 4 5 6 
#
# 1 102.3305 47.7911 13.8221 -26.3403 0.3948 9.6305
# 2 47.7911 139.1768 53.1478 -38.0064 7.7964 11.4117
# 3 13.8221 53.1478 90.0267 -24.6111 10.0139 -1.8016
# 4 -26.3403 -38.0064 -24.6111 34.8575 9.4577 -8.1611
# 5 0.3948 7.7964 10.0139 9.4577 34.0570 -1.4540
# 6 9.6305 11.4117 -1.8016 -8.1611 -1.4540 31.2571
#
#
#
# Elastic Compliance Matrix: (Units=1/GPa)
#
#
# Indices 1 2 3 4 5 6 
#
# 1 0.013183 -0.002676 0.002436 0.009404 -0.002895 -0.000624
# 2 -0.002676 0.012689 -0.003899 0.009906 -0.004549 -0.001658
# 3 0.002436 -0.003899 0.017628 0.013274 -0.007801 0.004792
# 4 0.009404 0.009906 0.013274 0.064791 -0.023843 0.010059
# 5 -0.002895 -0.004549 -0.007801 -0.023843 0.039254 -0.002296
# 6 -0.000624 -0.001658 0.004792 0.010059 -0.002296 0.035586
#
#
# Mechanical properties :
#
#
# Convention : Reuss Voigt Hill
#
# Bulk Modulus (GPa) = 28.39147 62.33955 45.36551
# Shear Modulus (GPa) = 24.61218 34.48584 29.54901
#
# Velocity S-wave (km/s) = 3.20239 3.79070 3.50889
# Velocity P-wave (km/s) = 5.05012 6.71822 5.94299
#
# Compressibility (1/GPa) = 0.03522184
#
# Stress axis : x y z
#
# Youngs Moduli (GPa) = 75.85306 78.80888 56.72754
#
# Poissons Ratio (x) = 0.21089 -0.13818
# Poissons Ratio (y) = 0.20298 0.22119
# Poissons Ratio (z) = -0.18477 0.30729
#
# Static dielectric constant tensor:
#      x y z
#    x 2.006920 -0.047000 -0.002420 
#    y -0.047000 1.938920 -0.022040 
#    z -0.002420 -0.022040 1.897730 
# 
# From -- ./inp_files/77284.got.cif
#   From: 2010.05.17/outbox.cif.g08.bks.cpg/sg2_39_cif.got.tgz:77284.got - 2010.06.03 11:33:40.
