data_PCOD9032493
_publ_section_title
;
Structure prediction by ZEFSAII (Michael W. Deem and Ramdas Pophale) SiO2 
 PCOD9032493
Probable space group: P -1
;
_chemical_formula_sum "Si O2"
_cell_formula_units_Z 12
_cell_length_a 11.393802
_cell_length_b 9.221446
_cell_length_c 9.333785
_cell_angle_alpha 119.158959
_cell_angle_beta 118.161774
_cell_angle_gamma 39.693895
_cell_volume 538.623739
_symmetry_space_group_name_H-M "P -1"
_symmetry_group_IT_number 2
_symmetry_cell_setting 'triclinic'
loop_
_space_group_symop_operation_xyz
x,y,z
-x,-y,-z
loop_
_atom_site_type_symbol
_atom_site_label
_atom_site_fract_x
_atom_site_fract_y
_atom_site_fract_z
Si Si1 0.470800 0.417803 0.300896
Si Si2 0.769762 0.389475 0.139457
Si Si3 0.881506 0.956432 0.341326
Si Si4 0.080160 0.244246 0.435556
Si Si5 0.640450 0.203991 0.807076
Si Si6 0.121741 0.556813 0.072033
O O1 0.500000 0.500000 0.500000
O O2 0.395366 0.619947 0.244766
O O3 0.322188 0.397774 0.192120
O O4 0.675899 0.173536 0.272572
O O5 0.567205 0.646502 0.181072
O O6 0.905390 0.286418 0.302438
O O7 0.748355 0.216021 0.995854
O O8 0.851818 0.420913 0.067889
O O9 0.866439 0.840430 0.410339
O O10 0.001718 0.797069 0.200229
O O11 0.000000 0.000000 0.500000
O O12 0.000000 0.500000 0.500000
O O13 0.246838 0.041541 0.325096
O O14 0.000000 0.500000 0.000000
#
# Coordination Sequence:
#
# PCOD9032493 Si02
#       6
#     2   2   2   2   2   2
#     4  11  21  42  72 103 128 179 238 284 332 403
#     4  10  23  43  67  97 134 181 227 279 343 405
#     4  12  23  42  74 102 133 182 238 286 336 416
#     4  12  25  41  66 103 141 175 217 287 356 405
#     4  10  22  43  71  97 130 178 236 281 332 415
#     4  11  25  44  66 101 142 181 227 283 351 412
#
# _framework density 22.279002999999999
#
# number of rings (size 3 to 8) (size 9 to 14) (size 15 to 20)
#    0.000    1.000    3.333    3.500    0.000    5.333 
#    0.000    3.333    0.000    0.000    0.000    0.000 
#    0.000    0.000    0.000    0.000    0.000    0.000 
#
# Total GULP energy -67045.684874 kJ/mol
# GULP energy per Si atom -5587.140406 kJ/mol
# Density = 2.222830 g / cm^3
# Si number density = 22.279003 Si / 1000 Ang^3
#
#
#
# Elastic Constant Matrix: (Units=GPa)
#
#
# Indices 1 2 3 4 5 6 
#
# 1 122.8498 43.7347 42.5776 13.5781 -3.2974 -24.9746
# 2 43.7347 120.9719 45.7129 21.4549 -2.7767 -24.9058
# 3 42.5776 45.7129 87.1155 -10.3492 4.5440 -3.5138
# 4 13.5781 21.4549 -10.3492 38.1499 -11.8380 -1.2697
# 5 -3.2974 -2.7767 4.5440 -11.8380 35.8385 -4.2671
# 6 -24.9746 -24.9058 -3.5138 -1.2697 -4.2671 42.7023
#
#
#
# Elastic Compliance Matrix: (Units=1/GPa)
#
#
# Indices 1 2 3 4 5 6 
#
# 1 0.012429 0.000684 -0.006932 -0.006187 0.000865 0.007000
# 2 0.000684 0.015150 -0.009260 -0.011095 -0.000288 0.008116
# 3 -0.006932 -0.009260 0.020996 0.012929 -0.000628 -0.007406
# 4 -0.006187 -0.011095 0.012929 0.040923 0.009634 -0.006846
# 5 0.000865 -0.000288 -0.000628 0.009634 0.031667 0.003737
# 6 0.007000 0.008116 -0.007406 -0.006846 0.003737 0.031806
#
#
# Mechanical properties :
#
#
# Convention : Reuss Voigt Hill
#
# Bulk Modulus (GPa) = 56.94589 66.10974 61.52782
# Shear Modulus (GPa) = 26.33793 36.59892 31.46842
#
# Velocity S-wave (km/s) = 3.44202 4.05749 3.76236
# Velocity P-wave (km/s) = 6.43526 7.18950 6.82281
#
# Compressibility (1/GPa) = 0.01756053
#
# Stress axis : x y z
#
# Youngs Moduli (GPa) = 80.45699 66.00556 47.62810
#
# Poissons Ratio (x) = -0.04517 0.33014
# Poissons Ratio (y) = -0.05506 0.44104
# Poissons Ratio (z) = 0.55770 0.61122
#
# Static dielectric constant tensor:
#      x y z
#    x 1.892350 -0.029920 -0.010850 
#    y -0.029920 1.958010 0.007430 
#    z -0.010850 0.007430 1.862730 
# 
# From -- ./inp_files/242395.got.cif
#   From: 2010.05.17/outbox.cif.g08.bks.cpg/sg2_122_cif.got.tgz:242395.got - 2010.06.03 11:33:40.
