data_PCOD9032972
_publ_section_title
;
Structure prediction by ZEFSAII (Michael W. Deem and Ramdas Pophale) SiO2 
 PCOD9032972
Probable space group: P -1
;
_chemical_formula_sum "Si O2"
_cell_formula_units_Z 16
_cell_length_a 12.767385
_cell_length_b 13.218016
_cell_length_c 8.816146
_cell_angle_alpha 82.311203
_cell_angle_beta 102.151552
_cell_angle_gamma 32.545503
_cell_volume 630.732588
_symmetry_space_group_name_H-M "P -1"
_symmetry_group_IT_number 2
_symmetry_cell_setting 'triclinic'
loop_
_space_group_symop_operation_xyz
x,y,z
-x,-y,-z
loop_
_atom_site_type_symbol
_atom_site_label
_atom_site_fract_x
_atom_site_fract_y
_atom_site_fract_z
Si Si1 0.798847 0.799406 0.491435
Si Si2 0.410958 0.908022 0.888691
Si Si3 0.123190 0.857284 0.220512
Si Si4 0.819369 0.875352 0.778699
Si Si5 0.360654 0.718169 0.844182
Si Si6 0.901413 0.360377 0.797544
Si Si7 0.321623 0.300247 0.708904
Si Si8 0.605143 0.232634 0.494632
O O1 0.746099 0.736941 0.409150
O O2 0.087169 0.574532 0.590004
O O3 0.616054 0.033233 0.303769
O O4 0.773337 0.822217 0.660753
O O5 0.431276 0.767446 0.932067
O O6 0.623314 0.773934 0.082735
O O7 0.150553 0.170907 0.824170
O O8 0.145993 0.718247 0.232959
O O9 0.362058 0.715052 0.368937
O O10 0.925278 0.046807 0.253055
O O11 0.000000 0.000000 0.000000
O O12 0.591066 0.100310 0.772677
O O13 0.828353 0.962840 0.648414
O O14 0.044549 0.668752 0.002449
O O15 0.390535 0.712863 0.675459
O O16 0.500000 0.500000 0.000000
O O17 0.643672 0.622100 0.608664
#
# Coordination Sequence:
#
# PCOD9032972 Si02
#       8
#     2   2   2   2   2   2   2   2
#     4  11  22  42  70  97 129 172 217 266 336 386
#     4  10  22  44  64  91 134 171 214 268 325 386
#     4  11  22  42  61  88 126 170 215 268 321 377
#     4  11  23  41  66  95 134 167 216 269 326 391
#     4  11  25  41  63  94 129 169 221 266 316 386
#     4  10  23  40  60  91 125 173 217 264 321 383
#     4  10  24  42  67 101 131 167 216 273 326 394
#     4  12  23  41  64  90 130 171 217 265 324 384
#
# _framework density 25.367329000000002
#
# number of rings (size 3 to 8) (size 9 to 14) (size 15 to 20)
#    0.000    1.250    2.500    3.000    1.750    0.000 
#    4.500    0.000    0.000    8.250    0.000    0.000 
#    0.000    0.000    0.000    0.000    0.000    0.000 
#
# Total GULP energy -89404.946197 kJ/mol
# GULP energy per Si atom -5587.809137 kJ/mol
# Density = 2.530959 g / cm^3
# Si number density = 25.367329 Si / 1000 Ang^3
#
#
#
# Elastic Constant Matrix: (Units=GPa)
#
#
# Indices 1 2 3 4 5 6 
#
# 1 41.9532 3.5221 5.9332 -0.1765 5.9415 5.9317
# 2 3.5221 83.6336 22.6883 6.0616 4.5002 -3.6887
# 3 5.9332 22.6883 184.9732 18.2244 13.6763 4.0977
# 4 -0.1765 6.0616 18.2244 36.8477 9.4164 2.4662
# 5 5.9415 4.5002 13.6763 9.4164 36.9468 4.4857
# 6 5.9317 -3.6887 4.0977 2.4662 4.4857 36.3969
#
#
#
# Elastic Compliance Matrix: (Units=1/GPa)
#
#
# Indices 1 2 3 4 5 6 
#
# 1 0.025059 -0.001015 -0.000492 0.001731 -0.003705 -0.003792
# 2 -0.001015 0.012584 -0.001365 -0.001330 -0.000741 0.001776
# 3 -0.000492 -0.001365 0.005926 -0.002349 -0.001300 -0.000406
# 4 0.001731 -0.001330 -0.002349 0.030362 -0.006819 -0.001369
# 5 -0.003705 -0.000741 -0.001300 -0.006819 0.030286 -0.002596
# 6 -0.003792 0.001776 -0.000406 -0.001369 -0.002596 0.028731
#
#
# Mechanical properties :
#
#
# Convention : Reuss Voigt Hill
#
# Bulk Modulus (GPa) = 26.43681 41.64969 34.04325
# Shear Modulus (GPa) = 33.04677 40.59937 36.82307
#
# Velocity S-wave (km/s) = 3.61325 4.00491 3.81411
# Velocity P-wave (km/s) = 5.27747 6.15143 5.73113
#
# Compressibility (1/GPa) = 0.03782605
#
# Stress axis : x y z
#
# Youngs Moduli (GPa) = 39.90577 79.46330 168.74999
#
# Poissons Ratio (x) = 0.08067 0.08300
# Poissons Ratio (y) = 0.04051 0.23027
# Poissons Ratio (z) = 0.01963 0.10843
#
# Static dielectric constant tensor:
#      x y z
#    x 2.060770 -0.049640 -0.001890 
#    y -0.049640 2.263560 -0.091100 
#    z -0.001890 -0.091100 2.092870 
# 
# From -- ./inp_files/46962.got.cif
#   From: 2010.05.17/outbox.cif.g08.bks.cpg/sg2_24_cif.got.tgz:46962.got - 2010.06.03 11:33:40.
