data_PCOD9032516
_publ_section_title
;
Structure prediction by ZEFSAII (Michael W. Deem and Ramdas Pophale) SiO2 
 PCOD9032516
Probable space group: P -1
;
_chemical_formula_sum "Si O2"
_cell_formula_units_Z 16
_cell_length_a 5.085671
_cell_length_b 13.984022
_cell_length_c 15.279258
_cell_angle_alpha 38.401726
_cell_angle_beta 89.829966
_cell_angle_gamma 105.826479
_cell_volume 605.204147
_symmetry_space_group_name_H-M "P -1"
_symmetry_group_IT_number 2
_symmetry_cell_setting 'triclinic'
loop_
_space_group_symop_operation_xyz
x,y,z
-x,-y,-z
loop_
_atom_site_type_symbol
_atom_site_label
_atom_site_fract_x
_atom_site_fract_y
_atom_site_fract_z
Si Si1 0.172173 0.307486 0.044049
Si Si2 0.317825 0.528420 0.203622
Si Si3 0.459338 0.272940 0.468253
Si Si4 0.869299 0.137004 0.828889
Si Si5 0.755424 0.160478 0.002118
Si Si6 0.205844 0.673540 0.754560
Si Si7 0.516678 0.319134 0.626257
Si Si8 0.050014 0.930808 0.642332
O O1 0.413109 0.342019 0.945815
O O2 0.190162 0.497924 0.921492
O O3 0.877122 0.173919 0.090634
O O4 0.207045 0.220695 0.194651
O O5 0.395786 0.437599 0.346375
O O6 0.157015 0.637746 0.155878
O O7 0.124190 0.383829 0.238862
O O8 0.622449 0.284181 0.367946
O O9 0.599583 0.282832 0.554439
O O10 0.172800 0.095709 0.585631
O O11 0.901205 0.122093 0.944180
O O12 0.744740 0.280611 0.712056
O O13 0.178477 0.188469 0.744247
O O14 0.588291 0.967365 0.916147
O O15 0.269376 0.841522 0.690333
O O16 0.500000 0.500000 0.500000
O O17 0.000000 0.000000 0.500000
#
# Coordination Sequence:
#
# PCOD9032516 Si02
#       8
#     2   2   2   2   2   2   2   2
#     4  10  24  44  73 100 140 192 244 294 370 438
#     4  10  22  43  71  98 138 192 241 293 360 439
#     4  11  25  44  71  99 148 190 241 301 377 435
#     4  11  27  44  72 109 145 192 252 308 363 438
#     4  10  24  44  72  98 142 191 244 303 356 436
#     4  10  23  46  67  99 140 195 242 294 363 442
#     4  12  28  46  74 110 152 191 245 304 379 440
#     4  12  24  45  70 106 143 185 238 310 368 443
#
# _framework density 26.437363000000001
#
# number of rings (size 3 to 8) (size 9 to 14) (size 15 to 20)
#    0.000    1.250    1.250    2.625   12.250    1.500 
#    9.000    0.000    0.000    0.000    0.000    0.000 
#    0.000    0.000    0.000    0.000    0.000    0.000 
#
# Total GULP energy -89446.713871 kJ/mol
# GULP energy per Si atom -5590.419617 kJ/mol
# Density = 2.637719 g / cm^3
# Si number density = 26.437363 Si / 1000 Ang^3
#
#
#
# Elastic Constant Matrix: (Units=GPa)
#
#
# Indices 1 2 3 4 5 6 
#
# 1 68.4094 8.2568 26.9613 5.6141 4.2849 -6.0092
# 2 8.2568 86.0401 33.8705 2.5949 8.3150 -15.2830
# 3 26.9613 33.8705 163.9464 0.6149 19.8480 -2.0869
# 4 5.6141 2.5949 0.6149 25.2746 3.6045 8.6351
# 5 4.2849 8.3150 19.8480 3.6045 39.3882 -6.0122
# 6 -6.0092 -15.2830 -2.0869 8.6351 -6.0122 33.8780
#
#
#
# Elastic Compliance Matrix: (Units=1/GPa)
#
#
# Indices 1 2 3 4 5 6 
#
# 1 0.016440 0.000389 -0.002791 -0.005213 0.000680 0.004369
# 2 0.000389 0.014129 -0.002862 -0.003926 -0.000118 0.007246
# 3 -0.002791 -0.002862 0.007528 0.002063 -0.003450 -0.002460
# 4 -0.005213 -0.003926 0.002063 0.047378 -0.006388 -0.015778
# 5 0.000680 -0.000118 -0.003450 -0.006388 0.028665 0.006570
# 6 0.004369 0.007246 -0.002460 -0.015778 0.006570 0.038598
#
#
# Mechanical properties :
#
#
# Convention : Reuss Voigt Hill
#
# Bulk Modulus (GPa) = 36.27270 50.73034 43.50152
# Shear Modulus (GPa) = 28.99298 36.32865 32.66081
#
# Velocity S-wave (km/s) = 3.31519 3.71096 3.51864
# Velocity P-wave (km/s) = 5.32954 6.13125 5.74440
#
# Compressibility (1/GPa) = 0.02756894
#
# Stress axis : x y z
#
# Youngs Moduli (GPa) = 60.82732 70.77854 132.83066
#
# Poissons Ratio (x) = -0.02751 0.37073
# Poissons Ratio (y) = -0.02364 0.38011
# Poissons Ratio (z) = 0.16977 0.20254
#
# Static dielectric constant tensor:
#      x y z
#    x 2.151480 0.000700 -0.002760 
#    y 0.000700 2.078130 -0.068830 
#    z -0.002760 -0.068830 2.061330 
# 
# From -- ./inp_files/90693.got.cif
#   From: 2010.05.17/outbox.cif.g08.bks.cpg/sg2_46_cif.got.tgz:90693.got - 2010.06.03 11:33:40.
