data_PCOD9032947
_publ_section_title
;
Structure prediction by ZEFSAII (Michael W. Deem and Ramdas Pophale) SiO2 
 PCOD9032947
Probable space group: P -1
;
_chemical_formula_sum "Si O2"
_cell_formula_units_Z 14
_cell_length_a 5.173884
_cell_length_b 15.345341
_cell_length_c 9.478555
_cell_angle_alpha 63.099739
_cell_angle_beta 65.933607
_cell_angle_gamma 90.236015
_cell_volume 596.115304
_symmetry_space_group_name_H-M "P -1"
_symmetry_group_IT_number 2
_symmetry_cell_setting 'triclinic'
loop_
_space_group_symop_operation_xyz
x,y,z
-x,-y,-z
loop_
_atom_site_type_symbol
_atom_site_label
_atom_site_fract_x
_atom_site_fract_y
_atom_site_fract_z
Si Si1 0.958568 0.891870 0.723105
Si Si2 0.648083 0.054875 0.640354
Si Si3 0.167980 0.772045 0.323977
Si Si4 0.910919 0.095658 0.020439
Si Si5 0.747718 0.438352 0.502959
Si Si6 0.344367 0.274114 0.296427
Si Si7 0.946069 0.400124 0.175120
O O1 0.737111 0.823230 0.713679
O O2 0.266139 0.902709 0.565100
O O3 0.910613 0.852356 0.921983
O O4 0.915061 0.005459 0.661396
O O5 0.629566 0.144934 0.682048
O O6 0.383471 0.962411 0.794336
O O7 0.306831 0.676363 0.345479
O O8 0.864965 0.742882 0.504402
O O9 0.122727 0.826302 0.149301
O O10 0.000000 0.000000 0.000000
O O11 0.500000 0.500000 0.500000
O O12 0.852914 0.428055 0.329164
O O13 0.000000 0.500000 0.500000
O O14 0.677602 0.316520 0.232479
O O15 0.227880 0.356049 0.169275
O O16 0.000000 0.500000 0.000000
#
# Coordination Sequence:
#
# PCOD9032947 Si02
#       7
#     2   2   2   2   2   2   2
#     4  10  23  42  67  98 144 192 237 286 350 429
#     4  10  22  44  63  99 147 188 241 287 351 428
#     4  10  23  44  68 103 140 192 233 294 365 421
#     4  12  24  39  66 105 144 193 238 295 350 425
#     4  11  25  48  73 102 138 183 235 296 364 425
#     4  10  24  44  71 102 138 191 231 288 362 424
#     4  11  24  48  73 101 137 178 240 302 357 419
#
# _framework density 23.485389999999999
#
# number of rings (size 3 to 8) (size 9 to 14) (size 15 to 20)
#    0.000    1.429    1.429    3.000    2.000    5.714 
#    2.571    0.000    0.000    0.000    0.000    0.000 
#    0.000    0.000    0.000    0.000    0.000    0.000 
#
# Total GULP energy -78276.041097 kJ/mol
# GULP energy per Si atom -5591.145793 kJ/mol
# Density = 2.343194 g / cm^3
# Si number density = 23.485390 Si / 1000 Ang^3
#
#
#
# Elastic Constant Matrix: (Units=GPa)
#
#
# Indices 1 2 3 4 5 6 
#
# 1 95.4273 55.6902 50.0046 2.6239 29.5610 -2.3664
# 2 55.6902 165.4228 55.4392 -2.9749 28.2182 -12.4228
# 3 50.0046 55.4392 133.2274 -8.8840 44.9320 2.0961
# 4 2.6239 -2.9749 -8.8840 40.3518 -1.3882 8.0423
# 5 29.5610 28.2182 44.9320 -1.3882 40.1705 -5.9192
# 6 -2.3664 -12.4228 2.0961 8.0423 -5.9192 48.2695
#
#
#
# Elastic Compliance Matrix: (Units=1/GPa)
#
#
# Indices 1 2 3 4 5 6 
#
# 1 0.015873 -0.003477 -0.002357 -0.001936 -0.006746 -0.000519
# 2 -0.003477 0.008108 -0.001821 0.000018 -0.000821 0.001892
# 3 -0.002357 -0.001821 0.013689 0.003249 -0.012668 -0.003273
# 4 -0.001936 0.000018 0.003249 0.026532 -0.002028 -0.004901
# 5 -0.006746 -0.000821 -0.012668 -0.002028 0.045406 0.005914
# 6 -0.000519 0.001892 -0.003273 -0.004901 0.005914 0.022862
#
#
# Mechanical properties :
#
#
# Convention : Reuss Voigt Hill
#
# Bulk Modulus (GPa) = 44.71967 79.59394 62.15680
# Shear Modulus (GPa) = 32.20964 41.28793 36.74879
#
# Velocity S-wave (km/s) = 3.70736 4.19743 3.95998
# Velocity P-wave (km/s) = 6.11628 7.57995 6.88711
#
# Compressibility (1/GPa) = 0.02236153
#
# Stress axis : x y z
#
# Youngs Moduli (GPa) = 62.99858 123.33032 73.05280
#
# Poissons Ratio (x) = 0.42883 0.17217
# Poissons Ratio (y) = 0.21905 0.13300
# Poissons Ratio (z) = 0.14847 0.22454
#
# Static dielectric constant tensor:
#      x y z
#    x 2.024530 -0.023460 -0.015530 
#    y -0.023460 1.895400 -0.014300 
#    z -0.015530 -0.014300 1.915310 
# 
# From -- ./inp_files/132986.got.cif
#   From: 2010.05.17/outbox.cif.g08.bks.cpg/sg2_67_cif.got.tgz:132986.got - 2010.06.03 11:33:40.
