data_PCOD9032484
_publ_section_title
;
Structure prediction by ZEFSAII (Michael W. Deem and Ramdas Pophale) SiO2 
 PCOD9032484
Probable space group: P -1
;
_chemical_formula_sum "Si O2"
_cell_formula_units_Z 14
_cell_length_a 9.525885
_cell_length_b 11.126595
_cell_length_c 9.935646
_cell_angle_alpha 73.234553
_cell_angle_beta 44.753665
_cell_angle_gamma 60.694011
_cell_volume 643.538724
_symmetry_space_group_name_H-M "P -1"
_symmetry_group_IT_number 2
_symmetry_cell_setting 'triclinic'
loop_
_space_group_symop_operation_xyz
x,y,z
-x,-y,-z
loop_
_atom_site_type_symbol
_atom_site_label
_atom_site_fract_x
_atom_site_fract_y
_atom_site_fract_z
Si Si1 0.037531 0.396620 0.386438
Si Si2 0.600616 0.870567 0.368969
Si Si3 0.963450 0.120998 0.880524
Si Si4 0.937016 0.144630 0.591839
Si Si5 0.378261 0.957851 0.212561
Si Si6 0.608783 0.573846 0.501934
Si Si7 0.492949 0.374914 0.130506
O O1 0.299730 0.337750 0.211785
O O2 0.000000 0.500000 0.500000
O O3 0.956354 0.287489 0.536338
O O4 0.873895 0.479447 0.351404
O O5 0.516155 0.934920 0.260519
O O6 0.549748 0.736074 0.462026
O O7 0.861118 0.818443 0.223681
O O8 0.500000 0.000000 0.500000
O O9 0.006272 0.069724 0.713250
O O10 0.719261 0.238928 0.013984
O O11 0.000000 0.000000 0.000000
O O12 0.686210 0.169567 0.729568
O O13 0.125653 0.067540 0.376801
O O14 0.500000 0.000000 0.000000
O O15 0.500000 0.500000 0.500000
O O16 0.544501 0.578654 0.702099
O O17 0.500000 0.500000 0.000000
#
# Coordination Sequence:
#
# PCOD9032484 Si02
#       7
#     2   2   2   2   2   2   2
#     4  10  22  43  71  95 136 189 235 284 352 428
#     4  12  24  45  72 101 141 187 235 298 366 424
#     4  12  24  40  72 106 142 184 248 302 359 430
#     4  11  24  45  69 101 146 183 236 296 357 429
#     4  11  26  45  71 103 141 190 235 289 364 436
#     4  11  24  46  70 102 145 186 232 304 370 417
#     4  11  24  43  71 103 137 193 250 288 349 452
#
# _framework density 21.754712999999999
#
# number of rings (size 3 to 8) (size 9 to 14) (size 15 to 20)
#    0.000    0.857    1.429    6.857    4.000    0.000 
#    2.571    1.429    0.000    0.000    0.000    0.000 
#    0.000    0.000    0.000    0.000    0.000    0.000 
#
# Total GULP energy -78160.454252 kJ/mol
# GULP energy per Si atom -5582.889589 kJ/mol
# Density = 2.170520 g / cm^3
# Si number density = 21.754713 Si / 1000 Ang^3
#
#
#
# Elastic Constant Matrix: (Units=GPa)
#
#
# Indices 1 2 3 4 5 6 
#
# 1 190.9030 54.1109 73.7531 -0.8307 -11.8965 0.7006
# 2 54.1109 119.0761 64.9252 -15.5909 -6.4413 -4.4266
# 3 73.7531 64.9252 145.7171 -12.6507 0.4417 -1.2936
# 4 -0.8307 -15.5909 -12.6507 31.6633 -13.7187 -9.3252
# 5 -11.8965 -6.4413 0.4417 -13.7187 46.6177 -1.5242
# 6 0.7006 -4.4266 -1.2936 -9.3252 -1.5242 40.5222
#
#
#
# Elastic Compliance Matrix: (Units=1/GPa)
#
#
# Indices 1 2 3 4 5 6 
#
# 1 0.006901 -0.001755 -0.002858 -0.001581 0.001057 -0.000726
# 2 -0.001755 0.012655 -0.004133 0.006925 0.003476 0.003005
# 3 -0.002858 -0.004133 0.010304 0.001707 -0.000886 0.000286
# 4 -0.001581 0.006925 0.001707 0.045279 0.014248 0.011794
# 5 0.001057 0.003476 -0.000886 0.014248 0.026553 0.004611
# 6 -0.000726 0.003005 0.000286 0.011794 0.004611 0.027915
#
#
# Mechanical properties :
#
#
# Convention : Reuss Voigt Hill
#
# Bulk Modulus (GPa) = 80.84686 93.47495 87.16091
# Shear Modulus (GPa) = 33.06343 41.28780 37.17562
#
# Velocity S-wave (km/s) = 3.90273 4.36119 4.13831
# Velocity P-wave (km/s) = 7.58630 8.27170 7.93640
#
# Compressibility (1/GPa) = 0.01236906
#
# Stress axis : x y z
#
# Youngs Moduli (GPa) = 144.89632 79.01730 97.04662
#
# Poissons Ratio (x) = 0.13864 0.27738
# Poissons Ratio (y) = 0.25423 0.40112
# Poissons Ratio (z) = 0.41415 0.32660
#
# Static dielectric constant tensor:
#      x y z
#    x 1.952110 0.129940 -0.082930 
#    y 0.129940 1.983060 0.018810 
#    z -0.082930 0.018810 1.910460 
# 
# From -- ./inp_files/185632.got.cif
#   From: 2010.05.17/outbox.cif.g08.bks.cpg/sg2_93_cif.got.tgz:185632.got - 2010.06.03 11:33:40.
