data_PCOD9032907
_publ_section_title
;
Structure prediction by ZEFSAII (Michael W. Deem and Ramdas Pophale) SiO2 
 PCOD9032907
Probable space group: P -1
;
_chemical_formula_sum "Si O2"
_cell_formula_units_Z 12
_cell_length_a 11.906458
_cell_length_b 9.165689
_cell_length_c 9.925906
_cell_angle_alpha 108.036323
_cell_angle_beta 129.372532
_cell_angle_gamma 39.316450
_cell_volume 492.937747
_symmetry_space_group_name_H-M "P -1"
_symmetry_group_IT_number 2
_symmetry_cell_setting 'triclinic'
loop_
_space_group_symop_operation_xyz
x,y,z
-x,-y,-z
loop_
_atom_site_type_symbol
_atom_site_label
_atom_site_fract_x
_atom_site_fract_y
_atom_site_fract_z
Si Si1 0.946497 0.984142 0.804086
Si Si2 0.259287 0.278579 0.703398
Si Si3 0.566833 0.564890 0.449775
Si Si4 0.048137 0.680675 0.160255
Si Si5 0.335766 0.251832 0.073768
Si Si6 0.671610 0.453672 0.210958
O O1 0.682051 0.146340 0.667038
O O2 0.995905 0.103608 0.797127
O O3 0.091138 0.748269 0.753925
O O4 0.000000 0.000000 0.000000
O O5 0.389412 0.317171 0.748640
O O6 0.000000 0.500000 0.500000
O O7 0.408609 0.995260 0.738034
O O8 0.298707 0.282584 0.894358
O O9 0.500000 0.500000 0.500000
O O10 0.779988 0.497857 0.635384
O O11 0.649730 0.409539 0.333358
O O12 0.213685 0.505340 0.109393
O O13 0.825082 0.758640 0.005924
O O14 0.500000 0.500000 0.000000
#
# Coordination Sequence:
#
# PCOD9032907 Si02
#       6
#     2   2   2   2   2   2
#     4  11  22  40  68 101 136 174 227 291 346 412
#     4  11  25  44  68 102 136 182 237 280 352 419
#     4  10  24  41  64 101 135 176 229 280 353 416
#     4  10  22  44  62  96 133 180 228 277 354 407
#     4  10  23  44  68  92 141 184 224 290 340 423
#     4  12  24  42  70 103 138 180 231 291 353 415
#
# _framework density 24.343847
#
# number of rings (size 3 to 8) (size 9 to 14) (size 15 to 20)
#    0.000    1.333    1.667    3.000    4.667    2.667 
#    0.000    2.500    0.000    0.000    0.000    0.000 
#    0.000    0.000    0.000    0.000    0.000    0.000 
#
# Total GULP energy -66837.081842 kJ/mol
# GULP energy per Si atom -5569.756820 kJ/mol
# Density = 2.428844 g / cm^3
# Si number density = 24.343847 Si / 1000 Ang^3
#
#
#
# Elastic Constant Matrix: (Units=GPa)
#
#
# Indices 1 2 3 4 5 6 
#
# 1 56.3838 20.6180 24.2776 -6.1088 -10.9275 -9.7799
# 2 20.6180 82.4258 21.2530 -7.6708 -10.2741 -14.5307
# 3 24.2776 21.2530 135.5261 -7.4154 2.7974 -28.4065
# 4 -6.1088 -7.6708 -7.4154 40.2390 -11.1865 -2.3347
# 5 -10.9275 -10.2741 2.7974 -11.1865 45.1931 9.3479
# 6 -9.7799 -14.5307 -28.4065 -2.3347 9.3479 46.1532
#
#
#
# Elastic Compliance Matrix: (Units=1/GPa)
#
#
# Indices 1 2 3 4 5 6 
#
# 1 0.021956 -0.003542 -0.003150 0.003634 0.005458 0.000677
# 2 -0.003542 0.014348 -0.000918 0.002915 0.002600 0.002822
# 3 -0.003150 -0.000918 0.009284 0.000678 -0.002472 0.005293
# 4 0.003634 0.002915 0.000678 0.028460 0.008152 0.001893
# 5 0.005458 0.002600 -0.002472 0.008152 0.027168 -0.004637
# 6 0.000677 0.002822 0.005293 0.001893 -0.004637 0.026992
#
#
# Mechanical properties :
#
#
# Convention : Reuss Voigt Hill
#
# Bulk Modulus (GPa) = 32.92864 45.18142 39.05503
# Shear Modulus (GPa) = 32.56272 40.19621 36.37947
#
# Velocity S-wave (km/s) = 3.66131 4.06789 3.86994
# Velocity P-wave (km/s) = 5.60620 6.37680 6.00387
#
# Compressibility (1/GPa) = 0.03036870
#
# Stress axis : x y z
#
# Youngs Moduli (GPa) = 45.54574 69.69743 107.70859
#
# Poissons Ratio (x) = 0.24687 0.33923
# Poissons Ratio (y) = 0.16133 0.09888
# Poissons Ratio (z) = 0.14345 0.06399
#
# Static dielectric constant tensor:
#      x y z
#    x 2.038940 -0.061110 -0.080350 
#    y -0.061110 2.077070 -0.094950 
#    z -0.080350 -0.094950 2.079320 
# 
# From -- ./inp_files/191089.got.cif
#   From: 2010.05.17/outbox.cif.g08.bks.cpg/sg2_96_cif.got.tgz:191089.got - 2010.06.03 11:33:40.
