data_PCOD9032661
_publ_section_title
;
Structure prediction by ZEFSAII (Michael W. Deem and Ramdas Pophale) SiO2 
 PCOD9032661
Probable space group: P -1
;
_chemical_formula_sum "Si O2"
_cell_formula_units_Z 12
_cell_length_a 4.960451
_cell_length_b 20.721530
_cell_length_c 11.148092
_cell_angle_alpha 31.642359
_cell_angle_beta 56.207793
_cell_angle_gamma 64.721816
_cell_volume 496.745850
_symmetry_space_group_name_H-M "P -1"
_symmetry_group_IT_number 2
_symmetry_cell_setting 'triclinic'
loop_
_space_group_symop_operation_xyz
x,y,z
-x,-y,-z
loop_
_atom_site_type_symbol
_atom_site_label
_atom_site_fract_x
_atom_site_fract_y
_atom_site_fract_z
Si Si1 0.219682 0.252540 0.638301
Si Si2 0.648665 0.044674 0.519562
Si Si3 0.446535 0.854795 0.062872
Si Si4 0.683417 0.382515 0.677867
Si Si5 0.142752 0.620102 0.848650
Si Si6 0.427953 0.674867 0.932597
O O1 0.309131 0.157655 0.869243
O O2 0.548945 0.305716 0.409202
O O3 0.041481 0.363717 0.566848
O O4 0.926178 0.184110 0.740973
O O5 0.669292 0.190988 0.287088
O O6 0.500000 0.000000 0.500000
O O7 0.000000 0.000000 0.500000
O O8 0.475368 0.978933 0.782679
O O9 0.508459 0.743427 0.130791
O O10 0.500000 0.500000 0.500000
O O11 0.697702 0.371874 0.833444
O O12 0.275295 0.591374 0.993079
O O13 0.819703 0.689776 0.823072
O O14 0.000000 0.500000 0.000000
#
# Coordination Sequence:
#
# PCOD9032661 Si02
#       6
#     2   2   2   2   2   2
#     4  10  24  48  69 101 149 195 234 298 378 423
#     4  12  22  44  74 112 153 182 240 314 370 431
#     4  10  22  43  73 100 147 187 229 300 376 413
#     4  10  25  44  74 108 146 184 252 300 370 432
#     4  12  29  52  70 103 156 200 244 304 367 443
#     4  12  27  46  78 113 141 197 254 298 370 441
#
# _framework density 24.157222000000001
#
# number of rings (size 3 to 8) (size 9 to 14) (size 15 to 20)
#    1.000    0.000    1.667    4.500    4.667    2.000 
#    0.000    5.833    0.000    0.000    0.000    0.000 
#    0.000    0.000    0.000    0.000    0.000    0.000 
#
# Total GULP energy -67165.347634 kJ/mol
# GULP energy per Si atom -5597.112303 kJ/mol
# Density = 2.410224 g / cm^3
# Si number density = 24.157222 Si / 1000 Ang^3
#
#
#
# Elastic Constant Matrix: (Units=GPa)
#
#
# Indices 1 2 3 4 5 6 
#
# 1 156.5382 31.2289 20.2498 16.2049 17.1762 -16.2043
# 2 31.2289 57.9064 18.3681 21.7518 6.1625 -12.7544
# 3 20.2498 18.3681 116.0511 10.6641 23.2137 -4.7284
# 4 16.2049 21.7518 10.6641 35.0592 -0.4906 -3.2267
# 5 17.1762 6.1625 23.2137 -0.4906 42.7419 7.8068
# 6 -16.2043 -12.7544 -4.7284 -3.2267 7.8068 49.3393
#
#
#
# Elastic Compliance Matrix: (Units=1/GPa)
#
#
# Indices 1 2 3 4 5 6 
#
# 1 0.007671 -0.002660 -0.000051 -0.001720 -0.003094 0.002204
# 2 -0.002660 0.025888 -0.001555 -0.013920 -0.002933 0.005223
# 3 -0.000051 -0.001555 0.010232 -0.002082 -0.005575 0.001308
# 4 -0.001720 -0.013920 -0.002082 0.038415 0.004745 -0.002601
# 5 -0.003094 -0.002933 -0.005575 0.004745 0.029358 -0.006644
# 6 0.002204 0.005223 0.001308 -0.002601 -0.006644 0.023348
#
#
# Mechanical properties :
#
#
# Convention : Reuss Voigt Hill
#
# Bulk Modulus (GPa) = 28.36061 52.24327 40.30194
# Shear Modulus (GPa) = 32.21708 42.80465 37.51087
#
# Velocity S-wave (km/s) = 3.65587 4.21398 3.94481
# Velocity P-wave (km/s) = 5.43930 6.73425 6.12112
#
# Compressibility (1/GPa) = 0.03526017
#
# Stress axis : x y z
#
# Youngs Moduli (GPa) = 130.35819 38.62733 97.73624
#
# Poissons Ratio (x) = 0.10275 0.00496
# Poissons Ratio (y) = 0.34675 0.15195
# Poissons Ratio (z) = 0.00662 0.06006
#
# Static dielectric constant tensor:
#      x y z
#    x 1.896180 0.006420 -0.054740 
#    y 0.006420 2.033100 -0.013160 
#    z -0.054740 -0.013160 2.115890 
# 
# From -- ./inp_files/370221.got.cif
#   From: 2010.05.17/outbox.cif.g08.bks.cpg/sg2_186_cif.got.tgz:370221.got - 2010.06.03 11:33:40.
