data_PCOD9032209
_publ_section_title
;
Structure prediction by ZEFSAII (Michael W. Deem and Ramdas Pophale) SiO2 
 PCOD9032209
Probable space group: P -1
;
_chemical_formula_sum "Si O2"
_cell_formula_units_Z 15
_cell_length_a 11.277605
_cell_length_b 4.907850
_cell_length_c 12.175963
_cell_angle_alpha 98.922456
_cell_angle_beta 74.500102
_cell_angle_gamma 119.643063
_cell_volume 564.210199
_symmetry_space_group_name_H-M "P -1"
_symmetry_group_IT_number 2
_symmetry_cell_setting 'triclinic'
loop_
_space_group_symop_operation_xyz
x,y,z
-x,-y,-z
loop_
_atom_site_type_symbol
_atom_site_label
_atom_site_fract_x
_atom_site_fract_y
_atom_site_fract_z
Si Si1 0.426400 0.988936 0.824536
Si Si2 0.042475 0.786444 0.772721
Si Si3 0.206701 0.074272 0.401098
Si Si4 0.736587 0.639249 0.063858
Si Si5 0.480752 0.191420 0.422652
Si Si6 0.000000 0.500000 0.000000
Si Si7 0.268293 0.438735 0.183976
Si Si8 0.098721 0.327478 0.623226
O O1 0.371572 0.729905 0.917307
O O2 0.425349 0.793469 0.704146
O O3 0.335232 0.173698 0.847001
O O4 0.584473 0.252187 0.827568
O O5 0.876055 0.540722 0.781301
O O6 0.134051 0.666069 0.676147
O O7 0.059256 0.735551 0.893336
O O8 0.069752 0.101475 0.722319
O O9 0.323026 0.989516 0.404559
O O10 0.255159 0.240011 0.282394
O O11 0.202359 0.300981 0.510882
O O12 0.048509 0.806263 0.413387
O O13 0.744236 0.736408 0.939652
O O14 0.879664 0.623765 0.055581
O O15 0.500000 0.500000 0.500000
O O16 0.500000 0.000000 0.500000
#
# Coordination Sequence:
#
# PCOD9032209 Si02
#       8
#     2   2   2   2   2   1   2   2
#     4  12  25  45  70 100 134 178 231 283 337 404
#     4  10  23  41  65  97 135 175 221 273 333 397
#     4  10  23  44  69  96 133 172 224 282 334 394
#     4  11  26  44  70 102 139 178 225 279 341 411
#     4  12  27  45  66  96 135 179 222 274 339 403
#     4  10  26  46  68 100 142 182 218 274 342 408
#     4  10  22  43  70 101 136 176 225 284 341 395
#     4  10  23  41  68  99 126 173 228 279 330 388
#
# _framework density 26.585836
#
# number of rings (size 3 to 8) (size 9 to 14) (size 15 to 20)
#    0.000    1.333    0.000    4.000    0.000   21.867 
#    0.000    0.000    0.000    0.000    0.000    0.000 
#    0.000    0.000    0.000    0.000    0.000    0.000 
#
# Total GULP energy -83724.085887 kJ/mol
# GULP energy per Si atom -5581.605726 kJ/mol
# Density = 2.652533 g / cm^3
# Si number density = 26.585836 Si / 1000 Ang^3
#
#
#
# Elastic Constant Matrix: (Units=GPa)
#
#
# Indices 1 2 3 4 5 6 
#
# 1 164.0102 50.7085 59.0298 -2.3832 -6.9394 -6.0314
# 2 50.7085 84.1124 22.5889 4.0533 -4.6436 -22.1825
# 3 59.0298 22.5889 151.2203 14.5219 5.8658 -17.2274
# 4 -2.3832 4.0533 14.5219 54.0222 -15.3456 -7.5208
# 5 -6.9394 -4.6436 5.8658 -15.3456 41.5512 2.0886
# 6 -6.0314 -22.1825 -17.2274 -7.5208 2.0886 34.7123
#
#
#
# Elastic Compliance Matrix: (Units=1/GPa)
#
#
# Indices 1 2 3 4 5 6 
#
# 1 0.008941 -0.005313 -0.003329 0.001871 0.002222 -0.003223
# 2 -0.005313 0.017772 0.000634 -0.000129 0.000424 0.010695
# 3 -0.003329 0.000634 0.008622 -0.002835 -0.002934 0.003668
# 4 0.001871 -0.000129 -0.002835 0.022294 0.008774 0.003138
# 5 0.002222 0.000424 -0.002934 0.008774 0.028170 -0.000593
# 6 -0.003223 0.010695 0.003668 0.003138 -0.000593 0.037619
#
#
# Mechanical properties :
#
#
# Convention : Reuss Voigt Hill
#
# Bulk Modulus (GPa) = 51.76941 73.77746 62.77343
# Shear Modulus (GPa) = 34.27592 43.85816 39.06704
#
# Velocity S-wave (km/s) = 3.59451 4.06603 3.83752
# Velocity P-wave (km/s) = 6.06153 7.06077 6.58015
#
# Compressibility (1/GPa) = 0.01931643
#
# Stress axis : x y z
#
# Youngs Moduli (GPa) = 111.84398 56.26781 115.98582
#
# Poissons Ratio (x) = 0.29898 0.38617
# Poissons Ratio (y) = 0.59428 -0.07350
# Poissons Ratio (z) = 0.37238 -0.03566
#
# Static dielectric constant tensor:
#      x y z
#    x 1.997150 -0.121260 -0.138340 
#    y -0.121260 1.702860 -0.273270 
#    z -0.138340 -0.273270 1.764360 
# 
# From -- ./inp_files/410486.got.cif
#   From: 2010.05.17/outbox.cif.g08.bks.cpg/sg2_206_cif.got.tgz:410486.got - 2010.06.03 11:33:40.
