data_PCOD9032440
_publ_section_title
;
Structure prediction by ZEFSAII (Michael W. Deem and Ramdas Pophale) SiO2 
 PCOD9032440
Probable space group: P -1
;
_chemical_formula_sum "Si O2"
_cell_formula_units_Z 13
_cell_length_a 12.924531
_cell_length_b 8.872866
_cell_length_c 5.343524
_cell_angle_alpha 85.463711
_cell_angle_beta 81.517053
_cell_angle_gamma 56.422663
_cell_volume 504.946151
_symmetry_space_group_name_H-M "P -1"
_symmetry_group_IT_number 2
_symmetry_cell_setting 'triclinic'
loop_
_space_group_symop_operation_xyz
x,y,z
-x,-y,-z
loop_
_atom_site_type_symbol
_atom_site_label
_atom_site_fract_x
_atom_site_fract_y
_atom_site_fract_z
Si Si1 0.069788 0.110033 0.466633
Si Si2 0.553366 0.116115 0.254641
Si Si3 0.585225 0.284442 0.729342
Si Si4 0.705938 0.727630 0.465227
Si Si5 0.313198 0.583804 0.694003
Si Si6 0.141308 0.948921 0.960639
Si Si7 0.000000 0.500000 0.500000
O O1 0.984314 0.326748 0.475408
O O2 0.151380 0.037059 0.196541
O O3 0.149301 0.045643 0.700163
O O4 0.000000 0.000000 0.500000
O O5 0.571522 0.186954 0.504503
O O6 0.403459 0.203741 0.293306
O O7 0.593930 0.182475 0.993531
O O8 0.639073 0.900896 0.281853
O O9 0.453303 0.476588 0.764238
O O10 0.684536 0.328263 0.583879
O O11 0.717479 0.563502 0.328485
O O12 0.845345 0.648678 0.526830
O O13 0.224575 0.738093 0.899073
O O14 0.000000 0.000000 0.000000
#
# Coordination Sequence:
#
# PCOD9032440 Si02
#       7
#     2   2   2   2   2   2   1
#     4  10  24  46  72 106 150 202 254 313 387 461
#     4  10  24  49  76 114 156 207 258 337 398 474
#     4  10  24  45  79 114 150 207 271 324 399 468
#     4  10  24  46  78 115 160 204 269 328 404 471
#     4  10  23  44  78 117 153 205 270 333 388 485
#     4  10  22  43  71 104 149 201 243 314 388 459
#     4  12  26  50  80 122 154 216 262 330 390 492
#
# _framework density 25.745321000000001
#
# number of rings (size 3 to 8) (size 9 to 14) (size 15 to 20)
#    0.000    1.846    0.000    1.846    2.154   17.846 
#    0.000    4.615    0.000    0.000    0.000    0.000 
#    0.000    0.000    0.000    0.000    0.000    0.000 
#
# Total GULP energy -72478.476729 kJ/mol
# GULP energy per Si atom -5575.267441 kJ/mol
# Density = 2.568672 g / cm^3
# Si number density = 25.745321 Si / 1000 Ang^3
#
#
#
# Elastic Constant Matrix: (Units=GPa)
#
#
# Indices 1 2 3 4 5 6 
#
# 1 115.7782 60.7483 33.8546 13.4236 -15.0699 -8.1944
# 2 60.7483 239.0759 92.9051 24.2514 -7.0707 17.3037
# 3 33.8546 92.9051 196.4444 -8.8902 17.2045 3.6284
# 4 13.4236 24.2514 -8.8902 33.5013 -7.1897 -11.5322
# 5 -15.0699 -7.0707 17.2045 -7.1897 28.9269 12.1492
# 6 -8.1944 17.3037 3.6284 -11.5322 12.1492 55.6554
#
#
#
# Elastic Compliance Matrix: (Units=1/GPa)
#
#
# Indices 1 2 3 4 5 6 
#
# 1 0.011094 -0.001863 -0.001619 -0.002116 0.005473 0.000685
# 2 -0.001863 0.006993 -0.003447 -0.006001 0.003031 -0.004129
# 3 -0.001619 -0.003447 0.007710 0.004779 -0.006208 0.002676
# 4 -0.002116 -0.006001 0.004779 0.039637 0.000516 0.009343
# 5 0.005473 0.003031 -0.006208 0.000516 0.046047 -0.009677
# 6 0.000685 -0.004129 0.002676 0.009343 -0.009677 0.023226
#
#
# Mechanical properties :
#
#
# Convention : Reuss Voigt Hill
#
# Bulk Modulus (GPa) = 83.75158 102.92381 93.33769
# Shear Modulus (GPa) = 32.77748 47.86942 40.32345
#
# Velocity S-wave (km/s) = 3.57198 4.31669 3.96187
# Velocity P-wave (km/s) = 7.04369 8.05665 7.56713
#
# Compressibility (1/GPa) = 0.01194007
#
# Stress axis : x y z
#
# Youngs Moduli (GPa) = 90.13651 143.00298 129.70060
#
# Poissons Ratio (x) = 0.26643 0.20993
# Poissons Ratio (y) = 0.16794 0.44706
# Poissons Ratio (z) = 0.14589 0.49291
#
# Static dielectric constant tensor:
#      x y z
#    x 2.225850 -0.073190 -0.050890 
#    y -0.073190 2.068850 -0.020220 
#    z -0.050890 -0.020220 2.143130 
# 
# From -- ./inp_files/167569.got.cif
#   From: 2010.05.17/outbox.cif.g08.bks.cpg/sg2_84_cif.got.tgz:167569.got - 2010.06.03 11:33:40.
