data_PCOD9032293
_publ_section_title
;
Structure prediction by ZEFSAII (Michael W. Deem and Ramdas Pophale) SiO2 
 PCOD9032293
Probable space group: P -1
;
_chemical_formula_sum "Si O2"
_cell_formula_units_Z 16
_cell_length_a 14.077796
_cell_length_b 5.297624
_cell_length_c 11.003841
_cell_angle_alpha 78.326306
_cell_angle_beta 118.615788
_cell_angle_gamma 82.842257
_cell_volume 681.689900
_symmetry_space_group_name_H-M "P -1"
_symmetry_group_IT_number 2
_symmetry_cell_setting 'triclinic'
loop_
_space_group_symop_operation_xyz
x,y,z
-x,-y,-z
loop_
_atom_site_type_symbol
_atom_site_label
_atom_site_fract_x
_atom_site_fract_y
_atom_site_fract_z
Si Si1 0.924582 0.801743 0.443267
Si Si2 0.224399 0.829403 0.307125
Si Si3 0.148090 0.360966 0.819098
Si Si4 0.106240 0.352281 0.307989
Si Si5 0.317398 0.917983 0.097990
Si Si6 0.537217 0.260942 0.449529
Si Si7 0.498470 0.196039 0.160419
Si Si8 0.675630 0.365897 0.120300
O O1 0.866420 0.849157 0.272498
O O2 0.856505 0.782348 0.524729
O O3 0.000000 0.500000 0.500000
O O4 0.000000 0.000000 0.500000
O O5 0.164422 0.591794 0.302949
O O6 0.280170 0.820684 0.210265
O O7 0.328412 0.800481 0.465137
O O8 0.140416 0.116938 0.254145
O O9 0.215000 0.552422 0.776277
O O10 0.972191 0.478655 0.220565
O O11 0.229602 0.204014 0.988503
O O12 0.443646 0.951017 0.170800
O O13 0.304555 0.743002 0.992792
O O14 0.500000 0.500000 0.500000
O O15 0.490806 0.322706 0.278394
O O16 0.500000 0.000000 0.500000
O O17 0.622733 0.175842 0.189559
O O18 0.421330 0.360099 0.988960
#
# Coordination Sequence:
#
# PCOD9032293 Si02
#       8
#     2   2   2   2   2   2   2   2
#     4  10  22  43  70  94 135 177 228 289 337 390
#     4  12  27  44  71 104 141 187 227 286 340 420
#     4  10  25  42  70 100 134 189 227 288 347 410
#     4  11  26  46  68 103 144 179 236 278 344 413
#     4  11  24  43  69  99 140 182 236 286 354 410
#     4  12  25  46  75 101 141 184 229 285 355 410
#     4  10  23  44  68 104 135 180 233 300 350 417
#     4  10  23  43  71  99 138 177 241 288 355 409
#
# _framework density 23.471084000000001
#
# number of rings (size 3 to 8) (size 9 to 14) (size 15 to 20)
#    0.000    1.250    1.250    3.375   10.500    2.000 
#    0.000    0.000    0.000    0.000    0.000    0.000 
#    0.000    0.000    0.000    0.000    0.000    0.000 
#
# Total GULP energy -89445.337238 kJ/mol
# GULP energy per Si atom -5590.333577 kJ/mol
# Density = 2.341766 g / cm^3
# Si number density = 23.471084 Si / 1000 Ang^3
#
#
#
# Elastic Constant Matrix: (Units=GPa)
#
#
# Indices 1 2 3 4 5 6 
#
# 1 137.1052 68.3247 29.3430 2.7915 -4.2237 35.4033
# 2 68.3247 147.9137 27.3095 25.2174 -2.2926 35.1985
# 3 29.3430 27.3095 88.4567 10.6992 -4.8300 16.8968
# 4 2.7915 25.2174 10.6992 40.3452 -5.7656 -0.3342
# 5 -4.2237 -2.2926 -4.8300 -5.7656 39.8061 2.2432
# 6 35.4033 35.1985 16.8968 -0.3342 2.2432 47.8809
#
#
#
# Elastic Compliance Matrix: (Units=1/GPa)
#
#
# Indices 1 2 3 4 5 6 
#
# 1 0.010797 -0.003981 -0.001705 0.002342 0.001302 -0.004500
# 2 -0.003981 0.010978 -0.000336 -0.006611 -0.000505 -0.005031
# 3 -0.001705 -0.000336 0.012999 -0.002985 0.001122 -0.003153
# 4 0.002342 -0.006611 -0.002985 0.030101 0.003628 0.004222
# 5 0.001302 -0.000505 0.001122 0.003628 0.026015 -0.002181
# 6 -0.004500 -0.005031 -0.003153 0.004222 -0.002181 0.029155
#
#
# Mechanical properties :
#
#
# Convention : Reuss Voigt Hill
#
# Bulk Modulus (GPa) = 43.99436 69.27001 56.63219
# Shear Modulus (GPa) = 35.79999 42.17301 38.98650
#
# Velocity S-wave (km/s) = 3.90972 4.24347 4.08001
# Velocity P-wave (km/s) = 6.25827 7.32027 6.81001
#
# Compressibility (1/GPa) = 0.02273018
#
# Stress axis : x y z
#
# Youngs Moduli (GPa) = 92.62081 91.09212 76.92968
#
# Poissons Ratio (x) = 0.36262 0.13118
# Poissons Ratio (y) = 0.36870 0.02583
# Poissons Ratio (z) = 0.15794 0.03058
#
# Static dielectric constant tensor:
#      x y z
#    x 1.919440 -0.054500 0.057830 
#    y -0.054500 1.951270 -0.067310 
#    z 0.057830 -0.067310 1.927200 
# 
# From -- ./inp_files/288922.got.cif
#   From: 2010.05.17/outbox.cif.g08.bks.cpg/sg2_145_cif.got.tgz:288922.got - 2010.06.03 11:33:40.
