data_PCOD9032666
_publ_section_title
;
Structure prediction by ZEFSAII (Michael W. Deem and Ramdas Pophale) SiO2 
 PCOD9032666
Probable space group: P -1
;
_chemical_formula_sum "Si O2"
_cell_formula_units_Z 13
_cell_length_a 12.952636
_cell_length_b 8.804135
_cell_length_c 9.306816
_cell_angle_alpha 84.766783
_cell_angle_beta 33.896288
_cell_angle_gamma 91.194067
_cell_volume 580.446223
_symmetry_space_group_name_H-M "P -1"
_symmetry_group_IT_number 2
_symmetry_cell_setting 'triclinic'
loop_
_space_group_symop_operation_xyz
x,y,z
-x,-y,-z
loop_
_atom_site_type_symbol
_atom_site_label
_atom_site_fract_x
_atom_site_fract_y
_atom_site_fract_z
Si Si1 0.784578 0.314458 0.475813
Si Si2 0.867921 0.667993 0.424766
Si Si3 0.103018 0.853077 0.897391
Si Si4 0.500000 0.000000 0.500000
Si Si5 0.027148 0.177488 0.408741
Si Si6 0.485245 0.305612 0.360400
Si Si7 0.622489 0.657924 0.186031
O O1 0.857952 0.486914 0.429818
O O2 0.911754 0.272819 0.200689
O O3 0.570563 0.310029 0.669313
O O4 0.833613 0.206657 0.557004
O O5 0.909337 0.719115 0.534422
O O6 0.670953 0.700467 0.582008
O O7 0.028825 0.762067 0.132415
O O8 0.316176 0.935321 0.628957
O O9 0.000000 0.000000 0.000000
O O10 0.437457 0.853227 0.703865
O O11 0.199053 0.230510 0.094548
O O12 0.000000 0.000000 0.500000
O O13 0.620196 0.473653 0.182623
O O14 0.392308 0.307954 0.629114
#
# Coordination Sequence:
#
# PCOD9032666 Si02
#       7
#     2   2   2   1   2   2   2
#     4  11  25  46  71  97 134 188 231 280 346 400
#     4  11  25  45  67 104 138 185 228 279 344 414
#     4  12  24  42  70 103 139 171 233 291 336 405
#     4  12  24  38  72 108 132 176 224 292 352 380
#     4  12  28  45  68  99 146 184 225 283 346 415
#     4  10  22  43  73 101 133 175 232 285 337 397
#     4  10  24  48  69 102 137 178 231 283 339 413
#
# _framework density 22.396563
#
# number of rings (size 3 to 8) (size 9 to 14) (size 15 to 20)
#    0.000    0.923    3.077    2.769    4.308    3.077 
#    2.769    0.000    0.000    0.000    0.000    0.000 
#    0.000    0.000    0.000    0.000    0.000    0.000 
#
# Total GULP energy -72376.072418 kJ/mol
# GULP energy per Si atom -5567.390186 kJ/mol
# Density = 2.234559 g / cm^3
# Si number density = 22.396563 Si / 1000 Ang^3
#
#
#
# Elastic Constant Matrix: (Units=GPa)
#
#
# Indices 1 2 3 4 5 6 
#
# 1 -68.5110 -54.1737 -5.0600 22.2467 3.9738 -46.3005
# 2 -54.1737 69.7162 19.6123 -5.1779 -3.2826 -41.8516
# 3 -5.0600 19.6123 54.2701 -23.6689 -3.2032 3.0670
# 4 22.2467 -5.1779 -23.6689 27.3894 4.3240 13.0958
# 5 3.9738 -3.2826 -3.2032 4.3240 23.6831 -6.0767
# 6 -46.3005 -41.8516 3.0670 13.0958 -6.0767 31.8136
#
#
#
# Elastic Compliance Matrix: (Units=1/GPa)
#
#
# Indices 1 2 3 4 5 6 
#
# 1 0.002280 -0.007466 0.007823 0.010375 -0.005480 -0.012576
# 2 -0.007466 0.010566 -0.002282 0.005063 0.001876 0.001528
# 3 0.007823 -0.002282 0.028543 0.019549 -0.002058 -0.002809
# 4 0.010375 0.005063 0.019549 0.047651 -0.007390 -0.001151
# 5 -0.005480 0.001876 -0.002058 -0.007390 0.046155 0.006549
# 6 -0.012576 0.001528 -0.002809 -0.001151 0.006549 0.017137
#
#
# Mechanical properties :
#
#
# Convention : Reuss Voigt Hill
#
# Bulk Modulus (GPa) = 26.63922 -2.64085 11.99919
# Shear Modulus (GPa) = 29.63932 22.91700 26.27816
#
# Velocity S-wave (km/s) = 3.64179 3.20228 3.42908
# Velocity P-wave (km/s) = 5.44092 3.53427 4.58774
#
# Compressibility (1/GPa) = 0.03753863
#
# Stress axis : x y z
#
# Youngs Moduli (GPa) = 438.64531 94.64392 35.03430
#
# Poissons Ratio (x) = 0.70662 -0.27407
# Poissons Ratio (y) = 3.27498 0.07995
# Poissons Ratio (z) = -3.43148 0.21598
#
# Static dielectric constant tensor:
#      x y z
#    x 1.862770 -0.029910 -0.028530 
#    y -0.029910 1.906040 0.055550 
#    z -0.028530 0.055550 1.822200 
# 
# From -- ./inp_files/237373.got.cif
#   From: 2010.05.17/outbox.cif.g08.bks.cpg/sg2_119_cif.got.tgz:237373.got - 2010.06.03 11:33:40.
