data_PCOD9032884
_publ_section_title
;
Structure prediction by ZEFSAII (Michael W. Deem and Ramdas Pophale) SiO2 
 PCOD9032884
Probable space group: P -1
;
_chemical_formula_sum "Si O2"
_cell_formula_units_Z 16
_cell_length_a 11.570429
_cell_length_b 9.191612
_cell_length_c 9.472519
_cell_angle_alpha 59.487992
_cell_angle_beta 102.584560
_cell_angle_gamma 119.679453
_cell_volume 753.289586
_symmetry_space_group_name_H-M "P -1"
_symmetry_group_IT_number 2
_symmetry_cell_setting 'triclinic'
loop_
_space_group_symop_operation_xyz
x,y,z
-x,-y,-z
loop_
_atom_site_type_symbol
_atom_site_label
_atom_site_fract_x
_atom_site_fract_y
_atom_site_fract_z
Si Si1 0.593699 0.431962 0.971753
Si Si2 0.042676 0.896949 0.442405
Si Si3 0.545563 0.660567 0.316190
Si Si4 0.047476 0.526030 0.659998
Si Si5 0.087015 0.699142 0.004945
Si Si6 0.141199 0.190703 0.108819
Si Si7 0.180887 0.283854 0.768157
Si Si8 0.605848 0.070153 0.122856
O O1 0.581443 0.229930 0.119432
O O2 0.500000 0.500000 0.000000
O O3 0.556694 0.400098 0.811867
O O4 0.742040 0.599884 0.937288
O O5 0.078454 0.740206 0.598210
O O6 0.921708 0.795089 0.349405
O O7 0.153940 0.048691 0.294247
O O8 0.000000 0.000000 0.500000
O O9 0.500000 0.500000 0.500000
O O10 0.678516 0.677054 0.271464
O O11 0.578100 0.868801 0.282145
O O12 0.166246 0.468033 0.727035
O O13 0.000000 0.500000 0.500000
O O14 0.931908 0.372131 0.802815
O O15 0.239920 0.818975 0.942410
O O16 0.000000 0.500000 0.000000
O O17 0.000269 0.810671 0.903713
O O18 0.150469 0.153270 0.964018
O O19 0.500000 0.000000 0.000000
#
# Coordination Sequence:
#
# PCOD9032884 Si02
#       8
#     2   2   2   2   2   2   2   2
#     4  11  23  46  66  93 130 176 224 269 328 407
#     4  11  23  37  62 101 129 163 213 278 334 382
#     4  11  25  44  67  95 131 172 221 281 333 394
#     4   9  22  39  60  93 132 165 207 272 334 384
#     4  11  20  39  69  96 127 170 225 270 317 394
#     4  11  22  40  68  93 131 173 220 272 325 396
#     4  10  22  44  62  87 132 174 216 266 332 401
#     4  10  24  43  69  97 131 179 222 265 337 400
#
# _framework density 21.240171
#
# number of rings (size 3 to 8) (size 9 to 14) (size 15 to 20)
#    0.000    1.500    2.500    1.875    1.750    5.000 
#    2.250    0.625    0.000    0.000    0.000    0.000 
#    0.000    0.000    0.000    0.000    0.000    0.000 
#
# Total GULP energy -89322.896054 kJ/mol
# GULP energy per Si atom -5582.681003 kJ/mol
# Density = 2.119183 g / cm^3
# Si number density = 21.240171 Si / 1000 Ang^3
#
#
#
# Elastic Constant Matrix: (Units=GPa)
#
#
# Indices 1 2 3 4 5 6 
#
# 1 95.5163 51.0864 21.8522 -19.4377 -1.5967 -10.7047
# 2 51.0864 131.1246 37.3005 -18.6463 8.6513 -6.6073
# 3 21.8522 37.3005 120.5533 -23.2934 -0.1221 -13.8497
# 4 -19.4377 -18.6463 -23.2934 42.0379 -8.6846 10.9277
# 5 -1.5967 8.6513 -0.1221 -8.6846 18.7016 -0.2778
# 6 -10.7047 -6.6073 -13.8497 10.9277 -0.2778 42.4760
#
#
#
# Elastic Compliance Matrix: (Units=1/GPa)
#
#
# Indices 1 2 3 4 5 6 
#
# 1 0.014657 -0.005339 0.000230 0.005418 0.006262 0.001585
# 2 -0.005339 0.010723 -0.002423 -0.000057 -0.005466 -0.000489
# 3 0.000230 -0.002423 0.010161 0.004936 0.003525 0.001747
# 4 0.005418 -0.000057 0.004936 0.033798 0.016133 -0.005623
# 5 0.006262 -0.005466 0.003525 0.016133 0.064022 -0.001854
# 6 0.001585 -0.000489 0.001747 -0.005623 -0.001854 0.025871
#
#
# Mechanical properties :
#
#
# Convention : Reuss Voigt Hill
#
# Bulk Modulus (GPa) = 48.82951 63.07469 55.95210
# Shear Modulus (GPa) = 27.60590 36.44011 32.02300
#
# Velocity S-wave (km/s) = 3.60905 4.14650 3.88708
# Velocity P-wave (km/s) = 6.35658 7.25845 6.82243
#
# Compressibility (1/GPa) = 0.02047942
#
# Stress axis : x y z
#
# Youngs Moduli (GPa) = 68.22617 93.25330 98.41491
#
# Poissons Ratio (x) = 0.49786 -0.02268
# Poissons Ratio (y) = 0.36424 0.23844
# Poissons Ratio (z) = -0.01573 0.22594
#
# Static dielectric constant tensor:
#      x y z
#    x 1.795880 -0.064000 0.062630 
#    y -0.064000 1.835610 -0.047010 
#    z 0.062630 -0.047010 1.817380 
# 
# From -- ./inp_files/190347.got.cif
#   From: 2010.05.17/outbox.cif.g08.bks.cpg/sg2_96_cif.got.tgz:190347.got - 2010.06.03 11:33:40.
