data_PCOD9032618
_publ_section_title
;
Structure prediction by ZEFSAII (Michael W. Deem and Ramdas Pophale) SiO2 
 PCOD9032618
Probable space group: P -1
;
_chemical_formula_sum "Si O2"
_cell_formula_units_Z 15
_cell_length_a 9.680395
_cell_length_b 9.426118
_cell_length_c 9.224041
_cell_angle_alpha 96.759990
_cell_angle_beta 119.250453
_cell_angle_gamma 104.751746
_cell_volume 680.283144
_symmetry_space_group_name_H-M "P -1"
_symmetry_group_IT_number 2
_symmetry_cell_setting 'triclinic'
loop_
_space_group_symop_operation_xyz
x,y,z
-x,-y,-z
loop_
_atom_site_type_symbol
_atom_site_label
_atom_site_fract_x
_atom_site_fract_y
_atom_site_fract_z
Si Si1 0.471947 0.590325 0.857796
Si Si2 0.224172 0.225581 0.157202
Si Si3 0.000000 0.500000 0.500000
Si Si4 0.577990 0.164053 0.980386
Si Si5 0.925231 0.192319 0.607733
Si Si6 0.762882 0.642776 0.522331
Si Si7 0.831903 0.126162 0.870039
Si Si8 0.776335 0.891159 0.338411
O O1 0.650031 0.701465 0.900504
O O2 0.372965 0.476681 0.666766
O O3 0.500000 0.500000 0.000000
O O4 0.362225 0.694738 0.859029
O O5 0.288269 0.338600 0.339571
O O6 0.225218 0.057690 0.172809
O O7 0.028989 0.200333 0.024227
O O8 0.982276 0.360575 0.592497
O O9 0.921772 0.589449 0.588293
O O10 0.716255 0.170236 0.932334
O O11 0.414511 0.180164 0.821033
O O12 0.500000 0.000000 0.000000
O O13 0.825525 0.173425 0.705258
O O14 0.088645 0.139247 0.703601
O O15 0.817024 0.067855 0.418924
O O16 0.800627 0.807177 0.486443
#
# Coordination Sequence:
#
# PCOD9032618 Si02
#       8
#     2   2   1   2   2   2   2   2
#     4  12  26  47  72 101 148 191 232 293 365 420
#     4  11  25  47  71 105 140 191 240 291 356 427
#     4  10  26  40  70 110 138 178 234 298 346 424
#     4  12  26  43  69 108 138 186 242 295 349 426
#     4  10  22  44  71 104 140 190 234 292 357 423
#     4  11  24  46  71 102 144 188 234 291 358 421
#     4  11  25  43  75 102 142 185 244 298 346 422
#     4  10  22  43  72  96 142 190 234 284 355 428
#
# _framework density 22.049641000000001
#
# number of rings (size 3 to 8) (size 9 to 14) (size 15 to 20)
#    0.000    1.067    4.000    1.200    7.467    1.600 
#    2.400    1.333    0.000    0.000    0.000    0.000 
#    0.000    0.000    0.000    0.000    0.000    0.000 
#
# Total GULP energy -83640.343125 kJ/mol
# GULP energy per Si atom -5576.022875 kJ/mol
# Density = 2.199945 g / cm^3
# Si number density = 22.049641 Si / 1000 Ang^3
#
#
#
# Elastic Constant Matrix: (Units=GPa)
#
#
# Indices 1 2 3 4 5 6 
#
# 1 167.7607 53.0231 42.6258 1.8355 -36.8906 3.9225
# 2 53.0231 134.5560 45.5689 -1.0215 -16.8937 4.0636
# 3 42.6258 45.5689 82.0862 19.3127 -23.1878 -1.2434
# 4 1.8355 -1.0215 19.3127 28.6867 1.4770 -3.6126
# 5 -36.8906 -16.8937 -23.1878 1.4770 37.1435 -1.8293
# 6 3.9225 4.0636 -1.2434 -3.6126 -1.8293 35.5477
#
#
#
# Elastic Compliance Matrix: (Units=1/GPa)
#
#
# Indices 1 2 3 4 5 6 
#
# 1 0.008397 -0.002004 -0.001392 -0.000061 0.006541 -0.000416
# 2 -0.002004 0.010163 -0.006073 0.004554 -0.001378 -0.000761
# 3 -0.001392 -0.006073 0.023227 -0.016259 0.011030 0.000575
# 4 -0.000061 0.004554 -0.016259 0.046879 -0.009847 0.003175
# 5 0.006541 -0.001378 0.011030 -0.009847 0.040113 0.000885
# 6 -0.000416 -0.000761 0.000575 0.003175 0.000885 0.028652
#
#
# Mechanical properties :
#
#
# Convention : Reuss Voigt Hill
#
# Bulk Modulus (GPa) = 43.76904 74.09318 58.93111
# Shear Modulus (GPa) = 27.17609 36.48790 31.83200
#
# Velocity S-wave (km/s) = 3.51450 4.07235 3.80366
# Velocity P-wave (km/s) = 6.03011 7.46913 6.78786
#
# Compressibility (1/GPa) = 0.02284720
#
# Stress axis : x y z
#
# Youngs Moduli (GPa) = 119.09390 98.39694 43.05404
#
# Poissons Ratio (x) = 0.19719 0.05994
# Poissons Ratio (y) = 0.23867 0.26148
# Poissons Ratio (z) = 0.16579 0.59760
#
# Static dielectric constant tensor:
#      x y z
#    x 1.829990 0.001860 0.041530 
#    y 0.001860 1.796380 0.034570 
#    z 0.041530 0.034570 1.868640 
# 
# From -- ./inp_files/159432.got.cif
#   From: 2010.05.17/outbox.cif.g08.bks.cpg/sg2_80_cif.got.tgz:159432.got - 2010.06.03 11:33:40.
