data_PCOD9032702
_publ_section_title
;
Structure prediction by ZEFSAII (Michael W. Deem and Ramdas Pophale) SiO2 
 PCOD9032702
Probable space group: P -1
;
_chemical_formula_sum "Si O2"
_cell_formula_units_Z 10
_cell_length_a 4.929334
_cell_length_b 10.816965
_cell_length_c 12.904421
_cell_angle_alpha 146.068637
_cell_angle_beta 81.196090
_cell_angle_gamma 84.763993
_cell_volume 348.583980
_symmetry_space_group_name_H-M "P -1"
_symmetry_group_IT_number 2
_symmetry_cell_setting 'triclinic'
loop_
_space_group_symop_operation_xyz
x,y,z
-x,-y,-z
loop_
_atom_site_type_symbol
_atom_site_label
_atom_site_fract_x
_atom_site_fract_y
_atom_site_fract_z
Si Si1 0.276094 0.291668 0.285989
Si Si2 0.314006 0.554211 0.280636
Si Si3 0.156017 0.117130 0.964899
Si Si4 0.115676 0.912192 0.250545
Si Si5 0.352500 0.243215 0.744515
O O1 0.435630 0.422275 0.291870
O O2 0.000000 0.500000 0.500000
O O3 0.523568 0.110836 0.220664
O O4 0.854760 0.851013 0.885883
O O5 0.069000 0.818621 0.505966
O O6 0.557909 0.576436 0.205055
O O7 0.166191 0.378601 0.123566
O O8 0.950894 0.078731 0.861143
O O9 0.972587 0.741328 0.195889
O O10 0.448673 0.819930 0.207718
O O11 0.500000 0.000000 0.500000
#
# Coordination Sequence:
#
# PCOD9032702 Si02
#       5
#     2   2   2   2   2
#     4   9  20  44  73 100 147 192 244 304 365 430
#     4   9  20  41  69 100 149 186 240 300 360 428
#     4   9  22  42  70 110 139 190 253 292 369 435
#     4  11  23  42  75 107 147 190 242 300 364 440
#     4  10  22  43  73 108 146 193 238 293 374 437
#
# _framework density 28.687494999999998
#
# number of rings (size 3 to 8) (size 9 to 14) (size 15 to 20)
#    1.200    1.200    0.000    2.400    2.800    2.400 
#    0.000    7.000    0.000    0.000    0.000    0.000 
#    0.000    0.000    0.000    0.000    0.000    0.000 
#
# Total GULP energy -56051.591951 kJ/mol
# GULP energy per Si atom -5605.159195 kJ/mol
# Density = 2.862220 g / cm^3
# Si number density = 28.687495 Si / 1000 Ang^3
#
#
#
# Elastic Constant Matrix: (Units=GPa)
#
#
# Indices 1 2 3 4 5 6 
#
# 1 98.7541 57.0106 21.6657 -10.0305 4.1987 -45.7403
# 2 57.0106 199.9587 40.6664 -5.1773 1.4535 -3.1347
# 3 21.6657 40.6664 160.3034 -8.6464 -5.3143 -28.2367
# 4 -10.0305 -5.1773 -8.6464 52.9158 -2.0781 -11.0969
# 5 4.1987 1.4535 -5.3143 -2.0781 38.8651 -5.2372
# 6 -45.7403 -3.1347 -28.2367 -11.0969 -5.2372 43.3839
#
#
#
# Elastic Compliance Matrix: (Units=1/GPa)
#
#
# Indices 1 2 3 4 5 6 
#
# 1 0.043937 -0.012905 0.008683 0.020666 0.005712 0.057018
# 2 -0.012905 0.009085 -0.004005 -0.005931 -0.002146 -0.017332
# 3 0.008683 -0.004005 0.009558 0.006535 0.003178 0.017141
# 4 0.020666 -0.005931 0.006535 0.030648 0.005113 0.034070
# 5 0.005712 -0.002146 0.003178 0.005113 0.027596 0.012574
# 6 0.057018 -0.017332 0.017141 0.034070 0.012574 0.103301
#
#
# Mechanical properties :
#
#
# Convention : Reuss Voigt Hill
#
# Bulk Modulus (GPa) = 21.67977 77.52239 49.60108
# Shear Modulus (GPa) = 19.53472 49.67785 34.60629
#
# Velocity S-wave (km/s) = 2.61233 4.16587 3.47698
# Velocity P-wave (km/s) = 4.08322 7.08668 5.78333
#
# Compressibility (1/GPa) = 0.04612595
#
# Stress axis : x y z
#
# Youngs Moduli (GPa) = 22.75996 110.06806 104.62714
#
# Poissons Ratio (x) = 1.42047 -0.90849
# Poissons Ratio (y) = 0.29373 0.41899
# Poissons Ratio (z) = -0.19763 0.44078
#
# Static dielectric constant tensor:
#      x y z
#    x 2.205740 0.135320 0.012360 
#    y 0.135320 2.304990 0.019370 
#    z 0.012360 0.019370 2.208250 
# 
# From -- ./inp_files/136060.got.cif
#   From: 2010.05.17/outbox.cif.g08.bks.cpg/sg2_69_cif.got.tgz:136060.got - 2010.06.03 11:33:40.
