data_PCOD9032214
_publ_section_title
;
Structure prediction by ZEFSAII (Michael W. Deem and Ramdas Pophale) SiO2 
 PCOD9032214
Probable space group: P -1
;
_chemical_formula_sum "Si O2"
_cell_formula_units_Z 14
_cell_length_a 14.295364
_cell_length_b 12.640766
_cell_length_c 7.056112
_cell_angle_alpha 134.463939
_cell_angle_beta 37.205953
_cell_angle_gamma 140.387593
_cell_volume 478.945197
_symmetry_space_group_name_H-M "P -1"
_symmetry_group_IT_number 2
_symmetry_cell_setting 'triclinic'
loop_
_space_group_symop_operation_xyz
x,y,z
-x,-y,-z
loop_
_atom_site_type_symbol
_atom_site_label
_atom_site_fract_x
_atom_site_fract_y
_atom_site_fract_z
Si Si1 0.351393 0.457033 0.840252
Si Si2 0.219231 0.701838 0.841652
Si Si3 0.406548 0.031481 0.369654
Si Si4 0.831347 0.341734 0.676947
Si Si5 0.318791 0.416208 0.213012
Si Si6 0.136604 0.136572 0.807491
Si Si7 0.063912 0.170638 0.606420
O O1 0.500000 0.500000 0.500000
O O2 0.481497 0.491112 0.869769
O O3 0.198915 0.317207 0.079090
O O4 0.181795 0.293714 0.770794
O O5 0.418013 0.849483 0.646502
O O6 0.232324 0.538045 0.547793
O O7 0.171361 0.664322 0.096857
O O8 0.081927 0.764128 0.075344
O O9 0.321276 0.137262 0.549497
O O10 0.246124 0.858349 0.499223
O O11 0.500000 0.000000 0.000000
O O12 0.677996 0.381361 0.914976
O O13 0.000000 0.500000 0.500000
O O14 0.221083 0.255908 0.309035
O O15 0.056042 0.019525 0.579862
O O16 0.000000 0.000000 0.000000
#
# Coordination Sequence:
#
# PCOD9032214 Si02
#       7
#     2   2   2   2   2   2   2
#     4  12  25  44  70 100 136 187 242 296 362 441
#     4  11  25  47  72 106 150 193 244 306 371 439
#     4  10  22  43  70 101 139 189 240 292 357 440
#     4  11  22  42  72 104 137 186 240 293 354 437
#     4  12  26  46  72 107 149 196 248 313 377 434
#     4  12  25  45  70 101 139 187 240 295 360 441
#     4  12  26  47  73 109 150 192 242 311 374 438
#
# _framework density 29.230903000000001
#
# number of rings (size 3 to 8) (size 9 to 14) (size 15 to 20)
#    0.000    0.571    0.000    9.857    0.000    3.429 
#    0.000    2.143    0.000    0.000    0.000    0.000 
#    0.000    0.000    0.000    0.000    0.000    0.000 
#
# Total GULP energy -78238.409702 kJ/mol
# GULP energy per Si atom -5588.457836 kJ/mol
# Density = 2.916437 g / cm^3
# Si number density = 29.230903 Si / 1000 Ang^3
#
#
#
# Elastic Constant Matrix: (Units=GPa)
#
#
# Indices 1 2 3 4 5 6 
#
# 1 255.8999 85.6926 99.9737 -21.1008 22.0247 -12.2320
# 2 85.6926 230.2774 79.4147 -23.5788 -21.2349 23.2076
# 3 99.9737 79.4147 163.6389 -32.3366 4.1552 -16.6480
# 4 -21.1008 -23.5788 -32.3366 85.6329 -2.7620 -6.8002
# 5 22.0247 -21.2349 4.1552 -2.7620 82.7157 -9.3134
# 6 -12.2320 23.2076 -16.6480 -6.8002 -9.3134 71.1110
#
#
#
# Elastic Compliance Matrix: (Units=1/GPa)
#
#
# Indices 1 2 3 4 5 6 
#
# 1 0.005564 -0.001371 -0.002636 -0.000009 -0.001637 0.000572
# 2 -0.001371 0.006122 -0.002375 0.000308 0.001782 -0.002527
# 3 -0.002636 -0.002375 0.009671 0.002574 0.000011 0.002833
# 4 -0.000009 0.000308 0.002574 0.012895 0.000587 0.001810
# 5 -0.001637 0.001782 0.000011 0.000587 0.013105 0.000912
# 6 0.000572 -0.002527 0.002833 0.001810 0.000912 0.015942
#
#
# Mechanical properties :
#
#
# Convention : Reuss Voigt Hill
#
# Bulk Modulus (GPa) = 116.37612 131.10872 123.74242
# Shear Modulus (GPa) = 63.34949 73.54093 68.44521
#
# Velocity S-wave (km/s) = 4.66038 5.02128 4.84419
# Velocity P-wave (km/s) = 8.29807 8.86385 8.58562
#
# Compressibility (1/GPa) = 0.00859283
#
# Stress axis : x y z
#
# Youngs Moduli (GPa) = 179.71890 163.33385 103.40509
#
# Poissons Ratio (x) = 0.22394 0.27258
# Poissons Ratio (y) = 0.24641 0.24560
# Poissons Ratio (z) = 0.47375 0.38794
#
# Static dielectric constant tensor:
#      x y z
#    x 2.607430 0.305300 0.052750 
#    y 0.305300 2.364380 -0.051440 
#    z 0.052750 -0.051440 2.176000 
# 
# From -- ./inp_files/305300.got.cif
#   From: 2010.05.17/outbox.cif.g08.bks.cpg/sg2_153_cif.got.tgz:305300.got - 2010.06.03 11:33:40.
