data_PCOD9032431
_publ_section_title
;
Structure prediction by ZEFSAII (Michael W. Deem and Ramdas Pophale) SiO2 
 PCOD9032431
Probable space group: P -1
;
_chemical_formula_sum "Si O2"
_cell_formula_units_Z 15
_cell_length_a 9.691111
_cell_length_b 5.128297
_cell_length_c 17.630144
_cell_angle_alpha 79.619000
_cell_angle_beta 138.053562
_cell_angle_gamma 101.054866
_cell_volume 573.870803
_symmetry_space_group_name_H-M "P -1"
_symmetry_group_IT_number 2
_symmetry_cell_setting 'triclinic'
loop_
_space_group_symop_operation_xyz
x,y,z
-x,-y,-z
loop_
_atom_site_type_symbol
_atom_site_label
_atom_site_fract_x
_atom_site_fract_y
_atom_site_fract_z
Si Si1 0.125402 0.744300 0.077898
Si Si2 0.156880 0.149937 0.359502
Si Si3 0.367750 0.547798 0.317459
Si Si4 0.185000 0.600720 0.715297
Si Si5 0.805174 0.839241 0.144620
Si Si6 0.635118 0.090807 0.418918
Si Si7 0.000000 0.500000 0.500000
Si Si8 0.539966 0.963257 0.892964
O O1 0.180677 0.662624 0.189588
O O2 0.344516 0.808176 0.121810
O O3 0.000000 0.500000 0.000000
O O4 0.000000 0.000000 0.000000
O O5 0.284839 0.416933 0.368869
O O6 0.008014 0.221319 0.364066
O O7 0.297320 0.936267 0.464025
O O8 0.014194 0.021850 0.239979
O O9 0.457436 0.292441 0.328471
O O10 0.548649 0.789241 0.380284
O O11 0.174854 0.452736 0.800316
O O12 0.120406 0.404969 0.630901
O O13 0.410056 0.754722 0.797229
O O14 0.629308 0.938662 0.123844
O O15 0.713339 0.846316 0.022938
O O16 0.829663 0.235923 0.447234
#
# Coordination Sequence:
#
# PCOD9032431 Si02
#       8
#     2   2   2   2   2   2   1   2
#     4  12  28  47  73 107 144 197 243 310 373 438
#     4  11  25  45  70 109 144 194 249 297 373 442
#     4  12  28  47  76 105 151 195 247 303 374 445
#     4  11  24  42  72 102 143 191 237 308 366 435
#     4  10  22  43  71 104 140 191 238 309 360 438
#     4  12  27  46  73 107 145 200 241 309 363 445
#     4  12  26  46  72 104 150 182 256 294 378 432
#     4  10  24  43  70 104 143 185 252 296 373 433
#
# _framework density 26.138286999999998
#
# number of rings (size 3 to 8) (size 9 to 14) (size 15 to 20)
#    0.000    0.800    1.333    4.400    7.467    2.133 
#    0.000    0.000    0.000    0.000    0.000    0.000 
#    0.000    0.000    0.000    0.000    0.000    0.000 
#
# Total GULP energy -83801.215907 kJ/mol
# GULP energy per Si atom -5586.747727 kJ/mol
# Density = 2.607880 g / cm^3
# Si number density = 26.138287 Si / 1000 Ang^3
#
#
#
# Elastic Constant Matrix: (Units=GPa)
#
#
# Indices 1 2 3 4 5 6 
#
# 1 63.1533 31.7633 18.5189 -0.4811 0.4775 19.3716
# 2 31.7633 167.0261 32.4844 9.7612 7.2795 30.6108
# 3 18.5189 32.4844 130.1536 1.2983 -8.5704 2.5769
# 4 -0.4811 9.7612 1.2983 61.6574 0.2922 9.7304
# 5 0.4775 7.2795 -8.5704 0.2922 21.7865 -4.0973
# 6 19.3716 30.6108 2.5769 9.7304 -4.0973 44.1049
#
#
#
# Elastic Compliance Matrix: (Units=1/GPa)
#
#
# Indices 1 2 3 4 5 6 
#
# 1 0.019935 -0.001885 -0.002375 0.001762 -0.002252 -0.007907
# 2 -0.001885 0.007785 -0.001851 -0.000437 -0.004178 -0.004759
# 3 -0.002375 -0.001851 0.008740 -0.000295 0.004546 0.002305
# 4 0.001762 -0.000437 -0.000295 0.016991 -0.001045 -0.004299
# 5 -0.002252 -0.004178 0.004546 -0.001045 0.050759 0.008569
# 6 -0.007907 -0.004759 0.002305 -0.004299 0.008569 0.031059
#
#
# Mechanical properties :
#
#
# Convention : Reuss Voigt Hill
#
# Bulk Modulus (GPa) = 41.25916 58.42957 49.84436
# Shear Modulus (GPa) = 32.13953 44.01416 38.07685
#
# Velocity S-wave (km/s) = 3.51036 4.10798 3.82087
# Velocity P-wave (km/s) = 5.67886 6.70099 6.21098
#
# Compressibility (1/GPa) = 0.02423704
#
# Stress axis : x y z
#
# Youngs Moduli (GPa) = 50.16353 128.44535 114.41687
#
# Poissons Ratio (x) = 0.24209 0.27178
# Poissons Ratio (y) = 0.09455 0.21184
# Poissons Ratio (z) = 0.11916 0.23781
#
# Static dielectric constant tensor:
#      x y z
#    x 2.110200 -0.032050 0.000900 
#    y -0.032050 2.030350 -0.060660 
#    z 0.000900 -0.060660 2.093770 
# 
# From -- ./inp_files/118600.got.cif
#   From: 2010.05.17/outbox.cif.g08.bks.cpg/sg2_60_cif.got.tgz:118600.got - 2010.06.03 11:33:40.
