data_PCOD9032950
_publ_section_title
;
Structure prediction by ZEFSAII (Michael W. Deem and Ramdas Pophale) SiO2 
 PCOD9032950
Probable space group: P -1
;
_chemical_formula_sum "Si O2"
_cell_formula_units_Z 15
_cell_length_a 16.768953
_cell_length_b 10.027963
_cell_length_c 8.719397
_cell_angle_alpha 138.772665
_cell_angle_beta 60.403989
_cell_angle_gamma 132.549542
_cell_volume 711.556630
_symmetry_space_group_name_H-M "P -1"
_symmetry_group_IT_number 2
_symmetry_cell_setting 'triclinic'
loop_
_space_group_symop_operation_xyz
x,y,z
-x,-y,-z
loop_
_atom_site_type_symbol
_atom_site_label
_atom_site_fract_x
_atom_site_fract_y
_atom_site_fract_z
Si Si1 0.827182 0.204903 0.592537
Si Si2 0.390515 0.451381 0.137569
Si Si3 0.827446 0.769915 0.348101
Si Si4 0.500000 0.000000 0.000000
Si Si5 0.681637 0.382090 0.384374
Si Si6 0.215142 0.893131 0.808693
Si Si7 0.660679 0.345956 0.921614
Si Si8 0.000480 0.343100 0.004225
O O1 0.824227 0.151994 0.369595
O O2 0.716577 0.191598 0.728865
O O3 0.923744 0.468985 0.773955
O O4 0.837564 0.018826 0.526452
O O5 0.347356 0.572045 0.167924
O O6 0.500000 0.500000 0.000000
O O7 0.389280 0.802102 0.841351
O O8 0.306686 0.169382 0.979611
O O9 0.775401 0.631424 0.436056
O O10 0.739998 0.586990 0.148240
O O11 0.939766 0.788428 0.223747
O O12 0.543856 0.181866 0.966569
O O13 0.396367 0.566553 0.396080
O O14 0.737013 0.269479 0.331957
O O15 0.116823 0.824107 0.957477
O O16 0.000000 0.500000 0.000000
#
# Coordination Sequence:
#
# PCOD9032950 Si02
#       8
#     2   2   2   1   2   2   2   2
#     4  11  24  43  72  95 143 183 224 288 353 410
#     4  12  27  43  71 106 137 183 240 290 348 415
#     4  10  23  44  69 101 135 183 224 286 350 422
#     4  10  24  42  72  96 136 188 234 286 352 404
#     4  11  25  45  71 102 144 182 238 287 353 417
#     4  12  25  46  70 103 141 187 227 292 353 414
#     4  10  22  44  64 100 136 175 234 288 342 412
#     4  11  25  44  70 106 140 178 238 285 347 417
#
# _framework density 21.080542999999999
#
# number of rings (size 3 to 8) (size 9 to 14) (size 15 to 20)
#    0.000    1.067    4.000    1.200    3.733    4.267 
#    0.000    4.667    0.000    0.000    0.000    0.000 
#    0.000    0.000    0.000    0.000    0.000    0.000 
#
# Total GULP energy -83635.735378 kJ/mol
# GULP energy per Si atom -5575.715692 kJ/mol
# Density = 2.103256 g / cm^3
# Si number density = 21.080543 Si / 1000 Ang^3
#
#
#
# Elastic Constant Matrix: (Units=GPa)
#
#
# Indices 1 2 3 4 5 6 
#
# 1 68.1355 32.7160 29.8296 10.2870 -14.3886 -0.0921
# 2 32.7160 137.9661 40.0237 8.3682 -13.4337 6.7258
# 3 29.8296 40.0237 61.8408 3.5171 -24.0298 4.1598
# 4 10.2870 8.3682 3.5171 25.4535 -8.6658 -6.3344
# 5 -14.3886 -13.4337 -24.0298 -8.6658 35.9179 0.2034
# 6 -0.0921 6.7258 4.1598 -6.3344 0.2034 42.1081
#
#
#
# Elastic Compliance Matrix: (Units=1/GPa)
#
#
# Indices 1 2 3 4 5 6 
#
# 1 0.020146 -0.002098 -0.007797 -0.006117 0.000592 0.000226
# 2 -0.002098 0.009377 -0.005426 -0.002328 -0.001518 -0.001309
# 3 -0.007797 -0.005426 0.029388 0.006004 0.015963 -0.001227
# 4 -0.006117 -0.002328 0.006004 0.047529 0.012124 0.006857
# 5 0.000592 -0.001518 0.015963 0.012124 0.041114 0.000292
# 6 0.000226 -0.001309 -0.001227 0.006857 0.000292 0.025109
#
#
# Mechanical properties :
#
#
# Convention : Reuss Voigt Hill
#
# Bulk Modulus (GPa) = 35.37525 52.56456 43.96990
# Shear Modulus (GPa) = 23.50403 31.72078 27.61241
#
# Velocity S-wave (km/s) = 3.34273 3.88331 3.62312
# Velocity P-wave (km/s) = 5.63169 6.71536 6.19725
#
# Compressibility (1/GPa) = 0.02826835
#
# Stress axis : x y z
#
# Youngs Moduli (GPa) = 49.63644 106.64440 34.02787
#
# Poissons Ratio (x) = 0.22370 0.26533
# Poissons Ratio (y) = 0.10412 0.18464
# Poissons Ratio (z) = 0.38704 0.57868
#
# Static dielectric constant tensor:
#      x y z
#    x 1.742190 -0.010790 -0.003150 
#    y -0.010790 1.748650 -0.032390 
#    z -0.003150 -0.032390 1.756650 
# 
# From -- ./inp_files/328209.got.cif
#   From: 2010.05.17/outbox.cif.g08.bks.cpg/sg2_165_cif.got.tgz:328209.got - 2010.06.03 11:33:40.
