data_PCOD9032414
_publ_section_title
;
Structure prediction by ZEFSAII (Michael W. Deem and Ramdas Pophale) SiO2 
 PCOD9032414
Probable space group: P -1
;
_chemical_formula_sum "Si O2"
_cell_formula_units_Z 13
_cell_length_a 11.944768
_cell_length_b 11.789460
_cell_length_c 11.524051
_cell_angle_alpha 40.953266
_cell_angle_beta 36.189130
_cell_angle_gamma 36.268147
_cell_volume 540.863508
_symmetry_space_group_name_H-M "P -1"
_symmetry_group_IT_number 2
_symmetry_cell_setting 'triclinic'
loop_
_space_group_symop_operation_xyz
x,y,z
-x,-y,-z
loop_
_atom_site_type_symbol
_atom_site_label
_atom_site_fract_x
_atom_site_fract_y
_atom_site_fract_z
Si Si1 0.780725 0.199513 0.571942
Si Si2 0.783295 0.712805 0.544623
Si Si3 0.806803 0.841405 0.174328
Si Si4 0.994135 0.443986 0.181453
Si Si5 0.419505 0.012231 0.188758
Si Si6 0.500000 0.500000 0.000000
Si Si7 0.114755 0.838886 0.221292
O O1 0.801759 0.392197 0.389715
O O2 0.777925 0.173305 0.732994
O O3 0.616502 0.178267 0.640470
O O4 0.000000 0.000000 0.500000
O O5 0.727651 0.825828 0.379738
O O6 0.602421 0.660126 0.782277
O O7 0.000000 0.500000 0.500000
O O8 0.895595 0.823001 0.434929
O O9 0.950915 0.621135 0.167440
O O10 0.594484 0.963787 0.177725
O O11 0.941868 0.955954 0.955464
O O12 0.213389 0.237694 0.191904
O O13 0.000000 0.500000 0.000000
O O14 0.500000 0.000000 0.000000
O O15 0.702563 0.341003 0.870680
#
# Coordination Sequence:
#
# PCOD9032414 Si02
#       7
#     2   2   2   2   2   1   2
#     4  10  22  43  71 102 145 190 238 302 368 432
#     4  10  24  48  71 102 141 192 247 303 366 431
#     4  12  24  44  74 105 147 192 243 302 369 441
#     4  11  22  41  68 101 143 192 234 295 373 425
#     4  11  22  44  68 106 144 182 244 298 355 444
#     4  10  24  46  74 102 142 190 250 308 358 434
#     4  11  23  45  73 105 145 190 247 303 370 438
#
# _framework density 24.035640000000001
#
# number of rings (size 3 to 8) (size 9 to 14) (size 15 to 20)
#    0.000    1.231    3.077    3.231    0.000    6.154 
#    0.000   10.769    0.000    0.000    0.000    0.000 
#    0.000    0.000    0.000    0.000    0.000    0.000 
#
# Total GULP energy -72371.449712 kJ/mol
# GULP energy per Si atom -5567.034593 kJ/mol
# Density = 2.398093 g / cm^3
# Si number density = 24.035640 Si / 1000 Ang^3
#
#
#
# Elastic Constant Matrix: (Units=GPa)
#
#
# Indices 1 2 3 4 5 6 
#
# 1 115.2104 35.8361 57.2625 -11.6471 5.5278 0.5987
# 2 35.8361 148.3028 37.9827 -9.3323 1.5491 20.6011
# 3 57.2625 37.9827 183.3182 -7.5631 -14.7046 7.4239
# 4 -11.6471 -9.3323 -7.5631 36.9396 9.9114 -3.1015
# 5 5.5278 1.5491 -14.7046 9.9114 45.2459 -6.5093
# 6 0.5987 20.6011 7.4239 -3.1015 -6.5093 44.8848
#
#
#
# Elastic Compliance Matrix: (Units=1/GPa)
#
#
# Indices 1 2 3 4 5 6 
#
# 1 0.011365 -0.001796 -0.003321 0.003338 -0.002991 0.001019
# 2 -0.001796 0.008021 -0.000998 0.001270 -0.001172 -0.003575
# 3 -0.003321 -0.000998 0.006907 -0.000657 0.002788 -0.000281
# 4 0.003338 0.001270 -0.000657 0.030293 -0.007225 0.000527
# 5 -0.002991 -0.001172 0.002788 -0.007225 0.025472 0.003311
# 6 0.001019 -0.003575 -0.000281 0.000527 0.003311 0.024470
#
#
# Mechanical properties :
#
#
# Convention : Reuss Voigt Hill
#
# Bulk Modulus (GPa) = 71.10801 78.77713 74.94257
# Shear Modulus (GPa) = 40.50374 46.46408 43.48391
#
# Velocity S-wave (km/s) = 4.10952 4.40151 4.25802
# Velocity P-wave (km/s) = 7.22261 7.66011 7.44458
#
# Compressibility (1/GPa) = 0.01406311
#
# Stress axis : x y z
#
# Youngs Moduli (GPa) = 87.99102 124.66920 144.77708
#
# Poissons Ratio (x) = 0.22388 0.48086
# Poissons Ratio (y) = 0.15802 0.14447
# Poissons Ratio (z) = 0.29225 0.12440
#
# Static dielectric constant tensor:
#      x y z
#    x 1.995960 -0.023150 -0.073220 
#    y -0.023150 1.949960 -0.037800 
#    z -0.073220 -0.037800 2.046850 
# 
# From -- ./inp_files/422687.got.cif
#   From: 2010.05.17/outbox.cif.g08.bks.cpg/sg2_212_cif.got.tgz:422687.got - 2010.06.03 11:33:40.
