data_PCOD9032680
_publ_section_title
;
Structure prediction by ZEFSAII (Michael W. Deem and Ramdas Pophale) SiO2 
 PCOD9032680
Probable space group: P -1
;
_chemical_formula_sum "Si O2"
_cell_formula_units_Z 12
_cell_length_a 16.119747
_cell_length_b 4.982244
_cell_length_c 5.559904
_cell_angle_alpha 81.419435
_cell_angle_beta 92.486628
_cell_angle_gamma 94.162009
_cell_volume 440.127435
_symmetry_space_group_name_H-M "P -1"
_symmetry_group_IT_number 2
_symmetry_cell_setting 'triclinic'
loop_
_space_group_symop_operation_xyz
x,y,z
-x,-y,-z
loop_
_atom_site_type_symbol
_atom_site_label
_atom_site_fract_x
_atom_site_fract_y
_atom_site_fract_z
Si Si1 0.752421 0.038835 0.099738
Si Si2 0.281269 0.868686 0.407618
Si Si3 0.018805 0.767925 0.719238
Si Si4 0.601338 0.805380 0.903344
Si Si5 0.107258 0.272513 0.900228
Si Si6 0.555217 0.345580 0.334558
O O1 0.772429 0.128703 0.360212
O O2 0.795129 0.752755 0.109914
O O3 0.768641 0.207210 0.832689
O O4 0.651584 0.997520 0.078570
O O5 0.327094 0.164173 0.298431
O O6 0.362504 0.715839 0.501821
O O7 0.066756 0.499829 0.702275
O O8 0.076369 0.957457 0.883482
O O9 0.000000 0.000000 0.500000
O O10 0.933055 0.673531 0.854745
O O11 0.514429 0.871544 0.762609
O O12 0.584223 0.532564 0.085924
O O13 0.500000 0.500000 0.500000
#
# Coordination Sequence:
#
# PCOD9032680 Si02
#       6
#     2   2   2   2   2   2
#     4  10  24  44  63  96 134 181 217 294 345 413
#     4  10  24  42  61  89 134 168 230 275 354 397
#     4  10  22  43  73 103 135 187 227 286 342 428
#     4   9  23  37  62  88 123 168 224 275 345 396
#     4  10  23  44  67 106 141 175 240 278 353 417
#     4  11  22  38  63  91 124 177 232 287 337 416
#
# _framework density 27.26483
#
# number of rings (size 3 to 8) (size 9 to 14) (size 15 to 20)
#    1.000    1.000    0.000    2.000    7.000    2.667 
#    0.000    0.000    0.000    0.000    0.000    0.000 
#    0.000    0.000    0.000    0.000    0.000    0.000 
#
# Total GULP energy -66910.533235 kJ/mol
# GULP energy per Si atom -5575.877770 kJ/mol
# Density = 2.720277 g / cm^3
# Si number density = 27.264830 Si / 1000 Ang^3
#
#
#
# Elastic Constant Matrix: (Units=GPa)
#
#
# Indices 1 2 3 4 5 6 
#
# 1 108.3731 40.6568 48.9370 -12.7043 -5.7720 -30.9665
# 2 40.6568 113.5092 39.5263 -16.8565 0.3461 -22.2434
# 3 48.9370 39.5263 185.9658 -27.1345 -6.8929 -28.1595
# 4 -12.7043 -16.8565 -27.1345 40.5594 -12.0234 10.0050
# 5 -5.7720 0.3461 -6.8929 -12.0234 31.9175 -7.3939
# 6 -30.9665 -22.2434 -28.1595 10.0050 -7.3939 60.2795
#
#
#
# Elastic Compliance Matrix: (Units=1/GPa)
#
#
# Indices 1 2 3 4 5 6 
#
# 1 0.012845 -0.002819 -0.001648 0.001638 0.003768 0.004978
# 2 -0.002819 0.010886 -0.000867 0.002818 0.000658 0.001777
# 3 -0.001648 -0.000867 0.007024 0.004353 0.003284 0.001795
# 4 0.001638 0.002818 0.004353 0.033316 0.013773 0.000074
# 5 0.003768 0.000658 0.003284 0.013773 0.039351 0.006253
# 6 0.004978 0.001777 0.001795 0.000074 0.006253 0.021395
#
#
# Mechanical properties :
#
#
# Convention : Reuss Voigt Hill
#
# Bulk Modulus (GPa) = 49.78923 74.00982 61.89953
# Shear Modulus (GPa) = 35.16597 45.13314 40.14956
#
# Velocity S-wave (km/s) = 3.59526 4.07303 3.84158
# Velocity P-wave (km/s) = 5.96117 7.02304 6.51378
#
# Compressibility (1/GPa) = 0.02008466
#
# Stress axis : x y z
#
# Youngs Moduli (GPa) = 77.85376 91.85832 142.36680
#
# Poissons Ratio (x) = 0.25899 0.23467
# Poissons Ratio (y) = 0.21950 0.12349
# Poissons Ratio (z) = 0.12833 0.07968
#
# Static dielectric constant tensor:
#      x y z
#    x 2.208440 0.014140 0.027640 
#    y 0.014140 2.182280 0.061720 
#    z 0.027640 0.061720 2.232220 
# 
# From -- ./inp_files/11563.got.cif
#   From: 2010.05.17/outbox.cif.g08.bks.cpg/sg2_6_cif.got.tgz:11563.got - 2010.06.03 11:33:40.
