data_PCOD9032406
_publ_section_title
;
Structure prediction by ZEFSAII (Michael W. Deem and Ramdas Pophale) SiO2 
 PCOD9032406
Probable space group: P -1
;
_chemical_formula_sum "Si O2"
_cell_formula_units_Z 14
_cell_length_a 20.185642
_cell_length_b 8.950078
_cell_length_c 14.889255
_cell_angle_alpha 45.539628
_cell_angle_beta 151.642370
_cell_angle_gamma 151.800517
_cell_volume 568.910488
_symmetry_space_group_name_H-M "P -1"
_symmetry_group_IT_number 2
_symmetry_cell_setting 'triclinic'
loop_
_space_group_symop_operation_xyz
x,y,z
-x,-y,-z
loop_
_atom_site_type_symbol
_atom_site_label
_atom_site_fract_x
_atom_site_fract_y
_atom_site_fract_z
Si Si1 0.496395 0.432004 0.881224
Si Si2 0.804487 0.667673 0.297957
Si Si3 0.227574 0.859094 0.161749
Si Si4 0.904791 0.312553 0.608689
Si Si5 0.436793 0.719465 0.389138
Si Si6 0.937903 0.688045 0.039053
Si Si7 0.775425 0.869632 0.486340
O O1 0.310053 0.329199 0.763291
O O2 0.384173 0.226810 0.741159
O O3 0.679539 0.821198 0.907114
O O4 0.623332 0.428554 0.102550
O O5 0.881377 0.532525 0.481099
O O6 0.028688 0.030998 0.371294
O O7 0.411700 0.900399 0.342062
O O8 0.144211 0.819275 0.177969
O O9 0.000000 0.500000 0.000000
O O10 0.096236 0.465850 0.841634
O O11 0.675687 0.965758 0.527310
O O12 0.901080 0.189890 0.561231
O O13 0.357382 0.438498 0.476210
O O14 0.269187 0.553794 0.174385
O O15 0.000000 0.000000 0.000000
#
# Coordination Sequence:
#
# PCOD9032406 Si02
#       7
#     2   2   2   2   2   2   2
#     4  11  25  46  73  96 138 182 231 284 335 404
#     4  11  26  48  67  98 139 182 233 278 337 409
#     4  10  22  43  71 102 133 177 224 284 340 399
#     4  12  26  44  69 103 139 178 228 280 343 406
#     4  11  24  44  70 103 135 173 235 279 340 408
#     4  11  24  41  68 103 138 171 217 285 345 395
#     4  12  26  43  72 101 139 183 227 281 342 406
#
# _framework density 24.608440999999999
#
# number of rings (size 3 to 8) (size 9 to 14) (size 15 to 20)
#    0.000    0.857    2.857    3.857    4.000    2.857 
#    2.571    0.000    0.000    0.000    0.000    0.000 
#    0.000    0.000    0.000    0.000    0.000    0.000 
#
# Total GULP energy -78405.483166 kJ/mol
# GULP energy per Si atom -5600.391655 kJ/mol
# Density = 2.455243 g / cm^3
# Si number density = 24.608441 Si / 1000 Ang^3
#
#
#
# Elastic Constant Matrix: (Units=GPa)
#
#
# Indices 1 2 3 4 5 6 
#
# 1 99.0822 17.5659 46.0214 10.7680 -27.4937 -0.5633
# 2 17.5659 50.9763 4.8450 -6.5856 -8.5720 11.3109
# 3 46.0214 4.8450 126.5800 -8.1593 -40.5975 -7.5712
# 4 10.7680 -6.5856 -8.1593 36.6400 5.9501 12.7430
# 5 -27.4937 -8.5720 -40.5975 5.9501 41.5851 9.3797
# 6 -0.5633 11.3109 -7.5712 12.7430 9.3797 40.2511
#
#
#
# Elastic Compliance Matrix: (Units=1/GPa)
#
#
# Indices 1 2 3 4 5 6 
#
# 1 0.015406 -0.005481 -0.003880 -0.008109 0.005929 0.002211
# 2 -0.005481 0.025959 0.002735 0.009912 0.005523 -0.011282
# 3 -0.003880 0.002735 0.012596 0.003446 0.010238 -0.001930
# 4 -0.008109 0.009912 0.003446 0.037296 -0.002237 -0.013537
# 5 0.005929 0.005523 0.010238 -0.002237 0.041330 -0.008466
# 6 0.002211 -0.011282 -0.001930 -0.013537 -0.008466 0.033941
#
#
# Mechanical properties :
#
#
# Convention : Reuss Voigt Hill
#
# Bulk Modulus (GPa) = 24.56544 45.94479 35.25511
# Shear Modulus (GPa) = 25.85994 37.57564 31.71779
#
# Velocity S-wave (km/s) = 3.24521 3.91185 3.59402
# Velocity P-wave (km/s) = 4.90368 6.25414 5.61962
#
# Compressibility (1/GPa) = 0.04070759
#
# Stress axis : x y z
#
# Youngs Moduli (GPa) = 64.91168 38.52302 79.38750
#
# Poissons Ratio (x) = 0.21115 0.30804
# Poissons Ratio (y) = 0.35579 -0.21711
# Poissons Ratio (z) = 0.25187 -0.10535
#
# Static dielectric constant tensor:
#      x y z
#    x 1.832590 -0.049300 0.079140 
#    y -0.049300 1.903600 0.082030 
#    z 0.079140 0.082030 1.884400 
# 
# From -- ./inp_files/515259.got.cif
#   From: 2010.05.17/outbox.cif.g08.bks.cpg/sg2_258_cif.got.tgz:515259.got - 2010.06.03 11:33:40.
