data_PCOD9032137
_publ_section_title
;
Structure prediction by ZEFSAII (Michael W. Deem and Ramdas Pophale) SiO2 
 PCOD9032137
Probable space group: P -1
;
_chemical_formula_sum "Si O2"
_cell_formula_units_Z 15
_cell_length_a 10.620431
_cell_length_b 9.374469
_cell_length_c 8.858785
_cell_angle_alpha 48.478348
_cell_angle_beta 71.851730
_cell_angle_gamma 82.452892
_cell_volume 623.990287
_symmetry_space_group_name_H-M "P -1"
_symmetry_group_IT_number 2
_symmetry_cell_setting 'triclinic'
loop_
_space_group_symop_operation_xyz
x,y,z
-x,-y,-z
loop_
_atom_site_type_symbol
_atom_site_label
_atom_site_fract_x
_atom_site_fract_y
_atom_site_fract_z
Si Si1 0.295409 0.266115 0.823730
Si Si2 0.142692 0.493639 0.256312
Si Si3 0.500000 0.000000 0.500000
Si Si4 0.505465 0.230222 0.013045
Si Si5 0.606564 0.630694 0.592839
Si Si6 0.203104 0.874800 0.113552
Si Si7 0.158080 0.554226 0.879958
Si Si8 0.916611 0.158299 0.494753
O O1 0.375867 0.389050 0.579423
O O2 0.210734 0.400623 0.858406
O O3 0.392966 0.173101 0.969542
O O4 0.205662 0.090242 0.899774
O O5 0.245797 0.386703 0.388016
O O6 0.112572 0.694091 0.201492
O O7 0.016307 0.342306 0.378757
O O8 0.213455 0.548608 0.030946
O O9 0.519295 0.865946 0.747291
O O10 0.553380 0.832425 0.497959
O O11 0.515012 0.461990 0.829924
O O12 0.650233 0.186062 0.930525
O O13 0.162182 0.898780 0.285232
O O14 0.178961 0.763628 0.651137
O O15 0.000000 0.500000 0.000000
O O16 0.000000 0.000000 0.500000
#
# Coordination Sequence:
#
# PCOD9032137 Si02
#       8
#     2   2   1   2   2   2   2   2
#     4  12  24  47  71 105 145 192 245 296 366 431
#     4  10  23  45  67 105 144 185 240 299 363 424
#     4  12  24  44  70 104 148 184 254 288 376 414
#     4  11  25  47  70 108 145 197 241 301 360 433
#     4  11  25  45  71 104 147 189 244 300 360 438
#     4  11  23  43  71 102 144 186 242 295 361 430
#     4  10  22  43  69  98 136 187 237 295 357 428
#     4  11  24  46  70 104 143 192 241 297 365 439
#
# _framework density 24.038834000000001
#
# number of rings (size 3 to 8) (size 9 to 14) (size 15 to 20)
#    0.000    1.067    1.333    5.600    0.000    3.200 
#    7.200    4.000    0.000    0.000    0.000    0.000 
#    0.000    0.000    0.000    0.000    0.000    0.000 
#
# Total GULP energy -83608.045167 kJ/mol
# GULP energy per Si atom -5573.869678 kJ/mol
# Density = 2.398412 g / cm^3
# Si number density = 24.038834 Si / 1000 Ang^3
#
#
#
# Elastic Constant Matrix: (Units=GPa)
#
#
# Indices 1 2 3 4 5 6 
#
# 1 51.4197 22.7576 36.5334 7.6602 3.1397 2.3281
# 2 22.7576 145.2724 51.8136 13.8233 12.5541 -28.9843
# 3 36.5334 51.8136 155.7975 8.1846 19.6688 9.2716
# 4 7.6602 13.8233 8.1846 42.2466 -7.3715 1.5122
# 5 3.1397 12.5541 19.6688 -7.3715 26.3387 0.5823
# 6 2.3281 -28.9843 9.2716 1.5122 0.5823 27.8465
#
#
#
# Elastic Compliance Matrix: (Units=1/GPa)
#
#
# Indices 1 2 3 4 5 6 
#
# 1 0.024360 -0.002671 -0.004678 -0.002299 0.001289 -0.003162
# 2 -0.002671 0.012197 -0.003526 -0.004094 -0.004327 0.014406
# 3 -0.004678 -0.003526 0.009732 -0.000534 -0.005038 -0.006385
# 4 -0.002299 -0.004094 -0.000534 0.027556 0.010460 -0.005607
# 5 0.001289 -0.004327 -0.005038 0.010460 0.046664 -0.004478
# 6 -0.003162 0.014406 -0.006385 -0.005607 -0.004478 0.053694
#
#
# Mechanical properties :
#
#
# Convention : Reuss Voigt Hill
#
# Bulk Modulus (GPa) = 40.75029 63.85544 52.30286
# Shear Modulus (GPa) = 24.49355 35.37867 29.93611
#
# Velocity S-wave (km/s) = 3.19551 3.84048 3.53274
# Velocity P-wave (km/s) = 5.53206 6.80344 6.20042
#
# Compressibility (1/GPa) = 0.02453970
#
# Stress axis : x y z
#
# Youngs Moduli (GPa) = 41.05007 81.98422 102.75161
#
# Poissons Ratio (x) = 0.21900 0.48065
# Poissons Ratio (y) = 0.10966 0.36232
# Poissons Ratio (z) = 0.19203 0.28909
#
# Static dielectric constant tensor:
#      x y z
#    x 1.989580 0.161460 -0.021770 
#    y 0.161460 1.923680 -0.087780 
#    z -0.021770 -0.087780 2.052680 
# 
# From -- ./inp_files/236580.got.cif
#   From: 2010.05.17/outbox.cif.g08.bks.cpg/sg2_119_cif.got.tgz:236580.got - 2010.06.03 11:33:40.
