data_PCOD9032042
_publ_section_title
;
Structure prediction by ZEFSAII (Michael W. Deem and Ramdas Pophale) SiO2 
 PCOD9032042
Probable space group: P -1
;
_chemical_formula_sum "Si O2"
_cell_formula_units_Z 16
_cell_length_a 8.645696
_cell_length_b 11.786645
_cell_length_c 10.854395
_cell_angle_alpha 81.764006
_cell_angle_beta 65.913157
_cell_angle_gamma 126.621416
_cell_volume 688.388123
_symmetry_space_group_name_H-M "P -1"
_symmetry_group_IT_number 2
_symmetry_cell_setting 'triclinic'
loop_
_space_group_symop_operation_xyz
x,y,z
-x,-y,-z
loop_
_atom_site_type_symbol
_atom_site_label
_atom_site_fract_x
_atom_site_fract_y
_atom_site_fract_z
Si Si1 0.968379 0.873507 0.802320
Si Si2 0.186182 0.421980 0.479883
Si Si3 0.988540 0.216057 0.939922
Si Si4 0.208167 0.569435 0.820212
Si Si5 0.406199 0.126837 0.957252
Si Si6 0.218883 0.200405 0.383241
Si Si7 0.100472 0.550723 0.270195
Si Si8 0.643042 0.783677 0.299781
O O1 0.846110 0.773649 0.732021
O O2 0.780438 0.875529 0.918539
O O3 0.223474 0.068580 0.669940
O O4 0.017721 0.808108 0.906585
O O5 0.195999 0.291318 0.477099
O O6 0.170940 0.478066 0.343720
O O7 0.426695 0.594221 0.438760
O O8 0.969342 0.374134 0.634218
O O9 0.131899 0.401762 0.840305
O O10 0.157330 0.199848 0.830882
O O11 0.727772 0.061528 0.982992
O O12 0.501716 0.713154 0.726807
O O13 0.124639 0.595575 0.720872
O O14 0.000000 0.500000 0.000000
O O15 0.665969 0.287814 0.906565
O O16 0.438504 0.177028 0.794580
O O17 0.000000 0.000000 0.500000
#
# Coordination Sequence:
#
# PCOD9032042 Si02
#       8
#     2   2   2   2   2   2   2   2
#     4   9  19  36  67  94 126 163 212 273 319 392
#     4  10  22  43  69  89 128 183 223 255 325 410
#     4   9  18  36  64  95 120 168 214 265 324 379
#     4  12  27  42  62 100 139 167 219 280 334 380
#     4   8  16  35  63  95 121 154 217 265 318 381
#     4  12  28  44  62 100 135 177 222 270 335 394
#     4  10  23  41  65  97 130 175 218 270 326 397
#     4   8  15  35  64  94 115 157 224 260 304 386
#
# _framework density 23.242704
#
# number of rings (size 3 to 8) (size 9 to 14) (size 15 to 20)
#    0.000    2.250    1.250    2.250    3.500    4.500 
#    0.000    0.625    0.000    0.000    0.000    0.000 
#    0.000    0.000    0.000    0.000    0.000    0.000 
#
# Total GULP energy -89195.561008 kJ/mol
# GULP energy per Si atom -5574.722563 kJ/mol
# Density = 2.318980 g / cm^3
# Si number density = 23.242704 Si / 1000 Ang^3
#
#
#
# Elastic Constant Matrix: (Units=GPa)
#
#
# Indices 1 2 3 4 5 6 
#
# 1 70.6934 31.6717 18.7486 -14.1678 -5.1439 21.8583
# 2 31.6717 85.7476 33.5622 -23.0513 -14.0281 15.5277
# 3 18.7486 33.5622 63.5782 -19.4990 -20.8904 0.7555
# 4 -14.1678 -23.0513 -19.4990 37.8814 6.7092 -1.5143
# 5 -5.1439 -14.0281 -20.8904 6.7092 35.5754 -3.8934
# 6 21.8583 15.5277 0.7555 -1.5143 -3.8934 41.7954
#
#
#
# Elastic Compliance Matrix: (Units=1/GPa)
#
#
# Indices 1 2 3 4 5 6 
#
# 1 0.020150 -0.003881 -0.003496 0.003420 -0.002313 -0.009125
# 2 -0.003881 0.018073 -0.006031 0.006020 0.001426 -0.004225
# 3 -0.003496 -0.006031 0.025615 0.006368 0.011494 0.004907
# 4 0.003420 0.006020 0.006368 0.034542 -0.000225 -0.002910
# 5 -0.002313 0.001426 0.011494 -0.000225 0.035542 0.003775
# 6 -0.009125 -0.004225 0.004907 -0.002910 0.003775 0.030425
#
#
# Mechanical properties :
#
#
# Convention : Reuss Voigt Hill
#
# Bulk Modulus (GPa) = 27.01129 43.10937 35.06033
# Shear Modulus (GPa) = 24.56969 32.11957 28.34463
#
# Velocity S-wave (km/s) = 3.25482 3.72145 3.49593
# Velocity P-wave (km/s) = 5.07659 6.08715 5.60469
#
# Compressibility (1/GPa) = 0.03702156
#
# Stress axis : x y z
#
# Youngs Moduli (GPa) = 49.62810 55.33159 39.04030
#
# Poissons Ratio (x) = 0.21474 0.13649
# Poissons Ratio (y) = 0.19260 0.23544
# Poissons Ratio (z) = 0.17351 0.33369
#
# Static dielectric constant tensor:
#      x y z
#    x 1.966040 0.062410 0.039750 
#    y 0.062410 1.897140 -0.018690 
#    z 0.039750 -0.018690 1.914000 
# 
# From -- ./inp_files/392608.got.cif
#   From: 2010.05.17/outbox.cif.g08.bks.cpg/sg2_197_cif.got.tgz:392608.got - 2010.06.03 11:33:40.
