data_PCOD9032481
_publ_section_title
;
Structure prediction by ZEFSAII (Michael W. Deem and Ramdas Pophale) SiO2 
 PCOD9032481
Probable space group: P -1
;
_chemical_formula_sum "Si O2"
_cell_formula_units_Z 15
_cell_length_a 12.665513
_cell_length_b 7.842252
_cell_length_c 8.933758
_cell_angle_alpha 106.785392
_cell_angle_beta 118.698620
_cell_angle_gamma 66.499586
_cell_volume 708.550841
_symmetry_space_group_name_H-M "P -1"
_symmetry_group_IT_number 2
_symmetry_cell_setting 'triclinic'
loop_
_space_group_symop_operation_xyz
x,y,z
-x,-y,-z
loop_
_atom_site_type_symbol
_atom_site_label
_atom_site_fract_x
_atom_site_fract_y
_atom_site_fract_z
Si Si1 0.412085 0.271864 0.400902
Si Si2 0.814128 0.705272 0.320614
Si Si3 0.095919 0.836065 0.120065
Si Si4 0.301690 0.570056 0.646957
Si Si5 0.954321 0.202414 0.594378
Si Si6 0.500000 0.500000 0.000000
Si Si7 0.718616 0.548910 0.948351
Si Si8 0.312144 0.982186 0.446742
O O1 0.391198 0.426207 0.555362
O O2 0.334463 0.366020 0.226492
O O3 0.357211 0.113757 0.393324
O O4 0.561178 0.175826 0.453573
O O5 0.775844 0.545165 0.342669
O O6 0.752067 0.889716 0.423911
O O7 0.960935 0.681272 0.390858
O O8 0.753475 0.701515 0.115166
O O9 0.026997 0.805842 0.217371
O O10 0.159449 0.636247 0.033017
O O11 0.212704 0.903675 0.274202
O O12 0.000000 0.000000 0.000000
O O13 0.193932 0.718369 0.520956
O O14 0.389295 0.626360 0.840243
O O15 0.000000 0.000000 0.500000
O O16 0.390634 0.505600 0.051496
#
# Coordination Sequence:
#
# PCOD9032481 Si02
#       8
#     2   2   2   2   2   1   2   2
#     4  10  22  43  71  95 131 174 224 270 342 397
#     4  10  24  43  66  98 134 177 221 265 335 391
#     4  12  28  44  66 100 137 175 225 281 327 384
#     4  10  22  44  67  98 133 176 221 272 333 402
#     4  12  25  43  69  97 133 183 219 276 330 393
#     4  10  24  38  68  98 132 162 220 278 320 384
#     4  11  25  45  70 100 130 180 222 277 327 407
#     4  10  23  45  66  97 135 172 214 283 333 395
#
# _framework density 21.169968000000001
#
# number of rings (size 3 to 8) (size 9 to 14) (size 15 to 20)
#    0.000    1.333    2.667    1.200    7.467    5.333 
#    0.000    1.333    0.000    0.000    0.000    0.000 
#    0.000    0.000    0.000    0.000    0.000    0.000 
#
# Total GULP energy -83552.173152 kJ/mol
# GULP energy per Si atom -5570.144877 kJ/mol
# Density = 2.112178 g / cm^3
# Si number density = 21.169968 Si / 1000 Ang^3
#
#
#
# Elastic Constant Matrix: (Units=GPa)
#
#
# Indices 1 2 3 4 5 6 
#
# 1 88.1831 23.5743 21.4620 -3.5136 -14.2230 -23.0661
# 2 23.5743 63.2915 19.9127 -25.8839 3.3633 -10.7090
# 3 21.4620 19.9127 101.3451 -24.7326 0.8130 -3.1233
# 4 -3.5136 -25.8839 -24.7326 42.0533 1.0998 5.5756
# 5 -14.2230 3.3633 0.8130 1.0998 25.2867 -9.3121
# 6 -23.0661 -10.7090 -3.1233 5.5756 -9.3121 24.1357
#
#
#
# Elastic Compliance Matrix: (Units=1/GPa)
#
#
# Indices 1 2 3 4 5 6 
#
# 1 0.032294 -0.010408 -0.007338 -0.014616 0.036110 0.042604
# 2 -0.010408 0.025681 0.001165 0.016909 -0.012697 -0.007206
# 3 -0.007338 0.001165 0.013267 0.009525 -0.008967 -0.010439
# 4 -0.014616 0.016909 0.009525 0.042187 -0.021130 -0.023132
# 5 0.036110 -0.012697 -0.008967 -0.021130 0.087138 0.066217
# 6 0.042604 -0.007206 -0.010439 -0.023132 0.066217 0.108492
#
#
# Mechanical properties :
#
#
# Convention : Reuss Voigt Hill
#
# Bulk Modulus (GPa) = 26.26044 42.52420 34.39232
# Shear Modulus (GPa) = 14.08789 30.81986 22.45387
#
# Velocity S-wave (km/s) = 2.58246 3.81967 3.26029
# Velocity P-wave (km/s) = 4.61775 6.29157 5.51849
#
# Compressibility (1/GPa) = 0.03808010
#
# Stress axis : x y z
#
# Youngs Moduli (GPa) = 30.96555 38.93954 75.37443
#
# Poissons Ratio (x) = 0.40528 0.55307
# Poissons Ratio (y) = 0.32228 -0.08778
# Poissons Ratio (z) = 0.22721 -0.04535
#
# Static dielectric constant tensor:
#      x y z
#    x 1.771680 0.036700 -0.010850 
#    y 0.036700 1.753180 -0.002440 
#    z -0.010850 -0.002440 1.754650 
# 
# From -- ./inp_files/239923.got.cif
#   From: 2010.05.17/outbox.cif.g08.bks.cpg/sg2_120_cif.got.tgz:239923.got - 2010.06.03 11:33:40.
