data_PCOD9032739
_publ_section_title
;
Structure prediction by ZEFSAII (Michael W. Deem and Ramdas Pophale) SiO2 
 PCOD9032739
Probable space group: P -1
;
_chemical_formula_sum "Si O2"
_cell_formula_units_Z 15
_cell_length_a 9.247389
_cell_length_b 11.647811
_cell_length_c 13.273275
_cell_angle_alpha 137.916947
_cell_angle_beta 48.622963
_cell_angle_gamma 141.373181
_cell_volume 586.769269
_symmetry_space_group_name_H-M "P -1"
_symmetry_group_IT_number 2
_symmetry_cell_setting 'triclinic'
loop_
_space_group_symop_operation_xyz
x,y,z
-x,-y,-z
loop_
_atom_site_type_symbol
_atom_site_label
_atom_site_fract_x
_atom_site_fract_y
_atom_site_fract_z
Si Si1 0.005570 0.801674 0.158960
Si Si2 0.336625 0.208698 0.562479
Si Si3 0.821608 0.828956 0.053640
Si Si4 0.374791 0.833727 0.297651
Si Si5 0.705653 0.310769 0.978391
Si Si6 0.500000 0.500000 0.500000
Si Si7 0.037214 0.373379 0.487725
Si Si8 0.683943 0.633473 0.798110
O O1 0.915506 0.906044 0.339735
O O2 0.942288 0.804973 0.076781
O O3 0.261752 0.855515 0.092659
O O4 0.858898 0.555103 0.100606
O O5 0.418043 0.058444 0.408562
O O6 0.326510 0.314951 0.535574
O O7 0.515164 0.398125 0.679801
O O8 0.620243 0.856267 0.201516
O O9 0.713522 0.625330 0.897996
O O10 0.000000 0.000000 0.000000
O O11 0.252707 0.699529 0.165452
O O12 0.199065 0.739372 0.411557
O O13 0.446354 0.252066 0.076847
O O14 0.263001 0.473939 0.526718
O O15 0.094574 0.248518 0.302008
O O16 0.000000 0.500000 0.500000
#
# Coordination Sequence:
#
# PCOD9032739 Si02
#       8
#     2   2   2   2   2   1   2   2
#     4  10  22  43  74 100 146 191 254 299 391 456
#     4  10  23  46  76 108 147 202 251 329 383 470
#     4  11  27  48  71 110 151 202 257 325 378 470
#     4  11  26  47  77 110 150 199 263 318 395 460
#     4   9  21  44  73 103 134 200 243 306 379 459
#     4  10  24  48  70 110 162 192 258 312 396 462
#     4  11  26  45  77 114 156 205 253 324 393 463
#     4   9  23  48  69 102 149 192 254 304 393 455
#
# _framework density 25.56371
#
# number of rings (size 3 to 8) (size 9 to 14) (size 15 to 20)
#    0.000    1.867    0.000    0.800    9.333    8.533 
#   12.000    1.333    0.000    0.000    0.000    0.000 
#    0.000    0.000    0.000    0.000    0.000    0.000 
#
# Total GULP energy -83531.069288 kJ/mol
# GULP energy per Si atom -5568.737953 kJ/mol
# Density = 2.550553 g / cm^3
# Si number density = 25.563710 Si / 1000 Ang^3
#
#
#
# Elastic Constant Matrix: (Units=GPa)
#
#
# Indices 1 2 3 4 5 6 
#
# 1 152.0550 43.3577 53.6748 -25.0532 0.6607 -34.4117
# 2 43.3577 76.9011 54.2610 -17.3340 6.9582 -12.5611
# 3 53.6748 54.2610 178.0636 -29.6567 -22.7462 -15.1200
# 4 -25.0532 -17.3340 -29.6567 45.7086 3.3403 9.1856
# 5 0.6607 6.9582 -22.7462 3.3403 36.9227 -4.7035
# 6 -34.4117 -12.5611 -15.1200 9.1856 -4.7035 38.9085
#
#
#
# Elastic Compliance Matrix: (Units=1/GPa)
#
#
# Indices 1 2 3 4 5 6 
#
# 1 0.009710 -0.003296 -0.000937 0.002072 0.000541 0.006737
# 2 -0.003296 0.020115 -0.005650 0.002736 -0.007482 -0.000167
# 3 -0.000937 -0.005650 0.008949 0.002468 0.006502 0.001028
# 4 0.002072 0.002736 0.002468 0.026335 -0.001766 -0.002756
# 5 0.000541 -0.007482 0.006502 -0.001766 0.033290 0.005031
# 6 0.006737 -0.000167 0.001028 -0.002756 0.005031 0.033264
#
#
# Mechanical properties :
#
#
# Convention : Reuss Voigt Hill
#
# Bulk Modulus (GPa) = 52.60541 78.84519 65.72530
# Shear Modulus (GPa) = 31.69246 41.35638 36.52442
#
# Velocity S-wave (km/s) = 3.52482 4.02652 3.78400
# Velocity P-wave (km/s) = 6.09825 7.24754 6.69759
#
# Compressibility (1/GPa) = 0.01900945
#
# Stress axis : x y z
#
# Youngs Moduli (GPa) = 102.98169 49.71380 111.74133
#
# Poissons Ratio (x) = 0.16384 0.10466
# Poissons Ratio (y) = 0.33939 0.63139
# Poissons Ratio (z) = 0.09646 0.28090
#
# Static dielectric constant tensor:
#      x y z
#    x 2.327580 0.132120 -0.068630 
#    y 0.132120 2.201580 0.041580 
#    z -0.068630 0.041580 2.079750 
# 
# From -- ./inp_files/388006.got.cif
#   From: 2010.05.17/outbox.cif.g08.bks.cpg/sg2_195_cif.got.tgz:388006.got - 2010.06.03 11:33:40.
