data_PCOD9032560
_publ_section_title
;
Structure prediction by ZEFSAII (Michael W. Deem and Ramdas Pophale) SiO2 
 PCOD9032560
Probable space group: P -1
;
_chemical_formula_sum "Si O2"
_cell_formula_units_Z 12
_cell_length_a 5.075186
_cell_length_b 8.986960
_cell_length_c 16.962486
_cell_angle_alpha 43.005331
_cell_angle_beta 115.578613
_cell_angle_gamma 96.278697
_cell_volume 448.398119
_symmetry_space_group_name_H-M "P -1"
_symmetry_group_IT_number 2
_symmetry_cell_setting 'triclinic'
loop_
_space_group_symop_operation_xyz
x,y,z
-x,-y,-z
loop_
_atom_site_type_symbol
_atom_site_label
_atom_site_fract_x
_atom_site_fract_y
_atom_site_fract_z
Si Si1 0.262865 0.736642 0.913883
Si Si2 0.663970 0.781631 0.270528
Si Si3 0.447855 0.756114 0.094072
Si Si4 0.772913 0.614661 0.525856
Si Si5 0.132128 0.723590 0.658831
Si Si6 0.325714 0.062505 0.348897
O O1 0.937261 0.819117 0.795217
O O2 0.396761 0.947104 0.835041
O O3 0.500000 0.500000 0.000000
O O4 0.217772 0.735981 0.003564
O O5 0.428473 0.732296 0.195727
O O6 0.682464 0.669951 0.401912
O O7 0.021411 0.655687 0.334679
O O8 0.751480 0.540910 0.194733
O O9 0.500000 0.000000 0.000000
O O10 0.025109 0.715632 0.558372
O O11 0.468997 0.785313 0.463365
O O12 0.410536 0.819893 0.670253
O O13 0.841720 0.863620 0.618586
#
# Coordination Sequence:
#
# PCOD9032560 Si02
#       6
#     2   2   2   2   2   2
#     4  11  22  42  72 104 145 189 243 294 354 429
#     4   9  21  44  72 102 146 188 241 297 365 422
#     4   9  20  44  71 102 144 191 237 293 356 427
#     4  10  22  43  72 102 145 188 241 295 365 432
#     4  11  24  45  72 110 145 186 238 302 360 426
#     4  12  25  43  72 112 145 187 238 300 362 425
#
# _framework density 26.761928999999999
#
# number of rings (size 3 to 8) (size 9 to 14) (size 15 to 20)
#    0.000    1.667    1.667    2.000    0.000    2.667 
#    0.000   15.000    0.000    0.000    0.000    0.000 
#    0.000    0.000    0.000    0.000    0.000    0.000 
#
# Total GULP energy -67070.486877 kJ/mol
# GULP energy per Si atom -5589.207240 kJ/mol
# Density = 2.670102 g / cm^3
# Si number density = 26.761929 Si / 1000 Ang^3
#
#
#
# Elastic Constant Matrix: (Units=GPa)
#
#
# Indices 1 2 3 4 5 6 
#
# 1 82.6072 46.5133 12.2082 -7.5491 21.8742 -7.9601
# 2 46.5133 187.5113 80.6924 13.5194 10.8813 -6.0381
# 3 12.2082 80.6924 142.0633 -5.3589 9.2117 0.0549
# 4 -7.5491 13.5194 -5.3589 110.4117 -4.4477 6.8503
# 5 21.8742 10.8813 9.2117 -4.4477 26.0143 8.5099
# 6 -7.9601 -6.0381 0.0549 6.8503 8.5099 30.6129
#
#
#
# Elastic Compliance Matrix: (Units=1/GPa)
#
#
# Indices 1 2 3 4 5 6 
#
# 1 0.020389 -0.004616 0.002122 0.000710 -0.018950 0.009496
# 2 -0.004616 0.008482 -0.004581 -0.001538 0.001566 0.000390
# 3 0.002122 -0.004581 0.009707 0.001029 -0.003227 0.000298
# 4 0.000710 -0.001538 0.001029 0.009616 0.002276 -0.002905
# 5 -0.018950 0.001566 -0.003227 0.002276 0.062621 -0.022530
# 6 0.009496 0.000390 0.000298 -0.002905 -0.022530 0.042125
#
#
# Mechanical properties :
#
#
# Convention : Reuss Voigt Hill
#
# Bulk Modulus (GPa) = 40.93847 76.77883 58.85865
# Shear Modulus (GPa) = 28.53356 51.59230 40.06293
#
# Velocity S-wave (km/s) = 3.26881 4.39546 3.87332
# Velocity P-wave (km/s) = 5.43851 7.38322 6.48419
#
# Compressibility (1/GPa) = 0.02442690
#
# Stress axis : x y z
#
# Youngs Moduli (GPa) = 49.04602 117.89728 103.02305
#
# Poissons Ratio (x) = 0.54427 -0.21860
# Poissons Ratio (y) = 0.22642 0.47192
# Poissons Ratio (z) = -0.10407 0.54006
#
# Static dielectric constant tensor:
#      x y z
#    x 2.116120 -0.020050 -0.037360 
#    y -0.020050 2.118010 0.022780 
#    z -0.037360 0.022780 2.140680 
# 
# From -- ./inp_files/546935.got.cif
#   From: 2010.05.17/outbox.cif.g08.bks.cpg/sg2_274_cif.got.tgz:546935.got - 2010.06.03 11:33:40.
