data_PCOD9032938
_publ_section_title
;
Structure prediction by ZEFSAII (Michael W. Deem and Ramdas Pophale) SiO2 
 PCOD9032938
Probable space group: P -1
;
_chemical_formula_sum "Si O2"
_cell_formula_units_Z 16
_cell_length_a 14.968310
_cell_length_b 14.979684
_cell_length_c 8.996210
_cell_angle_alpha 103.952496
_cell_angle_beta 94.248292
_cell_angle_gamma 151.483028
_cell_volume 735.395831
_symmetry_space_group_name_H-M "P -1"
_symmetry_group_IT_number 2
_symmetry_cell_setting 'triclinic'
loop_
_space_group_symop_operation_xyz
x,y,z
-x,-y,-z
loop_
_atom_site_type_symbol
_atom_site_label
_atom_site_fract_x
_atom_site_fract_y
_atom_site_fract_z
Si Si1 0.489294 0.307956 0.194078
Si Si2 0.787817 0.769566 0.489967
Si Si3 0.178641 0.740631 0.975925
Si Si4 0.226653 0.756795 0.331706
Si Si5 0.992718 0.828394 0.766732
Si Si6 0.481958 0.296205 0.531953
Si Si7 0.772525 0.074053 0.411852
Si Si8 0.449336 0.807589 0.997026
O O1 0.626290 0.534949 0.306435
O O2 0.467780 0.255592 0.340954
O O3 0.638059 0.372968 0.147349
O O4 0.230139 0.068172 0.988548
O O5 0.902969 0.836682 0.680532
O O6 0.628269 0.706630 0.474133
O O7 0.000000 0.000000 0.500000
O O8 0.911659 0.471693 0.778992
O O9 0.329372 0.956131 0.988848
O O10 0.195949 0.768214 0.165957
O O11 0.287017 0.742545 0.954777
O O12 0.132821 0.741137 0.433554
O O13 0.500000 0.000000 0.500000
O O14 0.761771 0.568262 0.716808
O O15 0.057935 0.822551 0.634778
O O16 0.328933 0.085328 0.533179
O O17 0.551937 0.891047 0.206197
#
# Coordination Sequence:
#
# PCOD9032938 Si02
#       8
#     2   2   2   2   2   2   2   2
#     4  10  23  42  67  96 131 173 215 271 326 384
#     4  11  23  43  69  98 133 169 220 266 325 390
#     4  10  23  42  65  91 133 167 216 277 318 386
#     4  11  23  41  65  98 127 173 217 265 329 383
#     4  10  23  44  64  99 129 174 220 267 322 387
#     4  11  24  43  67  96 133 172 215 273 319 392
#     4  11  23  43  66  97 134 172 221 267 325 391
#     4  10  22  44  63  96 126 169 222 264 329 383
#
# _framework density 21.756988
#
# number of rings (size 3 to 8) (size 9 to 14) (size 15 to 20)
#    0.000    1.500    2.500    2.250    3.500    5.000 
#    6.750    0.000    0.000    0.000    0.000    0.000 
#    0.000    0.000    0.000    0.000    0.000    0.000 
#
# Total GULP energy -89457.121875 kJ/mol
# GULP energy per Si atom -5591.070117 kJ/mol
# Density = 2.170747 g / cm^3
# Si number density = 21.756988 Si / 1000 Ang^3
#
#
#
# Elastic Constant Matrix: (Units=GPa)
#
#
# Indices 1 2 3 4 5 6 
#
# 1 70.4147 1.9655 27.6743 5.9147 -4.3020 -0.6771
# 2 1.9655 50.3918 3.4900 -3.3742 0.6118 8.1005
# 3 27.6743 3.4900 118.1093 3.8488 -6.6699 1.8550
# 4 5.9147 -3.3742 3.8488 25.3358 11.9634 6.2624
# 5 -4.3020 0.6118 -6.6699 11.9634 30.2873 3.3683
# 6 -0.6771 8.1005 1.8550 6.2624 3.3683 31.0096
#
#
#
# Elastic Compliance Matrix: (Units=1/GPa)
#
#
# Indices 1 2 3 4 5 6 
#
# 1 0.016272 -0.001059 -0.003425 -0.005492 0.003575 0.001558
# 2 -0.001059 0.021398 -0.000605 0.005895 -0.002320 -0.006515
# 3 -0.003425 -0.000605 0.009482 -0.001731 0.002341 -0.000389
# 4 -0.005492 0.005895 -0.001731 0.054573 -0.021700 -0.010220
# 5 0.003575 -0.002320 0.002341 -0.021700 0.042626 0.000296
# 6 0.001558 -0.006515 -0.000389 -0.010220 0.000296 0.036039
#
#
# Mechanical properties :
#
#
# Convention : Reuss Voigt Hill
#
# Bulk Modulus (GPa) = 27.04626 33.90837 30.47731
# Shear Modulus (GPa) = 24.64376 31.04562 27.84469
#
# Velocity S-wave (km/s) = 3.36919 3.78157 3.58132
# Velocity P-wave (km/s) = 5.25293 5.88947 5.58028
#
# Compressibility (1/GPa) = 0.03697369
#
# Stress axis : x y z
#
# Youngs Moduli (GPa) = 61.45540 46.73372 105.46519
#
# Poissons Ratio (x) = 0.04949 0.36122
# Poissons Ratio (y) = 0.06508 0.06379
# Poissons Ratio (z) = 0.21049 0.02827
#
# Static dielectric constant tensor:
#      x y z
#    x 1.816200 0.043380 0.023070 
#    y 0.043380 1.819110 0.042230 
#    z 0.023070 0.042230 1.788440 
# 
# From -- ./inp_files/315648.got.cif
#   From: 2010.05.17/outbox.cif.g08.bks.cpg/sg2_158_cif.got.tgz:315648.got - 2010.06.03 11:33:40.
