data_PCOD9032452
_publ_section_title
;
Structure prediction by ZEFSAII (Michael W. Deem and Ramdas Pophale) SiO2 
 PCOD9032452
Probable space group: P -1
;
_chemical_formula_sum "Si O2"
_cell_formula_units_Z 12
_cell_length_a 5.175092
_cell_length_b 11.307342
_cell_length_c 9.755456
_cell_angle_alpha 72.301081
_cell_angle_beta 105.506739
_cell_angle_gamma 80.720585
_cell_volume 505.419669
_symmetry_space_group_name_H-M "P -1"
_symmetry_group_IT_number 2
_symmetry_cell_setting 'triclinic'
loop_
_space_group_symop_operation_xyz
x,y,z
-x,-y,-z
loop_
_atom_site_type_symbol
_atom_site_label
_atom_site_fract_x
_atom_site_fract_y
_atom_site_fract_z
Si Si1 0.077732 0.888263 0.938277
Si Si2 0.620628 0.328085 0.540322
Si Si3 0.110966 0.622427 0.945714
Si Si4 0.982295 0.436264 0.342808
Si Si5 0.537982 0.675869 0.163930
Si Si6 0.781666 0.032623 0.578489
O O1 0.972501 0.756447 0.959993
O O2 0.409094 0.819768 0.035395
O O3 0.950235 0.956005 0.757294
O O4 0.000000 0.000000 0.000000
O O5 0.829999 0.393898 0.466924
O O6 0.311333 0.397565 0.419538
O O7 0.593337 0.324609 0.702844
O O8 0.701337 0.181565 0.554748
O O9 0.086514 0.640498 0.772837
O O10 0.412697 0.594146 0.066238
O O11 0.000000 0.500000 0.000000
O O12 0.851679 0.589670 0.249682
O O13 0.500000 0.000000 0.500000
O O14 0.000000 0.000000 0.500000
#
# Coordination Sequence:
#
# PCOD9032452 Si02
#       6
#     2   2   2   2   2   2
#     4  10  22  48  73 105 150 195 243 305 370 445
#     4  12  25  46  72 107 147 194 245 307 366 440
#     4  10  22  43  71 106 141 187 246 303 362 428
#     4  12  25  46  74 109 146 192 248 307 366 436
#     4  10  24  43  72 104 148 190 244 298 375 429
#     4  12  25  48  73 105 145 197 247 299 369 449
#
# _framework density 23.742643999999999
#
# number of rings (size 3 to 8) (size 9 to 14) (size 15 to 20)
#    1.000    0.000    1.667    5.500    0.000    1.333 
#    3.000    0.833    0.000    0.000    0.000    0.000 
#    0.000    0.000    0.000    0.000    0.000    0.000 
#
# Total GULP energy -66983.893846 kJ/mol
# GULP energy per Si atom -5581.991154 kJ/mol
# Density = 2.368860 g / cm^3
# Si number density = 23.742644 Si / 1000 Ang^3
#
#
#
# Elastic Constant Matrix: (Units=GPa)
#
#
# Indices 1 2 3 4 5 6 
#
# 1 124.7706 40.1956 64.5943 -7.6980 16.2085 -24.6931
# 2 40.1956 200.6864 68.1770 -6.1805 2.0892 -31.1157
# 3 64.5943 68.1770 192.9238 14.6077 25.0142 -15.0507
# 4 -7.6980 -6.1805 14.6077 65.8282 -10.1626 6.2156
# 5 16.2085 2.0892 25.0142 -10.1626 36.4713 -3.3132
# 6 -24.6931 -31.1157 -15.0507 6.2156 -3.3132 29.7436
#
#
#
# Elastic Compliance Matrix: (Units=1/GPa)
#
#
# Indices 1 2 3 4 5 6 
#
# 1 0.011397 -0.000048 -0.003029 0.000983 -0.002034 0.007447
# 2 -0.000048 0.006648 -0.002189 0.000847 0.001909 0.005843
# 3 -0.003029 -0.002189 0.007744 -0.002933 -0.004730 -0.000800
# 4 0.000983 0.000847 -0.002933 0.017231 0.006082 -0.002705
# 5 -0.002034 0.001909 -0.004730 0.006082 0.033183 0.000340
# 6 0.007447 0.005843 -0.000800 -0.002705 0.000340 0.046114
#
#
# Mechanical properties :
#
#
# Convention : Reuss Voigt Hill
#
# Bulk Modulus (GPa) = 65.53978 96.03498 80.78738
# Shear Modulus (GPa) = 36.24907 49.43621 42.84264
#
# Velocity S-wave (km/s) = 3.91160 4.56803 4.25250
# Velocity P-wave (km/s) = 6.93289 8.26793 7.62967
#
# Compressibility (1/GPa) = 0.01525791
#
# Stress axis : x y z
#
# Youngs Moduli (GPa) = 87.74379 150.41219 129.13156
#
# Poissons Ratio (x) = 0.00717 0.39110
# Poissons Ratio (y) = 0.00418 0.28271
# Poissons Ratio (z) = 0.26575 0.32930
#
# Static dielectric constant tensor:
#      x y z
#    x 1.648930 -0.064330 0.040240 
#    y -0.064330 1.886540 -0.011110 
#    z 0.040240 -0.011110 1.910750 
# 
# From -- ./inp_files/130631.got.cif
#   From: 2010.05.17/outbox.cif.g08.bks.cpg/sg2_66_cif.got.tgz:130631.got - 2010.06.03 11:33:40.
