data_PCOD9032725
_publ_section_title
;
Structure prediction by ZEFSAII (Michael W. Deem and Ramdas Pophale) SiO2 
 PCOD9032725
Probable space group: P -1
;
_chemical_formula_sum "Si O2"
_cell_formula_units_Z 16
_cell_length_a 9.885298
_cell_length_b 8.751588
_cell_length_c 14.015790
_cell_angle_alpha 98.800245
_cell_angle_beta 40.216309
_cell_angle_gamma 116.181931
_cell_volume 666.237419
_symmetry_space_group_name_H-M "P -1"
_symmetry_group_IT_number 2
_symmetry_cell_setting 'triclinic'
loop_
_space_group_symop_operation_xyz
x,y,z
-x,-y,-z
loop_
_atom_site_type_symbol
_atom_site_label
_atom_site_fract_x
_atom_site_fract_y
_atom_site_fract_z
Si Si1 0.958999 0.844958 0.809888
Si Si2 0.174604 0.732554 0.994138
Si Si3 0.626224 0.444624 0.663101
Si Si4 0.070513 0.479141 0.309550
Si Si5 0.545103 0.197671 0.976233
Si Si6 0.604299 0.927084 0.518597
Si Si7 0.681837 0.970974 0.188728
Si Si8 0.687343 0.430595 0.265041
O O1 0.965533 0.664276 0.765171
O O2 0.684634 0.795240 0.937429
O O3 0.100307 0.927907 0.841460
O O4 0.119735 0.988155 0.654014
O O5 0.365481 0.719991 0.958589
O O6 0.238285 0.929585 0.945993
O O7 0.188182 0.652338 0.877236
O O8 0.917046 0.627789 0.177067
O O9 0.773440 0.534061 0.688761
O O10 0.506302 0.546357 0.688649
O O11 0.818505 0.440783 0.486152
O O12 0.417491 0.239520 0.777461
O O13 0.230869 0.680105 0.202411
O O14 0.500000 0.000000 0.000000
O O15 0.544850 0.005435 0.652034
O O16 0.456131 0.712819 0.588929
O O17 0.500000 0.000000 0.500000
#
# Coordination Sequence:
#
# PCOD9032725 Si02
#       8
#     2   2   2   2   2   2   2   2
#     4  11  24  44  72  97 130 187 224 275 345 407
#     4  10  24  44  67  98 140 177 224 276 340 409
#     4  11  24  44  70 104 132 181 227 284 337 401
#     4  11  26  45  68  97 145 177 224 277 347 411
#     4  12  28  43  64 102 140 175 224 289 339 398
#     4   9  20  41  66  97 132 169 221 275 334 396
#     4  10  22  43  73  98 134 176 230 278 333 405
#     4  10  23  40  72  99 129 177 231 276 330 404
#
# _framework density 24.015463
#
# number of rings (size 3 to 8) (size 9 to 14) (size 15 to 20)
#    0.000    1.500    1.250    1.875   12.250    0.500 
#    0.000    5.000    0.000    0.000    0.000    0.000 
#    0.000    0.000    0.000    0.000    0.000    0.000 
#
# Total GULP energy -89499.762492 kJ/mol
# GULP energy per Si atom -5593.735156 kJ/mol
# Density = 2.396080 g / cm^3
# Si number density = 24.015463 Si / 1000 Ang^3
#
#
#
# Elastic Constant Matrix: (Units=GPa)
#
#
# Indices 1 2 3 4 5 6 
#
# 1 116.0604 18.6649 33.5149 -5.2087 -1.9846 -8.2092
# 2 18.6649 59.9082 35.1765 -21.6627 6.5132 -11.3035
# 3 33.5149 35.1765 129.4949 -46.4617 2.8980 -15.8673
# 4 -5.2087 -21.6627 -46.4617 39.9519 -9.9254 12.2022
# 5 -1.9846 6.5132 2.8980 -9.9254 31.2874 -4.0903
# 6 -8.2092 -11.3035 -15.8673 12.2022 -4.0903 37.7679
#
#
#
# Elastic Compliance Matrix: (Units=1/GPa)
#
#
# Indices 1 2 3 4 5 6 
#
# 1 0.009854 -0.002447 -0.003194 -0.004116 0.000312 0.001431
# 2 -0.002447 0.022302 -0.002204 0.008039 -0.001725 0.002433
# 3 -0.003194 -0.002204 0.015195 0.017135 0.004279 -0.000043
# 4 -0.004116 0.008039 0.017135 0.054203 0.012703 -0.007426
# 5 0.000312 -0.001725 0.004279 0.012703 0.036125 0.001157
# 6 0.001431 0.002433 -0.000043 -0.007426 0.001157 0.030023
#
#
# Mechanical properties :
#
#
# Convention : Reuss Voigt Hill
#
# Bulk Modulus (GPa) = 31.58492 53.35289 42.46891
# Shear Modulus (GPa) = 25.78032 36.34192 31.06112
#
# Velocity S-wave (km/s) = 3.27997 3.89430 3.60026
# Velocity P-wave (km/s) = 5.24640 6.51806 5.91649
#
# Compressibility (1/GPa) = 0.03166068
#
# Stress axis : x y z
#
# Youngs Moduli (GPa) = 101.48248 44.83881 65.81261
#
# Poissons Ratio (x) = 0.10971 0.21022
# Poissons Ratio (y) = 0.24831 0.14505
# Poissons Ratio (z) = 0.32415 0.09882
#
# Static dielectric constant tensor:
#      x y z
#    x 1.909510 0.058610 0.000080 
#    y 0.058610 2.011640 -0.021440 
#    z 0.000080 -0.021440 1.964620 
# 
# From -- ./inp_files/494817.got.cif
#   From: 2010.05.17/outbox.cif.g08.bks.cpg/sg2_248_cif.got.tgz:494817.got - 2010.06.03 11:33:40.
