data_PCOD9032131
_publ_section_title
;
Structure prediction by ZEFSAII (Michael W. Deem and Ramdas Pophale) SiO2 
 PCOD9032131
Probable space group: P -1
;
_chemical_formula_sum "Si O2"
_cell_formula_units_Z 12
_cell_length_a 12.790641
_cell_length_b 8.121905
_cell_length_c 12.564978
_cell_angle_alpha 96.814416
_cell_angle_beta 49.827077
_cell_angle_gamma 136.438569
_cell_volume 514.903007
_symmetry_space_group_name_H-M "P -1"
_symmetry_group_IT_number 2
_symmetry_cell_setting 'triclinic'
loop_
_space_group_symop_operation_xyz
x,y,z
-x,-y,-z
loop_
_atom_site_type_symbol
_atom_site_label
_atom_site_fract_x
_atom_site_fract_y
_atom_site_fract_z
Si Si1 0.758728 0.872378 0.632825
Si Si2 0.337298 0.861465 0.763250
Si Si3 0.900932 0.318295 0.439113
Si Si4 0.789652 0.890531 0.068854
Si Si5 0.693445 0.856542 0.908298
Si Si6 0.168797 0.667449 0.077280
O O1 0.488992 0.492610 0.772641
O O2 0.767022 0.974782 0.748787
O O3 0.811650 0.043018 0.511337
O O4 0.000000 0.000000 0.500000
O O5 0.118573 0.577571 0.800760
O O6 0.640514 0.148635 0.560278
O O7 0.266715 0.982681 0.839449
O O8 0.293333 0.715895 0.893264
O O9 0.000000 0.500000 0.500000
O O10 0.097724 0.511948 0.224127
O O11 0.879224 0.990852 0.893477
O O12 0.000000 0.000000 0.000000
O O13 0.630657 0.973543 0.003980
O O14 0.500000 0.500000 0.000000
#
# Coordination Sequence:
#
# PCOD9032131 Si02
#       6
#     2   2   2   2   2   2
#     4  11  24  43  64  99 139 171 224 283 342 402
#     4  10  24  44  69  98 136 176 225 275 341 403
#     4  12  24  42  69  99 134 175 229 278 334 408
#     4  10  23  43  69  96 133 178 227 276 341 407
#     4   9  20  42  65  92 133 175 219 276 333 403
#     4  10  22  43  69  98 135 173 226 280 337 397
#
# _framework density 23.305361000000001
#
# number of rings (size 3 to 8) (size 9 to 14) (size 15 to 20)
#    0.000    1.667    1.667    1.500    7.000    2.000 
#    6.000    1.667    0.000    0.000    0.000    0.000 
#    0.000    0.000    0.000    0.000    0.000    0.000 
#
# Total GULP energy -66860.814768 kJ/mol
# GULP energy per Si atom -5571.734564 kJ/mol
# Density = 2.325232 g / cm^3
# Si number density = 23.305361 Si / 1000 Ang^3
#
#
#
# Elastic Constant Matrix: (Units=GPa)
#
#
# Indices 1 2 3 4 5 6 
#
# 1 128.9126 46.0626 49.1463 -5.0229 10.1894 12.4501
# 2 46.0626 109.9488 25.8685 -15.9169 4.9845 6.6663
# 3 49.1463 25.8685 82.0952 -5.6097 18.9911 14.6654
# 4 -5.0229 -15.9169 -5.6097 27.1884 12.9809 2.5590
# 5 10.1894 4.9845 18.9911 12.9809 62.6840 -5.3403
# 6 12.4501 6.6663 14.6654 2.5590 -5.3403 36.9848
#
#
#
# Elastic Compliance Matrix: (Units=1/GPa)
#
#
# Indices 1 2 3 4 5 6 
#
# 1 0.011138 -0.003500 -0.005596 -0.001244 0.000356 -0.000762
# 2 -0.003500 0.011899 -0.000442 0.007275 -0.001884 -0.001567
# 3 -0.005596 -0.000442 0.018908 0.006469 -0.006715 -0.006951
# 4 -0.001244 0.007275 0.006469 0.049321 -0.013299 -0.008791
# 5 0.000356 -0.001884 -0.006715 -0.013299 0.021421 0.006896
# 6 -0.000762 -0.001567 -0.006951 -0.008791 0.006896 0.031937
#
#
# Mechanical properties :
#
#
# Convention : Reuss Voigt Hill
#
# Bulk Modulus (GPa) = 43.72627 62.56793 53.14710
# Shear Modulus (GPa) = 29.18480 38.69674 33.94077
#
# Velocity S-wave (km/s) = 3.54259 4.07925 3.82036
# Velocity P-wave (km/s) = 5.96124 7.00659 6.50495
#
# Compressibility (1/GPa) = 0.02286955
#
# Stress axis : x y z
#
# Youngs Moduli (GPa) = 89.78119 84.04245 52.88865
#
# Poissons Ratio (x) = 0.29412 0.29598
# Poissons Ratio (y) = 0.31420 0.02335
# Poissons Ratio (z) = 0.50245 0.03711
#
# Static dielectric constant tensor:
#      x y z
#    x 1.906100 -0.020640 0.040260 
#    y -0.020640 1.904580 0.002330 
#    z 0.040260 0.002330 1.895120 
# 
# From -- ./inp_files/231586.got.cif
#   From: 2010.05.17/outbox.cif.g08.bks.cpg/sg2_116_cif.got.tgz:231586.got - 2010.06.03 11:33:40.
