data_PCOD9032361
_publ_section_title
;
Structure prediction by ZEFSAII (Michael W. Deem and Ramdas Pophale) SiO2 
 PCOD9032361
Probable space group: P -1
;
_chemical_formula_sum "Si O2"
_cell_formula_units_Z 16
_cell_length_a 9.879509
_cell_length_b 29.611777
_cell_length_c 8.642075
_cell_angle_alpha 136.731817
_cell_angle_beta 113.832542
_cell_angle_gamma 31.467569
_cell_volume 719.230470
_symmetry_space_group_name_H-M "P -1"
_symmetry_group_IT_number 2
_symmetry_cell_setting 'triclinic'
loop_
_space_group_symop_operation_xyz
x,y,z
-x,-y,-z
loop_
_atom_site_type_symbol
_atom_site_label
_atom_site_fract_x
_atom_site_fract_y
_atom_site_fract_z
Si Si1 0.570442 0.629411 0.210897
Si Si2 0.256667 0.637521 0.937929
Si Si3 0.487493 0.077886 0.749354
Si Si4 0.376046 0.350722 0.358591
Si Si5 0.330706 0.879858 0.258086
Si Si6 0.294696 0.289162 0.686532
Si Si7 0.661387 0.362994 0.370436
Si Si8 0.405356 0.103837 0.121153
O O1 0.599508 0.639755 0.427526
O O2 0.539246 0.709545 0.298459
O O3 0.293373 0.684879 0.186472
O O4 0.912106 0.456128 0.897695
O O5 0.464126 0.491095 0.708875
O O6 0.412816 0.600082 0.753829
O O7 0.895864 0.753426 0.028852
O O8 0.687741 0.042084 0.634001
O O9 0.500000 0.000000 0.500000
O O10 0.582780 0.041873 0.883184
O O11 0.572400 0.325971 0.287881
O O12 0.000000 0.500000 0.500000
O O13 0.566566 0.207927 0.054662
O O14 0.618490 0.754390 0.202297
O O15 0.000000 0.000000 0.500000
O O16 0.410557 0.173532 0.378534
O O17 0.032622 0.235484 0.239066
O O18 0.500000 0.000000 0.000000
#
# Coordination Sequence:
#
# PCOD9032361 Si02
#       8
#     2   2   2   2   2   2   2   2
#     4  11  24  42  72 105 137 178 233 303 344 426
#     4  10  22  43  70  99 137 175 233 290 352 413
#     4  11  26  46  73 101 139 190 236 287 353 428
#     4  12  25  43  68 100 138 180 235 286 353 417
#     4  12  28  48  71 101 147 190 234 288 359 429
#     4  11  24  44  70 102 140 182 234 288 362 413
#     4  10  23  41  69 100 133 182 228 287 353 418
#     4  11  24  46  72 103 144 185 233 293 355 423
#
# _framework density 22.245998
#
# number of rings (size 3 to 8) (size 9 to 14) (size 15 to 20)
#    0.000    1.000    2.500    3.000    8.750    2.500 
#    0.000    1.250    0.000    0.000    0.000    0.000 
#    0.000    0.000    0.000    0.000    0.000    0.000 
#
# Total GULP energy -89398.859936 kJ/mol
# GULP energy per Si atom -5587.428746 kJ/mol
# Density = 2.219537 g / cm^3
# Si number density = 22.245998 Si / 1000 Ang^3
#
#
#
# Elastic Constant Matrix: (Units=GPa)
#
#
# Indices 1 2 3 4 5 6 
#
# 1 92.9096 10.0186 13.5659 -0.5499 4.8546 15.3553
# 2 10.0186 72.7953 21.9895 -14.2061 6.9871 12.1629
# 3 13.5659 21.9895 103.3216 -12.5063 15.1938 6.9222
# 4 -0.5499 -14.2061 -12.5063 39.2041 -0.8212 1.9260
# 5 4.8546 6.9871 15.1938 -0.8212 37.4040 0.7349
# 6 15.3553 12.1629 6.9222 1.9260 0.7349 31.9595
#
#
#
# Elastic Compliance Matrix: (Units=1/GPa)
#
#
# Indices 1 2 3 4 5 6 
#
# 1 0.011878 -0.000360 -0.000988 -0.000037 -0.000969 -0.005331
# 2 -0.000360 0.016726 -0.002138 0.005628 -0.001967 -0.006023
# 3 -0.000988 -0.002138 0.011265 0.002782 -0.003963 -0.001228
# 4 -0.000037 0.005628 0.002782 0.028621 -0.001462 -0.004418
# 5 -0.000969 -0.001967 -0.003963 -0.001462 0.028777 0.001499
# 6 -0.005331 -0.006023 -0.001228 -0.004418 0.001499 0.036641
#
#
# Mechanical properties :
#
#
# Convention : Reuss Voigt Hill
#
# Bulk Modulus (GPa) = 30.39766 40.01939 35.20852
# Shear Modulus (GPa) = 32.92824 36.61034 34.76929
#
# Velocity S-wave (km/s) = 3.85149 4.06113 3.95770
# Velocity P-wave (km/s) = 5.78556 6.32605 6.06183
#
# Compressibility (1/GPa) = 0.03289727
#
# Stress axis : x y z
#
# Youngs Moduli (GPa) = 84.19126 59.78621 88.76932
#
# Poissons Ratio (x) = 0.02151 0.08768
# Poissons Ratio (y) = 0.03029 0.18983
# Poissons Ratio (z) = 0.08316 0.12785
#
# Static dielectric constant tensor:
#      x y z
#    x 1.816300 0.006540 0.031550 
#    y 0.006540 1.940620 0.122520 
#    z 0.031550 0.122520 2.016080 
# 
# From -- ./inp_files/227765.got.cif
#   From: 2010.05.17/outbox.cif.g08.bks.cpg/sg2_114_cif.got.tgz:227765.got - 2010.06.03 11:33:40.
