data_PCOD9032695
_publ_section_title
;
Structure prediction by ZEFSAII (Michael W. Deem and Ramdas Pophale) SiO2 
 PCOD9032695
Probable space group: P -1
;
_chemical_formula_sum "Si O2"
_cell_formula_units_Z 10
_cell_length_a 10.875384
_cell_length_b 6.843812
_cell_length_c 13.017616
_cell_angle_alpha 99.076730
_cell_angle_beta 32.627069
_cell_angle_gamma 118.419348
_cell_volume 394.492515
_symmetry_space_group_name_H-M "P -1"
_symmetry_group_IT_number 2
_symmetry_cell_setting 'triclinic'
loop_
_space_group_symop_operation_xyz
x,y,z
-x,-y,-z
loop_
_atom_site_type_symbol
_atom_site_label
_atom_site_fract_x
_atom_site_fract_y
_atom_site_fract_z
Si Si1 0.709445 0.080723 0.577107
Si Si2 0.568032 0.866060 0.041770
Si Si3 0.138074 0.888189 0.837167
Si Si4 0.760790 0.772352 0.388688
Si Si5 0.759525 0.524163 0.917452
O O1 0.667011 0.152367 0.723684
O O2 0.400129 0.960750 0.728877
O O3 0.730811 0.854805 0.528887
O O4 0.988546 0.328167 0.338200
O O5 0.536429 0.232166 0.009717
O O6 0.604711 0.655354 0.037674
O O7 0.908201 0.133030 0.837680
O O8 0.248977 0.045504 0.666047
O O9 0.910530 0.596666 0.929510
O O10 0.000000 0.000000 0.000000
O O11 0.500000 0.500000 0.500000
#
# Coordination Sequence:
#
# PCOD9032695 Si02
#       5
#     2   2   2   2   2
#     4  10  17  32  55  75  97 130 172 203 248 286
#     4   9  17  31  47  77 101 128 164 207 246 289
#     4  10  17  34  53  77  97 130 169 207 244 287
#     4  10  21  33  51  76 104 131 165 205 247 299
#     4   9  17  27  50  77 102 123 163 215 240 287
#
# _framework density 25.349025999999999
#
# number of rings (size 3 to 8) (size 9 to 14) (size 15 to 20)
#    0.000    2.800    4.000    3.000    0.000    0.800 
#    0.000    0.000    0.000    6.000    0.000    0.000 
#    0.000    0.000    0.000    0.000    0.000    0.000 
#
# Total GULP energy -55821.533097 kJ/mol
# GULP energy per Si atom -5582.153310 kJ/mol
# Density = 2.529133 g / cm^3
# Si number density = 25.349026 Si / 1000 Ang^3
#
#
#
# Elastic Constant Matrix: (Units=GPa)
#
#
# Indices 1 2 3 4 5 6 
#
# 1 85.5719 29.1503 9.4831 -10.3304 -9.0168 32.8758
# 2 29.1503 98.0207 54.5612 15.3508 6.5464 54.3625
# 3 9.4831 54.5612 112.7698 24.5661 5.7879 24.1609
# 4 -10.3304 15.3508 24.5661 46.0182 16.9362 -2.2470
# 5 -9.0168 6.5464 5.7879 16.9362 37.0915 0.9296
# 6 32.8758 54.3625 24.1609 -2.2470 0.9296 61.6926
#
#
#
# Elastic Compliance Matrix: (Units=1/GPa)
#
#
# Indices 1 2 3 4 5 6 
#
# 1 0.015451 -0.001350 0.000207 0.002331 0.003076 -0.007086
# 2 -0.001350 0.026932 -0.007148 -0.006248 -0.000601 -0.020432
# 3 0.000207 -0.007148 0.013173 -0.005145 0.001585 0.000818
# 4 0.002331 -0.006248 -0.005145 0.031994 -0.012328 0.007629
# 5 0.003076 -0.000601 0.001585 -0.012328 0.033263 -0.002680
# 6 -0.007086 -0.020432 0.000818 0.007629 -0.002680 0.037988
#
#
# Mechanical properties :
#
#
# Convention : Reuss Voigt Hill
#
# Bulk Modulus (GPa) = 25.65847 53.63906 39.64877
# Shear Modulus (GPa) = 26.54290 42.50497 34.52394
#
# Velocity S-wave (km/s) = 3.23940 4.09930 3.69446
# Velocity P-wave (km/s) = 4.91281 6.60393 5.82012
#
# Compressibility (1/GPa) = 0.03897349
#
# Stress axis : x y z
#
# Youngs Moduli (GPa) = 64.72021 37.13012 75.91564
#
# Poissons Ratio (x) = 0.05014 -0.01569
# Poissons Ratio (y) = 0.08740 0.54261
# Poissons Ratio (z) = -0.01338 0.26539
#
# Static dielectric constant tensor:
#      x y z
#    x 2.134800 0.058740 -0.012770 
#    y 0.058740 2.288280 -0.029420 
#    z -0.012770 -0.029420 2.088110 
# 
# From -- ./inp_files/92628.got.cif
#   From: 2010.05.17/outbox.cif.g08.bks.cpg/sg2_47_cif.got.tgz:92628.got - 2010.06.03 11:33:40.
