data_PCOD9032615
_publ_section_title
;
Structure prediction by ZEFSAII (Michael W. Deem and Ramdas Pophale) SiO2 
 PCOD9032615
Probable space group: P -1
;
_chemical_formula_sum "Si O2"
_cell_formula_units_Z 10
_cell_length_a 17.422082
_cell_length_b 15.888381
_cell_length_c 5.584336
_cell_angle_alpha 64.122334
_cell_angle_beta 68.623416
_cell_angle_gamma 16.671571
_cell_volume 390.297688
_symmetry_space_group_name_H-M "P -1"
_symmetry_group_IT_number 2
_symmetry_cell_setting 'triclinic'
loop_
_space_group_symop_operation_xyz
x,y,z
-x,-y,-z
loop_
_atom_site_type_symbol
_atom_site_label
_atom_site_fract_x
_atom_site_fract_y
_atom_site_fract_z
Si Si1 0.997417 0.872325 0.919804
Si Si2 0.357254 0.583786 0.243745
Si Si3 0.657688 0.730723 0.141698
Si Si4 0.445032 0.769596 0.198720
Si Si5 0.801092 0.628707 0.603871
O O1 0.253706 0.574548 0.827471
O O2 0.809431 0.165789 0.705839
O O3 0.788382 0.011616 0.989004
O O4 0.140941 0.749903 0.153571
O O5 0.573448 0.282754 0.496847
O O6 0.500000 0.500000 0.000000
O O7 0.453770 0.865734 0.159585
O O8 0.803464 0.563465 0.441513
O O9 0.837885 0.542402 0.929324
O O10 0.500000 0.000000 0.000000
O O11 0.000000 0.500000 0.500000
O O12 0.500000 0.000000 0.500000
#
# Coordination Sequence:
#
# PCOD9032615 Si02
#       5
#     2   2   2   2   2
#     4  11  26  44  69 104 141 186 236 299 366 433
#     4  11  25  45  74 103 145 185 240 297 373 433
#     4  10  25  48  72 107 146 195 241 305 359 431
#     4  12  27  43  71 104 146 186 246 292 367 436
#     4  10  22  43  72  96 135 184 240 290 359 413
#
# _framework density 25.621466999999999
#
# number of rings (size 3 to 8) (size 9 to 14) (size 15 to 20)
#    0.000    1.200    2.000    1.800    8.400    6.400 
#    0.000    2.000    0.000    0.000    0.000    0.000 
#    0.000    0.000    0.000    0.000    0.000    0.000 
#
# Total GULP energy -55968.808444 kJ/mol
# GULP energy per Si atom -5596.880844 kJ/mol
# Density = 2.556315 g / cm^3
# Si number density = 25.621467 Si / 1000 Ang^3
#
#
#
# Elastic Constant Matrix: (Units=GPa)
#
#
# Indices 1 2 3 4 5 6 
#
# 1 251.9946 57.1346 69.7837 -1.4123 10.8808 -35.2819
# 2 57.1346 118.7415 35.7178 12.2589 -6.8835 -24.6876
# 3 69.7837 35.7178 132.8781 23.2660 22.4905 -10.1096
# 4 -1.4123 12.2589 23.2660 33.6172 -0.3993 -4.7738
# 5 10.8808 -6.8835 22.4905 -0.3993 34.9189 -8.8466
# 6 -35.2819 -24.6876 -10.1096 -4.7738 -8.8466 58.2243
#
#
#
# Elastic Compliance Matrix: (Units=1/GPa)
#
#
# Indices 1 2 3 4 5 6 
#
# 1 0.005467 -0.001529 -0.002916 0.003167 0.000543 0.002500
# 2 -0.001529 0.011247 -0.002495 -0.001798 0.005311 0.004069
# 3 -0.002916 -0.002495 0.012381 -0.008252 -0.008314 -0.002615
# 4 0.003167 -0.001798 -0.008252 0.036813 0.005293 0.003546
# 5 0.000543 0.005311 -0.008314 0.005293 0.036743 0.007154
# 6 0.002500 0.004069 -0.002615 0.003546 0.007154 0.021339
#
#
# Mechanical properties :
#
#
# Convention : Reuss Voigt Hill
#
# Bulk Modulus (GPa) = 65.72450 92.09849 78.91149
# Shear Modulus (GPa) = 34.97927 48.08397 41.53162
#
# Velocity S-wave (km/s) = 3.69891 4.33680 4.03049
# Velocity P-wave (km/s) = 6.62951 7.81671 7.24746
#
# Compressibility (1/GPa) = 0.01521503
#
# Stress axis : x y z
#
# Youngs Moduli (GPa) = 182.91654 88.91105 80.76940
#
# Poissons Ratio (x) = 0.13594 0.23555
# Poissons Ratio (y) = 0.27967 0.20150
# Poissons Ratio (z) = 0.53345 0.22181
#
# Static dielectric constant tensor:
#      x y z
#    x 1.974650 0.040090 0.019950 
#    y 0.040090 2.035940 -0.031100 
#    z 0.019950 -0.031100 2.102060 
# 
# From -- ./inp_files/2554.got.cif
#   From: 2010.05.17/outbox.cif.g08.bks.cpg/sg2_2_cif.got.tgz:2554.got - 2010.06.03 11:33:40.
