data_PCOD9032959
_publ_section_title
;
Structure prediction by ZEFSAII (Michael W. Deem and Ramdas Pophale) SiO2 
 PCOD9032959
Probable space group: P -1
;
_chemical_formula_sum "Si O2"
_cell_formula_units_Z 14
_cell_length_a 14.352227
_cell_length_b 14.028501
_cell_length_c 8.395682
_cell_angle_alpha 127.550544
_cell_angle_beta 70.672982
_cell_angle_gamma 149.985675
_cell_volume 582.033332
_symmetry_space_group_name_H-M "P -1"
_symmetry_group_IT_number 2
_symmetry_cell_setting 'triclinic'
loop_
_space_group_symop_operation_xyz
x,y,z
-x,-y,-z
loop_
_atom_site_type_symbol
_atom_site_label
_atom_site_fract_x
_atom_site_fract_y
_atom_site_fract_z
Si Si1 0.100451 0.241186 0.195200
Si Si2 0.858029 0.080221 0.461180
Si Si3 0.730302 0.200960 0.517663
Si Si4 0.284717 0.123728 0.159828
Si Si5 0.912393 0.531388 0.013972
Si Si6 0.454305 0.048897 0.944505
Si Si7 0.541165 0.595821 0.326360
O O1 0.354418 0.494599 0.305633
O O2 0.037852 0.235392 0.391432
O O3 0.000000 0.000000 0.000000
O O4 0.960927 0.147373 0.035949
O O5 0.758509 0.094871 0.457737
O O6 0.944040 0.213443 0.722134
O O7 0.702031 0.798630 0.297580
O O8 0.500000 0.000000 0.500000
O O9 0.723077 0.190792 0.322347
O O10 0.891163 0.468863 0.779689
O O11 0.420658 0.338566 0.160714
O O12 0.330688 0.247426 0.420224
O O13 0.378862 0.093742 0.100199
O O14 0.675400 0.303463 0.981893
O O15 0.000000 0.500000 0.000000
O O16 0.500000 0.000000 0.000000
#
# Coordination Sequence:
#
# PCOD9032959 Si02
#       7
#     2   2   2   2   2   2   2
#     4  10  22  44  67 101 141 175 240 288 332 427
#     4  11  21  44  69  96 140 185 220 289 359 400
#     4   9  20  40  63  98 133 172 234 282 330 423
#     4  10  22  44  64 103 140 174 238 289 331 429
#     4   9  21  40  63  95 134 169 234 285 327 429
#     4  11  22  40  69  95 137 184 222 291 358 395
#     4  10  24  43  71  98 142 183 228 286 351 415
#
# _framework density 24.053605000000001
#
# number of rings (size 3 to 8) (size 9 to 14) (size 15 to 20)
#    0.000    2.000    1.429    0.857    6.000    2.286 
#    5.143   12.857    0.000    0.000    0.000    0.000 
#    0.000    0.000    0.000    0.000    0.000    0.000 
#
# Total GULP energy -78192.824722 kJ/mol
# GULP energy per Si atom -5585.201766 kJ/mol
# Density = 2.399886 g / cm^3
# Si number density = 24.053605 Si / 1000 Ang^3
#
#
#
# Elastic Constant Matrix: (Units=GPa)
#
#
# Indices 1 2 3 4 5 6 
#
# 1 105.1700 8.6907 13.0621 8.2482 -0.5677 -16.7078
# 2 8.6907 39.4584 -1.9321 6.3514 8.8546 -2.0827
# 3 13.0621 -1.9321 91.2316 -8.6428 20.2949 -23.3854
# 4 8.2482 6.3514 -8.6428 26.0561 1.0613 -4.7526
# 5 -0.5677 8.8546 20.2949 1.0613 40.0155 -3.7407
# 6 -16.7078 -2.0827 -23.3854 -4.7526 -3.7407 39.7013
#
#
#
# Elastic Compliance Matrix: (Units=1/GPa)
#
#
# Indices 1 2 3 4 5 6 
#
# 1 0.010616 -0.002165 -0.001327 -0.002721 0.001693 0.003406
# 2 -0.002165 0.028404 0.002182 -0.005116 -0.007234 0.000570
# 3 -0.001327 0.002182 0.015968 0.007163 -0.007942 0.009071
# 4 -0.002721 -0.005116 0.007163 0.044414 -0.002984 0.007841
# 5 0.001693 -0.007234 -0.007942 -0.002984 0.030552 -0.001824
# 6 0.003406 0.000570 0.009071 0.007841 -0.001824 0.032761
#
#
# Mechanical properties :
#
#
# Convention : Reuss Voigt Hill
#
# Bulk Modulus (GPa) = 19.09607 30.61124 24.85365
# Shear Modulus (GPa) = 27.35366 35.55722 31.45544
#
# Velocity S-wave (km/s) = 3.37589 3.84897 3.62017
# Velocity P-wave (km/s) = 4.81162 5.70146 5.27534
#
# Compressibility (1/GPa) = 0.05236681
#
# Stress axis : x y z
#
# Youngs Moduli (GPa) = 94.19921 35.20665 62.62612
#
# Poissons Ratio (x) = 0.07624 0.08311
# Poissons Ratio (y) = 0.20398 -0.13667
# Poissons Ratio (z) = 0.12502 -0.07683
#
# Static dielectric constant tensor:
#      x y z
#    x 1.905920 -0.089530 0.026920 
#    y -0.089530 1.717530 -0.094890 
#    z 0.026920 -0.094890 1.956970 
# 
# From -- ./inp_files/315862.got.cif
#   From: 2010.05.17/outbox.cif.g08.bks.cpg/sg2_158_cif.got.tgz:315862.got - 2010.06.03 11:33:40.
