data_PCOD9032502
_publ_section_title
;
Structure prediction by ZEFSAII (Michael W. Deem and Ramdas Pophale) SiO2 
 PCOD9032502
Probable space group: P -1
;
_chemical_formula_sum "Si O2"
_cell_formula_units_Z 12
_cell_length_a 8.798890
_cell_length_b 11.911161
_cell_length_c 8.268309
_cell_angle_alpha 81.607154
_cell_angle_beta 63.918508
_cell_angle_gamma 130.778736
_cell_volume 454.418006
_symmetry_space_group_name_H-M "P -1"
_symmetry_group_IT_number 2
_symmetry_cell_setting 'triclinic'
loop_
_space_group_symop_operation_xyz
x,y,z
-x,-y,-z
loop_
_atom_site_type_symbol
_atom_site_label
_atom_site_fract_x
_atom_site_fract_y
_atom_site_fract_z
Si Si1 0.934533 0.851172 0.961623
Si Si2 0.660649 0.504150 0.543543
Si Si3 0.308919 0.644815 0.906769
Si Si4 0.874054 0.387293 0.416893
Si Si5 0.426614 0.966136 0.848435
Si Si6 0.250023 0.301847 0.259788
O O1 0.966973 0.854964 0.750211
O O2 0.112990 0.848613 0.971558
O O3 0.595550 0.670731 0.183945
O O4 0.000000 0.000000 0.000000
O O5 0.500000 0.500000 0.500000
O O6 0.749845 0.442815 0.409971
O O7 0.863332 0.684907 0.535485
O O8 0.155946 0.506502 0.164418
O O9 0.431650 0.838064 0.822702
O O10 0.577057 0.708692 0.735456
O O11 0.000000 0.500000 0.000000
O O12 0.000000 0.500000 0.500000
O O13 0.635025 0.163772 0.608517
O O14 0.500000 0.000000 0.000000
O O15 0.500000 0.500000 0.000000
#
# Coordination Sequence:
#
# PCOD9032502 Si02
#       6
#     2   2   2   2   2   2
#     4  11  21  42  67  96 141 180 229 290 359 418
#     4  11  23  43  72 101 134 184 238 288 357 430
#     4  12  25  46  72 104 146 182 236 300 359 431
#     4  12  24  44  73 102 140 184 240 294 356 427
#     4  12  25  43  72 104 139 190 241 292 365 426
#     4  10  22  43  71  97 139 188 230 291 362 420
#
# _framework density 26.407406000000002
#
# number of rings (size 3 to 8) (size 9 to 14) (size 15 to 20)
#    0.000    0.667    3.333    7.000    0.000    0.667 
#    0.000    0.833    0.000    0.000    0.000    0.000 
#    0.000    0.000    0.000    0.000    0.000    0.000 
#
# Total GULP energy -66880.947071 kJ/mol
# GULP energy per Si atom -5573.412256 kJ/mol
# Density = 2.634730 g / cm^3
# Si number density = 26.407406 Si / 1000 Ang^3
#
#
#
# Elastic Constant Matrix: (Units=GPa)
#
#
# Indices 1 2 3 4 5 6 
#
# 1 206.5234 52.0929 9.7955 11.6731 -4.6823 -7.6170
# 2 52.0929 158.3046 27.8690 1.9004 12.5368 -8.6773
# 3 9.7955 27.8690 81.1806 -0.5535 -12.9645 -14.4355
# 4 11.6731 1.9004 -0.5535 36.7567 -1.2637 13.2897
# 5 -4.6823 12.5368 -12.9645 -1.2637 39.8576 9.8321
# 6 -7.6170 -8.6773 -14.4355 13.2897 9.8321 64.0763
#
#
#
# Elastic Compliance Matrix: (Units=1/GPa)
#
#
# Indices 1 2 3 4 5 6 
#
# 1 0.005454 -0.001869 0.000264 -0.001835 0.001092 0.000668
# 2 -0.001869 0.007798 -0.002919 -0.000283 -0.003834 0.000823
# 3 0.000264 -0.002919 0.014491 -0.000329 0.005114 0.002184
# 4 -0.001835 -0.000283 -0.000329 0.030420 0.002462 -0.007018
# 5 0.001092 -0.003834 0.005114 0.002462 0.029208 -0.004230
# 6 0.000668 0.000823 0.002184 -0.007018 -0.004230 0.018394
#
#
# Mechanical properties :
#
#
# Convention : Reuss Voigt Hill
#
# Bulk Modulus (GPa) = 53.49051 69.50261 61.49656
# Shear Modulus (GPa) = 41.30645 51.88820 46.59732
#
# Velocity S-wave (km/s) = 3.95929 4.43754 4.20522
# Velocity P-wave (km/s) = 6.41881 7.25480 6.84957
#
# Compressibility (1/GPa) = 0.01869490
#
# Stress axis : x y z
#
# Youngs Moduli (GPa) = 183.34784 128.23685 69.00667
#
# Poissons Ratio (x) = 0.23968 -0.01823
# Poissons Ratio (y) = 0.34269 0.20146
# Poissons Ratio (z) = -0.04842 0.37437
#
# Static dielectric constant tensor:
#      x y z
#    x 1.074020 0.381850 -0.132070 
#    y 0.381850 2.002010 0.203850 
#    z -0.132070 0.203850 2.101160 
# 
# From -- ./inp_files/177617.got.cif
#   From: 2010.05.17/outbox.cif.g08.bks.cpg/sg2_89_cif.got.tgz:177617.got - 2010.06.03 11:33:40.
