data_PCOD9032946
_publ_section_title
;
Structure prediction by ZEFSAII (Michael W. Deem and Ramdas Pophale) SiO2 
 PCOD9032946
Probable space group: P -1
;
_chemical_formula_sum "Si O2"
_cell_formula_units_Z 12
_cell_length_a 7.388252
_cell_length_b 8.048747
_cell_length_c 9.879537
_cell_angle_alpha 90.178809
_cell_angle_beta 47.088887
_cell_angle_gamma 78.793748
_cell_volume 414.517980
_symmetry_space_group_name_H-M "P -1"
_symmetry_group_IT_number 2
_symmetry_cell_setting 'triclinic'
loop_
_space_group_symop_operation_xyz
x,y,z
-x,-y,-z
loop_
_atom_site_type_symbol
_atom_site_label
_atom_site_fract_x
_atom_site_fract_y
_atom_site_fract_z
Si Si1 0.500000 0.000000 0.000000
Si Si2 0.583980 0.819748 0.305149
Si Si3 0.788162 0.574634 0.990081
Si Si4 0.147804 0.408694 0.608392
Si Si5 0.470569 0.703616 0.813212
Si Si6 0.000000 0.000000 0.000000
Si Si7 0.033515 0.050382 0.637201
O O1 0.447597 0.148744 0.144233
O O2 0.183683 0.997055 0.158691
O O3 0.592895 0.754250 0.141484
O O4 0.650571 0.659275 0.372203
O O5 0.331951 0.946276 0.491984
O O6 0.824624 0.897535 0.172795
O O7 0.632847 0.434006 0.053160
O O8 0.000000 0.500000 0.000000
O O9 0.946112 0.573547 0.772834
O O10 0.306292 0.410325 0.394071
O O11 0.016037 0.252840 0.653480
O O12 0.224665 0.815974 0.857055
O O13 0.000000 0.000000 0.500000
#
# Coordination Sequence:
#
# PCOD9032946 Si02
#       7
#     1   2   2   2   2   1   2
#     4  12  24  42  66  94 132 180 222 274 324 396
#     4  11  24  42  69 101 136 170 225 280 331 396
#     4  10  22  44  63  99 141 168 213 285 340 384
#     4  11  22  41  69  98 132 172 220 279 329 392
#     4  12  24  39  70  97 134 177 222 271 336 397
#     4  12  20  40  70 102 124 178 226 274 330 386
#     4  12  23  42  66  97 129 178 229 272 327 393
#
# _framework density 28.949283999999999
#
# number of rings (size 3 to 8) (size 9 to 14) (size 15 to 20)
#    0.000    0.667    8.333    0.500    2.333    2.667 
#    0.000    1.667    0.000    0.000    0.000    0.000 
#    0.000    0.000    0.000    0.000    0.000    0.000 
#
# Total GULP energy -66855.422575 kJ/mol
# GULP energy per Si atom -5571.285215 kJ/mol
# Density = 2.888339 g / cm^3
# Si number density = 28.949284 Si / 1000 Ang^3
#
#
#
# Elastic Constant Matrix: (Units=GPa)
#
#
# Indices 1 2 3 4 5 6 
#
# 1 78.3798 28.5639 48.4470 3.0451 -18.9086 4.6019
# 2 28.5639 86.4788 41.1603 19.8228 -22.3118 10.7021
# 3 48.4470 41.1603 274.7620 30.6671 -16.4108 -1.5951
# 4 3.0451 19.8228 30.6671 51.9345 11.5812 3.6143
# 5 -18.9086 -22.3118 -16.4108 11.5812 47.0496 0.5191
# 6 4.6019 10.7021 -1.5951 3.6143 0.5191 40.3846
#
#
#
# Elastic Compliance Matrix: (Units=1/GPa)
#
#
# Indices 1 2 3 4 5 6 
#
# 1 0.016373 -0.003344 -0.002245 0.000829 0.004020 -0.001194
# 2 -0.003344 0.017445 -0.000665 -0.007741 0.008643 -0.003687
# 3 -0.002245 -0.000665 0.004480 -0.002531 0.000959 0.000823
# 4 0.000829 -0.007741 -0.002531 0.026049 -0.010629 -0.000338
# 5 0.004020 0.008643 0.000959 -0.010629 0.029943 -0.002144
# 6 -0.001194 -0.003687 0.000823 -0.000338 -0.002144 0.025965
#
#
# Mechanical properties :
#
#
# Convention : Reuss Voigt Hill
#
# Bulk Modulus (GPa) = 38.77729 75.10700 56.94215
# Shear Modulus (GPa) = 35.37096 49.30369 42.33732
#
# Velocity S-wave (km/s) = 3.49925 4.13135 3.82837
# Velocity P-wave (km/s) = 5.45439 6.98270 6.26532
#
# Compressibility (1/GPa) = 0.02578829
#
# Stress axis : x y z
#
# Youngs Moduli (GPa) = 61.07749 57.32296 223.23866
#
# Poissons Ratio (x) = 0.19171 0.50122
# Poissons Ratio (y) = 0.20426 0.14842
# Poissons Ratio (z) = 0.13713 0.03811
#
# Static dielectric constant tensor:
#      x y z
#    x 2.566860 -0.027070 -0.061260 
#    y -0.027070 2.129390 0.067530 
#    z -0.061260 0.067530 2.124760 
# 
# From -- ./inp_files/300137.got.cif
#   From: 2010.05.17/outbox.cif.g08.bks.cpg/sg2_151_cif.got.tgz:300137.got - 2010.06.03 11:33:40.
