data_PCOD9032302
_publ_section_title
;
Structure prediction by ZEFSAII (Michael W. Deem and Ramdas Pophale) SiO2 
 PCOD9032302
Probable space group: P -1
;
_chemical_formula_sum "Si O2"
_cell_formula_units_Z 16
_cell_length_a 10.689528
_cell_length_b 15.298575
_cell_length_c 5.622775
_cell_angle_alpha 63.152201
_cell_angle_beta 112.742507
_cell_angle_gamma 130.142445
_cell_volume 620.982075
_symmetry_space_group_name_H-M "P -1"
_symmetry_group_IT_number 2
_symmetry_cell_setting 'triclinic'
loop_
_space_group_symop_operation_xyz
x,y,z
-x,-y,-z
loop_
_atom_site_type_symbol
_atom_site_label
_atom_site_fract_x
_atom_site_fract_y
_atom_site_fract_z
Si Si1 0.317759 0.441976 0.718243
Si Si2 0.740759 0.323816 0.277545
Si Si3 0.577111 0.691344 0.769882
Si Si4 0.154638 0.438874 0.112615
Si Si5 0.182182 0.954381 0.086284
Si Si6 0.149385 0.735356 0.161906
Si Si7 0.225647 0.038791 0.516993
Si Si8 0.580925 0.088285 0.185756
O O1 0.489879 0.575081 0.677245
O O2 0.225539 0.425067 0.425747
O O3 0.350442 0.341777 0.918506
O O4 0.232520 0.440929 0.907724
O O5 0.571329 0.305077 0.247642
O O6 0.856316 0.357062 0.549834
O O7 0.678227 0.190167 0.328753
O O8 0.818549 0.433113 0.018212
O O9 0.698761 0.821397 0.592062
O O10 0.969319 0.325850 0.074271
O O11 0.135013 0.986482 0.764702
O O12 0.139932 0.987449 0.262242
O O13 0.385990 0.028131 0.139615
O O14 0.103354 0.814904 0.169701
O O15 0.335309 0.827271 0.088585
O O16 0.354162 0.996937 0.659518
#
# Coordination Sequence:
#
# PCOD9032302 Si02
#       8
#     2   2   2   2   2   2   2   2
#     4  10  26  46  66  95 121 180 223 270 313 366
#     4  11  22  38  66 100 128 168 209 268 330 386
#     4  10  22  43  70  95 132 158 224 282 319 365
#     4  11  27  44  66  90 135 179 218 253 318 393
#     4  11  22  36  59  94 131 165 206 253 323 379
#     4  11  24  41  61  95 141 173 206 259 322 400
#     4  11  21  35  61  94 126 160 196 266 329 377
#     4  11  22  36  61  97 134 163 208 261 333 382
#
# _framework density 25.765637000000002
#
# number of rings (size 3 to 8) (size 9 to 14) (size 15 to 20)
#    0.000    1.250    2.500    3.750    7.000    6.000 
#    0.000    0.000    0.000   10.500    0.000    0.000 
#    0.000    0.000    0.000    0.000    0.000    0.000 
#
# Total GULP energy -89424.966032 kJ/mol
# GULP energy per Si atom -5589.060377 kJ/mol
# Density = 2.570699 g / cm^3
# Si number density = 25.765637 Si / 1000 Ang^3
#
#
#
# Elastic Constant Matrix: (Units=GPa)
#
#
# Indices 1 2 3 4 5 6 
#
# 1 65.4968 27.2585 52.5189 5.4531 -7.8868 -10.1757
# 2 27.2585 109.3118 74.6372 3.3854 19.0119 -11.5186
# 3 52.5189 74.6372 232.8440 8.4233 6.1727 -11.5310
# 4 5.4531 3.3854 8.4233 52.4830 -10.9802 2.7616
# 5 -7.8868 19.0119 6.1727 -10.9802 29.3590 -1.3995
# 6 -10.1757 -11.5186 -11.5310 2.7616 -1.3995 22.5793
#
#
#
# Elastic Compliance Matrix: (Units=1/GPa)
#
#
# Indices 1 2 3 4 5 6 
#
# 1 0.022007 -0.004013 -0.003615 0.000229 0.009671 0.006596
# 2 -0.004013 0.014677 -0.003249 -0.002425 -0.010632 0.003657
# 3 -0.003615 -0.003249 0.006173 -0.000473 -0.000347 -0.000098
# 4 0.000229 -0.002425 -0.000473 0.021448 0.009590 -0.003404
# 5 0.009671 -0.010632 -0.000347 0.009590 0.047228 0.000512
# 6 0.006596 0.003657 -0.000098 -0.003404 0.000512 0.049525
#
#
# Mechanical properties :
#
#
# Convention : Reuss Voigt Hill
#
# Bulk Modulus (GPa) = 47.38825 79.60910 63.49867
# Shear Modulus (GPa) = 26.33707 37.76680 32.05193
#
# Velocity S-wave (km/s) = 3.20062 3.83271 3.53084
# Velocity P-wave (km/s) = 5.66486 7.10990 6.42811
#
# Compressibility (1/GPa) = 0.02110228
#
# Stress axis : x y z
#
# Youngs Moduli (GPa) = 45.43921 68.13533 161.99597
#
# Poissons Ratio (x) = 0.27345 0.58568
# Poissons Ratio (y) = 0.18236 0.52627
# Poissons Ratio (z) = 0.16428 0.22135
#
# Static dielectric constant tensor:
#      x y z
#    x 2.140200 -0.008540 -0.055260 
#    y -0.008540 2.047640 0.050910 
#    z -0.055260 0.050910 2.058110 
# 
# From -- ./inp_files/99517.got.cif
#   From: 2010.05.17/outbox.cif.g08.bks.cpg/sg2_50_cif.got.tgz:99517.got - 2010.06.03 11:33:40.
