data_PCOD9032415
_publ_section_title
;
Structure prediction by ZEFSAII (Michael W. Deem and Ramdas Pophale) SiO2 
 PCOD9032415
Probable space group: P -1
;
_chemical_formula_sum "Si O2"
_cell_formula_units_Z 16
_cell_length_a 24.242864
_cell_length_b 8.746025
_cell_length_c 5.594873
_cell_angle_alpha 70.484513
_cell_angle_beta 49.067976
_cell_angle_gamma 50.648400
_cell_volume 686.261423
_symmetry_space_group_name_H-M "P -1"
_symmetry_group_IT_number 2
_symmetry_cell_setting 'triclinic'
loop_
_space_group_symop_operation_xyz
x,y,z
-x,-y,-z
loop_
_atom_site_type_symbol
_atom_site_label
_atom_site_fract_x
_atom_site_fract_y
_atom_site_fract_z
Si Si1 0.683455 0.170819 0.693129
Si Si2 0.217568 0.408310 0.767790
Si Si3 0.389497 0.265452 0.039531
Si Si4 0.326066 0.480876 0.697647
Si Si5 0.479317 0.827621 0.899447
Si Si6 0.776429 0.968055 0.040538
Si Si7 0.968295 0.228549 0.992219
Si Si8 0.963214 0.863594 0.654700
O O1 0.694729 0.343937 0.505136
O O2 0.719089 0.044575 0.409403
O O3 0.580125 0.249201 0.955246
O O4 0.729044 0.065527 0.869929
O O5 0.312638 0.299499 0.417547
O O6 0.247096 0.452842 0.908745
O O7 0.188463 0.261572 0.954614
O O8 0.138244 0.612493 0.766697
O O9 0.481934 0.208888 0.922629
O O10 0.341387 0.479284 0.935112
O O11 0.418185 0.066309 0.916785
O O12 0.427417 0.295781 0.440766
O O13 0.857220 0.988618 0.845715
O O14 0.993758 0.267455 0.639309
O O15 0.013911 0.240159 0.095830
O O16 0.000000 0.000000 0.000000
O O17 0.000000 0.000000 0.500000
#
# Coordination Sequence:
#
# PCOD9032415 Si02
#       8
#     2   2   2   2   2   2   2   2
#     4  12  28  44  75 106 150 187 241 299 353 420
#     4  11  26  44  72 107 143 191 241 290 357 432
#     4  10  22  43  71 102 145 192 241 292 353 421
#     4  11  26  40  73 104 146 193 244 295 351 423
#     4  10  22  44  66 106 143 194 238 294 354 417
#     4  12  28  48  72 108 144 189 240 297 360 425
#     4  10  24  43  72 103 139 179 231 292 357 424
#     4  10  24  44  72 100 140 182 227 293 361 425
#
# _framework density 23.314729
#
# number of rings (size 3 to 8) (size 9 to 14) (size 15 to 20)
#    0.000    1.250    1.250    2.250   14.000    1.500 
#    0.000    0.000    0.000    0.000    0.000    0.000 
#    0.000    0.000    0.000    0.000    0.000    0.000 
#
# Total GULP energy -89217.669503 kJ/mol
# GULP energy per Si atom -5576.104344 kJ/mol
# Density = 2.326166 g / cm^3
# Si number density = 23.314729 Si / 1000 Ang^3
#
#
#
# Elastic Constant Matrix: (Units=GPa)
#
#
# Indices 1 2 3 4 5 6 
#
# 1 126.1503 35.8723 41.4314 -20.3308 10.4561 -24.2745
# 2 35.8723 89.8521 18.9401 -4.0121 5.1997 -14.9758
# 3 41.4314 18.9401 58.5703 -4.4697 15.3323 -8.0709
# 4 -20.3308 -4.0121 -4.4697 20.6570 -4.3297 2.0738
# 5 10.4561 5.1997 15.3323 -4.3297 39.9588 -0.4478
# 6 -24.2745 -14.9758 -8.0709 2.0738 -0.4478 24.4014
#
#
#
# Elastic Compliance Matrix: (Units=1/GPa)
#
#
# Indices 1 2 3 4 5 6 
#
# 1 0.014780 -0.002157 -0.007706 0.011626 0.000740 0.009856
# 2 -0.002157 0.013305 -0.001967 -0.000595 -0.000416 0.005412
# 3 -0.007706 -0.001967 0.024794 -0.004169 -0.007698 -0.000459
# 4 0.011626 -0.000595 -0.004169 0.059421 0.005128 0.004866
# 5 0.000740 -0.000416 -0.007698 0.005128 0.028373 -0.001980
# 6 0.009856 0.005412 -0.000459 0.004866 -0.001980 0.053505
#
#
# Mechanical properties :
#
#
# Convention : Reuss Voigt Hill
#
# Bulk Modulus (GPa) = 34.22502 51.89558 43.06030
# Shear Modulus (GPa) = 21.97027 28.89205 25.43116
#
# Velocity S-wave (km/s) = 3.07308 3.52407 3.30627
# Velocity P-wave (km/s) = 5.22524 6.23425 5.75191
#
# Compressibility (1/GPa) = 0.02921839
#
# Stress axis : x y z
#
# Youngs Moduli (GPa) = 67.65746 75.16062 40.33164
#
# Poissons Ratio (x) = 0.16216 0.31080
# Poissons Ratio (y) = 0.14597 0.07934
# Poissons Ratio (z) = 0.52137 0.14785
#
# Static dielectric constant tensor:
#      x y z
#    x 1.971310 0.027030 0.138130 
#    y 0.027030 1.936820 0.001250 
#    z 0.138130 0.001250 1.990220 
# 
# From -- ./inp_files/94311.got.cif
#   From: 2010.05.17/outbox.cif.g08.bks.cpg/sg2_48_cif.got.tgz:94311.got - 2010.06.03 11:33:40.
