data_PCOD9032156
_publ_section_title
;
Structure prediction by ZEFSAII (Michael W. Deem and Ramdas Pophale) SiO2 
 PCOD9032156
Probable space group: P -1
;
_chemical_formula_sum "Si O2"
_cell_formula_units_Z 16
_cell_length_a 14.496331
_cell_length_b 8.973057
_cell_length_c 9.283064
_cell_angle_alpha 117.713201
_cell_angle_beta 53.187718
_cell_angle_gamma 83.267618
_cell_volume 709.886838
_symmetry_space_group_name_H-M "P -1"
_symmetry_group_IT_number 2
_symmetry_cell_setting 'triclinic'
loop_
_space_group_symop_operation_xyz
x,y,z
-x,-y,-z
loop_
_atom_site_type_symbol
_atom_site_label
_atom_site_fract_x
_atom_site_fract_y
_atom_site_fract_z
Si Si1 0.089298 0.773101 0.869878
Si Si2 0.940005 0.558296 0.921833
Si Si3 0.357766 0.073331 0.242919
Si Si4 0.916972 0.700676 0.569549
Si Si5 0.663293 0.309608 0.583266
Si Si6 0.641710 0.923410 0.420264
Si Si7 0.099277 0.903116 0.225350
Si Si8 0.652609 0.321768 0.919509
O O1 0.243368 0.675186 0.617079
O O2 0.019819 0.657997 0.833286
O O3 0.070296 0.809626 0.075116
O O4 0.000000 0.000000 0.000000
O O5 0.988076 0.366234 0.692303
O O6 0.776398 0.721110 0.140178
O O7 0.000000 0.500000 0.000000
O O8 0.231298 0.234663 0.331116
O O9 0.361130 0.128475 0.431328
O O10 0.347977 0.879858 0.176193
O O11 0.500000 0.000000 0.000000
O O12 0.000000 0.500000 0.500000
O O13 0.893823 0.905851 0.748133
O O14 0.707898 0.328565 0.712344
O O15 0.672510 0.099543 0.464678
O O16 0.500474 0.487122 0.817732
O O17 0.500000 0.000000 0.500000
O O18 0.245053 0.719949 0.067628
O O19 0.000000 0.000000 0.500000
#
# Coordination Sequence:
#
# PCOD9032156 Si02
#       8
#     2   2   2   2   2   2   2   2
#     4  12  24  41  72  98 134 178 225 287 333 408
#     4  12  25  45  68 102 140 178 227 285 352 400
#     4  10  23  43  64  95 136 175 217 278 344 401
#     4  11  25  43  67  99 134 177 225 278 331 413
#     4  10  22  43  69  99 132 175 233 273 348 400
#     4  11  25  43  69  96 140 181 224 285 341 407
#     4  11  24  43  66  97 135 175 225 278 341 400
#     4   9  22  43  66  94 134 173 218 285 331 409
#
# _framework density 22.538805
#
# number of rings (size 3 to 8) (size 9 to 14) (size 15 to 20)
#    0.000    1.250    2.500    2.250    5.250    3.500 
#    2.250    0.000    0.000    0.000    0.000    0.000 
#    0.000    0.000    0.000    0.000    0.000    0.000 
#
# Total GULP energy -89417.230797 kJ/mol
# GULP energy per Si atom -5588.576925 kJ/mol
# Density = 2.248751 g / cm^3
# Si number density = 22.538805 Si / 1000 Ang^3
#
#
#
# Elastic Constant Matrix: (Units=GPa)
#
#
# Indices 1 2 3 4 5 6 
#
# 1 101.1791 31.8671 39.1024 2.7718 0.2663 -13.6228
# 2 31.8671 76.8623 20.6583 -2.1196 -4.9400 -14.7599
# 3 39.1024 20.6583 128.3039 -0.5740 -8.7432 -5.0585
# 4 2.7718 -2.1196 -0.5740 45.9220 -3.5012 -3.5359
# 5 0.2663 -4.9400 -8.7432 -3.5012 37.0331 4.8296
# 6 -13.6228 -14.7599 -5.0585 -3.5359 4.8296 37.0032
#
#
#
# Elastic Compliance Matrix: (Units=1/GPa)
#
#
# Indices 1 2 3 4 5 6 
#
# 1 0.012834 -0.004044 -0.003280 -0.000927 -0.001861 0.002818
# 2 -0.004044 0.016005 -0.001055 0.001441 0.001438 0.004701
# 3 -0.003280 -0.001055 0.009087 0.000378 0.002146 -0.000630
# 4 -0.000927 0.001441 0.000378 0.022229 0.002111 0.002134
# 5 -0.001861 0.001438 0.002146 0.002111 0.028347 -0.003316
# 6 0.002818 0.004701 -0.000630 0.002134 -0.003316 0.030488
#
#
# Mechanical properties :
#
#
# Convention : Reuss Voigt Hill
#
# Bulk Modulus (GPa) = 47.23921 54.40009 50.81965
# Shear Modulus (GPa) = 35.01312 38.30615 36.65964
#
# Velocity S-wave (km/s) = 3.94567 4.12705 4.03738
# Velocity P-wave (km/s) = 6.46238 6.84826 6.65811
#
# Compressibility (1/GPa) = 0.02116886
#
# Stress axis : x y z
#
# Youngs Moduli (GPa) = 77.91521 62.47953 110.05164
#
# Poissons Ratio (x) = 0.25264 0.36100
# Poissons Ratio (y) = 0.31506 0.11609
# Poissons Ratio (z) = 0.25559 0.06591
#
# Static dielectric constant tensor:
#      x y z
#    x 1.796690 -0.217910 0.069190 
#    y -0.217910 0.819760 0.263470 
#    z 0.069190 0.263470 1.765530 
# 
# From -- ./inp_files/299102.got.cif
#   From: 2010.05.17/outbox.cif.g08.bks.cpg/sg2_150_cif.got.tgz:299102.got - 2010.06.03 11:33:40.
