data_PCOD9032030
_publ_section_title
;
Structure prediction by ZEFSAII (Michael W. Deem and Ramdas Pophale) SiO2 
 PCOD9032030
Probable space group: P -1
;
_chemical_formula_sum "Si O2"
_cell_formula_units_Z 14
_cell_length_a 18.306677
_cell_length_b 18.304148
_cell_length_c 9.326332
_cell_angle_alpha 49.216402
_cell_angle_beta 43.463962
_cell_angle_gamma 15.965791
_cell_volume 574.659679
_symmetry_space_group_name_H-M "P -1"
_symmetry_group_IT_number 2
_symmetry_cell_setting 'triclinic'
loop_
_space_group_symop_operation_xyz
x,y,z
-x,-y,-z
loop_
_atom_site_type_symbol
_atom_site_label
_atom_site_fract_x
_atom_site_fract_y
_atom_site_fract_z
Si Si1 0.477275 0.920971 0.046973
Si Si2 0.214512 0.501008 0.682653
Si Si3 0.715178 0.026172 0.359567
Si Si4 0.723289 0.797128 0.571539
Si Si5 0.153722 0.801598 0.151865
Si Si6 0.660237 0.465579 0.308321
Si Si7 0.732078 0.127148 0.905648
O O1 0.137058 0.176829 0.233811
O O2 0.729178 0.634928 0.113825
O O3 0.500000 0.000000 0.000000
O O4 0.552364 0.882271 0.827617
O O5 0.972299 0.857538 0.309533
O O6 0.395859 0.314538 0.523413
O O7 0.789847 0.849715 0.462574
O O8 0.687140 0.104845 0.145140
O O9 0.000000 0.500000 0.500000
O O10 0.500000 0.000000 0.500000
O O11 0.384177 0.444105 0.592947
O O12 0.154023 0.862412 0.220586
O O13 0.500000 0.500000 0.000000
O O14 0.000000 0.000000 0.000000
O O15 0.500000 0.500000 0.500000
O O16 0.008722 0.148568 0.193849
O O17 0.538138 0.627278 0.135900
#
# Coordination Sequence:
#
# PCOD9032030 Si02
#       7
#     2   2   2   2   2   2   2
#     4  12  27  53  75 109 150 199 254 313 381 447
#     4  12  28  48  80 108 154 203 248 306 382 458
#     4  11  27  49  78 114 147 203 257 308 379 447
#     4  12  30  49  77 111 152 194 258 321 372 445
#     4  10  22  43  69 107 147 189 240 305 365 439
#     4  12  27  49  72 112 152 194 241 305 377 449
#     4  11  25  46  77 108 150 192 247 308 363 444
#
# _framework density 24.362245000000001
#
# number of rings (size 3 to 8) (size 9 to 14) (size 15 to 20)
#    0.000    0.571    1.429    5.143    8.000    8.000 
#    0.000    0.000    0.000    0.000    0.000    0.000 
#    0.000    0.000    0.000    0.000    0.000    0.000 
#
# Total GULP energy -78463.546023 kJ/mol
# GULP energy per Si atom -5604.539002 kJ/mol
# Density = 2.430680 g / cm^3
# Si number density = 24.362245 Si / 1000 Ang^3
#
#
#
# Elastic Constant Matrix: (Units=GPa)
#
#
# Indices 1 2 3 4 5 6 
#
# 1 131.1639 34.1070 14.0920 9.4243 -5.8677 16.6117
# 2 34.1070 148.5242 27.5636 3.0311 8.2272 12.2832
# 3 14.0920 27.5636 131.3220 8.6427 3.7576 12.7872
# 4 9.4243 3.0311 8.6427 34.1539 7.3073 2.1636
# 5 -5.8677 8.2272 3.7576 7.3073 35.7934 4.3013
# 6 16.6117 12.2832 12.7872 2.1636 4.3013 39.5907
#
#
#
# Elastic Compliance Matrix: (Units=1/GPa)
#
#
# Indices 1 2 3 4 5 6 
#
# 1 0.008846 -0.001836 -0.000154 -0.002635 0.002817 -0.003254
# 2 -0.001836 0.007567 -0.001282 0.000632 -0.001916 -0.000990
# 3 -0.000154 -0.001282 0.008222 -0.001797 0.000025 -0.002098
# 4 -0.002635 0.000632 -0.001797 0.031861 -0.006954 0.000504
# 5 0.002817 -0.001916 0.000025 -0.006954 0.030684 -0.003549
# 6 -0.003254 -0.000990 -0.002098 0.000504 -0.003549 0.027967
#
#
# Mechanical properties :
#
#
# Convention : Reuss Voigt Hill
#
# Bulk Modulus (GPa) = 55.27376 62.50394 58.88885
# Shear Modulus (GPa) = 39.14796 44.25744 41.70270
#
# Velocity S-wave (km/s) = 4.01298 4.26683 4.14185
# Velocity P-wave (km/s) = 6.64903 7.07009 6.86279
#
# Compressibility (1/GPa) = 0.01809177
#
# Stress axis : x y z
#
# Youngs Moduli (GPa) = 113.05170 132.14491 121.62120
#
# Poissons Ratio (x) = 0.24259 0.01875
# Poissons Ratio (y) = 0.20754 0.15589
# Poissons Ratio (z) = 0.01743 0.16937
#
# Static dielectric constant tensor:
#      x y z
#    x 1.968920 -0.066540 -0.006120 
#    y -0.066540 1.874750 0.078500 
#    z -0.006120 0.078500 1.883040 
# 
# From -- ./inp_files/355431.got.cif
#   From: 2010.05.17/outbox.cif.g08.bks.cpg/sg2_178_cif.got.tgz:355431.got - 2010.06.03 11:33:40.
