data_PCOD9032428
_publ_section_title
;
Structure prediction by ZEFSAII (Michael W. Deem and Ramdas Pophale) SiO2 
 PCOD9032428
Probable space group: P -1
;
_chemical_formula_sum "Si O2"
_cell_formula_units_Z 12
_cell_length_a 7.193682
_cell_length_b 9.246410
_cell_length_c 12.776117
_cell_angle_alpha 36.621923
_cell_angle_beta 91.686344
_cell_angle_gamma 106.716076
_cell_volume 454.344481
_symmetry_space_group_name_H-M "P -1"
_symmetry_group_IT_number 2
_symmetry_cell_setting 'triclinic'
loop_
_space_group_symop_operation_xyz
x,y,z
-x,-y,-z
loop_
_atom_site_type_symbol
_atom_site_label
_atom_site_fract_x
_atom_site_fract_y
_atom_site_fract_z
Si Si1 0.206275 0.351172 0.809971
Si Si2 0.517458 0.223023 0.685107
Si Si3 0.158665 0.681099 0.039837
Si Si4 0.411354 0.130534 0.507873
Si Si5 0.034162 0.140763 0.264608
Si Si6 0.894552 0.144099 0.753389
O O1 0.354355 0.970209 0.899440
O O2 0.030967 0.421769 0.820278
O O3 0.445162 0.556061 0.690556
O O4 0.196521 0.114014 0.021883
O O5 0.500000 0.500000 0.500000
O O6 0.474621 0.078350 0.654730
O O7 0.750561 0.292693 0.680437
O O8 0.192923 0.420191 0.159431
O O9 0.119276 0.291165 0.725246
O O10 0.057401 0.757348 0.893745
O O11 0.500000 0.000000 0.500000
O O12 0.165203 0.023456 0.570093
O O13 0.107333 0.947051 0.314098
#
# Coordination Sequence:
#
# PCOD9032428 Si02
#       6
#     2   2   2   2   2   2
#     4  10  22  43  71 104 140 177 230 288 345 412
#     4  11  27  46  68 100 142 186 235 284 346 414
#     4   9  19  41  66  98 136 188 218 280 350 408
#     4  11  23  44  69 102 140 181 232 286 338 417
#     4   9  19  40  69  98 139 180 227 277 349 416
#     4  10  24  44  70 103 138 188 228 282 351 415
#
# _framework density 26.411681000000002
#
# number of rings (size 3 to 8) (size 9 to 14) (size 15 to 20)
#    0.000    2.000    1.667    0.000   11.667    2.000 
#    0.000    0.833    0.000    0.000    0.000    0.000 
#    0.000    0.000    0.000    0.000    0.000    0.000 
#
# Total GULP energy -67000.869124 kJ/mol
# GULP energy per Si atom -5583.405760 kJ/mol
# Density = 2.635157 g / cm^3
# Si number density = 26.411681 Si / 1000 Ang^3
#
#
#
# Elastic Constant Matrix: (Units=GPa)
#
#
# Indices 1 2 3 4 5 6 
#
# 1 120.9860 44.5907 63.0234 -13.9882 -14.1682 -17.4619
# 2 44.5907 129.3480 44.9776 0.8968 -17.0580 -23.1167
# 3 63.0234 44.9776 127.5280 -5.8881 -38.5969 -4.8809
# 4 -13.9882 0.8968 -5.8881 43.7201 -0.6187 -5.6814
# 5 -14.1682 -17.0580 -38.5969 -0.6187 40.5813 -0.0935
# 6 -17.4619 -23.1167 -4.8809 -5.6814 -0.0935 25.4101
#
#
#
# Elastic Compliance Matrix: (Units=1/GPa)
#
#
# Indices 1 2 3 4 5 6 
#
# 1 0.013416 -0.001337 -0.006148 0.004485 -0.001639 0.007819
# 2 -0.001337 0.010727 -0.002190 0.000186 0.001981 0.008468
# 3 -0.006148 -0.002190 0.014860 -0.000202 0.011055 -0.003368
# 4 0.004485 0.000186 -0.000202 0.025461 0.001860 0.008912
# 5 -0.001639 0.001981 0.011055 0.001860 0.035453 0.003346
# 6 0.007819 0.008468 -0.003368 0.008912 0.003346 0.053789
#
#
# Mechanical properties :
#
#
# Convention : Reuss Voigt Hill
#
# Bulk Modulus (GPa) = 50.88543 75.89395 63.38969
# Shear Modulus (GPa) = 27.83831 36.96033 32.39932
#
# Velocity S-wave (km/s) = 3.25008 3.74490 3.50623
# Velocity P-wave (km/s) = 5.77859 6.89177 6.35958
#
# Compressibility (1/GPa) = 0.01965199
#
# Stress axis : x y z
#
# Youngs Moduli (GPa) = 74.53788 93.22287 67.29423
#
# Poissons Ratio (x) = 0.12463 0.41375
# Poissons Ratio (y) = 0.09965 0.14739
# Poissons Ratio (z) = 0.45829 0.20418
#
# Static dielectric constant tensor:
#      x y z
#    x 2.023630 -0.023620 -0.051350 
#    y -0.023620 2.427610 -0.144320 
#    z -0.051350 -0.144320 2.153420 
# 
# From -- ./inp_files/557747.got.cif
#   From: 2010.05.17/outbox.cif.g08.bks.cpg/sg2_279_cif.got.tgz:557747.got - 2010.06.03 11:33:40.
