data_PCOD9032823
_publ_section_title
;
Structure prediction by ZEFSAII (Michael W. Deem and Ramdas Pophale) SiO2 
 PCOD9032823
Probable space group: P -1
;
_chemical_formula_sum "Si O2"
_cell_formula_units_Z 14
_cell_length_a 7.485342
_cell_length_b 7.217754
_cell_length_c 10.426514
_cell_angle_alpha 104.597929
_cell_angle_beta 92.468577
_cell_angle_gamma 101.934025
_cell_volume 530.647563
_symmetry_space_group_name_H-M "P -1"
_symmetry_group_IT_number 2
_symmetry_cell_setting 'triclinic'
loop_
_space_group_symop_operation_xyz
x,y,z
-x,-y,-z
loop_
_atom_site_type_symbol
_atom_site_label
_atom_site_fract_x
_atom_site_fract_y
_atom_site_fract_z
Si Si1 0.332552 0.886501 0.158946
Si Si2 0.000959 0.405846 0.290633
Si Si3 0.030912 0.227567 0.997388
Si Si4 0.639552 0.266080 0.587879
Si Si5 0.131922 0.960681 0.610356
Si Si6 0.314948 0.380769 0.687076
Si Si7 0.561877 0.714071 0.922632
O O1 0.382147 0.852424 0.299320
O O2 0.381205 0.111824 0.151328
O O3 0.441429 0.783796 0.041270
O O4 0.115986 0.787667 0.122193
O O5 0.967478 0.351915 0.131481
O O6 0.197326 0.543461 0.349008
O O7 0.843341 0.515764 0.347978
O O8 0.977217 0.197959 0.323363
O O9 0.248019 0.311932 0.014299
O O10 0.000000 0.000000 0.000000
O O11 0.288012 0.862470 0.537951
O O12 0.446638 0.325220 0.571607
O O13 0.217211 0.172204 0.709150
O O14 0.000000 0.000000 0.500000
O O15 0.447363 0.526279 0.812335
#
# Coordination Sequence:
#
# PCOD9032823 Si02
#       7
#     2   2   2   2   2   2   2
#     4  10  24  44  76 113 157 193 254 305 382 453
#     4  12  27  53  75 111 158 197 260 316 385 449
#     4  10  22  43  76 110 152 203 237 312 384 445
#     4  12  28  50  75 116 151 205 259 314 381 460
#     4  12  30  53  79 111 153 202 259 325 381 453
#     4  12  27  49  78 113 149 205 256 315 380 452
#     4  10  22  45  72 116 151 196 248 316 375 453
#
# _framework density 26.382860999999998
#
# number of rings (size 3 to 8) (size 9 to 14) (size 15 to 20)
#    0.000    0.857    4.286    0.857    6.000    2.857 
#    2.571    0.000    0.000    0.000    0.000    0.000 
#    0.000    0.000    0.000    0.000    0.000    0.000 
#
# Total GULP energy -78625.297299 kJ/mol
# GULP energy per Si atom -5616.092664 kJ/mol
# Density = 2.632281 g / cm^3
# Si number density = 26.382861 Si / 1000 Ang^3
#
#
#
# Elastic Constant Matrix: (Units=GPa)
#
#
# Indices 1 2 3 4 5 6 
#
# 1 151.9954 29.7266 -2.5497 0.7106 4.8107 11.7023
# 2 29.7266 211.4345 48.9325 8.6052 8.5493 17.5562
# 3 -2.5497 48.9325 47.7974 3.6517 -6.5863 14.4482
# 4 0.7106 8.6052 3.6517 46.9641 0.0892 3.0387
# 5 4.8107 8.5493 -6.5863 0.0892 37.3911 10.7501
# 6 11.7023 17.5562 14.4482 3.0387 10.7501 38.5769
#
#
#
# Elastic Compliance Matrix: (Units=1/GPa)
#
#
# Indices 1 2 3 4 5 6 
#
# 1 0.007096 -0.001444 0.002770 0.000118 0.000691 -0.002735
# 2 -0.001444 0.006778 -0.007735 -0.000688 -0.003057 0.001156
# 3 0.002770 -0.007735 0.034652 -0.000472 0.011379 -0.013432
# 4 0.000118 -0.000688 -0.000472 0.021541 0.000397 -0.001353
# 5 0.000691 -0.003057 0.011379 0.000397 0.032887 -0.012276
# 6 -0.002735 0.001156 -0.013432 -0.001353 -0.012276 0.034784
#
#
# Mechanical properties :
#
#
# Convention : Reuss Voigt Hill
#
# Bulk Modulus (GPa) = 28.00426 62.60513 45.30469
# Shear Modulus (GPa) = 30.77699 46.92761 38.85230
#
# Velocity S-wave (km/s) = 3.41919 4.22206 3.84165
# Velocity P-wave (km/s) = 5.12107 6.89556 6.07347
#
# Compressibility (1/GPa) = 0.03570886
#
# Stress axis : x y z
#
# Youngs Moduli (GPa) = 140.91971 147.52959 28.85832
#
# Poissons Ratio (x) = 0.21310 -0.07994
# Poissons Ratio (y) = 0.20355 0.22321
# Poissons Ratio (z) = -0.39038 1.14108
#
# Static dielectric constant tensor:
#      x y z
#    x 2.069800 -0.007690 -0.026920 
#    y -0.007690 2.040930 -0.026130 
#    z -0.026920 -0.026130 1.997430 
# 
# From -- ./inp_files/376189.got.cif
#   From: 2010.05.17/outbox.cif.g08.bks.cpg/sg2_189_cif.got.tgz:376189.got - 2010.06.03 11:33:40.
