data_PCOD9032808
_publ_section_title
;
Structure prediction by ZEFSAII (Michael W. Deem and Ramdas Pophale) SiO2 
 PCOD9032808
Probable space group: P -1
;
_chemical_formula_sum "Si O2"
_cell_formula_units_Z 14
_cell_length_a 13.895260
_cell_length_b 13.416255
_cell_length_c 8.747656
_cell_angle_alpha 108.959103
_cell_angle_beta 130.068724
_cell_angle_gamma 31.277149
_cell_volume 533.722702
_symmetry_space_group_name_H-M "P -1"
_symmetry_group_IT_number 2
_symmetry_cell_setting 'triclinic'
loop_
_space_group_symop_operation_xyz
x,y,z
-x,-y,-z
loop_
_atom_site_type_symbol
_atom_site_label
_atom_site_fract_x
_atom_site_fract_y
_atom_site_fract_z
Si Si1 0.283154 0.598297 0.966835
Si Si2 0.136971 0.787055 0.485950
Si Si3 0.060267 0.961282 0.220422
Si Si4 0.403129 0.297930 0.364631
Si Si5 0.873793 0.421897 0.475421
Si Si6 0.093225 0.244467 0.117914
Si Si7 0.633698 0.889574 0.371794
O O1 0.294514 0.493174 0.804814
O O2 0.040008 0.745860 0.907962
O O3 0.540352 0.441166 0.254417
O O4 0.182675 0.773807 0.852340
O O5 0.079177 0.839210 0.271935
O O6 0.028561 0.759702 0.431997
O O7 0.000000 0.000000 0.500000
O O8 0.349826 0.804561 0.465842
O O9 0.000000 0.000000 0.000000
O O10 0.310928 0.384629 0.488983
O O11 0.513808 0.098775 0.343557
O O12 0.143694 0.521912 0.105216
O O13 0.138224 0.289506 0.617601
O O14 0.359554 0.023190 0.172349
O O15 0.210099 0.232712 0.366731
#
# Coordination Sequence:
#
# PCOD9032808 Si02
#       7
#     2   2   2   2   2   2   2
#     4  11  23  46  63  98 137 176 221 275 328 399
#     4  12  24  42  67  96 135 182 216 273 338 391
#     4  12  26  41  67  97 135 178 220 270 335 398
#     4  12  23  43  67  99 132 175 223 274 332 395
#     4  11  25  41  67 101 136 169 226 273 327 402
#     4  10  22  43  75  91 131 180 225 270 333 396
#     4  10  23  49  66  97 135 175 220 283 330 384
#
# _framework density 26.230848999999999
#
# number of rings (size 3 to 8) (size 9 to 14) (size 15 to 20)
#    0.000    0.857    5.714    1.714    4.000    1.714 
#    0.000    6.429    0.000    0.000    0.000    0.000 
#    0.000    0.000    0.000    0.000    0.000    0.000 
#
# Total GULP energy -78399.786507 kJ/mol
# GULP energy per Si atom -5599.984751 kJ/mol
# Density = 2.617115 g / cm^3
# Si number density = 26.230849 Si / 1000 Ang^3
#
#
#
# Elastic Constant Matrix: (Units=GPa)
#
#
# Indices 1 2 3 4 5 6 
#
# 1 160.8820 10.6942 35.9520 -9.2666 3.3025 -14.4356
# 2 10.6942 66.9771 0.8366 -2.3175 -6.7200 -0.3367
# 3 35.9520 0.8366 159.8673 -26.5990 -12.4943 1.2260
# 4 -9.2666 -2.3175 -26.5990 32.1524 -9.7394 -1.5681
# 5 3.3025 -6.7200 -12.4943 -9.7394 38.5753 -12.4574
# 6 -14.4356 -0.3367 1.2260 -1.5681 -12.4574 43.1821
#
#
#
# Elastic Compliance Matrix: (Units=1/GPa)
#
#
# Indices 1 2 3 4 5 6 
#
# 1 0.006864 -0.001077 -0.001468 0.000691 -0.000349 0.002252
# 2 -0.001077 0.015620 0.000972 0.002948 0.004214 0.001057
# 3 -0.001468 0.000972 0.008380 0.008295 0.005478 0.001161
# 4 0.000691 0.002948 0.008295 0.043579 0.016167 0.006265
# 5 -0.000349 0.004214 0.005478 0.016167 0.036011 0.010736
# 6 0.002252 0.001057 0.001161 0.006265 0.010736 0.027211
#
#
# Mechanical properties :
#
#
# Convention : Reuss Voigt Hill
#
# Bulk Modulus (GPa) = 36.07698 53.63242 44.85470
# Shear Modulus (GPa) = 33.32221 45.46488 39.39354
#
# Velocity S-wave (km/s) = 3.56806 4.16776 3.87951
# Velocity P-wave (km/s) = 5.54601 6.60689 6.09956
#
# Compressibility (1/GPa) = 0.02771851
#
# Stress axis : x y z
#
# Youngs Moduli (GPa) = 145.67929 64.01861 119.33701
#
# Poissons Ratio (x) = 0.06898 0.17515
# Poissons Ratio (y) = 0.15697 -0.11602
# Poissons Ratio (z) = 0.21381 -0.06224
#
# Static dielectric constant tensor:
#      x y z
#    x 2.083340 -0.045750 -0.023650 
#    y -0.045750 2.258230 0.092460 
#    z -0.023650 0.092460 2.057280 
# 
# From -- ./inp_files/294001.got.cif
#   From: 2010.05.17/outbox.cif.g08.bks.cpg/sg2_148_cif.got.tgz:294001.got - 2010.06.03 11:33:40.
