data_PCOD9032045
_publ_section_title
;
Structure prediction by ZEFSAII (Michael W. Deem and Ramdas Pophale) SiO2 
 PCOD9032045
Probable space group: P -1
;
_chemical_formula_sum "Si O2"
_cell_formula_units_Z 16
_cell_length_a 10.471015
_cell_length_b 19.437316
_cell_length_c 14.447777
_cell_angle_alpha 20.811184
_cell_angle_beta 48.068644
_cell_angle_gamma 43.982721
_cell_volume 725.397533
_symmetry_space_group_name_H-M "P -1"
_symmetry_group_IT_number 2
_symmetry_cell_setting 'triclinic'
loop_
_space_group_symop_operation_xyz
x,y,z
-x,-y,-z
loop_
_atom_site_type_symbol
_atom_site_label
_atom_site_fract_x
_atom_site_fract_y
_atom_site_fract_z
Si Si1 0.821279 0.670754 0.823431
Si Si2 0.719040 0.567579 0.713290
Si Si3 0.636351 0.566136 0.287032
Si Si4 0.391749 0.600230 0.199672
Si Si5 0.243927 0.074308 0.649641
Si Si6 0.794854 0.315977 0.170111
Si Si7 0.929738 0.341177 0.567648
Si Si8 0.764043 0.896723 0.754622
O O1 0.829950 0.814891 0.551428
O O2 0.742562 0.828492 0.746414
O O3 0.731852 0.519697 0.008394
O O4 0.000000 0.500000 0.000000
O O5 0.626268 0.541854 0.696167
O O6 0.652343 0.789131 0.520518
O O7 0.929246 0.883749 0.249532
O O8 0.721788 0.394249 0.004853
O O9 0.500000 0.500000 0.500000
O O10 0.578110 0.523613 0.266379
O O11 0.831324 0.435247 0.400223
O O12 0.634997 0.801300 0.994501
O O13 0.224434 0.629533 0.317533
O O14 0.354570 0.833178 0.889372
O O15 0.931217 0.541405 0.621281
O O16 0.019271 0.222756 0.173986
O O17 0.736343 0.136008 0.467210
#
# Coordination Sequence:
#
# PCOD9032045 Si02
#       8
#     2   2   2   2   2   2   2   2
#     4   9  16  30  52  79 107 135 177 232 272 311
#     4   9  18  33  55  79 111 135 186 228 273 318
#     4  10  21  37  58  80 117 153 176 225 287 330
#     4  11  20  33  57  80 110 152 180 224 283 328
#     4   9  19  33  55  82 111 137 191 234 265 322
#     4   9  17  30  55  82 104 132 185 237 260 310
#     4   9  18  36  57  76 111 147 188 229 268 322
#     4  10  17  32  54  78 104 143 183 219 270 326
#
# _framework density 22.05687
#
# number of rings (size 3 to 8) (size 9 to 14) (size 15 to 20)
#    0.750    1.750    1.250    2.250    0.000    0.000 
#    0.000    3.750    2.750    6.000    0.000    0.000 
#    0.000    0.000    0.000    0.000    0.000    0.000 
#
# Total GULP energy -89141.654880 kJ/mol
# GULP energy per Si atom -5571.353430 kJ/mol
# Density = 2.200667 g / cm^3
# Si number density = 22.056870 Si / 1000 Ang^3
#
#
#
# Elastic Constant Matrix: (Units=GPa)
#
#
# Indices 1 2 3 4 5 6 
#
# 1 131.3893 28.5209 34.4688 9.3277 0.7400 17.2511
# 2 28.5209 64.0500 33.9610 -3.8037 8.8987 11.6097
# 3 34.4688 33.9610 134.9641 7.1965 -6.5794 5.8924
# 4 9.3277 -3.8037 7.1965 30.8190 1.4917 -3.8508
# 5 0.7400 8.8987 -6.5794 1.4917 28.3347 11.2228
# 6 17.2511 11.6097 5.8924 -3.8508 11.2228 32.6138
#
#
#
# Elastic Compliance Matrix: (Units=1/GPa)
#
#
# Indices 1 2 3 4 5 6 
#
# 1 0.009539 -0.003406 -0.001017 -0.003838 0.002792 -0.005063
# 2 -0.003406 0.021472 -0.005082 0.005002 -0.007389 -0.001791
# 3 -0.001017 -0.005082 0.009370 -0.002873 0.004428 -0.001209
# 4 -0.003838 0.005002 -0.002873 0.036165 -0.006990 0.007444
# 5 0.002792 -0.007389 0.004428 -0.006990 0.045297 -0.016059
# 6 -0.005063 -0.001791 -0.001209 0.007444 -0.016059 0.040601
#
#
# Mechanical properties :
#
#
# Convention : Reuss Voigt Hill
#
# Bulk Modulus (GPa) = 46.79434 58.25608 52.52521
# Shear Modulus (GPa) = 26.51426 33.91702 30.21564
#
# Velocity S-wave (km/s) = 3.47087 3.92562 3.70523
# Velocity P-wave (km/s) = 6.10934 6.85685 6.49386
#
# Compressibility (1/GPa) = 0.02137011
#
# Stress axis : x y z
#
# Youngs Moduli (GPa) = 104.83600 46.57185 106.72667
#
# Poissons Ratio (x) = 0.15863 0.10857
# Poissons Ratio (y) = 0.35709 0.54237
# Poissons Ratio (z) = 0.10664 0.23667
#
# Static dielectric constant tensor:
#      x y z
#    x 1.854290 -0.074080 -0.015060 
#    y -0.074080 1.838060 0.046710 
#    z -0.015060 0.046710 1.827630 
# 
# From -- ./inp_files/523716.got.cif
#   From: 2010.05.17/outbox.cif.g08.bks.cpg/sg2_262_cif.got.tgz:523716.got - 2010.06.03 11:33:40.
