data_PCOD9032760
_publ_section_title
;
Structure prediction by ZEFSAII (Michael W. Deem and Ramdas Pophale) SiO2 
 PCOD9032760
Probable space group: P -1
;
_chemical_formula_sum "Si O2"
_cell_formula_units_Z 14
_cell_length_a 7.239826
_cell_length_b 14.721179
_cell_length_c 7.181800
_cell_angle_alpha 98.663402
_cell_angle_beta 123.419358
_cell_angle_gamma 69.042541
_cell_volume 595.552782
_symmetry_space_group_name_H-M "P -1"
_symmetry_group_IT_number 2
_symmetry_cell_setting 'triclinic'
loop_
_space_group_symop_operation_xyz
x,y,z
-x,-y,-z
loop_
_atom_site_type_symbol
_atom_site_label
_atom_site_fract_x
_atom_site_fract_y
_atom_site_fract_z
Si Si1 0.938786 0.614154 0.476184
Si Si2 0.726089 0.929622 0.711609
Si Si3 0.485932 0.256061 0.181799
Si Si4 0.501694 0.226436 0.574246
Si Si5 0.342496 0.612919 0.963104
Si Si6 0.255555 0.906545 0.983439
Si Si7 0.978080 0.392575 0.908511
O O1 0.672006 0.677523 0.392968
O O2 0.000000 0.500000 0.500000
O O3 0.100836 0.638855 0.724056
O O4 0.014952 0.624311 0.312601
O O5 0.666106 0.831690 0.619207
O O6 0.500000 0.000000 0.500000
O O7 0.729580 0.987910 0.923685
O O8 0.990027 0.915249 0.782383
O O9 0.539734 0.324177 0.074318
O O10 0.612238 0.247872 0.449640
O O11 0.567645 0.150942 0.095963
O O12 0.672093 0.158796 0.805211
O O13 0.213354 0.311454 0.084404
O O14 0.246543 0.622480 0.123558
O O15 0.500000 0.500000 0.000000
O O16 0.000000 0.500000 0.000000
#
# Coordination Sequence:
#
# PCOD9032760 Si02
#       7
#     2   2   2   2   2   2   2
#     4  12  23  42  68  96 138 187 231 286 354 407
#     4   9  21  46  74 102 144 179 227 293 355 427
#     4  12  24  43  68 103 138 182 238 290 350 419
#     4  11  23  43  70 103 144 183 233 293 349 420
#     4  12  26  42  65  97 136 188 244 290 341 416
#     4  10  22  43  74 106 138 182 235 285 358 429
#     4  12  23  45  65  91 139 185 230 292 341 404
#
# _framework density 23.507570999999999
#
# number of rings (size 3 to 8) (size 9 to 14) (size 15 to 20)
#    0.000    0.857    5.714    0.857    0.000    2.286 
#    0.000    6.429    0.000    0.000    0.000    0.000 
#    0.000    0.000    0.000    0.000    0.000    0.000 
#
# Total GULP energy -78138.787698 kJ/mol
# GULP energy per Si atom -5581.341978 kJ/mol
# Density = 2.345407 g / cm^3
# Si number density = 23.507571 Si / 1000 Ang^3
#
#
#
# Elastic Constant Matrix: (Units=GPa)
#
#
# Indices 1 2 3 4 5 6 
#
# 1 145.1670 51.0889 47.5358 2.1587 -11.9229 -16.1752
# 2 51.0889 102.0615 12.5695 -4.2858 2.2863 -20.8454
# 3 47.5358 12.5695 116.1933 -6.9129 -11.1657 -1.5858
# 4 2.1587 -4.2858 -6.9129 30.4423 -8.2977 -0.8751
# 5 -11.9229 2.2863 -11.1657 -8.2977 58.6837 2.8465
# 6 -16.1752 -20.8454 -1.5858 -0.8751 2.8465 44.2730
#
#
#
# Elastic Compliance Matrix: (Units=1/GPa)
#
#
# Indices 1 2 3 4 5 6 
#
# 1 0.009834 -0.004318 -0.003528 -0.001746 0.001184 0.001323
# 2 -0.004318 0.012972 0.000428 0.002025 -0.001241 0.004666
# 3 -0.003528 0.000428 0.010342 0.003103 0.001710 -0.000766
# 4 -0.001746 0.002025 0.003103 0.035381 0.005121 0.000797
# 5 0.001184 -0.001241 0.001710 0.005121 0.018436 -0.001175
# 6 0.001323 0.004666 -0.000766 0.000797 -0.001175 0.025331
#
#
# Mechanical properties :
#
#
# Convention : Reuss Voigt Hill
#
# Bulk Modulus (GPa) = 54.60704 65.09001 59.84852
# Shear Modulus (GPa) = 37.52719 43.49498 40.51109
#
# Velocity S-wave (km/s) = 3.99982 4.30612 4.15579
# Velocity P-wave (km/s) = 6.67917 7.24380 6.96721
#
# Compressibility (1/GPa) = 0.01831266
#
# Stress axis : x y z
#
# Youngs Moduli (GPa) = 101.68700 77.08670 96.69348
#
# Poissons Ratio (x) = 0.33284 0.34115
# Poissons Ratio (y) = 0.43906 -0.04139
# Poissons Ratio (z) = 0.35877 -0.03299
#
# Static dielectric constant tensor:
#      x y z
#    x 1.103870 -0.431180 -0.656180 
#    y -0.431180 1.696760 -0.325790 
#    z -0.656180 -0.325790 1.533650 
# 
# From -- ./inp_files/197030.got.cif
#   From: 2010.05.17/outbox.cif.g08.bks.cpg/sg2_99_cif.got.tgz:197030.got - 2010.06.03 11:33:40.
