data_PCOD9032465
_publ_section_title
;
Structure prediction by ZEFSAII (Michael W. Deem and Ramdas Pophale) SiO2 
 PCOD9032465
Probable space group: P -1
;
_chemical_formula_sum "Si O2"
_cell_formula_units_Z 16
_cell_length_a 23.700644
_cell_length_b 13.296917
_cell_length_c 13.209115
_cell_angle_alpha 146.484112
_cell_angle_beta 22.092998
_cell_angle_gamma 153.972158
_cell_volume 687.013225
_symmetry_space_group_name_H-M "P -1"
_symmetry_group_IT_number 2
_symmetry_cell_setting 'triclinic'
loop_
_space_group_symop_operation_xyz
x,y,z
-x,-y,-z
loop_
_atom_site_type_symbol
_atom_site_label
_atom_site_fract_x
_atom_site_fract_y
_atom_site_fract_z
Si Si1 0.485305 0.566126 0.192247
Si Si2 0.926438 0.361169 0.254611
Si Si3 0.506215 0.912337 0.561335
Si Si4 0.409932 0.184732 0.309465
Si Si5 0.059384 0.842782 0.733453
Si Si6 0.810572 0.595046 0.745632
Si Si7 0.337227 0.561398 0.724455
Si Si8 0.407925 0.149600 0.057891
O O1 0.434182 0.736807 0.439970
O O2 0.500000 0.500000 0.000000
O O3 0.699655 0.696903 0.987837
O O4 0.356523 0.320276 0.257783
O O5 0.952422 0.300330 0.273573
O O6 0.916240 0.573076 0.459918
O O7 0.723094 0.132794 0.367007
O O8 0.123937 0.448568 0.950048
O O9 0.479821 0.752215 0.565205
O O10 0.381651 0.989970 0.875481
O O11 0.367868 0.368030 0.517271
O O12 0.608923 0.326416 0.157614
O O13 0.265471 0.998930 0.474079
O O14 0.364610 0.067270 0.176102
O O15 0.927328 0.698310 0.738256
O O16 0.000000 0.000000 0.000000
O O17 0.635247 0.332589 0.838041
#
# Coordination Sequence:
#
# PCOD9032465 Si02
#       8
#     2   2   2   2   2   2   2   2
#     4  10  22  43  71  90 117 160 211 273 319 362
#     4  11  22  38  57  92 130 172 204 249 304 375
#     4  11  22  42  63  92 129 158 209 256 310 377
#     4  11  22  34  55  91 131 168 215 239 300 379
#     4  12  21  33  57  87 130 175 204 246 307 364
#     4   9  22  39  55  86 124 155 214 255 303 375
#     4  11  22  35  60  87 132 176 203 246 303 366
#     4   9  22  39  59  91 120 154 210 253 306 375
#
# _framework density 23.289217000000001
#
# number of rings (size 3 to 8) (size 9 to 14) (size 15 to 20)
#    0.750    0.750    3.750    1.875    3.500    2.000 
#    0.000    0.000    0.000    3.750    0.000    0.000 
#    0.000    0.000    0.000    0.000    0.000    0.000 
#
# Total GULP energy -89211.468389 kJ/mol
# GULP energy per Si atom -5575.716774 kJ/mol
# Density = 2.323621 g / cm^3
# Si number density = 23.289217 Si / 1000 Ang^3
#
#
#
# Elastic Constant Matrix: (Units=GPa)
#
#
# Indices 1 2 3 4 5 6 
#
# 1 48.2793 14.6467 10.3460 -1.5809 13.5521 5.4930
# 2 14.6467 69.9363 30.6874 27.8785 5.9712 -1.4396
# 3 10.3460 30.6874 82.1363 14.4579 7.4481 -0.5837
# 4 -1.5809 27.8785 14.4579 43.7346 1.4504 4.5020
# 5 13.5521 5.9712 7.4481 1.4504 31.7638 14.4568
# 6 5.4930 -1.4396 -0.5837 4.5020 14.4568 11.0047
#
#
#
# Elastic Compliance Matrix: (Units=1/GPa)
#
#
# Indices 1 2 3 4 5 6 
#
# 1 0.026197 -0.007760 -0.001410 0.007668 -0.004632 -0.011217
# 2 -0.007760 0.028150 -0.004051 -0.020333 -0.017981 0.039280
# 3 -0.001410 -0.004051 0.015306 -0.003588 -0.007905 0.012838
# 4 0.007668 -0.020333 -0.003588 0.042400 0.025840 -0.057969
# 5 -0.004632 -0.017981 -0.007905 0.025840 0.105780 -0.149993
# 6 -0.011217 0.039280 0.012838 -0.057969 -0.149993 0.323048
#
#
# Mechanical properties :
#
#
# Convention : Reuss Voigt Hill
#
# Bulk Modulus (GPa) = 23.14240 34.63469 28.88855
# Shear Modulus (GPa) = 8.59511 26.94541 17.77026
#
# Velocity S-wave (km/s) = 1.92318 3.40515 2.76529
# Velocity P-wave (km/s) = 3.85876 5.51034 4.75678
#
# Compressibility (1/GPa) = 0.04321073
#
# Stress axis : x y z
#
# Youngs Moduli (GPa) = 38.17285 35.52336 65.33518
#
# Poissons Ratio (x) = 0.27565 0.09212
# Poissons Ratio (y) = 0.29621 0.26470
# Poissons Ratio (z) = 0.05382 0.14392
#
# Static dielectric constant tensor:
#      x y z
#    x 1.900110 0.010000 0.003680 
#    y 0.010000 1.931000 0.067640 
#    z 0.003680 0.067640 1.983120 
# 
# From -- ./inp_files/545086.got.cif
#   From: 2010.05.17/outbox.cif.g08.bks.cpg/sg2_273_cif.got.tgz:545086.got - 2010.06.03 11:33:40.
