data_PCOD9032628
_publ_section_title
;
Structure prediction by ZEFSAII (Michael W. Deem and Ramdas Pophale) SiO2 
 PCOD9032628
Probable space group: P -1
;
_chemical_formula_sum "Si O2"
_cell_formula_units_Z 16
_cell_length_a 4.943389
_cell_length_b 8.554008
_cell_length_c 29.649064
_cell_angle_alpha 28.976752
_cell_angle_beta 90.489668
_cell_angle_gamma 94.364507
_cell_volume 601.230290
_symmetry_space_group_name_H-M "P -1"
_symmetry_group_IT_number 2
_symmetry_cell_setting 'triclinic'
loop_
_space_group_symop_operation_xyz
x,y,z
-x,-y,-z
loop_
_atom_site_type_symbol
_atom_site_label
_atom_site_fract_x
_atom_site_fract_y
_atom_site_fract_z
Si Si1 0.511706 0.551222 0.933623
Si Si2 0.034188 0.576404 0.094326
Si Si3 0.665828 0.867250 0.738058
Si Si4 0.226967 0.327328 0.841788
Si Si5 0.913207 0.825801 0.661121
Si Si6 0.290799 0.366680 0.647552
Si Si7 0.845446 0.756432 0.524471
Si Si8 0.471043 0.249285 0.771442
O O1 0.223204 0.485258 0.924064
O O2 0.706744 0.340860 0.959446
O O3 0.607160 0.941074 0.832925
O O4 0.500000 0.500000 0.000000
O O5 0.965659 0.773934 0.089724
O O6 0.102865 0.232961 0.202999
O O7 0.439210 0.068978 0.705698
O O8 0.505074 0.501494 0.820289
O O9 0.756213 0.998087 0.655735
O O10 0.307727 0.139629 0.844922
O O11 0.094973 0.612391 0.744307
O O12 0.692701 0.563800 0.701600
O O13 0.090650 0.071243 0.566515
O O14 0.004532 0.441565 0.608910
O O15 0.280308 0.345678 0.706905
O O16 0.527274 0.663116 0.558326
O O17 0.000000 0.000000 0.500000
#
# Coordination Sequence:
#
# PCOD9032628 Si02
#       8
#     2   2   2   2   2   2   2   2
#     4  12  27  46  76 109 139 169 223 285 337 409
#     4  11  22  47  71  98 142 178 217 277 340 408
#     4  10  23  42  69  99 130 187 229 277 336 404
#     4  10  22  43  72  97 137 184 231 275 334 411
#     4  10  24  41  66  93 143 178 232 283 337 399
#     4  12  26  40  70  93 134 181 233 282 343 395
#     4  12  26  42  60  98 137 177 231 293 336 385
#     4  11  24  42  71 101 132 181 233 269 348 411
#
# _framework density 26.612098
#
# number of rings (size 3 to 8) (size 9 to 14) (size 15 to 20)
#    0.000    1.000    3.750    1.500   10.500    1.000 
#    0.000    1.250    0.000    0.000    0.000    0.000 
#    0.000    0.000    0.000    0.000    0.000    0.000 
#
# Total GULP energy -89588.908339 kJ/mol
# GULP energy per Si atom -5599.306771 kJ/mol
# Density = 2.655153 g / cm^3
# Si number density = 26.612098 Si / 1000 Ang^3
#
#
#
# Elastic Constant Matrix: (Units=GPa)
#
#
# Indices 1 2 3 4 5 6 
#
# 1 125.7574 41.6551 19.2760 12.8429 20.1198 -11.7523
# 2 41.6551 144.6187 37.6017 20.2373 9.0761 -22.7425
# 3 19.2760 37.6017 113.9052 44.4486 -10.2872 -14.2836
# 4 12.8429 20.2373 44.4486 49.3794 -10.4242 -5.3202
# 5 20.1198 9.0761 -10.2872 -10.4242 39.8640 6.7671
# 6 -11.7523 -22.7425 -14.2836 -5.3202 6.7671 55.2401
#
#
#
# Elastic Compliance Matrix: (Units=1/GPa)
#
#
# Indices 1 2 3 4 5 6 
#
# 1 0.009924 -0.001776 -0.000418 -0.002485 -0.005655 0.001726
# 2 -0.001776 0.008743 -0.001766 -0.001747 -0.002500 0.002903
# 3 -0.000418 -0.001766 0.014261 -0.011623 0.000977 0.001633
# 4 -0.002485 -0.001747 -0.011623 0.033499 0.007748 -0.001976
# 5 -0.005655 -0.002500 0.000977 0.007748 0.031654 -0.005111
# 6 0.001726 0.002903 0.001633 -0.001976 -0.005111 0.020523
#
#
# Mechanical properties :
#
#
# Convention : Reuss Voigt Hill
#
# Bulk Modulus (GPa) = 39.98449 64.59410 52.28929
# Shear Modulus (GPa) = 37.07563 47.94659 42.51111
#
# Velocity S-wave (km/s) = 3.73659 4.24923 4.00113
# Velocity P-wave (km/s) = 5.80290 6.95699 6.40599
#
# Compressibility (1/GPa) = 0.02500970
#
# Stress axis : x y z
#
# Youngs Moduli (GPa) = 100.76758 114.37466 70.11986
#
# Poissons Ratio (x) = 0.20310 0.02929
# Poissons Ratio (y) = 0.17894 0.12382
# Poissons Ratio (z) = 0.04210 0.20196
#
# Static dielectric constant tensor:
#      x y z
#    x 2.099790 -0.004830 -0.053010 
#    y -0.004830 2.120310 -0.082850 
#    z -0.053010 -0.082850 2.183430 
# 
# From -- ./inp_files/615214.got.cif
#   From: 2010.05.17/outbox.cif.g08.bks.cpg/sg2_308_cif.got.tgz:615214.got - 2010.06.03 11:33:40.
