data_PCOD9032616
_publ_section_title
;
Structure prediction by ZEFSAII (Michael W. Deem and Ramdas Pophale) SiO2 
 PCOD9032616
Probable space group: P -1
;
_chemical_formula_sum "Si O2"
_cell_formula_units_Z 14
_cell_length_a 12.910596
_cell_length_b 7.017773
_cell_length_c 13.255025
_cell_angle_alpha 128.345575
_cell_angle_beta 132.787530
_cell_angle_gamma 42.234192
_cell_volume 575.372301
_symmetry_space_group_name_H-M "P -1"
_symmetry_group_IT_number 2
_symmetry_cell_setting 'triclinic'
loop_
_space_group_symop_operation_xyz
x,y,z
-x,-y,-z
loop_
_atom_site_type_symbol
_atom_site_label
_atom_site_fract_x
_atom_site_fract_y
_atom_site_fract_z
Si Si1 0.622533 0.309420 0.613005
Si Si2 0.035146 0.829463 0.131840
Si Si3 0.923478 0.750293 0.837788
Si Si4 0.748038 0.721238 0.400242
Si Si5 0.449000 0.719335 0.213497
Si Si6 0.260083 0.830139 0.795973
Si Si7 0.058583 0.217354 0.627972
O O1 0.500000 0.500000 0.500000
O O2 0.781809 0.338426 0.747544
O O3 0.717984 0.963351 0.539078
O O4 0.531448 0.348790 0.673920
O O5 0.010103 0.113133 0.152025
O O6 0.874246 0.968064 0.143103
O O7 0.032833 0.643608 0.976755
O O8 0.744166 0.031070 0.844718
O O9 0.923867 0.497199 0.696100
O O10 0.553439 0.849393 0.282430
O O11 0.880536 0.695642 0.400087
O O12 0.543430 0.397619 0.121275
O O13 0.208846 0.600324 0.652870
O O14 0.227158 0.035997 0.748694
O O15 0.000000 0.000000 0.500000
#
# Coordination Sequence:
#
# PCOD9032616 Si02
#       7
#     2   2   2   2   2   2   2
#     4  11  22  39  69 103 138 177 236 286 340 404
#     4  10  22  43  72  96 139 185 227 281 346 409
#     4  10  22  44  71 100 135 184 230 280 341 418
#     4  10  23  42  63  96 142 173 227 289 343 404
#     4   9  22  40  66  98 139 179 225 285 347 398
#     4  10  23  41  64 101 132 181 221 283 347 399
#     4  12  25  40  70 102 136 182 237 283 345 409
#
# _framework density 24.332073999999999
#
# number of rings (size 3 to 8) (size 9 to 14) (size 15 to 20)
#    0.857    0.857    1.429    2.143    4.000    4.571 
#    0.000    0.000    0.000    4.286    0.000    0.000 
#    0.000    0.000    0.000    0.000    0.000    0.000 
#
# Total GULP energy -78070.846330 kJ/mol
# GULP energy per Si atom -5576.489024 kJ/mol
# Density = 2.427669 g / cm^3
# Si number density = 24.332074 Si / 1000 Ang^3
#
#
#
# Elastic Constant Matrix: (Units=GPa)
#
#
# Indices 1 2 3 4 5 6 
#
# 1 94.1903 34.0849 19.3405 0.1426 -7.0402 -9.6362
# 2 34.0849 124.4103 50.4590 -1.6589 -8.3893 -8.0081
# 3 19.3405 50.4590 85.8880 -4.4902 -12.4818 -8.5816
# 4 0.1426 -1.6589 -4.4902 30.6963 2.1146 -6.0656
# 5 -7.0402 -8.3893 -12.4818 2.1146 18.1070 -7.1513
# 6 -9.6362 -8.0081 -8.5816 -6.0656 -7.1513 33.3888
#
#
#
# Elastic Compliance Matrix: (Units=1/GPa)
#
#
# Indices 1 2 3 4 5 6 
#
# 1 0.012424 -0.002798 0.000007 0.000241 0.005113 0.004055
# 2 -0.002798 0.011239 -0.005913 -0.000184 0.000215 0.000381
# 3 0.000007 -0.005913 0.017510 0.002643 0.011396 0.006005
# 4 0.000241 -0.000184 0.002643 0.034307 0.000616 0.007069
# 5 0.005113 0.000215 0.011396 0.000616 0.073085 0.020222
# 6 0.004055 0.000381 0.006005 0.007069 0.020222 0.038371
#
#
# Mechanical properties :
#
#
# Convention : Reuss Voigt Hill
#
# Bulk Modulus (GPa) = 42.07847 56.91750 49.49798
# Shear Modulus (GPa) = 23.55518 29.81204 26.68361
#
# Velocity S-wave (km/s) = 3.11476 3.50411 3.31515
# Velocity P-wave (km/s) = 5.50151 6.30987 5.91950
#
# Compressibility (1/GPa) = 0.02376512
#
# Stress axis : x y z
#
# Youngs Moduli (GPa) = 80.48617 88.97291 57.11015
#
# Poissons Ratio (x) = 0.24891 -0.00038
# Poissons Ratio (y) = 0.22517 0.33771
# Poissons Ratio (z) = -0.00053 0.52613
#
# Static dielectric constant tensor:
#      x y z
#    x 1.939840 0.012870 0.017790 
#    y 0.012870 1.985750 -0.071040 
#    z 0.017790 -0.071040 2.041180 
# 
# From -- ./inp_files/527763.got.cif
#   From: 2010.05.17/outbox.cif.g08.bks.cpg/sg2_264_cif.got.tgz:527763.got - 2010.06.03 11:33:40.
