data_PCOD9032835
_publ_section_title
;
Structure prediction by ZEFSAII (Michael W. Deem and Ramdas Pophale) SiO2 
 PCOD9032835
Probable space group: P -1
;
_chemical_formula_sum "Si O2"
_cell_formula_units_Z 10
_cell_length_a 10.976963
_cell_length_b 8.926834
_cell_length_c 8.928076
_cell_angle_alpha 104.508211
_cell_angle_beta 59.614654
_cell_angle_gamma 146.467548
_cell_volume 389.093397
_symmetry_space_group_name_H-M "P -1"
_symmetry_group_IT_number 2
_symmetry_cell_setting 'triclinic'
loop_
_space_group_symop_operation_xyz
x,y,z
-x,-y,-z
loop_
_atom_site_type_symbol
_atom_site_label
_atom_site_fract_x
_atom_site_fract_y
_atom_site_fract_z
Si Si1 0.824346 0.700224 0.956874
Si Si2 0.041373 0.527393 0.157082
Si Si3 0.283396 0.288118 0.312163
Si Si4 0.293815 0.825177 0.355490
Si Si5 0.451019 0.743501 0.477263
O O1 0.536431 0.412242 0.145934
O O2 0.962569 0.661208 0.860379
O O3 0.782023 0.707971 0.812234
O O4 0.000000 0.000000 0.000000
O O5 0.288195 0.811689 0.178835
O O6 0.821618 0.444944 0.331911
O O7 0.000000 0.500000 0.000000
O O8 0.425295 0.547906 0.391453
O O9 0.000000 0.000000 0.500000
O O10 0.480496 0.877593 0.342518
O O11 0.000000 0.500000 0.500000
O O12 0.347448 0.035110 0.458456
#
# Coordination Sequence:
#
# PCOD9032835 Si02
#       5
#     2   2   2   2   2
#     4  11  28  50  79 112 162 203 252 328 393 458
#     4  11  25  46  70 112 153 201 255 316 385 462
#     4  11  27  52  79 114 155 204 262 319 397 463
#     4   9  20  41  70 103 139 191 254 314 374 440
#     4  10  22  43  77 105 143 199 262 316 380 457
#
# _framework density 25.700766999999999
#
# number of rings (size 3 to 8) (size 9 to 14) (size 15 to 20)
#    0.000    1.600    2.000    0.000   11.200    1.600 
#    7.200    0.000    0.000    0.000    0.000    0.000 
#    0.000    0.000    0.000    0.000    0.000    0.000 
#
# Total GULP energy -55801.312434 kJ/mol
# GULP energy per Si atom -5580.131243 kJ/mol
# Density = 2.564227 g / cm^3
# Si number density = 25.700767 Si / 1000 Ang^3
#
#
#
# Elastic Constant Matrix: (Units=GPa)
#
#
# Indices 1 2 3 4 5 6 
#
# 1 88.1837 21.8763 59.8296 11.8496 -1.6569 24.0934
# 2 21.8763 152.6290 62.4510 45.4344 19.8175 23.4460
# 3 59.8296 62.4510 200.4616 -2.4055 -0.0371 28.9862
# 4 11.8496 45.4344 -2.4055 68.0055 18.8314 3.5542
# 5 -1.6569 19.8175 -0.0371 18.8314 58.1670 14.9388
# 6 24.0934 23.4460 28.9862 3.5542 14.9388 37.5110
#
#
#
# Elastic Compliance Matrix: (Units=1/GPa)
#
#
# Indices 1 2 3 4 5 6 
#
# 1 0.017325 0.001782 -0.004332 -0.004965 0.004071 -0.010045
# 2 0.001782 0.010438 -0.003221 -0.007152 -0.000040 -0.004486
# 3 -0.004332 -0.003221 0.007533 0.003158 0.000330 -0.001456
# 4 -0.004965 -0.007152 0.003158 0.021892 -0.006236 0.005628
# 5 0.004071 -0.000040 0.000330 -0.006236 0.022189 -0.011091
# 6 -0.010045 -0.004486 -0.001456 0.005628 -0.011091 0.040924
#
#
# Mechanical properties :
#
#
# Convention : Reuss Voigt Hill
#
# Bulk Modulus (GPa) = 42.09818 81.06536 61.58177
# Shear Modulus (GPa) = 35.77509 52.54453 44.15981
#
# Velocity S-wave (km/s) = 3.73498 4.52649 4.14965
# Velocity P-wave (km/s) = 5.91741 7.67654 6.85365
#
# Compressibility (1/GPa) = 0.02375400
#
# Stress axis : x y z
#
# Youngs Moduli (GPa) = 57.71883 95.80735 132.74193
#
# Poissons Ratio (x) = -0.17071 0.57509
# Poissons Ratio (y) = -0.10284 0.42751
# Poissons Ratio (z) = 0.25006 0.30856
#
# Static dielectric constant tensor:
#      x y z
#    x 2.040530 0.027650 0.048710 
#    y 0.027650 2.137790 -0.091900 
#    z 0.048710 -0.091900 2.126350 
# 
# From -- ./inp_files/244943.got.cif
#   From: 2010.05.17/outbox.cif.g08.bks.cpg/sg2_123_cif.got.tgz:244943.got - 2010.06.03 11:33:40.
