data_PCOD9032804
_publ_section_title
;
Structure prediction by ZEFSAII (Michael W. Deem and Ramdas Pophale) SiO2 
 PCOD9032804
Probable space group: P -1
;
_chemical_formula_sum "Si O2"
_cell_formula_units_Z 12
_cell_length_a 10.040503
_cell_length_b 9.190268
_cell_length_c 7.469743
_cell_angle_alpha 99.014634
_cell_angle_beta 131.396569
_cell_angle_gamma 66.128654
_cell_volume 466.603646
_symmetry_space_group_name_H-M "P -1"
_symmetry_group_IT_number 2
_symmetry_cell_setting 'triclinic'
loop_
_space_group_symop_operation_xyz
x,y,z
-x,-y,-z
loop_
_atom_site_type_symbol
_atom_site_label
_atom_site_fract_x
_atom_site_fract_y
_atom_site_fract_z
Si Si1 0.704435 0.498858 0.243083
Si Si2 0.824013 0.501283 0.963596
Si Si3 0.890721 0.162085 0.825239
Si Si4 0.021328 0.165975 0.587304
Si Si5 0.411974 0.163330 0.776883
Si Si6 0.521226 0.164742 0.284967
O O1 0.833977 0.328781 0.410530
O O2 0.639183 0.665111 0.327926
O O3 0.500000 0.500000 0.000000
O O4 0.828409 0.516775 0.186192
O O5 0.811910 0.329072 0.894397
O O6 0.638039 0.659994 0.775046
O O7 0.000000 0.500000 0.000000
O O8 0.045161 0.172718 0.821532
O O9 0.715691 0.150192 0.554041
O O10 0.000000 0.000000 0.000000
O O11 0.204144 0.163532 0.642440
O O12 0.000000 0.000000 0.500000
O O13 0.516638 0.995126 0.735692
O O14 0.520597 0.161213 0.062750
#
# Coordination Sequence:
#
# PCOD9032804 Si02
#       6
#     2   2   2   2   2   2
#     4  11  25  46  78 111 142 197 253 307 363 439
#     4  11  25  49  74 108 156 194 242 305 383 442
#     4  12  25  46  73 107 153 194 245 305 381 444
#     4  12  23  43  76 105 147 194 251 305 363 443
#     4  10  22  43  75 108 146 181 257 303 364 430
#     4  10  22  44  73 103 144 193 241 301 364 434
#
# _framework density 25.717760999999999
#
# number of rings (size 3 to 8) (size 9 to 14) (size 15 to 20)
#    0.000    1.000    1.667    6.000    2.333    0.000 
#    3.000    3.333    0.000    0.000    0.000    0.000 
#    0.000    0.000    0.000    0.000    0.000    0.000 
#
# Total GULP energy -67193.261201 kJ/mol
# GULP energy per Si atom -5599.438433 kJ/mol
# Density = 2.565923 g / cm^3
# Si number density = 25.717761 Si / 1000 Ang^3
#
#
#
# Elastic Constant Matrix: (Units=GPa)
#
#
# Indices 1 2 3 4 5 6 
#
# 1 73.0939 17.5900 32.1469 -21.4552 -1.7810 7.1420
# 2 17.5900 287.0343 86.5935 -40.5342 7.1973 7.6505
# 3 32.1469 86.5935 146.0919 -39.1776 17.2453 6.5009
# 4 -21.4552 -40.5342 -39.1776 59.9240 -0.8702 -0.8777
# 5 -1.7810 7.1973 17.2453 -0.8702 37.7021 2.1871
# 6 7.1420 7.6505 6.5009 -0.8777 2.1871 36.9196
#
#
#
# Elastic Compliance Matrix: (Units=1/GPa)
#
#
# Indices 1 2 3 4 5 6 
#
# 1 0.016431 0.000493 -0.002893 0.004317 0.002268 -0.002803
# 2 0.000493 0.004380 -0.002272 0.001650 0.000298 -0.000582
# 3 -0.002893 -0.002272 0.010497 0.004220 -0.004381 -0.000458
# 4 0.004317 0.001650 0.004220 0.022068 -0.001456 -0.001309
# 5 0.002268 0.000298 -0.004381 -0.001456 0.028629 -0.001460
# 6 -0.002803 -0.000582 -0.000458 -0.001309 -0.001460 0.027885
#
#
# Mechanical properties :
#
#
# Convention : Reuss Voigt Hill
#
# Bulk Modulus (GPa) = 45.52581 86.54235 66.03408
# Shear Modulus (GPa) = 39.50852 51.56845 45.53848
#
# Velocity S-wave (km/s) = 3.92374 4.48277 4.21254
# Velocity P-wave (km/s) = 6.18612 7.77930 7.02800
#
# Compressibility (1/GPa) = 0.02196556
#
# Stress axis : x y z
#
# Youngs Moduli (GPa) = 60.86025 228.31025 95.26240
#
# Poissons Ratio (x) = -0.11265 0.27562
# Poissons Ratio (y) = -0.03003 0.21639
# Poissons Ratio (z) = 0.17609 0.51862
#
# Static dielectric constant tensor:
#      x y z
#    x 2.110270 -0.000580 -0.010400 
#    y -0.000580 2.160730 0.006270 
#    z -0.010400 0.006270 2.016490 
# 
# From -- ./inp_files/244808.got.cif
#   From: 2010.05.17/outbox.cif.g08.bks.cpg/sg2_123_cif.got.tgz:244808.got - 2010.06.03 11:33:40.
