data_PCOD9032246
_publ_section_title
;
Structure prediction by ZEFSAII (Michael W. Deem and Ramdas Pophale) SiO2 
 PCOD9032246
Probable space group: P -1
;
_chemical_formula_sum "Si O2"
_cell_formula_units_Z 15
_cell_length_a 8.324537
_cell_length_b 17.540739
_cell_length_c 12.255953
_cell_angle_alpha 28.569287
_cell_angle_beta 48.969329
_cell_angle_gamma 45.992777
_cell_volume 609.948566
_symmetry_space_group_name_H-M "P -1"
_symmetry_group_IT_number 2
_symmetry_cell_setting 'triclinic'
loop_
_space_group_symop_operation_xyz
x,y,z
-x,-y,-z
loop_
_atom_site_type_symbol
_atom_site_label
_atom_site_fract_x
_atom_site_fract_y
_atom_site_fract_z
Si Si1 0.173627 0.918605 0.769511
Si Si2 0.866745 0.879779 0.265064
Si Si3 0.703732 0.002896 0.977911
Si Si4 0.982521 0.514128 0.320277
Si Si5 0.067101 0.604388 0.937234
Si Si6 0.453850 0.556023 0.126584
Si Si7 0.503163 0.379639 0.549727
Si Si8 0.000000 0.000000 0.500000
O O1 0.193111 0.071792 0.643922
O O2 0.137621 0.929433 0.642953
O O3 0.381685 0.757156 0.913685
O O4 0.940467 0.902127 0.942996
O O5 0.987254 0.683740 0.439748
O O6 0.660986 0.939312 0.196462
O O7 0.000000 0.000000 0.000000
O O8 0.677485 0.200198 0.730980
O O9 0.500000 0.000000 0.000000
O O10 0.218675 0.528643 0.236444
O O11 0.754690 0.617267 0.354335
O O12 0.940034 0.578912 0.134298
O O13 0.332750 0.515029 0.956733
O O14 0.026785 0.803415 0.694117
O O15 0.000000 0.500000 0.000000
O O16 0.550195 0.457409 0.319044
O O17 0.500000 0.500000 0.500000
#
# Coordination Sequence:
#
# PCOD9032246 Si02
#       8
#     2   2   2   2   2   2   2   1
#     4  11  23  45  68 101 145 194 245 307 370 451
#     4  10  22  43  70 103 149 192 247 312 380 454
#     4  11  22  39  65 105 139 182 243 305 371 437
#     4  12  24  45  71 106 146 198 250 309 383 449
#     4  12  28  52  77 110 153 202 254 316 384 462
#     4  12  25  48  72 106 149 197 252 304 387 458
#     4  12  23  40  70 104 144 192 245 312 374 444
#     4  12  26  48  78 104 154 192 262 312 374 456
#
# _framework density 24.592236
#
# number of rings (size 3 to 8) (size 9 to 14) (size 15 to 20)
#    0.000    0.533    1.333    8.800    0.000    0.000 
#    2.400    1.333    0.000    0.000    0.000    0.000 
#    0.000    0.000    0.000    0.000    0.000    0.000 
#
# Total GULP energy -83600.644189 kJ/mol
# GULP energy per Si atom -5573.376279 kJ/mol
# Density = 2.453626 g / cm^3
# Si number density = 24.592236 Si / 1000 Ang^3
#
#
#
# Elastic Constant Matrix: (Units=GPa)
#
#
# Indices 1 2 3 4 5 6 
#
# 1 99.8909 5.8020 -1.2571 0.1865 2.7559 14.5109
# 2 5.8020 87.4597 43.6586 -22.4752 0.9895 -6.8651
# 3 -1.2571 43.6586 73.1876 -42.3478 13.5040 -2.8028
# 4 0.1865 -22.4752 -42.3478 50.1216 7.5123 1.2691
# 5 2.7559 0.9895 13.5040 7.5123 36.1595 9.0656
# 6 14.5109 -6.8651 -2.8028 1.2691 9.0656 40.0963
#
#
#
# Elastic Compliance Matrix: (Units=1/GPa)
#
#
# Indices 1 2 3 4 5 6 
#
# 1 0.010705 -0.001552 0.001374 0.000588 -0.000414 -0.003969
# 2 -0.001552 0.017489 -0.014644 -0.005443 0.005896 0.001372
# 3 0.001374 -0.014644 0.052341 0.041915 -0.029460 0.005988
# 4 0.000588 -0.005443 0.041915 0.057112 -0.029056 0.006547
# 5 -0.000414 0.005896 -0.029460 -0.029056 0.047237 -0.010661
# 6 -0.003969 0.001372 0.005988 0.006547 -0.010661 0.029233
#
#
# Mechanical properties :
#
#
# Convention : Reuss Voigt Hill
#
# Bulk Modulus (GPa) = 19.64991 39.66055 29.65523
# Shear Modulus (GPa) = 19.17726 39.43112 29.30419
#
# Velocity S-wave (km/s) = 2.79554 4.00859 3.45571
# Velocity P-wave (km/s) = 4.29275 6.13085 5.29221
#
# Compressibility (1/GPa) = 0.05089081
#
# Stress axis : x y z
#
# Youngs Moduli (GPa) = 93.41225 57.17807 19.10545
#
# Poissons Ratio (x) = 0.08873 -0.02625
# Poissons Ratio (y) = 0.14497 0.27979
# Poissons Ratio (z) = -0.12834 0.83734
#
# Static dielectric constant tensor:
#      x y z
#    x 2.241700 0.034350 0.000550 
#    y 0.034350 1.892230 0.022440 
#    z 0.000550 0.022440 2.059580 
# 
# From -- ./inp_files/382523.got.cif
#   From: 2010.05.17/outbox.cif.g08.bks.cpg/sg2_192_cif.got.tgz:382523.got - 2010.06.03 11:33:40.
