data_PCOD9032871
_publ_section_title
;
Structure prediction by ZEFSAII (Michael W. Deem and Ramdas Pophale) SiO2 
 PCOD9032871
Probable space group: P -1
;
_chemical_formula_sum "Si O2"
_cell_formula_units_Z 16
_cell_length_a 16.584197
_cell_length_b 6.599490
_cell_length_c 9.414383
_cell_angle_alpha 133.168651
_cell_angle_beta 77.209368
_cell_angle_gamma 91.556304
_cell_volume 721.572219
_symmetry_space_group_name_H-M "P -1"
_symmetry_group_IT_number 2
_symmetry_cell_setting 'triclinic'
loop_
_space_group_symop_operation_xyz
x,y,z
-x,-y,-z
loop_
_atom_site_type_symbol
_atom_site_label
_atom_site_fract_x
_atom_site_fract_y
_atom_site_fract_z
Si Si1 0.583674 0.261182 0.861164
Si Si2 0.683011 0.569816 0.180532
Si Si3 0.616063 0.626855 0.556688
Si Si4 0.794987 0.441691 0.542613
Si Si5 0.147635 0.226120 0.802840
Si Si6 0.898110 0.402563 0.750062
Si Si7 0.079606 0.233298 0.519404
Si Si8 0.581423 0.130478 0.490738
O O1 0.618637 0.223962 0.669153
O O2 0.569077 0.946193 0.750889
O O3 0.500000 0.500000 0.000000
O O4 0.649483 0.344955 0.987267
O O5 0.644724 0.573074 0.355839
O O6 0.780511 0.581542 0.154247
O O7 0.643545 0.874000 0.275037
O O8 0.702576 0.573798 0.588223
O O9 0.564847 0.397769 0.526291
O O10 0.816987 0.478859 0.717448
O O11 0.859589 0.593520 0.501550
O O12 0.813368 0.103427 0.349444
O O13 0.095004 0.248088 0.689827
O O14 0.098103 0.354212 0.021687
O O15 0.981109 0.348498 0.593347
O O16 0.898723 0.101060 0.681499
O O17 0.500000 0.000000 0.500000
#
# Coordination Sequence:
#
# PCOD9032871 Si02
#       8
#     2   2   2   2   2   2   2   2
#     4  11  26  45  68 100 128 168 221 269 322 406
#     4  11  24  43  64  95 131 169 218 273 326 388
#     4  11  26  43  70  96 134 176 213 274 334 385
#     4  11  23  41  64  98 132 172 222 269 326 388
#     4  11  23  39  66  94 132 171 224 271 321 385
#     4  10  24  39  68  94 134 176 219 272 324 385
#     4  10  22  44  61  95 136 176 218 270 329 382
#     4  11  24  48  67  94 135 167 211 273 331 390
#
# _framework density 22.173804000000001
#
# number of rings (size 3 to 8) (size 9 to 14) (size 15 to 20)
#    0.000    1.250    3.750    0.750    3.500    6.000 
#    0.000    0.000    0.000    0.000    0.000    0.000 
#    0.000    0.000    0.000    0.000    0.000    0.000 
#
# Total GULP energy -89450.847123 kJ/mol
# GULP energy per Si atom -5590.677945 kJ/mol
# Density = 2.212334 g / cm^3
# Si number density = 22.173804 Si / 1000 Ang^3
#
#
#
# Elastic Constant Matrix: (Units=GPa)
#
#
# Indices 1 2 3 4 5 6 
#
# 1 85.3719 25.8064 -3.8422 6.5951 9.9752 -0.8655
# 2 25.8064 121.8286 23.2888 20.3072 1.8754 10.6673
# 3 -3.8422 23.2888 80.9417 19.4234 12.2771 -5.1400
# 4 6.5951 20.3072 19.4234 17.6759 1.1982 2.8744
# 5 9.9752 1.8754 12.2771 1.1982 27.8095 0.2046
# 6 -0.8655 10.6673 -5.1400 2.8744 0.2046 46.5379
#
#
#
# Elastic Compliance Matrix: (Units=1/GPa)
#
#
# Indices 1 2 3 4 5 6 
#
# 1 0.013975 -0.002726 0.004059 -0.006397 -0.006358 0.001756
# 2 -0.002726 0.010817 -0.001194 -0.009845 0.001215 -0.002059
# 3 0.004059 -0.001194 0.019792 -0.021907 -0.009198 0.003929
# 4 -0.006397 -0.009845 -0.021907 0.094766 0.008592 -0.006173
# 5 -0.006358 0.001215 -0.009198 0.008592 0.041864 -0.002127
# 6 0.001756 -0.002059 0.003929 -0.006173 -0.002127 0.022817
#
#
# Mechanical properties :
#
#
# Convention : Reuss Voigt Hill
#
# Bulk Modulus (GPa) = 22.29069 42.07204 32.18136
# Shear Modulus (GPa) = 22.86164 34.59726 28.72945
#
# Velocity S-wave (km/s) = 3.21443 3.95432 3.60342
# Velocity P-wave (km/s) = 4.88378 6.31378 5.64425
#
# Compressibility (1/GPa) = 0.04486178
#
# Stress axis : x y z
#
# Youngs Moduli (GPa) = 71.55669 92.45111 50.52444
#
# Poissons Ratio (x) = 0.25199 -0.20506
# Poissons Ratio (y) = 0.19504 0.06033
# Poissons Ratio (z) = -0.29042 0.11039
#
# Static dielectric constant tensor:
#      x y z
#    x 1.867350 -0.012210 -0.001330 
#    y -0.012210 1.819980 0.001550 
#    z -0.001330 0.001550 1.802700 
# 
# From -- ./inp_files/141317.got.cif
#   From: 2010.05.17/outbox.cif.g08.bks.cpg/sg2_71_cif.got.tgz:141317.got - 2010.06.03 11:33:40.
