data_PCOD9032297
_publ_section_title
;
Structure prediction by ZEFSAII (Michael W. Deem and Ramdas Pophale) SiO2 
 PCOD9032297
Probable space group: P -1
;
_chemical_formula_sum "Si O2"
_cell_formula_units_Z 16
_cell_length_a 7.756667
_cell_length_b 20.019499
_cell_length_c 10.445648
_cell_angle_alpha 145.674528
_cell_angle_beta 94.692818
_cell_angle_gamma 110.854022
_cell_volume 599.169399
_symmetry_space_group_name_H-M "P -1"
_symmetry_group_IT_number 2
_symmetry_cell_setting 'triclinic'
loop_
_space_group_symop_operation_xyz
x,y,z
-x,-y,-z
loop_
_atom_site_type_symbol
_atom_site_label
_atom_site_fract_x
_atom_site_fract_y
_atom_site_fract_z
Si Si1 0.894704 0.316346 0.235955
Si Si2 0.669080 0.202972 0.306505
Si Si3 0.574795 0.843763 0.190752
Si Si4 0.130241 0.137187 0.418893
Si Si5 0.532451 0.380843 0.595604
Si Si6 0.408592 0.566582 0.899343
Si Si7 0.047117 0.156363 0.900124
Si Si8 0.013689 0.327031 0.730373
O O1 0.878133 0.281965 0.332361
O O2 0.000000 0.500000 0.500000
O O3 0.595756 0.158168 0.911350
O O4 0.070394 0.306608 0.165223
O O5 0.547241 0.262424 0.341361
O O6 0.784063 0.286566 0.589868
O O7 0.500000 0.000000 0.000000
O O8 0.713068 0.802009 0.065266
O O9 0.808577 0.022900 0.570430
O O10 0.361766 0.667145 0.988327
O O11 0.314895 0.242489 0.473771
O O12 0.931935 0.146170 0.428694
O O13 0.036691 0.956458 0.153283
O O14 0.305896 0.259997 0.746988
O O15 0.442602 0.459969 0.658128
O O16 0.828153 0.557788 0.950551
O O17 0.234883 0.453421 0.833967
#
# Coordination Sequence:
#
# PCOD9032297 Si02
#       8
#     2   2   2   2   2   2   2   2
#     4  12  28  46  61  96 141 173 209 261 330 393
#     4  12  26  40  55  93 131 165 206 252 322 381
#     4  10  22  43  71  94 120 171 224 266 315 378
#     4   8  16  35  63  93 116 149 205 269 313 353
#     4   9  18  37  64  88 118 162 210 257 303 377
#     4   8  16  35  63  92 114 147 213 264 306 362
#     4  10  22  43  70  95 123 167 222 271 314 377
#     4   9  18  37  64  88 119 161 209 259 307 370
#
# _framework density 26.703633
#
# number of rings (size 3 to 8) (size 9 to 14) (size 15 to 20)
#    0.000    2.250    0.000    3.750    3.500    0.500 
#    4.500    5.625    0.000    0.000    0.000    0.000 
#    0.000    0.000    0.000    0.000    0.000    0.000 
#
# Total GULP energy -89362.708321 kJ/mol
# GULP energy per Si atom -5585.169270 kJ/mol
# Density = 2.664285 g / cm^3
# Si number density = 26.703633 Si / 1000 Ang^3
#
#
#
# Elastic Constant Matrix: (Units=GPa)
#
#
# Indices 1 2 3 4 5 6 
#
# 1 73.3780 -6.1839 24.8219 -13.2459 -22.4460 -12.1324
# 2 -6.1839 55.6724 15.1759 -5.0514 8.7346 -5.1699
# 3 24.8219 15.1759 91.6485 11.8435 -22.0822 -12.0362
# 4 -13.2459 -5.0514 11.8435 35.9441 -14.9216 10.3539
# 5 -22.4460 8.7346 -22.0822 -14.9216 53.1402 -6.2149
# 6 -12.1324 -5.1699 -12.0362 10.3539 -6.2149 42.2159
#
#
#
# Elastic Compliance Matrix: (Units=1/GPa)
#
#
# Indices 1 2 3 4 5 6 
#
# 1 0.022185 0.003822 -0.005380 0.013984 0.010840 0.003476
# 2 0.003822 0.020875 -0.005750 0.004978 -0.002763 0.000388
# 3 -0.005380 -0.005750 0.015823 -0.007874 0.003589 0.004720
# 4 0.013984 0.004978 -0.007874 0.043631 0.013325 -0.006356
# 5 0.010840 -0.002763 0.003589 0.013325 0.029657 0.004898
# 6 0.003476 0.000388 0.004720 -0.006356 0.004898 0.028360
#
#
# Mechanical properties :
#
#
# Convention : Reuss Voigt Hill
#
# Bulk Modulus (GPa) = 22.59047 32.03631 27.31339
# Shear Modulus (GPa) = 26.32924 38.71904 32.52414
#
# Velocity S-wave (km/s) = 3.14344 3.81196 3.49372
# Velocity P-wave (km/s) = 4.65328 5.60337 5.15028
#
# Compressibility (1/GPa) = 0.04426645
#
# Stress axis : x y z
#
# Youngs Moduli (GPa) = 45.07511 47.90354 63.20042
#
# Poissons Ratio (x) = -0.18307 0.34003
# Poissons Ratio (y) = -0.17226 0.36340
# Poissons Ratio (z) = 0.24251 0.27544
#
# Static dielectric constant tensor:
#      x y z
#    x 2.159600 -0.049210 0.102440 
#    y -0.049210 2.142850 -0.029950 
#    z 0.102440 -0.029950 2.174730 
# 
# From -- ./inp_files/405110.got.cif
#   From: 2010.05.17/outbox.cif.g08.bks.cpg/sg2_203_cif.got.tgz:405110.got - 2010.06.03 11:33:40.
