data_PCOD9032973
_publ_section_title
;
Structure prediction by ZEFSAII (Michael W. Deem and Ramdas Pophale) SiO2 
 PCOD9032973
Probable space group: P -1
;
_chemical_formula_sum "Si O2"
_cell_formula_units_Z 14
_cell_length_a 14.645181
_cell_length_b 10.359613
_cell_length_c 9.403986
_cell_angle_alpha 72.419699
_cell_angle_beta 128.493826
_cell_angle_gamma 146.825732
_cell_volume 525.157747
_symmetry_space_group_name_H-M "P -1"
_symmetry_group_IT_number 2
_symmetry_cell_setting 'triclinic'
loop_
_space_group_symop_operation_xyz
x,y,z
-x,-y,-z
loop_
_atom_site_type_symbol
_atom_site_label
_atom_site_fract_x
_atom_site_fract_y
_atom_site_fract_z
Si Si1 0.771975 0.402027 0.720916
Si Si2 0.410470 0.395868 0.284917
Si Si3 0.448591 0.830628 0.698941
Si Si4 0.957871 0.744829 0.061624
Si Si5 0.794441 0.075049 0.178348
Si Si6 0.004067 0.306498 0.580111
Si Si7 0.743671 0.723421 0.244738
O O1 0.610078 0.294961 0.469795
O O2 0.013652 0.624617 0.793951
O O3 0.616477 0.124237 0.724687
O O4 0.875013 0.588134 0.890742
O O5 0.500000 0.500000 0.500000
O O6 0.642353 0.613635 0.342302
O O7 0.264287 0.378751 0.091529
O O8 0.202602 0.074472 0.173664
O O9 0.197866 0.605607 0.605716
O O10 0.576032 0.874100 0.930028
O O11 0.008635 0.701815 0.260961
O O12 0.778555 0.081900 0.330480
O O13 0.875136 0.000315 0.260559
O O14 0.114839 0.266257 0.670261
O O15 0.500000 0.500000 0.000000
#
# Coordination Sequence:
#
# PCOD9032973 Si02
#       7
#     2   2   2   2   2   2   2
#     4  10  24  40  66  93 126 169 214 271 311 372
#     4  11  25  39  61  94 135 167 207 259 318 383
#     4  10  22  44  64  92 124 170 222 259 315 377
#     4  11  24  41  60  97 131 164 209 265 322 371
#     4  11  22  39  66  89 126 166 215 262 312 387
#     4  11  24  40  63  94 129 166 212 259 320 383
#     4  12  21  39  63  91 126 171 207 256 318 383
#
# _framework density 26.658656000000001
#
# number of rings (size 3 to 8) (size 9 to 14) (size 15 to 20)
#    0.000    1.143    2.857    2.571    6.000    0.571 
#    0.000    0.714    0.000    0.000    0.000    0.000 
#    0.000    0.000    0.000    0.000    0.000    0.000 
#
# Total GULP energy -78274.464645 kJ/mol
# GULP energy per Si atom -5591.033189 kJ/mol
# Density = 2.659798 g / cm^3
# Si number density = 26.658656 Si / 1000 Ang^3
#
#
#
# Elastic Constant Matrix: (Units=GPa)
#
#
# Indices 1 2 3 4 5 6 
#
# 1 60.1979 15.3170 51.9602 -5.4355 -21.6856 0.9681
# 2 15.3170 149.0913 59.2880 -0.2889 -22.1708 -3.4105
# 3 51.9602 59.2880 275.6622 3.4099 -45.9823 0.0494
# 4 -5.4355 -0.2889 3.4099 47.3064 6.4838 -9.6316
# 5 -21.6856 -22.1708 -45.9823 6.4838 55.9832 2.1530
# 6 0.9681 -3.4105 0.0494 -9.6316 2.1530 27.3695
#
#
#
# Elastic Compliance Matrix: (Units=1/GPa)
#
#
# Indices 1 2 3 4 5 6 
#
# 1 0.021508 -0.000157 -0.003123 0.001824 0.005514 -0.000567
# 2 -0.000157 0.007525 -0.001284 0.000036 0.001829 0.000814
# 3 -0.003123 -0.001284 0.004923 -0.001201 0.002490 -0.000677
# 4 0.001824 0.000036 -0.001201 0.023626 -0.003329 0.008518
# 5 0.005514 0.001829 0.002490 -0.003329 0.023268 -0.002974
# 6 -0.000567 0.000814 -0.000677 0.008518 -0.002974 0.039891
#
#
# Mechanical properties :
#
#
# Convention : Reuss Voigt Hill
#
# Bulk Modulus (GPa) = 40.27908 82.00909 61.14408
# Shear Modulus (GPa) = 36.19392 50.02423 43.10908
#
# Velocity S-wave (km/s) = 3.68867 4.33653 4.02565
# Velocity P-wave (km/s) = 5.76920 7.47686 6.67784
#
# Compressibility (1/GPa) = 0.02482678
#
# Stress axis : x y z
#
# Youngs Moduli (GPa) = 46.49488 132.89359 203.13475
#
# Poissons Ratio (x) = 0.02089 0.63436
# Poissons Ratio (y) = 0.00731 0.26089
# Poissons Ratio (z) = 0.14520 0.17068
#
# Static dielectric constant tensor:
#      x y z
#    x 2.189750 -0.055610 0.009750 
#    y -0.055610 2.092650 -0.047320 
#    z 0.009750 -0.047320 2.137950 
# 
# From -- ./inp_files/307374.got.cif
#   From: 2010.05.17/outbox.cif.g08.bks.cpg/sg2_154_cif.got.tgz:307374.got - 2010.06.03 11:33:40.
