data_PCOD9032705
_publ_section_title
;
Structure prediction by ZEFSAII (Michael W. Deem and Ramdas Pophale) SiO2 
 PCOD9032705
Probable space group: P -1
;
_chemical_formula_sum "Si O2"
_cell_formula_units_Z 12
_cell_length_a 5.405547
_cell_length_b 8.592604
_cell_length_c 14.796322
_cell_angle_alpha 115.516770
_cell_angle_beta 82.533231
_cell_angle_gamma 57.702545
_cell_volume 462.166654
_symmetry_space_group_name_H-M "P -1"
_symmetry_group_IT_number 2
_symmetry_cell_setting 'triclinic'
loop_
_space_group_symop_operation_xyz
x,y,z
-x,-y,-z
loop_
_atom_site_type_symbol
_atom_site_label
_atom_site_fract_x
_atom_site_fract_y
_atom_site_fract_z
Si Si1 0.992615 0.223048 0.597953
Si Si2 0.343517 0.390623 0.005739
Si Si3 0.084902 0.462805 0.781054
Si Si4 0.662115 0.381433 0.363454
Si Si5 0.785765 0.007342 0.655898
Si Si6 0.001177 0.092895 0.120804
O O1 0.608477 0.390616 0.625786
O O2 0.016424 0.072201 0.640052
O O3 0.067399 0.381277 0.664652
O O4 0.213696 0.077587 0.464907
O O5 0.234140 0.459764 0.131836
O O6 0.500000 0.500000 0.000000
O O7 0.000000 0.500000 0.000000
O O8 0.631309 0.119666 0.914862
O O9 0.423408 0.241069 0.754563
O O10 0.046665 0.683299 0.838304
O O11 0.500000 0.500000 0.500000
O O12 0.731385 0.188444 0.238987
O O13 0.043187 0.204050 0.337224
O O14 0.000000 0.000000 0.000000
#
# Coordination Sequence:
#
# PCOD9032705 Si02
#       6
#     2   2   2   2   2   2
#     4  10  22  43  73 108 152 195 253 318 391 463
#     4  12  29  49  74 110 152 203 270 329 392 476
#     4  12  25  46  74 105 149 206 259 321 399 468
#     4  10  22  44  74 105 148 200 253 316 388 463
#     4  10  22  45  72 109 150 200 249 320 388 468
#     4  12  26  49  76 109 160 208 261 328 403 473
#
# _framework density 25.964661
#
# number of rings (size 3 to 8) (size 9 to 14) (size 15 to 20)
#    0.000    1.000    1.667    4.000    4.667    1.333 
#    3.000    1.667    0.000    0.000    0.000    0.000 
#    0.000    0.000    0.000    0.000    0.000    0.000 
#
# Total GULP energy -66877.879722 kJ/mol
# GULP energy per Si atom -5573.156643 kJ/mol
# Density = 2.590556 g / cm^3
# Si number density = 25.964661 Si / 1000 Ang^3
#
#
#
# Elastic Constant Matrix: (Units=GPa)
#
#
# Indices 1 2 3 4 5 6 
#
# 1 104.3011 50.0533 53.3639 15.9863 9.3756 -1.3195
# 2 50.0533 136.2790 54.8855 28.7537 -5.5343 -28.0547
# 3 53.3639 54.8855 235.5645 36.5952 5.7568 -3.9736
# 4 15.9863 28.7537 36.5952 52.7482 -10.5302 -7.0093
# 5 9.3756 -5.5343 5.7568 -10.5302 53.3375 9.9560
# 6 -1.3195 -28.0547 -3.9736 -7.0093 9.9560 31.7326
#
#
#
# Elastic Compliance Matrix: (Units=1/GPa)
#
#
# Indices 1 2 3 4 5 6 
#
# 1 0.013003 -0.004631 -0.001696 -0.001118 -0.002183 -0.003328
# 2 -0.004631 0.012173 -0.001117 -0.003207 -0.000266 0.009804
# 3 -0.001696 -0.001117 0.005338 -0.002844 -0.000813 -0.000763
# 4 -0.001118 -0.003207 -0.002844 0.024055 0.004814 0.000564
# 5 -0.002183 -0.000266 -0.000813 0.004814 0.021270 -0.006037
# 6 -0.003328 0.009804 -0.000763 0.000564 -0.006037 0.041967
#
#
# Mechanical properties :
#
#
# Convention : Reuss Voigt Hill
#
# Bulk Modulus (GPa) = 63.99092 88.08331 76.03711
# Shear Modulus (GPa) = 36.25778 48.75313 42.50545
#
# Velocity S-wave (km/s) = 3.74093 4.33791 4.05044
# Velocity P-wave (km/s) = 6.58471 7.68687 7.15703
#
# Compressibility (1/GPa) = 0.01562722
#
# Stress axis : x y z
#
# Youngs Moduli (GPa) = 76.90589 82.15002 187.31988
#
# Poissons Ratio (x) = 0.38040 0.31766
# Poissons Ratio (y) = 0.35612 0.20925
# Poissons Ratio (z) = 0.13042 0.09177
#
# Static dielectric constant tensor:
#      x y z
#    x 2.214620 0.099660 -0.050310 
#    y 0.099660 2.124340 -0.157300 
#    z -0.050310 -0.157300 2.107160 
# 
# From -- ./inp_files/480838.got.cif
#   From: 2010.05.17/outbox.cif.g08.bks.cpg/sg2_241_cif.got.tgz:480838.got - 2010.06.03 11:33:40.
