data_PCOD9032552
_publ_section_title
;
Structure prediction by ZEFSAII (Michael W. Deem and Ramdas Pophale) SiO2 
 PCOD9032552
Probable space group: P -1
;
_chemical_formula_sum "Si O2"
_cell_formula_units_Z 12
_cell_length_a 13.179480
_cell_length_b 11.395711
_cell_length_c 8.025836
_cell_angle_alpha 111.667886
_cell_angle_beta 129.152167
_cell_angle_gamma 35.196181
_cell_volume 508.911750
_symmetry_space_group_name_H-M "P -1"
_symmetry_group_IT_number 2
_symmetry_cell_setting 'triclinic'
loop_
_space_group_symop_operation_xyz
x,y,z
-x,-y,-z
loop_
_atom_site_type_symbol
_atom_site_label
_atom_site_fract_x
_atom_site_fract_y
_atom_site_fract_z
Si Si1 0.005510 0.685139 0.987409
Si Si2 0.734996 0.077918 0.655637
Si Si3 0.007272 0.065337 0.716302
Si Si4 0.781948 0.613446 0.246137
Si Si5 0.513133 0.348194 0.877541
Si Si6 0.453829 0.068168 0.289595
O O1 0.169973 0.471523 0.934839
O O2 0.891206 0.865960 0.822096
O O3 0.809799 0.751834 0.897557
O O4 0.093303 0.717266 0.232184
O O5 0.572531 0.284458 0.714462
O O6 0.572375 0.109898 0.405584
O O7 0.891097 0.054134 0.710627
O O8 0.270141 0.878624 0.925453
O O9 0.000000 0.000000 0.500000
O O10 0.705882 0.553221 0.244031
O O11 0.585918 0.867399 0.204652
O O12 0.000000 0.500000 0.500000
O O13 0.500000 0.500000 0.000000
O O14 0.500000 0.000000 0.500000
#
# Coordination Sequence:
#
# PCOD9032552 Si02
#       6
#     2   2   2   2   2   2
#     4  10  19  36  58  86 118 147 196 239 289 342
#     4  10  18  35  56  83 114 149 192 241 286 341
#     4  11  23  40  57  80 124 163 190 236 294 343
#     4  12  18  30  60  92 115 142 182 252 298 328
#     4  11  21  35  59  91 113 145 203 244 280 344
#     4  10  17  32  54  88 118 140 192 242 295 338
#
# _framework density 23.579726000000001
#
# number of rings (size 3 to 8) (size 9 to 14) (size 15 to 20)
#    0.000    1.333    8.333    4.000    0.000    0.000 
#    0.000    4.167    0.000    1.000    0.000    0.000 
#    0.000    0.000    0.000    0.000    0.000    0.000 
#
# Total GULP energy -67063.380046 kJ/mol
# GULP energy per Si atom -5588.615004 kJ/mol
# Density = 2.352606 g / cm^3
# Si number density = 23.579726 Si / 1000 Ang^3
#
#
#
# Elastic Constant Matrix: (Units=GPa)
#
#
# Indices 1 2 3 4 5 6 
#
# 1 95.3850 29.6936 49.5557 -3.5635 32.9738 -26.4134
# 2 29.6936 146.2065 55.0714 49.5426 -3.0922 -29.4744
# 3 49.5557 55.0714 127.7708 31.8239 25.5707 -9.6779
# 4 -3.5635 49.5426 31.8239 55.3526 -1.1547 3.0865
# 5 32.9738 -3.0922 25.5707 -1.1547 42.8870 -3.8595
# 6 -26.4134 -29.4744 -9.6779 3.0865 -3.8595 30.8150
#
#
#
# Elastic Compliance Matrix: (Units=1/GPa)
#
#
# Indices 1 2 3 4 5 6 
#
# 1 0.022196 -0.001630 -0.005660 0.005123 -0.012445 0.013617
# 2 -0.001630 0.015873 -0.002726 -0.013471 0.005002 0.014905
# 3 -0.005660 -0.002726 0.013099 -0.005356 -0.004098 -0.003322
# 4 0.005123 -0.013471 -0.005356 0.034263 -0.002042 -0.013863
# 5 -0.012445 0.005002 -0.004098 -0.002042 0.035407 -0.002531
# 6 0.013617 0.014905 -0.003322 -0.013863 -0.002531 0.058408
#
#
# Mechanical properties :
#
#
# Convention : Reuss Voigt Hill
#
# Bulk Modulus (GPa) = 32.11742 70.88931 51.50337
# Shear Modulus (GPa) = 23.84854 41.48035 32.66445
#
# Velocity S-wave (km/s) = 3.18370 4.19878 3.72597
# Velocity P-wave (km/s) = 5.21200 7.32361 6.35611
#
# Compressibility (1/GPa) = 0.03113575
#
# Stress axis : x y z
#
# Youngs Moduli (GPa) = 45.05283 63.00154 76.33976
#
# Poissons Ratio (x) = 0.10269 0.43210
# Poissons Ratio (y) = 0.07343 0.20810
# Poissons Ratio (z) = 0.25501 0.17174
#
# Static dielectric constant tensor:
#      x y z
#    x 1.888280 0.070590 -0.044270 
#    y 0.070590 1.987190 -0.006980 
#    z -0.044270 -0.006980 1.931010 
# 
# From -- ./inp_files/191057.got.cif
#   From: 2010.05.17/outbox.cif.g08.bks.cpg/sg2_96_cif.got.tgz:191057.got - 2010.06.03 11:33:40.
