data_PCOD9032085
_publ_section_title
;
Structure prediction by ZEFSAII (Michael W. Deem and Ramdas Pophale) SiO2 
 PCOD9032085
Probable space group: P -1
;
_chemical_formula_sum "Si O2"
_cell_formula_units_Z 16
_cell_length_a 6.340796
_cell_length_b 24.063210
_cell_length_c 29.558653
_cell_angle_alpha 170.813340
_cell_angle_beta 100.621588
_cell_angle_gamma 78.832074
_cell_volume 705.720151
_symmetry_space_group_name_H-M "P -1"
_symmetry_group_IT_number 2
_symmetry_cell_setting 'triclinic'
loop_
_space_group_symop_operation_xyz
x,y,z
-x,-y,-z
loop_
_atom_site_type_symbol
_atom_site_label
_atom_site_fract_x
_atom_site_fract_y
_atom_site_fract_z
Si Si1 0.538198 0.915666 0.150830
Si Si2 0.374490 0.228644 0.747354
Si Si3 0.375784 0.161555 0.210368
Si Si4 0.131468 0.700401 0.366204
Si Si5 0.893381 0.809180 0.692888
Si Si6 0.218399 0.317025 0.143300
Si Si7 0.820440 0.567995 0.667173
Si Si8 0.310222 0.419481 0.798041
O O1 0.327262 0.001378 0.181542
O O2 0.679567 0.247252 0.419660
O O3 0.684411 0.590442 0.875923
O O4 0.437930 0.765288 0.071806
O O5 0.273159 0.386923 0.824005
O O6 0.197482 0.059222 0.635400
O O7 0.541738 0.914763 0.483485
O O8 0.500000 0.500000 0.000000
O O9 0.500000 0.500000 0.500000
O O10 0.169640 0.237716 0.295222
O O11 0.320671 0.187218 0.176038
O O12 0.531080 0.817821 0.951081
O O13 0.152658 0.672817 0.399453
O O14 0.908706 0.591363 0.248308
O O15 0.967899 0.530028 0.433252
O O16 0.097363 0.037532 0.885160
O O17 0.124373 0.290501 0.168362
#
# Coordination Sequence:
#
# PCOD9032085 Si02
#       8
#     2   2   2   2   2   2   2   2
#     4  11  21  43  69  91 134 174 221 264 335 384
#     4  10  24  42  67 103 129 168 214 265 327 391
#     4  12  23  45  69  89 137 178 222 279 332 388
#     4  11  21  45  67  94 137 173 216 269 328 393
#     4  12  22  45  66  93 132 177 222 272 338 382
#     4  12  26  42  66 101 131 176 224 277 329 389
#     4  12  26  41  65 101 129 178 227 278 328 390
#     4  10  22  43  69  95 133 172 211 268 324 394
#
# _framework density 22.671876999999999
#
# number of rings (size 3 to 8) (size 9 to 14) (size 15 to 20)
#    0.000    0.750    6.250    1.125    1.750    2.000 
#    4.500    0.000    0.000    0.000    0.000    0.000 
#    0.000    0.000    0.000    0.000    0.000    0.000 
#
# Total GULP energy -89290.565329 kJ/mol
# GULP energy per Si atom -5580.660333 kJ/mol
# Density = 2.262027 g / cm^3
# Si number density = 22.671877 Si / 1000 Ang^3
#
#
#
# Elastic Constant Matrix: (Units=GPa)
#
#
# Indices 1 2 3 4 5 6 
#
# 1 95.6274 43.6209 22.1788 9.7364 1.5655 6.6234
# 2 43.6209 178.9973 31.0755 15.7828 -3.1318 13.0803
# 3 22.1788 31.0755 45.6617 5.2398 18.6651 2.5388
# 4 9.7364 15.7828 5.2398 31.6329 5.3050 1.1443
# 5 1.5655 -3.1318 18.6651 5.3050 38.0459 4.5566
# 6 6.6234 13.0803 2.5388 1.1443 4.5566 40.9144
#
#
#
# Elastic Compliance Matrix: (Units=1/GPa)
#
#
# Indices 1 2 3 4 5 6 
#
# 1 0.012921 -0.001769 -0.005803 -0.002534 0.002690 -0.001395
# 2 -0.001769 0.007427 -0.005373 -0.002861 0.003973 -0.002117
# 3 -0.005803 -0.005373 0.035466 0.001542 -0.018109 0.002430
# 4 -0.002534 -0.002861 0.001542 0.034506 -0.005808 0.000911
# 5 0.002690 0.003973 -0.018109 -0.005808 0.036735 -0.004511
# 6 -0.001395 -0.002117 0.002430 0.000911 -0.004511 0.025670
#
#
# Mechanical properties :
#
#
# Convention : Reuss Voigt Hill
#
# Bulk Modulus (GPa) = 33.41918 57.11519 45.26719
# Shear Modulus (GPa) = 26.51259 37.01273 31.76266
#
# Velocity S-wave (km/s) = 3.42337 4.04485 3.74702
# Velocity P-wave (km/s) = 5.51346 6.86012 6.22332
#
# Compressibility (1/GPa) = 0.02992293
#
# Stress axis : x y z
#
# Youngs Moduli (GPa) = 77.39566 134.64318 28.19573
#
# Poissons Ratio (x) = 0.23815 0.16363
# Poissons Ratio (y) = 0.13690 0.15151
# Poissons Ratio (z) = 0.44916 0.72348
#
# Static dielectric constant tensor:
#      x y z
#    x 1.842990 0.046210 0.010570 
#    y 0.046210 1.909940 0.060800 
#    z 0.010570 0.060800 1.881540 
# 
# From -- ./inp_files/48082.got.cif
#   From: 2010.05.17/outbox.cif.g08.bks.cpg/sg2_25_cif.got.tgz:48082.got - 2010.06.03 11:33:40.
