data_PCOD9032082
_publ_section_title
;
Structure prediction by ZEFSAII (Michael W. Deem and Ramdas Pophale) SiO2 
 PCOD9032082
Probable space group: P -1
;
_chemical_formula_sum "Si O2"
_cell_formula_units_Z 16
_cell_length_a 15.991684
_cell_length_b 8.574615
_cell_length_c 13.188814
_cell_angle_alpha 131.845916
_cell_angle_beta 35.282885
_cell_angle_gamma 118.663755
_cell_volume 769.262960
_symmetry_space_group_name_H-M "P -1"
_symmetry_group_IT_number 2
_symmetry_cell_setting 'triclinic'
loop_
_space_group_symop_operation_xyz
x,y,z
-x,-y,-z
loop_
_atom_site_type_symbol
_atom_site_label
_atom_site_fract_x
_atom_site_fract_y
_atom_site_fract_z
Si Si1 0.655203 0.013142 0.800646
Si Si2 0.320652 0.130091 0.510514
Si Si3 0.356283 0.075500 0.844642
Si Si4 0.897852 0.208602 0.425784
Si Si5 0.349091 0.539110 0.105549
Si Si6 0.907323 0.831531 0.975334
Si Si7 0.873090 0.502943 0.042015
Si Si8 0.840544 0.021760 0.813804
O O1 0.654882 0.252717 0.867121
O O2 0.781593 0.966955 0.739070
O O3 0.671665 0.875217 0.621912
O O4 0.500000 0.000000 0.000000
O O5 0.267991 0.362319 0.706432
O O6 0.477366 0.034231 0.360416
O O7 0.201623 0.972428 0.584455
O O8 0.346040 0.327903 0.955398
O O9 0.249741 0.033867 0.841162
O O10 0.277742 0.027199 0.006370
O O11 0.786235 0.409062 0.660752
O O12 0.005759 0.253174 0.249030
O O13 0.003752 0.112188 0.369903
O O14 0.500000 0.500000 0.000000
O O15 0.901541 0.644481 0.978786
O O16 0.000000 0.000000 0.000000
O O17 0.855149 0.268512 0.922705
O O18 0.000000 0.500000 0.000000
#
# Coordination Sequence:
#
# PCOD9032082 Si02
#       8
#     2   2   2   2   2   2   2   2
#     4  11  22  43  66 102 136 174 215 278 333 395
#     4  11  22  43  71  94 139 172 223 271 337 384
#     4  11  23  44  68  97 133 175 216 281 320 398
#     4  10  22  43  69  95 130 175 219 274 330 390
#     4  11  21  40  67  95 134 168 218 270 330 386
#     4  11  23  44  68  93 130 174 226 267 327 393
#     4  12  24  46  67  99 134 178 217 279 329 398
#     4  11  23  43  69  97 140 172 223 273 332 392
#
# _framework density 20.799130000000002
#
# number of rings (size 3 to 8) (size 9 to 14) (size 15 to 20)
#    0.000    1.000    6.250    1.500    0.000    5.000 
#    6.750    0.000    0.000    0.000    0.000    0.000 
#    0.000    0.000    0.000    0.000    0.000    0.000 
#
# Total GULP energy -89449.878938 kJ/mol
# GULP energy per Si atom -5590.617434 kJ/mol
# Density = 2.075179 g / cm^3
# Si number density = 20.799130 Si / 1000 Ang^3
#
#
#
# Elastic Constant Matrix: (Units=GPa)
#
#
# Indices 1 2 3 4 5 6 
#
# 1 169.8476 26.8082 52.5479 -3.1238 -27.0422 -8.9612
# 2 26.8082 52.9021 19.9077 -13.3213 4.8337 -15.2610
# 3 52.5479 19.9077 119.8582 3.5547 -19.0324 -8.1913
# 4 -3.1238 -13.3213 3.5547 33.6040 -0.2754 5.4355
# 5 -27.0422 4.8337 -19.0324 -0.2754 40.2851 -1.3530
# 6 -8.9612 -15.2610 -8.1913 5.4355 -1.3530 35.9321
#
#
#
# Elastic Compliance Matrix: (Units=1/GPa)
#
#
# Indices 1 2 3 4 5 6 
#
# 1 0.007868 -0.003736 -0.002045 -0.000521 0.004766 0.000168
# 2 -0.003736 0.027718 -0.003851 0.009658 -0.007311 0.008227
# 3 -0.002045 -0.003851 0.010687 -0.002958 0.004148 0.000894
# 4 -0.000521 0.009658 -0.002958 0.034148 -0.002739 -0.001971
# 5 0.004766 -0.007311 0.004148 -0.002739 0.030861 0.000605
# 6 0.000168 0.008227 0.000894 -0.001971 0.000605 0.031891
#
#
# Mechanical properties :
#
#
# Convention : Reuss Voigt Hill
#
# Bulk Modulus (GPa) = 37.02484 60.12616 48.57550
# Shear Modulus (GPa) = 29.16476 38.18718 33.67597
#
# Velocity S-wave (km/s) = 3.74867 4.28950 4.02818
# Velocity P-wave (km/s) = 6.04785 7.31464 6.71120
#
# Compressibility (1/GPa) = 0.02700890
#
# Stress axis : x y z
#
# Youngs Moduli (GPa) = 127.09568 36.07741 93.57132
#
# Poissons Ratio (x) = 0.13478 0.19139
# Poissons Ratio (y) = 0.47480 0.36035
# Poissons Ratio (z) = 0.25996 0.13894
#
# Static dielectric constant tensor:
#      x y z
#    x 1.845620 0.054570 0.024670 
#    y 0.054570 1.755810 -0.016070 
#    z 0.024670 -0.016070 1.757860 
# 
# From -- ./inp_files/343600.got.cif
#   From: 2010.05.17/outbox.cif.g08.bks.cpg/sg2_172_cif.got.tgz:343600.got - 2010.06.03 11:33:40.
