data_PCOD9032102
_publ_section_title
;
Structure prediction by ZEFSAII (Michael W. Deem and Ramdas Pophale) SiO2 
 PCOD9032102
Probable space group: P -1
;
_chemical_formula_sum "Si O2"
_cell_formula_units_Z 16
_cell_length_a 9.799638
_cell_length_b 15.642923
_cell_length_c 9.813048
_cell_angle_alpha 143.883137
_cell_angle_beta 66.091253
_cell_angle_gamma 110.098759
_cell_volume 810.227771
_symmetry_space_group_name_H-M "P -1"
_symmetry_group_IT_number 2
_symmetry_cell_setting 'triclinic'
loop_
_space_group_symop_operation_xyz
x,y,z
-x,-y,-z
loop_
_atom_site_type_symbol
_atom_site_label
_atom_site_fract_x
_atom_site_fract_y
_atom_site_fract_z
Si Si1 0.474007 0.881459 0.474727
Si Si2 0.338263 0.350039 0.749301
Si Si3 0.118326 0.632586 0.604374
Si Si4 0.547751 0.385931 0.445163
Si Si5 0.441776 0.927407 0.065989
Si Si6 0.792346 0.346526 0.718195
Si Si7 0.912839 0.109111 0.847327
Si Si8 0.977126 0.791660 0.363755
O O1 0.594483 0.758974 0.305848
O O2 0.325089 0.786861 0.388530
O O3 0.500000 0.000000 0.500000
O O4 0.474147 0.983009 0.737060
O O5 0.454467 0.378942 0.615343
O O6 0.191572 0.269713 0.644562
O O7 0.288990 0.502269 0.028461
O O8 0.278669 0.597412 0.560885
O O9 0.144482 0.656570 0.464292
O O10 0.000000 0.500000 0.500000
O O11 0.070383 0.778809 0.890305
O O12 0.500000 0.500000 0.500000
O O13 0.522722 0.238172 0.181233
O O14 0.262750 0.929620 0.155781
O O15 0.500000 0.000000 0.000000
O O16 0.920087 0.318942 0.741233
O O17 0.974706 0.186458 0.784967
O O18 0.988305 0.953607 0.632153
#
# Coordination Sequence:
#
# PCOD9032102 Si02
#       8
#     2   2   2   2   2   2   2   2
#     4  12  25  42  70 101 136 176 223 287 344 390
#     4  12  25  47  68 101 140 181 233 277 338 422
#     4  11  25  46  66 100 143 176 218 290 347 400
#     4  11  26  42  73  98 132 182 229 275 336 413
#     4  11  20  45  69  94 131 178 226 281 326 404
#     4  12  27  43  69 104 142 175 226 288 345 401
#     4  10  22  43  69  96 136 174 239 269 331 417
#     4  11  24  43  72  97 131 189 224 279 336 407
#
# _framework density 19.747533000000001
#
# number of rings (size 3 to 8) (size 9 to 14) (size 15 to 20)
#    0.000    0.750    3.750    3.000    8.750    0.500 
#    2.250    0.000    0.000    0.000    0.000    0.000 
#    0.000    0.000    0.000    0.000    0.000    0.000 
#
# Total GULP energy -89398.251658 kJ/mol
# GULP energy per Si atom -5587.390729 kJ/mol
# Density = 1.970259 g / cm^3
# Si number density = 19.747533 Si / 1000 Ang^3
#
#
#
# Elastic Constant Matrix: (Units=GPa)
#
#
# Indices 1 2 3 4 5 6 
#
# 1 82.6148 46.7529 21.0466 7.5524 0.0577 10.3831
# 2 46.7529 148.1204 58.9998 16.8447 -9.2932 -4.6200
# 3 21.0466 58.9998 151.3875 8.1785 1.7929 -1.3254
# 4 7.5524 16.8447 8.1785 30.9606 1.3462 0.5752
# 5 0.0577 -9.2932 1.7929 1.3462 29.4952 6.6799
# 6 10.3831 -4.6200 -1.3254 0.5752 6.6799 38.0724
#
#
#
# Elastic Compliance Matrix: (Units=1/GPa)
#
#
# Indices 1 2 3 4 5 6 
#
# 1 0.015630 -0.004900 -0.000247 -0.000974 -0.000434 -0.004775
# 2 -0.004900 0.010223 -0.003122 -0.003715 0.003143 0.001973
# 3 -0.000247 -0.003122 0.007891 -0.000264 -0.001503 0.000231
# 4 -0.000974 -0.003715 -0.000264 0.034749 -0.002682 -0.000249
# 5 -0.000434 0.003143 -0.001503 -0.002682 0.036446 -0.005907
# 6 -0.004775 0.001973 0.000231 -0.000249 -0.005907 0.028856
#
#
# Mechanical properties :
#
#
# Convention : Reuss Voigt Hill
#
# Bulk Modulus (GPa) = 58.12517 70.63572 64.38044
# Shear Modulus (GPa) = 32.03714 36.72721 34.38217
#
# Velocity S-wave (km/s) = 4.03219 4.31726 4.17716
# Velocity P-wave (km/s) = 7.15375 7.79094 7.47913
#
# Compressibility (1/GPa) = 0.01720425
#
# Stress axis : x y z
#
# Youngs Moduli (GPa) = 63.97950 97.81981 126.72975
#
# Poissons Ratio (x) = 0.47936 0.03133
# Poissons Ratio (y) = 0.31353 0.39566
# Poissons Ratio (z) = 0.01582 0.30540
#
# Static dielectric constant tensor:
#      x y z
#    x 1.674120 0.004120 -0.020310 
#    y 0.004120 1.689460 0.023170 
#    z -0.020310 0.023170 1.699460 
# 
# From -- ./inp_files/188580.got.cif
#   From: 2010.05.17/outbox.cif.g08.bks.cpg/sg2_95_cif.got.tgz:188580.got - 2010.06.03 11:33:40.
