data_PCOD9032872
_publ_section_title
;
Structure prediction by ZEFSAII (Michael W. Deem and Ramdas Pophale) SiO2 
 PCOD9032872
Probable space group: P -1
;
_chemical_formula_sum "Si O2"
_cell_formula_units_Z 16
_cell_length_a 14.649495
_cell_length_b 17.146511
_cell_length_c 11.408930
_cell_angle_alpha 32.710754
_cell_angle_beta 49.086482
_cell_angle_gamma 28.637868
_cell_volume 702.543525
_symmetry_space_group_name_H-M "P -1"
_symmetry_group_IT_number 2
_symmetry_cell_setting 'triclinic'
loop_
_space_group_symop_operation_xyz
x,y,z
-x,-y,-z
loop_
_atom_site_type_symbol
_atom_site_label
_atom_site_fract_x
_atom_site_fract_y
_atom_site_fract_z
Si Si1 0.191697 0.422419 0.426575
Si Si2 0.418006 0.358441 0.721361
Si Si3 0.137778 0.860418 0.674832
Si Si4 0.407439 0.131419 0.185008
Si Si5 0.802932 0.939672 0.462172
Si Si6 0.186917 0.643228 0.353266
Si Si7 0.790794 0.149462 0.762407
Si Si8 0.586195 0.660423 0.870609
O O1 0.162942 0.595160 0.309064
O O2 0.255743 0.406432 0.261904
O O3 0.000000 0.500000 0.500000
O O4 0.388308 0.151463 0.653203
O O5 0.389164 0.387243 0.569611
O O6 0.637829 0.171923 0.826555
O O7 0.296723 0.622181 0.518662
O O8 0.334164 0.295904 0.929652
O O9 0.190164 0.966351 0.547936
O O10 0.325053 0.575794 0.861889
O O11 0.000000 0.000000 0.500000
O O12 0.004216 0.919723 0.816816
O O13 0.456321 0.196280 0.165886
O O14 0.241582 0.179525 0.310227
O O15 0.612233 0.170933 0.252980
O O16 0.001148 0.768635 0.432761
O O17 0.199297 0.803042 0.171737
#
# Coordination Sequence:
#
# PCOD9032872 Si02
#       8
#     2   2   2   2   2   2   2   2
#     4  11  23  40  61  91 127 169 214 258 311 385
#     4   9  19  39  64  92 126 164 207 260 327 365
#     4  11  23  42  67  95 127 168 217 263 312 377
#     4  11  23  40  65  92 129 168 209 264 323 370
#     4  10  22  44  61  96 132 164 211 262 318 383
#     4   9  19  40  65  87 129 162 209 260 311 372
#     4   8  19  39  59  93 128 157 206 264 314 371
#     4  11  24  42  65  94 129 171 213 255 321 378
#
# _framework density 22.774388999999999
#
# number of rings (size 3 to 8) (size 9 to 14) (size 15 to 20)
#    0.750    1.250    0.000    4.125    1.750    3.000 
#    9.000    1.250    0.000    0.000    0.000    0.000 
#    0.000    0.000    0.000    0.000    0.000    0.000 
#
# Total GULP energy -89344.239802 kJ/mol
# GULP energy per Si atom -5584.014988 kJ/mol
# Density = 2.272255 g / cm^3
# Si number density = 22.774389 Si / 1000 Ang^3
#
#
#
# Elastic Constant Matrix: (Units=GPa)
#
#
# Indices 1 2 3 4 5 6 
#
# 1 116.4997 12.2079 -4.6053 -5.6697 8.4217 21.0281
# 2 12.2079 57.2117 -9.8298 -3.4486 -3.3302 4.7300
# 3 -4.6053 -9.8298 66.1334 1.8017 1.0916 15.7621
# 4 -5.6697 -3.4486 1.8017 19.4785 11.6830 -2.1930
# 5 8.4217 -3.3302 1.0916 11.6830 15.6694 -2.9758
# 6 21.0281 4.7300 15.7621 -2.1930 -2.9758 32.9745
#
#
#
# Elastic Compliance Matrix: (Units=1/GPa)
#
#
# Indices 1 2 3 4 5 6 
#
# 1 0.012829 -0.001683 0.003035 0.013832 -0.019724 -0.010251
# 2 -0.001683 0.018874 0.003303 -0.000471 0.004498 -0.002839
# 3 0.003035 0.003303 0.018664 0.001980 -0.005934 -0.011735
# 4 0.013832 -0.000471 0.001980 0.108020 -0.090235 -0.010659
# 5 -0.019724 0.004498 -0.005934 -0.090235 0.147257 0.022058
# 6 -0.010251 -0.002839 -0.011735 -0.010659 0.022058 0.044162
#
#
# Mechanical properties :
#
#
# Convention : Reuss Voigt Hill
#
# Bulk Modulus (GPa) = 16.75656 26.15448 21.45552
# Shear Modulus (GPa) = 13.87398 29.76261 21.81829
#
# Velocity S-wave (km/s) = 2.47086 3.61895 3.09855
# Velocity P-wave (km/s) = 3.93876 5.38252 4.71621
#
# Compressibility (1/GPa) = 0.05967811
#
# Stress axis : x y z
#
# Youngs Moduli (GPa) = 77.94652 52.98386 53.57861
#
# Poissons Ratio (x) = 0.08917 -0.16262
# Poissons Ratio (y) = 0.13118 -0.17698
# Poissons Ratio (z) = -0.23658 -0.17502
#
# Static dielectric constant tensor:
#      x y z
#    x 1.871430 -0.027420 0.016270 
#    y -0.027420 1.852040 0.012440 
#    z 0.016270 0.012440 1.871120 
# 
# From -- ./inp_files/456899.got.cif
#   From: 2010.05.17/outbox.cif.g08.bks.cpg/sg2_229_cif.got.tgz:456899.got - 2010.06.03 11:33:40.
