data_PCOD9032217
_publ_section_title
;
Structure prediction by ZEFSAII (Michael W. Deem and Ramdas Pophale) SiO2 
 PCOD9032217
Probable space group: P -1
;
_chemical_formula_sum "Si O2"
_cell_formula_units_Z 13
_cell_length_a 17.312390
_cell_length_b 5.148641
_cell_length_c 12.534381
_cell_angle_alpha 113.621239
_cell_angle_beta 26.724300
_cell_angle_gamma 108.370001
_cell_volume 457.848329
_symmetry_space_group_name_H-M "P -1"
_symmetry_group_IT_number 2
_symmetry_cell_setting 'triclinic'
loop_
_space_group_symop_operation_xyz
x,y,z
-x,-y,-z
loop_
_atom_site_type_symbol
_atom_site_label
_atom_site_fract_x
_atom_site_fract_y
_atom_site_fract_z
Si Si1 0.119484 0.659925 0.017268
Si Si2 0.000000 0.000000 0.000000
Si Si3 0.239670 0.128179 0.072535
Si Si4 0.690379 0.394422 0.795917
Si Si5 0.190248 0.647193 0.584509
Si Si6 0.593156 0.697053 0.307356
Si Si7 0.518243 0.769826 0.780516
O O1 0.061479 0.831199 0.012258
O O2 0.997731 0.403187 0.141461
O O3 0.128893 0.865060 0.144029
O O4 0.312504 0.500290 0.750015
O O5 0.798465 0.075162 0.312383
O O6 0.198547 0.371235 0.250347
O O7 0.254817 0.251113 0.956600
O O8 0.438719 0.024858 0.846399
O O9 0.792986 0.273305 0.546282
O O10 0.500000 0.500000 0.000000
O O11 0.628207 0.214735 0.942625
O O12 0.298424 0.335782 0.410236
O O13 0.489129 0.501750 0.329532
O O14 0.500000 0.000000 0.500000
#
# Coordination Sequence:
#
# PCOD9032217 Si02
#       7
#     2   1   2   2   2   2   2
#     4  11  26  45  66 104 140 190 233 283 363 415
#     4  12  28  46  64  98 154 184 232 288 344 428
#     4  10  22  43  70 101 141 176 241 296 341 419
#     4   9  21  44  69 105 139 182 239 288 351 414
#     4  11  25  42  69 100 143 187 235 285 353 419
#     4  10  23  42  71  97 138 183 237 291 344 415
#     4   9  22  41  70 106 132 182 237 286 352 409
#
# _framework density 28.393678999999999
#
# number of rings (size 3 to 8) (size 9 to 14) (size 15 to 20)
#    0.000    1.846    0.000    1.385    6.462    9.231 
#    0.000   10.769    0.000    0.000    0.000    0.000 
#    0.000    0.000    0.000    0.000    0.000    0.000 
#
# Total GULP energy -72423.604556 kJ/mol
# GULP energy per Si atom -5571.046504 kJ/mol
# Density = 2.832905 g / cm^3
# Si number density = 28.393679 Si / 1000 Ang^3
#
#
#
# Elastic Constant Matrix: (Units=GPa)
#
#
# Indices 1 2 3 4 5 6 
#
# 1 144.3240 60.8603 58.4177 11.4024 3.7143 -19.3127
# 2 60.8603 98.2562 11.3041 18.0401 7.7162 -15.9359
# 3 58.4177 11.3041 147.7799 15.9122 36.8036 -14.8639
# 4 11.4024 18.0401 15.9122 30.1332 -11.6139 -1.5614
# 5 3.7143 7.7162 36.8036 -11.6139 53.8044 9.6546
# 6 -19.3127 -15.9359 -14.8639 -1.5614 9.6546 70.4249
#
#
#
# Elastic Compliance Matrix: (Units=1/GPa)
#
#
# Indices 1 2 3 4 5 6 
#
# 1 0.012603 -0.008870 -0.006712 0.006569 0.006540 -0.000719
# 2 -0.008870 0.019467 0.007040 -0.016134 -0.011312 0.004651
# 3 -0.006712 0.007040 0.014505 -0.014667 -0.014436 0.004468
# 4 0.006569 -0.016134 -0.014667 0.057605 0.025615 -0.007179
# 5 0.006540 -0.011312 -0.014436 0.025615 0.036644 -0.008269
# 6 -0.000719 0.004651 0.004468 -0.007179 -0.008269 0.016972
#
#
# Mechanical properties :
#
#
# Convention : Reuss Voigt Hill
#
# Bulk Modulus (GPa) = 33.90987 72.39160 53.15073
# Shear Modulus (GPa) = 27.06945 48.19103 37.63024
#
# Velocity S-wave (km/s) = 3.09101 4.12423 3.64442
# Velocity P-wave (km/s) = 4.97069 6.94479 6.03895
#
# Compressibility (1/GPa) = 0.02948994
#
# Stress axis : x y z
#
# Youngs Moduli (GPa) = 79.34917 51.36953 68.94084
#
# Poissons Ratio (x) = 0.45566 0.46271
# Poissons Ratio (y) = 0.70384 -0.48531
# Poissons Ratio (z) = 0.53256 -0.36162
#
# Static dielectric constant tensor:
#      x y z
#    x 1.451710 -1.190390 -0.930860 
#    y -1.190390 0.010150 -1.574140 
#    z -0.930860 -1.574140 1.203420 
# 
# From -- ./inp_files/59687.got.cif
#   From: 2010.05.17/outbox.cif.g08.bks.cpg/sg2_30_cif.got.tgz:59687.got - 2010.06.03 11:33:40.
