data_PCOD9032900
_publ_section_title
;
Structure prediction by ZEFSAII (Michael W. Deem and Ramdas Pophale) SiO2 
 PCOD9032900
Probable space group: P -1
;
_chemical_formula_sum "Si O2"
_cell_formula_units_Z 16
_cell_length_a 12.085621
_cell_length_b 28.353144
_cell_length_c 13.075097
_cell_angle_alpha 20.722097
_cell_angle_beta 150.716557
_cell_angle_gamma 153.431978
_cell_volume 690.806568
_symmetry_space_group_name_H-M "P -1"
_symmetry_group_IT_number 2
_symmetry_cell_setting 'triclinic'
loop_
_space_group_symop_operation_xyz
x,y,z
-x,-y,-z
loop_
_atom_site_type_symbol
_atom_site_label
_atom_site_fract_x
_atom_site_fract_y
_atom_site_fract_z
Si Si1 0.592944 0.345374 0.275820
Si Si2 0.670308 0.637288 0.432948
Si Si3 0.214180 0.749659 0.561943
Si Si4 0.637951 0.497147 0.342224
Si Si5 0.839183 0.985073 0.136803
Si Si6 0.931494 0.822230 0.877716
Si Si7 0.365668 0.091622 0.255131
Si Si8 0.293618 0.727127 0.262251
O O1 0.769115 0.353944 0.304774
O O2 0.681778 0.326261 0.496171
O O3 0.328510 0.194182 0.346818
O O4 0.513180 0.477764 0.926556
O O5 0.500000 0.500000 0.500000
O O6 0.554053 0.587081 0.552446
O O7 0.961060 0.670013 0.586883
O O8 0.652500 0.787208 0.081153
O O9 0.462603 0.813231 0.704277
O O10 0.202527 0.889216 0.213636
O O11 0.791999 0.410395 0.605380
O O12 0.822561 0.669396 0.168693
O O13 0.921150 0.044256 0.198051
O O14 0.081675 0.980723 0.288819
O O15 0.573540 0.839699 0.221450
O O16 0.108161 0.802607 0.974017
O O17 0.500000 0.000000 0.500000
#
# Coordination Sequence:
#
# PCOD9032900 Si02
#       8
#     2   2   2   2   2   2   2   2
#     4  10  23  41  68  93 132 175 225 263 329 406
#     4  11  25  46  71 100 133 179 231 272 335 414
#     4  11  23  44  71  94 137 177 217 281 335 396
#     4  10  24  44  63  98 137 167 223 280 334 392
#     4  11  24  42  69  97 133 175 228 267 336 407
#     4  10  22  44  62  94 133 177 221 270 328 399
#     4  11  26  45  67 101 138 174 224 285 339 397
#     4  12  24  41  67  98 133 177 217 283 334 388
#
# _framework density 23.161332000000002
#
# number of rings (size 3 to 8) (size 9 to 14) (size 15 to 20)
#    0.750    0.500    2.500    3.375    3.500    4.500 
#    0.000    0.000    0.000    0.000    0.000    0.000 
#    0.000    0.000    0.000    0.000    0.000    0.000 
#
# Total GULP energy -89496.126298 kJ/mol
# GULP energy per Si atom -5593.507894 kJ/mol
# Density = 2.310862 g / cm^3
# Si number density = 23.161332 Si / 1000 Ang^3
#
#
#
# Elastic Constant Matrix: (Units=GPa)
#
#
# Indices 1 2 3 4 5 6 
#
# 1 97.8525 16.2267 27.2175 -3.2905 -0.5246 29.7361
# 2 16.2267 76.1654 2.5408 -0.5219 -8.5979 27.6735
# 3 27.2175 2.5408 57.1158 -3.7341 15.6532 18.3847
# 4 -3.2905 -0.5219 -3.7341 30.0589 2.4416 5.5472
# 5 -0.5246 -8.5979 15.6532 2.4416 36.4517 3.1722
# 6 29.7361 27.6735 18.3847 5.5472 3.1722 38.7230
#
#
#
# Elastic Compliance Matrix: (Units=1/GPa)
#
#
# Indices 1 2 3 4 5 6 
#
# 1 0.014555 0.001330 -0.004171 0.002843 0.003064 -0.010805
# 2 0.001330 0.019611 0.003082 0.003708 0.004588 -0.017406
# 3 -0.004171 0.003082 0.026138 0.005759 -0.009949 -0.011419
# 4 0.002843 0.003708 0.005759 0.036926 -0.002933 -0.012618
# 5 0.003064 0.004588 -0.009949 -0.002933 0.033309 -0.003216
# 6 -0.010805 -0.017406 -0.011419 -0.012618 -0.003216 0.054054
#
#
# Mechanical properties :
#
#
# Convention : Reuss Voigt Hill
#
# Bulk Modulus (GPa) = 16.45151 35.90042 26.17597
# Shear Modulus (GPa) = 24.46529 33.38997 28.92763
#
# Velocity S-wave (km/s) = 3.25360 3.80099 3.53790
# Velocity P-wave (km/s) = 4.60793 5.89892 5.29293
#
# Compressibility (1/GPa) = 0.06078468
#
# Stress axis : x y z
#
# Youngs Moduli (GPa) = 68.70664 50.99226 38.25913
#
# Poissons Ratio (x) = -0.06780 0.15957
# Poissons Ratio (y) = -0.09135 -0.11791
# Poissons Ratio (z) = 0.28655 -0.15716
#
# Static dielectric constant tensor:
#      x y z
#    x 1.847810 0.002380 0.011670 
#    y 0.002380 1.873400 0.003220 
#    z 0.011670 0.003220 1.881290 
# 
# From -- ./inp_files/524620.got.cif
#   From: 2010.05.17/outbox.cif.g08.bks.cpg/sg2_263_cif.got.tgz:524620.got - 2010.06.03 11:33:40.
