data_PCOD9032513
_publ_section_title
;
Structure prediction by ZEFSAII (Michael W. Deem and Ramdas Pophale) SiO2 
 PCOD9032513
Probable space group: P -1
;
_chemical_formula_sum "Si O2"
_cell_formula_units_Z 14
_cell_length_a 5.549650
_cell_length_b 12.609006
_cell_length_c 8.789293
_cell_angle_alpha 90.021125
_cell_angle_beta 82.883732
_cell_angle_gamma 93.780963
_cell_volume 608.950795
_symmetry_space_group_name_H-M "P -1"
_symmetry_group_IT_number 2
_symmetry_cell_setting 'triclinic'
loop_
_space_group_symop_operation_xyz
x,y,z
-x,-y,-z
loop_
_atom_site_type_symbol
_atom_site_label
_atom_site_fract_x
_atom_site_fract_y
_atom_site_fract_z
Si Si1 0.467402 0.216559 0.197143
Si Si2 0.659710 0.106851 0.451929
Si Si3 0.937907 0.741930 0.549905
Si Si4 0.116153 0.621482 0.814228
Si Si5 0.683866 0.578725 0.078734
Si Si6 0.261902 0.063843 0.972544
Si Si7 0.354727 0.231421 0.707660
O O1 0.605726 0.129766 0.280645
O O2 0.312255 0.270387 0.337462
O O3 0.673816 0.301261 0.123663
O O4 0.285614 0.158016 0.094685
O O5 0.560838 0.194149 0.577081
O O6 0.947645 0.135518 0.445136
O O7 0.500000 0.000000 0.500000
O O8 0.865177 0.730202 0.380139
O O9 0.092442 0.665850 0.643606
O O10 0.186907 0.500494 0.816527
O O11 0.879089 0.624412 0.938985
O O12 0.574882 0.672340 0.183588
O O13 0.500000 0.500000 0.000000
O O14 0.283761 0.126058 0.811209
O O15 0.500000 0.000000 0.000000
O O16 0.000000 0.000000 0.000000
#
# Coordination Sequence:
#
# PCOD9032513 Si02
#       7
#     2   2   2   2   2   2   2
#     4  10  23  43  66  96 138 183 237 290 361 427
#     4  10  23  41  67  94 138 185 235 292 357 425
#     4  10  23  42  68  97 137 185 236 294 357 430
#     4  10  22  43  71  98 135 188 230 297 363 435
#     4  11  24  44  72 101 139 185 237 298 367 431
#     4  12  29  44  71 104 145 191 244 305 365 435
#     4  11  26  42  67 104 139 181 242 300 356 434
#
# _framework density 22.990362999999999
#
# number of rings (size 3 to 8) (size 9 to 14) (size 15 to 20)
#    0.000    1.429    0.000    3.429   12.000    4.000 
#    0.000   10.000    0.000    0.000    0.000    0.000 
#    0.000    0.000    0.000    0.000    0.000    0.000 
#
# Total GULP energy -78090.438020 kJ/mol
# GULP energy per Si atom -5577.888430 kJ/mol
# Density = 2.293804 g / cm^3
# Si number density = 22.990363 Si / 1000 Ang^3
#
#
#
# Elastic Constant Matrix: (Units=GPa)
#
#
# Indices 1 2 3 4 5 6 
#
# 1 104.3991 52.6003 41.1411 -3.3575 3.6887 31.0753
# 2 52.6003 134.0444 53.3561 -12.5805 -1.6236 12.8396
# 3 41.1411 53.3561 121.8638 -16.8623 19.3952 11.8935
# 4 -3.3575 -12.5805 -16.8623 44.5803 -0.9197 -0.2656
# 5 3.6887 -1.6236 19.3952 -0.9197 42.5692 -7.9594
# 6 31.0753 12.8396 11.8935 -0.2656 -7.9594 48.7518
#
#
#
# Elastic Compliance Matrix: (Units=1/GPa)
#
#
# Indices 1 2 3 4 5 6 
#
# 1 0.015182 -0.004407 -0.002197 -0.001023 -0.002061 -0.008323
# 2 -0.004407 0.010631 -0.003527 0.001397 0.002670 0.001313
# 3 -0.002197 -0.003527 0.011979 0.003246 -0.005611 -0.001491
# 4 -0.001023 0.001397 0.003246 0.023954 -0.000918 -0.000527
# 5 -0.002061 0.002670 -0.005611 -0.000918 0.027517 0.006467
# 6 -0.008323 0.001313 -0.001491 -0.000527 0.006467 0.026888
#
#
# Mechanical properties :
#
#
# Convention : Reuss Voigt Hill
#
# Bulk Modulus (GPa) = 57.04179 72.72245 64.88212
# Shear Modulus (GPa) = 35.14761 41.39424 38.27093
#
# Velocity S-wave (km/s) = 3.91423 4.24784 4.08444
# Velocity P-wave (km/s) = 6.73003 7.46721 7.10818
#
# Compressibility (1/GPa) = 0.01753101
#
# Stress axis : x y z
#
# Youngs Moduli (GPa) = 65.86717 94.06540 83.47619
#
# Poissons Ratio (x) = 0.41452 0.18343
# Poissons Ratio (y) = 0.29026 0.29439
# Poissons Ratio (z) = 0.14474 0.33173
#
# Static dielectric constant tensor:
#      x y z
#    x 1.987170 -0.069750 0.035080 
#    y -0.069750 1.893820 -0.020360 
#    z 0.035080 -0.020360 1.868610 
# 
# From -- ./inp_files/28472.got.cif
#   From: 2010.05.17/outbox.cif.g08.bks.cpg/sg2_15_cif.got.tgz:28472.got - 2010.06.03 11:33:40.
