data_PCOD9032693
_publ_section_title
;
Structure prediction by ZEFSAII (Michael W. Deem and Ramdas Pophale) SiO2 
 PCOD9032693
Probable space group: P -1
;
_chemical_formula_sum "Si O2"
_cell_formula_units_Z 11
_cell_length_a 9.056146
_cell_length_b 8.550961
_cell_length_c 11.447347
_cell_angle_alpha 36.998766
_cell_angle_beta 116.180596
_cell_angle_gamma 118.109796
_cell_volume 467.018120
_symmetry_space_group_name_H-M "P -1"
_symmetry_group_IT_number 2
_symmetry_cell_setting 'triclinic'
loop_
_space_group_symop_operation_xyz
x,y,z
-x,-y,-z
loop_
_atom_site_type_symbol
_atom_site_label
_atom_site_fract_x
_atom_site_fract_y
_atom_site_fract_z
Si Si1 0.998548 0.770375 0.729253
Si Si2 0.241478 0.425347 0.043742
Si Si3 0.519661 0.300114 0.372089
Si Si4 0.181729 0.728560 0.186533
Si Si5 0.170429 0.297925 0.826303
Si Si6 0.500000 0.500000 0.500000
O O1 0.893904 0.785890 0.800442
O O2 0.898477 0.498588 0.797082
O O3 0.000000 0.000000 0.500000
O O4 0.180264 0.705165 0.856908
O O5 0.418161 0.439017 0.159333
O O6 0.228396 0.331616 0.962078
O O7 0.714214 0.457070 0.345506
O O8 0.448457 0.344809 0.447407
O O9 0.500000 0.000000 0.500000
O O10 0.350519 0.665997 0.332043
O O11 0.028953 0.716359 0.233538
O O12 0.208876 0.019856 0.964887
#
# Coordination Sequence:
#
# PCOD9032693 Si02
#       6
#     2   2   2   2   2   1
#     4  10  22  43  73 105 142 186 244 304 362 441
#     4  10  22  44  71 104 141 189 243 297 372 435
#     4  12  27  47  73 108 151 198 248 306 369 440
#     4  10  23  46  66 105 141 188 243 299 370 432
#     4  10  24  47  71  99 150 193 240 311 372 433
#     4  12  26  46  70 110 146 190 260 290 368 450
#
# _framework density 23.553692000000002
#
# number of rings (size 3 to 8) (size 9 to 14) (size 15 to 20)
#    0.000    1.455    1.818    1.636    5.091    2.909 
#   16.364    0.000    0.000    0.000    0.000    0.000 
#    0.000    0.000    0.000    0.000    0.000    0.000 
#
# Total GULP energy -61257.628221 kJ/mol
# GULP energy per Si atom -5568.875293 kJ/mol
# Density = 2.350008 g / cm^3
# Si number density = 23.553692 Si / 1000 Ang^3
#
#
#
# Elastic Constant Matrix: (Units=GPa)
#
#
# Indices 1 2 3 4 5 6 
#
# 1 74.3772 28.1752 54.6471 -16.8658 23.0322 -1.3615
# 2 28.1752 86.8196 33.2553 -15.6291 0.9464 -22.5199
# 3 54.6471 33.2553 122.0859 -7.7333 18.3304 -0.9651
# 4 -16.8658 -15.6291 -7.7333 43.2012 10.7442 -2.7955
# 5 23.0322 0.9464 18.3304 10.7442 51.2264 13.1867
# 6 -1.3615 -22.5199 -0.9651 -2.7955 13.1867 40.4242
#
#
#
# Elastic Compliance Matrix: (Units=1/GPa)
#
#
# Indices 1 2 3 4 5 6 
#
# 1 0.027667 -0.002002 -0.009121 0.011933 -0.012828 0.004609
# 2 -0.002002 0.017207 -0.002952 0.006204 -0.002407 0.010662
# 3 -0.009121 -0.002952 0.012797 -0.002633 0.000654 -0.002042
# 4 0.011933 0.006204 -0.002633 0.033871 -0.014434 0.010846
# 5 -0.012828 -0.002407 0.000654 -0.014434 0.031480 -0.013025
# 6 0.004609 0.010662 -0.002042 0.010846 -0.013025 0.035783
#
#
# Mechanical properties :
#
#
# Convention : Reuss Voigt Hill
#
# Bulk Modulus (GPa) = 33.87336 57.27089 45.57212
# Shear Modulus (GPa) = 25.40722 38.11735 31.76228
#
# Velocity S-wave (km/s) = 3.28791 4.02720 3.67618
# Velocity P-wave (km/s) = 5.36902 6.78176 6.11631
#
# Compressibility (1/GPa) = 0.02952173
#
# Stress axis : x y z
#
# Youngs Moduli (GPa) = 36.14379 58.11447 78.14634
#
# Poissons Ratio (x) = 0.11633 0.71274
# Poissons Ratio (y) = 0.07235 0.23072
# Poissons Ratio (z) = 0.32965 0.17158
#
# Static dielectric constant tensor:
#      x y z
#    x 1.954410 -0.032740 -0.050900 
#    y -0.032740 1.681210 -0.140920 
#    z -0.050900 -0.140920 1.801060 
# 
# From -- ./inp_files/375362.got.cif
#   From: 2010.05.17/outbox.cif.g08.bks.cpg/sg2_188_cif.got.tgz:375362.got - 2010.06.03 11:33:40.
