data_PCOD9032197
_publ_section_title
;
Structure prediction by ZEFSAII (Michael W. Deem and Ramdas Pophale) SiO2 
 PCOD9032197
Probable space group: P -1
;
_chemical_formula_sum "Si O2"
_cell_formula_units_Z 16
_cell_length_a 9.423421
_cell_length_b 14.287560
_cell_length_c 8.128284
_cell_angle_alpha 43.278560
_cell_angle_beta 99.456475
_cell_angle_gamma 96.574050
_cell_volume 740.026729
_symmetry_space_group_name_H-M "P -1"
_symmetry_group_IT_number 2
_symmetry_cell_setting 'triclinic'
loop_
_space_group_symop_operation_xyz
x,y,z
-x,-y,-z
loop_
_atom_site_type_symbol
_atom_site_label
_atom_site_fract_x
_atom_site_fract_y
_atom_site_fract_z
Si Si1 0.904166 0.403153 0.222426
Si Si2 0.394338 0.587955 0.987481
Si Si3 0.378368 0.404806 0.525607
Si Si4 0.603324 0.882865 0.247639
Si Si5 0.118642 0.409199 0.721619
Si Si6 0.935345 0.875590 0.402785
Si Si7 0.891695 0.872646 0.794833
Si Si8 0.567140 0.852922 0.670117
O O1 0.843965 0.506297 0.217163
O O2 0.000625 0.270319 0.457437
O O3 0.755149 0.349983 0.187653
O O4 0.000000 0.500000 0.000000
O O5 0.340628 0.482156 0.250262
O O6 0.500000 0.500000 0.000000
O O7 0.484612 0.720159 0.889090
O O8 0.500000 0.500000 0.500000
O O9 0.427702 0.253235 0.686018
O O10 0.249225 0.395972 0.639301
O O11 0.777994 0.906541 0.254418
O O12 0.574288 0.846688 0.480327
O O13 0.500000 0.000000 0.000000
O O14 0.000000 0.500000 0.500000
O O15 0.050187 0.266112 0.939634
O O16 0.922652 0.869777 0.608171
O O17 0.046122 0.000960 0.252945
O O18 0.720589 0.858758 0.780328
O O19 0.500000 0.000000 0.500000
#
# Coordination Sequence:
#
# PCOD9032197 Si02
#       8
#     2   2   2   2   2   2   2   2
#     4  12  23  44  73 103 139 190 244 297 350 432
#     4  12  24  45  75 102 136 190 248 295 352 429
#     4  12  27  46  68 103 144 186 234 298 362 419
#     4  11  26  46  69 103 147 184 234 300 362 426
#     4  12  26  43  67 104 142 183 232 296 359 414
#     4  10  22  45  72 102 137 189 239 288 354 426
#     4  10  22  43  70 100 140 183 237 291 346 433
#     4  11  24  44  72 103 134 184 241 292 351 428
#
# _framework density 21.620840999999999
#
# number of rings (size 3 to 8) (size 9 to 14) (size 15 to 20)
#    0.000    0.750    2.500    5.250    3.500    1.000 
#    0.000    1.250    0.000    0.000    0.000    0.000 
#    0.000    0.000    0.000    0.000    0.000    0.000 
#
# Total GULP energy -89385.596506 kJ/mol
# GULP energy per Si atom -5586.599782 kJ/mol
# Density = 2.157163 g / cm^3
# Si number density = 21.620841 Si / 1000 Ang^3
#
#
#
# Elastic Constant Matrix: (Units=GPa)
#
#
# Indices 1 2 3 4 5 6 
#
# 1 96.8710 41.6816 41.4308 -13.5514 7.4995 17.1968
# 2 41.6816 113.8237 35.6153 -35.3898 -9.6003 0.7056
# 3 41.4308 35.6153 125.1141 -31.0337 12.9185 10.6478
# 4 -13.5514 -35.3898 -31.0337 44.7665 0.7130 -6.5273
# 5 7.4995 -9.6003 12.9185 0.7130 31.0374 -5.3032
# 6 17.1968 0.7056 10.6478 -6.5273 -5.3032 38.4103
#
#
#
# Elastic Compliance Matrix: (Units=1/GPa)
#
#
# Indices 1 2 3 4 5 6 
#
# 1 0.015551 -0.006197 -0.002985 -0.003242 -0.005613 -0.007347
# 2 -0.006197 0.015055 -0.000957 0.010045 0.007257 0.005472
# 3 -0.002985 -0.000957 0.011368 0.006090 -0.004687 -0.001410
# 4 -0.003242 0.010045 0.006090 0.034314 0.001528 0.005621
# 5 -0.005613 0.007257 -0.004687 0.001528 0.039337 0.009370
# 6 -0.007347 0.005472 -0.001410 0.005621 0.009370 0.031863
#
#
# Mechanical properties :
#
#
# Convention : Reuss Voigt Hill
#
# Bulk Modulus (GPa) = 46.08987 63.69601 54.89294
# Shear Modulus (GPa) = 28.57153 37.31492 32.94322
#
# Velocity S-wave (km/s) = 3.63916 4.15888 3.90767
# Velocity P-wave (km/s) = 6.24673 7.25163 6.76785
#
# Compressibility (1/GPa) = 0.02169674
#
# Stress axis : x y z
#
# Youngs Moduli (GPa) = 64.30350 66.42102 87.96536
#
# Poissons Ratio (x) = 0.41159 0.26259
# Poissons Ratio (y) = 0.39847 0.08420
# Poissons Ratio (z) = 0.19196 0.06357
#
# Static dielectric constant tensor:
#      x y z
#    x 1.794290 0.036860 0.017540 
#    y 0.036860 1.712310 0.098870 
#    z 0.017540 0.098870 1.844940 
# 
# From -- ./inp_files/205293.got.cif
#   From: 2010.05.17/outbox.cif.g08.bks.cpg/sg2_103_cif.got.tgz:205293.got - 2010.06.03 11:33:40.
