data_PCOD9032713
_publ_section_title
;
Structure prediction by ZEFSAII (Michael W. Deem and Ramdas Pophale) SiO2 
 PCOD9032713
Probable space group: P -1
;
_chemical_formula_sum "Si O2"
_cell_formula_units_Z 14
_cell_length_a 7.088853
_cell_length_b 14.764701
_cell_length_c 10.284687
_cell_angle_alpha 144.051463
_cell_angle_beta 94.384794
_cell_angle_gamma 108.483756
_cell_volume 480.238860
_symmetry_space_group_name_H-M "P -1"
_symmetry_group_IT_number 2
_symmetry_cell_setting 'triclinic'
loop_
_space_group_symop_operation_xyz
x,y,z
-x,-y,-z
loop_
_atom_site_type_symbol
_atom_site_label
_atom_site_fract_x
_atom_site_fract_y
_atom_site_fract_z
Si Si1 0.093440 0.231944 0.318152
Si Si2 0.550289 0.628649 0.900066
Si Si3 0.489038 0.299182 0.686274
Si Si4 0.756317 0.226323 0.783913
Si Si5 0.937081 0.090716 0.434498
Si Si6 0.935801 0.628712 0.771759
Si Si7 0.494154 0.825298 0.736603
O O1 0.283331 0.472665 0.639715
O O2 0.947860 0.135656 0.334134
O O3 0.959050 0.222309 0.171821
O O4 0.270745 0.173854 0.231990
O O5 0.536267 0.494481 0.858850
O O6 0.734677 0.644642 0.828666
O O7 0.692011 0.863651 0.191322
O O8 0.197599 0.136228 0.519083
O O9 0.537224 0.207738 0.460853
O O10 0.674525 0.348373 0.866488
O O11 0.500000 0.000000 0.500000
O O12 0.930363 0.229251 0.694266
O O13 0.875852 0.294493 0.010576
O O14 0.755682 0.386644 0.463905
O O15 0.500000 0.000000 0.000000
#
# Coordination Sequence:
#
# PCOD9032713 Si02
#       7
#     2   2   2   2   2   2   2
#     4   9  21  45  78 115 153 200 263 325 391 467
#     4   9  19  42  77 110 150 202 260 322 389 461
#     4   9  23  47  74 114 158 203 266 325 385 469
#     4  12  27  49  78 115 159 209 263 318 392 480
#     4  10  23  49  83 111 153 210 260 323 397 466
#     4  10  22  43  73 113 160 202 254 327 391 459
#     4   9  19  42  79 116 154 203 264 325 391 466
#
# _framework density 29.152159000000001
#
# number of rings (size 3 to 8) (size 9 to 14) (size 15 to 20)
#    0.000    2.857    0.000    2.571    0.000    7.429 
#    0.000   37.143    0.000   44.571    0.000    0.000 
#    0.000    0.000    0.000    0.000    0.000    0.000 
#
# Total GULP energy -78515.569605 kJ/mol
# GULP energy per Si atom -5608.254972 kJ/mol
# Density = 2.908581 g / cm^3
# Si number density = 29.152159 Si / 1000 Ang^3
#
#
#
# Elastic Constant Matrix: (Units=GPa)
#
#
# Indices 1 2 3 4 5 6 
#
# 1 143.8399 89.6215 78.1941 7.5111 -30.1764 -0.1951
# 2 89.6215 211.0556 135.0503 -21.2690 -0.1047 3.2361
# 3 78.1941 135.0503 178.4958 1.4787 -7.2231 -25.1862
# 4 7.5111 -21.2690 1.4787 77.3587 -10.1412 13.7004
# 5 -30.1764 -0.1047 -7.2231 -10.1412 54.0266 6.8934
# 6 -0.1951 3.2361 -25.1862 13.7004 6.8934 36.2628
#
#
#
# Elastic Compliance Matrix: (Units=1/GPa)
#
#
# Indices 1 2 3 4 5 6 
#
# 1 0.011930 -0.003268 -0.002852 -0.000694 0.006477 -0.002594
# 2 -0.003268 0.013536 -0.010380 0.006017 -0.000708 -0.010574
# 3 -0.002852 -0.010380 0.016814 -0.005924 -0.002428 0.015289
# 4 -0.000694 0.006017 -0.005924 0.017340 0.003604 -0.011892
# 5 0.006477 -0.000708 -0.002428 0.003604 0.023422 -0.007402
# 6 -0.002594 -0.010574 0.015289 -0.011892 -0.007402 0.045025
#
#
# Mechanical properties :
#
#
# Convention : Reuss Voigt Hill
#
# Bulk Modulus (GPa) = 107.76544 126.56923 117.16733
# Shear Modulus (GPa) = 30.45800 48.89797 39.67798
#
# Velocity S-wave (km/s) = 3.23583 4.09997 3.69326
# Velocity P-wave (km/s) = 7.14196 8.11936 7.64630
#
# Compressibility (1/GPa) = 0.00927941
#
# Stress axis : x y z
#
# Youngs Moduli (GPa) = 83.82105 73.87624 59.47598
#
# Poissons Ratio (x) = 0.24144 0.16961
# Poissons Ratio (y) = 0.27394 0.61738
# Poissons Ratio (z) = 0.23904 0.76686
#
# Static dielectric constant tensor:
#      x y z
#    x 2.288630 0.022310 -0.002630 
#    y 0.022310 2.315440 0.008300 
#    z -0.002630 0.008300 2.402530 
# 
# From -- ./inp_files/405121.got.cif
#   From: 2010.05.17/outbox.cif.g08.bks.cpg/sg2_203_cif.got.tgz:405121.got - 2010.06.03 11:33:40.
