data_PCOD9032545
_publ_section_title
;
Structure prediction by ZEFSAII (Michael W. Deem and Ramdas Pophale) SiO2 
 PCOD9032545
Probable space group: P -1
;
_chemical_formula_sum "Si O2"
_cell_formula_units_Z 13
_cell_length_a 9.102169
_cell_length_b 14.906531
_cell_length_c 8.381768
_cell_angle_alpha 70.675645
_cell_angle_beta 147.343249
_cell_angle_gamma 108.712869
_cell_volume 577.099454
_symmetry_space_group_name_H-M "P -1"
_symmetry_group_IT_number 2
_symmetry_cell_setting 'triclinic'
loop_
_space_group_symop_operation_xyz
x,y,z
-x,-y,-z
loop_
_atom_site_type_symbol
_atom_site_label
_atom_site_fract_x
_atom_site_fract_y
_atom_site_fract_z
Si Si1 0.521923 0.900710 0.427984
Si Si2 0.268238 0.070136 0.726291
Si Si3 0.134680 0.246793 0.680354
Si Si4 0.214181 0.377284 0.370246
Si Si5 0.578858 0.272491 0.323497
Si Si6 0.790539 0.403092 0.719959
Si Si7 0.000000 0.000000 0.000000
O O1 0.627746 0.870607 0.369915
O O2 0.525670 0.813393 0.605504
O O3 0.754622 0.979083 0.657464
O O4 0.220289 0.938624 0.131106
O O5 0.230303 0.142285 0.793387
O O6 0.000000 0.000000 0.500000
O O7 0.500000 0.000000 0.000000
O O8 0.144513 0.305407 0.491624
O O9 0.829928 0.238196 0.472499
O O10 0.339034 0.294864 0.971188
O O11 0.531964 0.384329 0.612121
O O12 0.144929 0.483243 0.298870
O O13 0.040661 0.357018 0.061740
O O14 0.701301 0.358139 0.496412
#
# Coordination Sequence:
#
# PCOD9032545 Si02
#       7
#     2   2   2   2   2   2   1
#     4  11  25  43  66  91 128 174 217 278 324 416
#     4  12  28  44  67  93 130 177 226 280 336 397
#     4  12  27  43  65 103 136 178 221 290 334 401
#     4  10  22  44  72  98 139 173 231 264 336 407
#     4  12  26  41  69 100 140 173 225 276 344 398
#     4  10  22  43  72 102 130 186 217 274 328 414
#     4  10  24  38  70  88 118 168 222 272 328 376
#
# _framework density 22.526444999999999
#
# number of rings (size 3 to 8) (size 9 to 14) (size 15 to 20)
#    0.000    0.923    0.000    5.538   12.923    3.692 
#    0.000    0.000    0.000    0.000    0.000    0.000 
#    0.000    0.000    0.000    0.000    0.000    0.000 
#
# Total GULP energy -72529.869718 kJ/mol
# GULP energy per Si atom -5579.220748 kJ/mol
# Density = 2.247517 g / cm^3
# Si number density = 22.526445 Si / 1000 Ang^3
#
#
#
# Elastic Constant Matrix: (Units=GPa)
#
#
# Indices 1 2 3 4 5 6 
#
# 1 57.3032 18.1593 7.4612 -4.2440 14.8494 3.6232
# 2 18.1593 58.1785 3.3915 0.0731 -12.5928 4.6812
# 3 7.4612 3.3915 118.5941 1.6218 9.8728 16.5789
# 4 -4.2440 0.0731 1.6218 27.0098 -8.3836 -4.8560
# 5 14.8494 -12.5928 9.8728 -8.3836 32.0591 2.3229
# 6 3.6232 4.6812 16.5789 -4.8560 2.3229 16.8422
#
#
#
# Elastic Compliance Matrix: (Units=1/GPa)
#
#
# Indices 1 2 3 4 5 6 
#
# 1 0.025282 -0.011442 0.000207 -0.001244 -0.016555 -0.000538
# 2 -0.011442 0.024728 -0.000609 0.002220 0.016172 -0.005403
# 3 0.000207 -0.000609 0.010262 -0.003613 -0.003678 -0.010511
# 4 -0.001244 0.002220 -0.003613 0.043570 0.012942 0.013985
# 5 -0.016555 0.016172 -0.003678 0.012942 0.049762 -0.000445
# 6 -0.000538 -0.005403 -0.010511 0.013985 -0.000445 0.075432
#
#
# Mechanical properties :
#
#
# Convention : Reuss Voigt Hill
#
# Bulk Modulus (GPa) = 27.33430 32.45553 29.89491
# Shear Modulus (GPa) = 18.87382 28.85313 23.86348
#
# Velocity S-wave (km/s) = 2.89771 3.58279 3.25830
# Velocity P-wave (km/s) = 4.83283 5.61731 5.23977
#
# Compressibility (1/GPa) = 0.03658407
#
# Stress axis : x y z
#
# Youngs Moduli (GPa) = 39.55424 40.44044 97.45132
#
# Poissons Ratio (x) = 0.46271 -0.02017
# Poissons Ratio (y) = 0.45257 0.05932
# Poissons Ratio (z) = -0.00819 0.02462
#
# Static dielectric constant tensor:
#      x y z
#    x 1.868080 0.011200 -0.056790 
#    y 0.011200 1.895940 -0.016060 
#    z -0.056790 -0.016060 1.787510 
# 
# From -- ./inp_files/201692.got.cif
#   From: 2010.05.17/outbox.cif.g08.bks.cpg/sg2_101_cif.got.tgz:201692.got - 2010.06.03 11:33:40.
