data_PCOD9032372
_publ_section_title
;
Structure prediction by ZEFSAII (Michael W. Deem and Ramdas Pophale) SiO2 
 PCOD9032372
Probable space group: P -1
;
_chemical_formula_sum "Si O2"
_cell_formula_units_Z 14
_cell_length_a 9.009035
_cell_length_b 10.070582
_cell_length_c 10.255637
_cell_angle_alpha 59.756957
_cell_angle_beta 120.766005
_cell_angle_gamma 124.763073
_cell_volume 626.487121
_symmetry_space_group_name_H-M "P -1"
_symmetry_group_IT_number 2
_symmetry_cell_setting 'triclinic'
loop_
_space_group_symop_operation_xyz
x,y,z
-x,-y,-z
loop_
_atom_site_type_symbol
_atom_site_label
_atom_site_fract_x
_atom_site_fract_y
_atom_site_fract_z
Si Si1 0.609487 0.003877 0.679931
Si Si2 0.959660 0.707043 0.249655
Si Si3 0.413997 0.302598 0.025735
Si Si4 0.746519 0.003235 0.333517
Si Si5 0.344651 0.814307 0.997564
Si Si6 0.099622 0.263946 0.502116
Si Si7 0.920029 0.469831 0.828332
O O1 0.603545 0.820066 0.800221
O O2 0.462914 0.027366 0.702910
O O3 0.500000 0.000000 0.500000
O O4 0.826049 0.144469 0.719932
O O5 0.955479 0.569325 0.207897
O O6 0.904032 0.650880 0.402840
O O7 0.795479 0.761125 0.099955
O O8 0.500000 0.500000 0.000000
O O9 0.560833 0.279866 0.002591
O O10 0.894837 0.105256 0.463089
O O11 0.805527 0.140025 0.174801
O O12 0.500000 0.000000 0.000000
O O13 0.761802 0.831176 0.388727
O O14 0.259616 0.705577 0.139546
O O15 0.136953 0.393547 0.335401
O O16 0.000000 0.500000 0.000000
#
# Coordination Sequence:
#
# PCOD9032372 Si02
#       7
#     2   2   2   2   2   2   2
#     4  11  24  45  73 107 147 193 241 297 367 436
#     4  12  26  45  73 110 146 191 243 299 365 439
#     4  11  26  45  71 106 147 187 242 306 362 427
#     4  10  22  43  70  99 145 190 237 293 369 429
#     4  11  23  46  70  98 144 191 239 297 368 435
#     4  11  24  44  71 105 143 189 240 301 357 435
#     4  12  25  44  72 106 141 188 246 301 363 426
#
# _framework density 22.346827999999999
#
# number of rings (size 3 to 8) (size 9 to 14) (size 15 to 20)
#    0.000    0.857    2.857    4.286    2.000    4.571 
#    0.000    5.000    0.000    0.000    0.000    0.000 
#    0.000    0.000    0.000    0.000    0.000    0.000 
#
# Total GULP energy -78133.009025 kJ/mol
# GULP energy per Si atom -5580.929216 kJ/mol
# Density = 2.229597 g / cm^3
# Si number density = 22.346828 Si / 1000 Ang^3
#
#
#
# Elastic Constant Matrix: (Units=GPa)
#
#
# Indices 1 2 3 4 5 6 
#
# 1 71.7664 48.5796 66.5504 -20.3545 -6.8895 -13.9930
# 2 48.5796 96.1515 60.3447 -3.6858 1.2272 -8.1385
# 3 66.5504 60.3447 166.1490 -13.2788 -1.4573 -3.4882
# 4 -20.3545 -3.6858 -13.2788 45.0034 -5.6581 1.9009
# 5 -6.8895 1.2272 -1.4573 -5.6581 36.9959 6.7333
# 6 -13.9930 -8.1385 -3.4882 1.9009 6.7333 44.9473
#
#
#
# Elastic Compliance Matrix: (Units=1/GPa)
#
#
# Indices 1 2 3 4 5 6 
#
# 1 0.035727 -0.011511 -0.008864 0.013262 0.007501 0.006666
# 2 -0.011511 0.017428 -0.002136 -0.004865 -0.003577 0.000148
# 3 -0.008864 -0.002136 0.010195 -0.001207 -0.000970 -0.002159
# 4 0.013262 -0.004865 -0.001207 0.028271 0.006734 0.000950
# 5 0.007501 -0.003577 -0.000970 0.006734 0.030117 -0.003184
# 6 0.006666 0.000148 -0.002159 0.000950 -0.003184 0.024620
#
#
# Mechanical properties :
#
#
# Convention : Reuss Voigt Hill
#
# Bulk Modulus (GPa) = 54.56202 76.11294 65.33748
# Shear Modulus (GPa) = 25.31791 35.96213 30.64002
#
# Velocity S-wave (km/s) = 3.36959 4.01593 3.70687
# Velocity P-wave (km/s) = 6.29348 7.45904 6.90091
#
# Compressibility (1/GPa) = 0.01832777
#
# Stress axis : x y z
#
# Youngs Moduli (GPa) = 27.99026 57.37738 98.08936
#
# Poissons Ratio (x) = 0.66046 0.86945
# Poissons Ratio (y) = 0.32219 0.20956
# Poissons Ratio (z) = 0.24810 0.12258
#
# Static dielectric constant tensor:
#      x y z
#    x 1.820890 -0.027250 -0.071100 
#    y -0.027250 1.861330 0.048110 
#    z -0.071100 0.048110 1.926880 
# 
# From -- ./inp_files/185564.got.cif
#   From: 2010.05.17/outbox.cif.g08.bks.cpg/sg2_93_cif.got.tgz:185564.got - 2010.06.03 11:33:40.
