data_PCOD9032176
_publ_section_title
;
Structure prediction by ZEFSAII (Michael W. Deem and Ramdas Pophale) SiO2 
 PCOD9032176
Probable space group: P -1
;
_chemical_formula_sum "Si O2"
_cell_formula_units_Z 16
_cell_length_a 7.735414
_cell_length_b 11.206335
_cell_length_c 15.681870
_cell_angle_alpha 125.585727
_cell_angle_beta 59.508405
_cell_angle_gamma 78.381752
_cell_volume 672.059615
_symmetry_space_group_name_H-M "P -1"
_symmetry_group_IT_number 2
_symmetry_cell_setting 'triclinic'
loop_
_space_group_symop_operation_xyz
x,y,z
-x,-y,-z
loop_
_atom_site_type_symbol
_atom_site_label
_atom_site_fract_x
_atom_site_fract_y
_atom_site_fract_z
Si Si1 0.475056 0.468343 0.092817
Si Si2 0.625454 0.958545 0.708793
Si Si3 0.135678 0.100292 0.545062
Si Si4 0.382538 0.923646 0.054418
Si Si5 0.431707 0.250088 0.592285
Si Si6 0.951217 0.318070 0.041708
Si Si7 0.121002 0.766843 0.789280
Si Si8 0.343088 0.385213 0.488882
O O1 0.754779 0.371680 0.034554
O O2 0.195236 0.697873 0.288269
O O3 0.500000 0.500000 0.000000
O O4 0.436085 0.315381 0.064475
O O5 0.758096 0.985446 0.612067
O O6 0.735359 0.735309 0.573067
O O7 0.698803 0.971396 0.789682
O O8 0.282618 0.146552 0.863093
O O9 0.288678 0.171883 0.567335
O O10 0.278438 0.914504 0.497143
O O11 0.113093 0.010389 0.103077
O O12 0.500000 0.000000 0.000000
O O13 0.195972 0.455702 0.793205
O O14 0.499827 0.289564 0.501398
O O15 0.938672 0.231418 0.096852
O O16 0.107488 0.624034 0.676018
O O17 0.435889 0.664434 0.654223
#
# Coordination Sequence:
#
# PCOD9032176 Si02
#       8
#     2   2   2   2   2   2   2   2
#     4  12  31  48  70 106 147 185 234 294 354 417
#     4  11  24  41  71 101 138 185 235 288 346 416
#     4  10  24  44  69 101 137 187 234 291 347 419
#     4  12  27  46  71 104 143 183 237 290 346 417
#     4   9  21  42  72  96 139 180 239 283 351 421
#     4  11  24  44  70 101 140 187 234 286 355 421
#     4  10  22  43  69  99 140 181 231 293 354 415
#     4   9  21  39  67 105 133 181 231 288 355 413
#
# _framework density 23.807411999999999
#
# number of rings (size 3 to 8) (size 9 to 14) (size 15 to 20)
#    0.000    1.500    1.250    1.500   14.000    5.500 
#    0.000    0.000    0.000    0.000    0.000    0.000 
#    0.000    0.000    0.000    0.000    0.000    0.000 
#
# Total GULP energy -89425.089775 kJ/mol
# GULP energy per Si atom -5589.068111 kJ/mol
# Density = 2.375323 g / cm^3
# Si number density = 23.807412 Si / 1000 Ang^3
#
#
#
# Elastic Constant Matrix: (Units=GPa)
#
#
# Indices 1 2 3 4 5 6 
#
# 1 74.6021 29.3470 22.9163 5.6908 6.4063 -17.6618
# 2 29.3470 139.3899 58.1366 1.7163 -10.4935 -22.8888
# 3 22.9163 58.1366 106.2096 -7.3478 -8.3911 -10.9722
# 4 5.6908 1.7163 -7.3478 41.5852 3.1886 2.8209
# 5 6.4063 -10.4935 -8.3911 3.1886 42.8068 7.5403
# 6 -17.6618 -22.8888 -10.9722 2.8209 7.5403 38.3060
#
#
#
# Elastic Compliance Matrix: (Units=1/GPa)
#
#
# Indices 1 2 3 4 5 6 
#
# 1 0.017196 -0.001634 -0.002621 -0.002895 -0.004560 0.007312
# 2 -0.001634 0.010302 -0.004888 -0.001422 0.001237 0.003863
# 3 -0.002621 -0.004888 0.012881 0.002773 0.001684 -0.000975
# 4 -0.002895 -0.001422 0.002773 0.025257 -0.000705 -0.003111
# 5 -0.004560 0.001237 0.001684 -0.000705 0.025769 -0.005901
# 6 0.007312 0.003863 -0.000975 -0.003111 -0.005901 0.032897
#
#
# Mechanical properties :
#
#
# Convention : Reuss Voigt Hill
#
# Bulk Modulus (GPa) = 45.26476 60.11129 52.68802
# Shear Modulus (GPa) = 33.34421 38.52640 35.93530
#
# Velocity S-wave (km/s) = 3.74649 4.02711 3.88934
# Velocity P-wave (km/s) = 6.14566 6.85035 6.50755
#
# Compressibility (1/GPa) = 0.02209224
#
# Stress axis : x y z
#
# Youngs Moduli (GPa) = 58.15302 97.06985 77.63651
#
# Poissons Ratio (x) = 0.15864 0.20348
# Poissons Ratio (y) = 0.09504 0.37948
# Poissons Ratio (z) = 0.15241 0.47447
#
# Static dielectric constant tensor:
#      x y z
#    x 1.924930 0.053970 0.019030 
#    y 0.053970 1.924180 0.070000 
#    z 0.019030 0.070000 1.910640 
# 
# From -- ./inp_files/500696.got.cif
#   From: 2010.05.17/outbox.cif.g08.bks.cpg/sg2_251_cif.got.tgz:500696.got - 2010.06.03 11:33:40.
