data_PCOD9032248
_publ_section_title
;
Structure prediction by ZEFSAII (Michael W. Deem and Ramdas Pophale) SiO2 
 PCOD9032248
Probable space group: P -1
;
_chemical_formula_sum "Si O2"
_cell_formula_units_Z 14
_cell_length_a 7.761333
_cell_length_b 8.840622
_cell_length_c 12.778273
_cell_angle_alpha 82.705936
_cell_angle_beta 59.877143
_cell_angle_gamma 49.161923
_cell_volume 545.958809
_symmetry_space_group_name_H-M "P -1"
_symmetry_group_IT_number 2
_symmetry_cell_setting 'triclinic'
loop_
_space_group_symop_operation_xyz
x,y,z
-x,-y,-z
loop_
_atom_site_type_symbol
_atom_site_label
_atom_site_fract_x
_atom_site_fract_y
_atom_site_fract_z
Si Si1 0.698207 0.264651 0.320007
Si Si2 0.822509 0.921197 0.670547
Si Si3 0.468881 0.141576 0.090229
Si Si4 0.478166 0.867687 0.445921
Si Si5 0.928125 0.604762 0.147677
Si Si6 0.889465 0.165120 0.899386
Si Si7 0.515942 0.374161 0.802448
O O1 0.528490 0.269753 0.461160
O O2 0.536298 0.457773 0.273067
O O3 0.910677 0.250870 0.326851
O O4 0.871140 0.049683 0.218579
O O5 0.800803 0.951106 0.551000
O O6 0.729639 0.137648 0.715575
O O7 0.602376 0.913330 0.778511
O O8 0.202282 0.378843 0.121683
O O9 0.724969 0.121852 0.016896
O O10 0.500000 0.000000 0.000000
O O11 0.720795 0.725063 0.300305
O O12 0.500000 0.000000 0.500000
O O13 0.004526 0.739039 0.084122
O O14 0.761292 0.583430 0.119919
O O15 0.657466 0.344022 0.870440
#
# Coordination Sequence:
#
# PCOD9032248 Si02
#       7
#     2   2   2   2   2   2   2
#     4  11  21  46  71 101 143 187 237 288 362 420
#     4  10  23  43  71 103 138 189 237 291 357 416
#     4  12  22  47  74 101 148 187 237 298 355 426
#     4  11  24  45  71 102 148 181 238 297 352 429
#     4  11  24  45  69 108 140 183 242 289 355 423
#     4  11  24  45  71 106 144 189 231 302 354 421
#     4  10  22  43  70 104 138 185 243 274 361 427
#
# _framework density 25.642962000000001
#
# number of rings (size 3 to 8) (size 9 to 14) (size 15 to 20)
#    0.000    1.143    5.714    0.857    0.000    4.000 
#   10.286    4.286    0.000    0.000    0.000    0.000 
#    0.000    0.000    0.000    0.000    0.000    0.000 
#
# Total GULP energy -78430.269739 kJ/mol
# GULP energy per Si atom -5602.162124 kJ/mol
# Density = 2.558460 g / cm^3
# Si number density = 25.642962 Si / 1000 Ang^3
#
#
#
# Elastic Constant Matrix: (Units=GPa)
#
#
# Indices 1 2 3 4 5 6 
#
# 1 114.8116 32.8055 33.2533 -14.2662 0.9849 20.2995
# 2 32.8055 159.8574 68.9589 -44.0078 2.1154 -7.1228
# 3 33.2533 68.9589 120.8871 -29.2267 -18.7287 6.6375
# 4 -14.2662 -44.0078 -29.2267 52.6848 2.1991 -0.4069
# 5 0.9849 2.1154 -18.7287 2.1991 46.4368 -9.7847
# 6 20.2995 -7.1228 6.6375 -0.4069 -9.7847 41.3280
#
#
#
# Elastic Compliance Matrix: (Units=1/GPa)
#
#
# Indices 1 2 3 4 5 6 
#
# 1 0.010818 -0.001366 -0.002060 0.000694 -0.002241 -0.005742
# 2 -0.001366 0.010218 -0.004512 0.005764 -0.001949 0.002752
# 3 -0.002060 -0.004512 0.012877 0.002595 0.005198 -0.000578
# 4 0.000694 0.005764 0.002595 0.025441 -0.000351 0.000403
# 5 -0.002241 -0.001949 0.005198 -0.000351 0.025017 0.005849
# 6 -0.005742 0.002752 -0.000578 0.000403 0.005849 0.028973
#
#
# Mechanical properties :
#
#
# Convention : Reuss Voigt Hill
#
# Bulk Modulus (GPa) = 55.44744 73.95461 64.70102
# Shear Modulus (GPa) = 36.97314 45.45916 41.21615
#
# Velocity S-wave (km/s) = 3.80128 4.21500 4.01347
# Velocity P-wave (km/s) = 6.39813 7.25197 6.83839
#
# Compressibility (1/GPa) = 0.01803510
#
# Stress axis : x y z
#
# Youngs Moduli (GPa) = 92.44078 97.86869 77.65496
#
# Poissons Ratio (x) = 0.13371 0.16000
# Poissons Ratio (y) = 0.12629 0.35040
# Poissons Ratio (z) = 0.19047 0.44161
#
# Static dielectric constant tensor:
#      x y z
#    x 2.061330 -0.042570 -0.043880 
#    y -0.042570 1.989030 0.006530 
#    z -0.043880 0.006530 2.095520 
# 
# From -- ./inp_files/492418.got.cif
#   From: 2010.05.17/outbox.cif.g08.bks.cpg/sg2_247_cif.got.tgz:492418.got - 2010.06.03 11:33:40.
