data_PCOD9032649
_publ_section_title
;
Structure prediction by ZEFSAII (Michael W. Deem and Ramdas Pophale) SiO2 
 PCOD9032649
Probable space group: P -1
;
_chemical_formula_sum "Si O2"
_cell_formula_units_Z 14
_cell_length_a 8.788886
_cell_length_b 23.299184
_cell_length_c 16.508044
_cell_angle_alpha 20.645103
_cell_angle_beta 149.280562
_cell_angle_gamma 149.923004
_cell_volume 573.007228
_symmetry_space_group_name_H-M "P -1"
_symmetry_group_IT_number 2
_symmetry_cell_setting 'triclinic'
loop_
_space_group_symop_operation_xyz
x,y,z
-x,-y,-z
loop_
_atom_site_type_symbol
_atom_site_label
_atom_site_fract_x
_atom_site_fract_y
_atom_site_fract_z
Si Si1 0.684586 0.383544 0.632967
Si Si2 0.777000 0.017388 0.802014
Si Si3 0.798247 0.760677 0.905632
Si Si4 0.430620 0.661161 0.171919
Si Si5 0.154272 0.497888 0.987852
Si Si6 0.792733 0.924784 0.237616
Si Si7 0.727927 0.811166 0.627792
O O1 0.701604 0.579484 0.384291
O O2 0.575124 0.313551 0.767391
O O3 0.411456 0.276628 0.587615
O O4 0.002894 0.341422 0.822079
O O5 0.604829 0.155882 0.558388
O O6 0.979861 0.043311 0.778957
O O7 0.497906 0.831965 0.924104
O O8 0.000000 0.000000 0.000000
O O9 0.796118 0.730572 0.849249
O O10 0.438475 0.678482 0.874224
O O11 0.976463 0.963550 0.735525
O O12 0.102690 0.525458 0.170124
O O13 0.270663 0.331829 0.248726
O O14 0.000000 0.500000 0.000000
O O15 0.500000 0.000000 0.000000
O O16 0.000000 0.000000 0.500000
#
# Coordination Sequence:
#
# PCOD9032649 Si02
#       7
#     2   2   2   2   2   2   2
#     4  10  22  43  72  99 140 185 239 298 354 426
#     4  12  25  45  73 104 144 194 243 289 358 437
#     4  11  25  46  73 102 145 189 247 292 370 435
#     4  11  23  43  70 105 139 184 240 293 358 428
#     4  12  27  48  70 109 151 185 242 304 366 435
#     4  10  24  46  70 106 143 188 241 304 357 425
#     4  12  27  47  75 105 148 197 241 301 366 433
#
# _framework density 24.432500999999998
#
# number of rings (size 3 to 8) (size 9 to 14) (size 15 to 20)
#    0.000    0.857    4.286    1.286    6.000    1.714 
#    2.571    3.571    0.000    0.000    0.000    0.000 
#    0.000    0.000    0.000    0.000    0.000    0.000 
#
# Total GULP energy -78279.035977 kJ/mol
# GULP energy per Si atom -5591.359713 kJ/mol
# Density = 2.437689 g / cm^3
# Si number density = 24.432501 Si / 1000 Ang^3
#
#
#
# Elastic Constant Matrix: (Units=GPa)
#
#
# Indices 1 2 3 4 5 6 
#
# 1 100.7797 23.1332 11.5755 2.2445 21.2815 -15.5905
# 2 23.1332 140.1298 2.9214 6.2356 4.3012 -5.2165
# 3 11.5755 2.9214 93.0946 9.7329 30.1133 -4.5152
# 4 2.2445 6.2356 9.7329 24.4535 1.8129 0.5443
# 5 21.2815 4.3012 30.1133 1.8129 32.6017 -5.7153
# 6 -15.5905 -5.2165 -4.5152 0.5443 -5.7153 33.5984
#
#
#
# Elastic Compliance Matrix: (Units=1/GPa)
#
#
# Indices 1 2 3 4 5 6 
#
# 1 0.012649 -0.001655 0.001590 -0.000824 -0.008697 0.004360
# 2 -0.001655 0.007501 0.000137 -0.001837 0.000149 0.000470
# 3 0.001590 0.000137 0.016189 -0.005473 -0.015642 0.000363
# 4 -0.000824 -0.001837 -0.005473 0.043418 0.003146 -0.001571
# 5 -0.008697 0.000149 -0.015642 0.003146 0.051045 0.002517
# 6 0.004360 0.000470 0.000363 -0.001571 0.002517 0.032362
#
#
# Mechanical properties :
#
#
# Convention : Reuss Voigt Hill
#
# Bulk Modulus (GPa) = 27.40968 45.47381 36.44174
# Shear Modulus (GPa) = 28.54164 37.88899 33.21532
#
# Velocity S-wave (km/s) = 3.42158 3.94224 3.69110
# Velocity P-wave (km/s) = 5.18194 6.27488 5.75442
#
# Compressibility (1/GPa) = 0.03648347
#
# Stress axis : x y z
#
# Youngs Moduli (GPa) = 79.05472 133.30958 61.76991
#
# Poissons Ratio (x) = 0.22068 -0.09822
# Poissons Ratio (y) = 0.13087 -0.00847
# Poissons Ratio (z) = -0.12570 -0.01828
#
# Static dielectric constant tensor:
#      x y z
#    x 2.219290 0.187970 -0.217760 
#    y 0.187970 2.072660 -0.142320 
#    z -0.217760 -0.142320 2.158120 
# 
# From -- ./inp_files/159141.got.cif
#   From: 2010.05.17/outbox.cif.g08.bks.cpg/sg2_80_cif.got.tgz:159141.got - 2010.06.03 11:33:40.
