data_PCOD9032546
_publ_section_title
;
Structure prediction by ZEFSAII (Michael W. Deem and Ramdas Pophale) SiO2 
 PCOD9032546
Probable space group: P -1
;
_chemical_formula_sum "Si O2"
_cell_formula_units_Z 16
_cell_length_a 12.048935
_cell_length_b 19.543510
_cell_length_c 5.958477
_cell_angle_alpha 51.960539
_cell_angle_beta 50.876817
_cell_angle_gamma 44.986323
_cell_volume 731.641887
_symmetry_space_group_name_H-M "P -1"
_symmetry_group_IT_number 2
_symmetry_cell_setting 'triclinic'
loop_
_space_group_symop_operation_xyz
x,y,z
-x,-y,-z
loop_
_atom_site_type_symbol
_atom_site_label
_atom_site_fract_x
_atom_site_fract_y
_atom_site_fract_z
Si Si1 0.826339 0.186745 0.291256
Si Si2 0.024571 0.231330 0.267463
Si Si3 0.824841 0.606745 0.521127
Si Si4 0.908812 0.945432 0.125461
Si Si5 0.389643 0.866463 0.026852
Si Si6 0.905685 0.621629 0.888496
Si Si7 0.519416 0.266566 0.215617
Si Si8 0.596631 0.876685 0.105951
O O1 0.683994 0.249171 0.162255
O O2 0.873623 0.251938 0.257164
O O3 0.748532 0.128779 0.636723
O O4 0.999826 0.104973 0.120430
O O5 0.056033 0.143569 0.574289
O O6 0.990933 0.327097 0.266083
O O7 0.203051 0.179923 0.010492
O O8 0.842691 0.654526 0.642820
O O9 0.643058 0.622862 0.765636
O O10 0.000000 0.500000 0.500000
O O11 0.800813 0.644604 0.212293
O O12 0.714013 0.029044 0.187056
O O13 0.000000 0.000000 0.000000
O O14 0.441929 0.766169 0.023084
O O15 0.547952 0.859915 0.952726
O O16 0.000000 0.500000 0.000000
O O17 0.471824 0.183212 0.536821
O O18 0.500000 0.000000 0.000000
#
# Coordination Sequence:
#
# PCOD9032546 Si02
#       8
#     2   2   2   2   2   2   2   2
#     4  11  24  39  61  90 137 184 234 274 340 410
#     4  12  24  39  65  98 132 182 229 281 345 416
#     4  10  22  43  72 102 132 171 223 288 361 412
#     4  12  23  39  59  92 135 190 229 272 331 410
#     4  11  23  40  60  87 136 184 229 276 333 402
#     4  10  23  44  71 104 132 169 225 294 354 412
#     4  11  22  40  63  94 130 177 226 279 348 409
#     4  11  24  36  58  95 133 174 224 284 334 410
#
# _framework density 21.868621000000001
#
# number of rings (size 3 to 8) (size 9 to 14) (size 15 to 20)
#    0.000    1.000    3.750    2.625    5.250    4.000 
#    0.000    0.000    0.000    6.000    0.000    0.000 
#    0.000    0.000    0.000    0.000    0.000    0.000 
#
# Total GULP energy -89097.358628 kJ/mol
# GULP energy per Si atom -5568.584914 kJ/mol
# Density = 2.181885 g / cm^3
# Si number density = 21.868621 Si / 1000 Ang^3
#
#
#
# Elastic Constant Matrix: (Units=GPa)
#
#
# Indices 1 2 3 4 5 6 
#
# 1 155.6319 45.6371 6.5419 5.6126 3.1694 14.8023
# 2 45.6371 92.8729 6.7289 11.6615 -0.5569 -2.1638
# 3 6.5419 6.7289 60.4490 13.0979 6.1817 7.5564
# 4 5.6126 11.6615 13.0979 33.5115 6.8021 -2.6609
# 5 3.1694 -0.5569 6.1817 6.8021 31.7691 7.6825
# 6 14.8023 -2.1638 7.5564 -2.6609 7.6825 39.1656
#
#
#
# Elastic Compliance Matrix: (Units=1/GPa)
#
#
# Indices 1 2 3 4 5 6 
#
# 1 0.007890 -0.003928 0.000036 -0.000216 -0.000040 -0.003213
# 2 -0.003928 0.013267 -0.000570 -0.003813 0.001104 0.001852
# 3 0.000036 -0.000570 0.018778 -0.007221 -0.001171 -0.003929
# 4 -0.000216 -0.003813 -0.007221 0.035982 -0.007602 0.005200
# 5 -0.000040 0.001104 -0.001171 -0.007602 0.035071 -0.007094
# 6 -0.003213 0.001852 -0.003929 0.005200 -0.007094 0.029352
#
#
# Mechanical properties :
#
#
# Convention : Reuss Voigt Hill
#
# Bulk Modulus (GPa) = 32.24609 47.41884 39.83246
# Shear Modulus (GPa) = 31.32816 37.55897 34.44356
#
# Velocity S-wave (km/s) = 3.78903 4.14875 3.97296
# Velocity P-wave (km/s) = 5.82406 6.68431 6.26896
#
# Compressibility (1/GPa) = 0.03101152
#
# Stress axis : x y z
#
# Youngs Moduli (GPa) = 126.74641 75.37359 53.25379
#
# Poissons Ratio (x) = 0.29604 -0.00190
# Poissons Ratio (y) = 0.49781 0.03035
# Poissons Ratio (z) = -0.00453 0.04296
#
# Static dielectric constant tensor:
#      x y z
#    x 1.830220 0.002820 0.057730 
#    y 0.002820 1.855660 -0.004390 
#    z 0.057730 -0.004390 1.885320 
# 
# From -- ./inp_files/39993.got.cif
#   From: 2010.05.17/outbox.cif.g08.bks.cpg/sg2_20_cif.got.tgz:39993.got - 2010.06.03 11:33:40.
