data_PCOD9032738
_publ_section_title
;
Structure prediction by ZEFSAII (Michael W. Deem and Ramdas Pophale) SiO2 
 PCOD9032738
Probable space group: P -1
;
_chemical_formula_sum "Si O2"
_cell_formula_units_Z 12
_cell_length_a 5.305853
_cell_length_b 10.156398
_cell_length_c 11.435797
_cell_angle_alpha 100.854817
_cell_angle_beta 114.919331
_cell_angle_gamma 113.426884
_cell_volume 463.563977
_symmetry_space_group_name_H-M "P -1"
_symmetry_group_IT_number 2
_symmetry_cell_setting 'triclinic'
loop_
_space_group_symop_operation_xyz
x,y,z
-x,-y,-z
loop_
_atom_site_type_symbol
_atom_site_label
_atom_site_fract_x
_atom_site_fract_y
_atom_site_fract_z
Si Si1 0.636049 0.685507 0.073730
Si Si2 0.460837 0.165715 0.451407
Si Si3 0.770366 0.248108 0.168185
Si Si4 0.159485 0.235271 0.610524
Si Si5 0.453529 0.592831 0.659251
Si Si6 0.784016 0.026746 0.867042
O O1 0.679242 0.732602 0.225586
O O2 0.988496 0.790090 0.094065
O O3 0.500000 0.500000 0.000000
O O4 0.400011 0.734393 0.976408
O O5 0.253911 0.147189 0.521387
O O6 0.599264 0.344900 0.462211
O O7 0.772028 0.154468 0.536909
O O8 0.271655 0.060294 0.283470
O O9 0.699529 0.347604 0.264296
O O10 0.151926 0.319306 0.235381
O O11 0.574326 0.070664 0.156931
O O12 0.291618 0.408068 0.610645
O O13 0.000000 0.000000 0.000000
#
# Coordination Sequence:
#
# PCOD9032738 Si02
#       6
#     2   2   2   2   2   2
#     4  11  24  46  73 105 146 185 236 291 354 418
#     4  11  24  44  69 105 143 187 232 287 356 418
#     4  10  22  43  74 100 136 185 238 284 339 409
#     4  12  25  41  71 106 148 184 227 295 354 415
#     4  11  21  42  71 102 141 181 236 286 341 413
#     4   9  22  47  73 102 138 187 239 289 345 423
#
# _framework density 25.886393999999999
#
# number of rings (size 3 to 8) (size 9 to 14) (size 15 to 20)
#    0.000    1.333    1.667    4.000    0.000    3.333 
#    0.000   35.000    0.000    0.000    0.000    0.000 
#    0.000    0.000    0.000    0.000    0.000    0.000 
#
# Total GULP energy -67295.596032 kJ/mol
# GULP energy per Si atom -5607.966336 kJ/mol
# Density = 2.582748 g / cm^3
# Si number density = 25.886394 Si / 1000 Ang^3
#
#
#
# Elastic Constant Matrix: (Units=GPa)
#
#
# Indices 1 2 3 4 5 6 
#
# 1 171.6765 49.5042 92.4900 -0.9423 -0.0995 16.2244
# 2 49.5042 188.5294 42.2651 21.3536 -2.6199 18.5214
# 3 92.4900 42.2651 184.9334 -20.4897 -18.8619 8.2212
# 4 -0.9423 21.3536 -20.4897 39.8842 12.7123 10.8401
# 5 -0.0995 -2.6199 -18.8619 12.7123 50.3237 1.4778
# 6 16.2244 18.5214 8.2212 10.8401 1.4778 32.3102
#
#
#
# Elastic Compliance Matrix: (Units=1/GPa)
#
#
# Indices 1 2 3 4 5 6 
#
# 1 0.008584 -0.001088 -0.004100 -0.000171 -0.001459 -0.002519
# 2 -0.001088 0.006481 -0.001215 -0.003993 0.000934 -0.001563
# 3 -0.004100 -0.001215 0.008489 0.004559 0.001989 -0.001026
# 4 -0.000171 -0.003993 0.004559 0.034480 -0.006915 -0.010037
# 5 -0.001459 0.000934 0.001989 -0.006915 0.022380 0.000987
# 6 -0.002519 -0.001563 -0.001026 -0.010037 0.000987 0.036694
#
#
# Mechanical properties :
#
#
# Convention : Reuss Voigt Hill
#
# Bulk Modulus (GPa) = 93.03809 101.51752 97.27780
# Shear Modulus (GPa) = 37.45395 48.56229 43.00812
#
# Velocity S-wave (km/s) = 3.80789 4.33595 4.08047
# Velocity P-wave (km/s) = 7.43991 8.02303 7.73697
#
# Compressibility (1/GPa) = 0.01074829
#
# Stress axis : x y z
#
# Youngs Moduli (GPa) = 116.49678 154.29814 117.79803
#
# Poissons Ratio (x) = 0.16791 0.48299
# Poissons Ratio (y) = 0.12677 0.14307
# Poissons Ratio (z) = 0.47766 0.18740
#
# Static dielectric constant tensor:
#      x y z
#    x 2.022780 -0.009470 -0.020120 
#    y -0.009470 2.064990 0.042930 
#    z -0.020120 0.042930 2.033060 
# 
# From -- ./inp_files/361397.got.cif
#   From: 2010.05.17/outbox.cif.g08.bks.cpg/sg2_181_cif.got.tgz:361397.got - 2010.06.03 11:33:40.
