data_PCOD9032382
_publ_section_title
;
Structure prediction by ZEFSAII (Michael W. Deem and Ramdas Pophale) SiO2 
 PCOD9032382
Probable space group: P -1
;
_chemical_formula_sum "Si O2"
_cell_formula_units_Z 16
_cell_length_a 11.894419
_cell_length_b 21.122539
_cell_length_c 8.819182
_cell_angle_alpha 40.880130
_cell_angle_beta 106.068435
_cell_angle_gamma 139.953684
_cell_volume 650.196152
_symmetry_space_group_name_H-M "P -1"
_symmetry_group_IT_number 2
_symmetry_cell_setting 'triclinic'
loop_
_space_group_symop_operation_xyz
x,y,z
-x,-y,-z
loop_
_atom_site_type_symbol
_atom_site_label
_atom_site_fract_x
_atom_site_fract_y
_atom_site_fract_z
Si Si1 0.876089 0.648004 0.156831
Si Si2 0.148159 0.082594 0.167711
Si Si3 0.414177 0.725173 0.114060
Si Si4 0.710353 0.292373 0.231431
Si Si5 0.586298 0.010873 0.859198
Si Si6 0.141029 0.950899 0.959330
Si Si7 0.648448 0.665057 0.926733
Si Si8 0.354453 0.585919 0.775885
O O1 0.888426 0.602168 0.082226
O O2 0.777291 0.499573 0.509289
O O3 0.660221 0.567426 0.177878
O O4 0.088919 0.867098 0.921953
O O5 0.307678 0.119234 0.073723
O O6 0.318450 0.241933 0.083629
O O7 0.072992 0.123904 0.969572
O O8 0.895109 0.860318 0.558844
O O9 0.356399 0.728611 0.924757
O O10 0.396500 0.794929 0.108290
O O11 0.637292 0.324540 0.259253
O O12 0.612789 0.115709 0.560125
O O13 0.000000 0.500000 0.000000
O O14 0.500000 0.000000 0.000000
O O15 0.826441 0.119210 0.795398
O O16 0.399740 0.200397 0.613649
O O17 0.414035 0.530472 0.987376
#
# Coordination Sequence:
#
# PCOD9032382 Si02
#       8
#     2   2   2   2   2   2   2   2
#     4  11  23  39  71 103 133 183 232 270 355 409
#     4   9  20  39  70 102 141 180 224 286 359 403
#     4  12  25  45  68 107 142 177 232 299 349 404
#     4  12  27  46  67 100 141 179 236 295 345 400
#     4  12  25  48  72  95 138 194 233 283 344 411
#     4  10  22  43  71 100 138 181 235 277 335 425
#     4   9  19  38  67 102 136 186 222 273 345 434
#     4  11  21  46  68  97 141 183 231 284 338 419
#
# _framework density 24.607958
#
# number of rings (size 3 to 8) (size 9 to 14) (size 15 to 20)
#    0.000    1.250    3.750    2.250    0.000    4.500 
#    2.250    2.500    0.000    0.000    0.000    0.000 
#    0.000    0.000    0.000    0.000    0.000    0.000 
#
# Total GULP energy -89410.563078 kJ/mol
# GULP energy per Si atom -5588.160192 kJ/mol
# Density = 2.455195 g / cm^3
# Si number density = 24.607958 Si / 1000 Ang^3
#
#
#
# Elastic Constant Matrix: (Units=GPa)
#
#
# Indices 1 2 3 4 5 6 
#
# 1 103.8015 48.7384 40.3105 13.5216 25.2142 1.5264
# 2 48.7384 132.4092 26.9151 13.5027 22.3536 -3.1212
# 3 40.3105 26.9151 65.8057 17.1095 38.9176 2.1235
# 4 13.5216 13.5027 17.1095 44.0666 7.0644 21.8225
# 5 25.2142 22.3536 38.9176 7.0644 41.0843 8.3795
# 6 1.5264 -3.1212 2.1235 21.8225 8.3795 46.2749
#
#
#
# Elastic Compliance Matrix: (Units=1/GPa)
#
#
# Indices 1 2 3 4 5 6 
#
# 1 0.014189 -0.003785 -0.007274 -0.000263 0.000354 -0.000329
# 2 -0.003785 0.009801 0.002092 -0.003443 -0.005058 0.003229
# 3 -0.007274 0.002092 0.047055 -0.016821 -0.041130 0.013602
# 4 -0.000263 -0.003443 -0.016821 0.037821 0.015567 -0.020106
# 5 0.000354 -0.005058 -0.041130 0.015567 0.066811 -0.017905
# 6 -0.000329 0.003229 0.013602 -0.020106 -0.017905 0.033938
#
#
# Mechanical properties :
#
#
# Convention : Reuss Voigt Hill
#
# Bulk Modulus (GPa) = 18.82810 59.32716 39.07763
# Shear Modulus (GPa) = 20.38707 38.68864 29.53785
#
# Velocity S-wave (km/s) = 2.88145 3.96940 3.46835
# Velocity P-wave (km/s) = 4.32876 6.72082 5.65277
#
# Compressibility (1/GPa) = 0.05311211
#
# Stress axis : x y z
#
# Youngs Moduli (GPa) = 70.47819 102.02608 21.25162
#
# Poissons Ratio (x) = 0.38615 0.15458
# Poissons Ratio (y) = 0.26675 -0.04446
# Poissons Ratio (z) = 0.51265 -0.21345
#
# Static dielectric constant tensor:
#      x y z
#    x 1.760230 0.085750 0.036900 
#    y 0.085750 1.918850 -0.011190 
#    z 0.036900 -0.011190 1.895010 
# 
# From -- ./inp_files/282776.got.cif
#   From: 2010.05.17/outbox.cif.g08.bks.cpg/sg2_142_cif.got.tgz:282776.got - 2010.06.03 11:33:40.
