data_PCOD9032853
_publ_section_title
;
Structure prediction by ZEFSAII (Michael W. Deem and Ramdas Pophale) SiO2 
 PCOD9032853
Probable space group: P -1
;
_chemical_formula_sum "Si O2"
_cell_formula_units_Z 16
_cell_length_a 14.121911
_cell_length_b 9.985975
_cell_length_c 5.364277
_cell_angle_alpha 96.363492
_cell_angle_beta 98.017029
_cell_angle_gamma 121.829028
_cell_volume 620.966484
_symmetry_space_group_name_H-M "P -1"
_symmetry_group_IT_number 2
_symmetry_cell_setting 'triclinic'
loop_
_space_group_symop_operation_xyz
x,y,z
-x,-y,-z
loop_
_atom_site_type_symbol
_atom_site_label
_atom_site_fract_x
_atom_site_fract_y
_atom_site_fract_z
Si Si1 0.925298 0.432793 0.207815
Si Si2 0.330939 0.916830 0.825743
Si Si3 0.439776 0.861856 0.245073
Si Si4 0.208101 0.060287 0.534755
Si Si5 0.316465 0.613876 0.513661
Si Si6 0.631199 0.582475 0.151572
Si Si7 0.839072 0.623924 0.959512
Si Si8 0.087723 0.893672 0.938996
O O1 0.853188 0.515837 0.150607
O O2 0.882461 0.242611 0.139799
O O3 0.000000 0.500000 0.500000
O O4 0.000000 0.500000 0.000000
O O5 0.310870 0.758447 0.651217
O O6 0.460537 0.082227 0.906124
O O7 0.268917 0.974479 0.641822
O O8 0.334139 0.864948 0.099802
O O9 0.397511 0.693809 0.318593
O O10 0.500000 0.000000 0.500000
O O11 0.305495 0.250398 0.631895
O O12 0.110702 0.992649 0.708473
O O13 0.161780 0.003820 0.225477
O O14 0.368574 0.549465 0.705883
O O15 0.196447 0.475299 0.329802
O O16 0.731651 0.634080 0.993862
O O17 0.500000 0.500000 0.000000
O O18 0.957940 0.789948 0.973715
#
# Coordination Sequence:
#
# PCOD9032853 Si02
#       8
#     2   2   2   2   2   2   2   2
#     4  10  22  43  82 124 159 199 263 338 407 474
#     4  10  23  44  76 115 154 204 269 342 410 475
#     4   9  21  40  71 108 147 208 260 330 408 477
#     4  12  30  50  81 118 168 211 275 334 402 495
#     4  11  25  46  79 111 155 213 269 336 413 479
#     4  12  33  53  77 116 162 223 277 332 408 496
#     4  11  27  49  80 113 161 211 264 340 406 483
#     4  11  27  51  81 121 158 213 271 332 409 483
#
# _framework density 25.766285
#
# number of rings (size 3 to 8) (size 9 to 14) (size 15 to 20)
#    0.000    1.250    0.000    3.000   21.000    1.500 
#    0.000    0.000    0.000    0.000    0.000    0.000 
#    0.000    0.000    0.000    0.000    0.000    0.000 
#
# Total GULP energy -89340.376608 kJ/mol
# GULP energy per Si atom -5583.773538 kJ/mol
# Density = 2.570764 g / cm^3
# Si number density = 25.766285 Si / 1000 Ang^3
#
#
#
# Elastic Constant Matrix: (Units=GPa)
#
#
# Indices 1 2 3 4 5 6 
#
# 1 97.4403 27.8112 47.5123 5.8701 27.6778 -6.5773
# 2 27.8112 91.0130 9.3751 27.7305 -0.6115 -9.4310
# 3 47.5123 9.3751 155.3753 30.4106 6.9340 -13.7507
# 4 5.8701 27.7305 30.4106 57.3539 8.2494 1.6422
# 5 27.6778 -0.6115 6.9340 8.2494 33.3992 0.0056
# 6 -6.5773 -9.4310 -13.7507 1.6422 0.0056 33.6258
#
#
#
# Elastic Compliance Matrix: (Units=1/GPa)
#
#
# Indices 1 2 3 4 5 6 
#
# 1 0.020194 -0.008173 -0.006579 0.007927 -0.017476 -0.001417
# 2 -0.008173 0.016979 0.003634 -0.010739 0.008981 0.005172
# 3 -0.006579 0.003634 0.009748 -0.007124 0.005254 0.004066
# 4 0.007927 -0.010739 -0.007124 0.027495 -0.012077 -0.005716
# 5 -0.017476 0.008981 0.005254 -0.012077 0.046480 0.001831
# 6 -0.001417 0.005172 0.004066 -0.005716 0.001831 0.032854
#
#
# Mechanical properties :
#
#
# Convention : Reuss Voigt Hill
#
# Bulk Modulus (GPa) = 40.51036 57.02508 48.76772
# Shear Modulus (GPa) = 27.14216 42.15111 34.64664
#
# Velocity S-wave (km/s) = 3.24913 4.04902 3.67093
# Velocity P-wave (km/s) = 5.46188 6.63619 6.07747
#
# Compressibility (1/GPa) = 0.02468504
#
# Stress axis : x y z
#
# Youngs Moduli (GPa) = 49.51895 58.89652 102.58119
#
# Poissons Ratio (x) = 0.48134 0.67489
# Poissons Ratio (y) = 0.40470 -0.37273
# Poissons Ratio (z) = 0.32579 -0.21400
#
# Static dielectric constant tensor:
#      x y z
#    x 2.278230 0.115460 -0.052180 
#    y 0.115460 2.082790 0.013900 
#    z -0.052180 0.013900 2.017860 
# 
# From -- ./inp_files/106782.got.cif
#   From: 2010.05.17/outbox.cif.g08.bks.cpg/sg2_54_cif.got.tgz:106782.got - 2010.06.03 11:33:40.
