data_PCOD9032922
_publ_section_title
;
Structure prediction by ZEFSAII (Michael W. Deem and Ramdas Pophale) SiO2 
 PCOD9032922
Probable space group: P -1
;
_chemical_formula_sum "Si O2"
_cell_formula_units_Z 16
_cell_length_a 15.015456
_cell_length_b 14.445840
_cell_length_c 14.920358
_cell_angle_alpha 129.012711
_cell_angle_beta 148.939994
_cell_angle_gamma 28.564221
_cell_volume 692.315836
_symmetry_space_group_name_H-M "P -1"
_symmetry_group_IT_number 2
_symmetry_cell_setting 'triclinic'
loop_
_space_group_symop_operation_xyz
x,y,z
-x,-y,-z
loop_
_atom_site_type_symbol
_atom_site_label
_atom_site_fract_x
_atom_site_fract_y
_atom_site_fract_z
Si Si1 0.342795 0.996650 0.295362
Si Si2 0.120790 0.280998 0.724736
Si Si3 0.950727 0.954594 0.522433
Si Si4 0.089913 0.821002 0.108139
Si Si5 0.689575 0.565787 0.358657
Si Si6 0.163465 0.637924 0.809877
Si Si7 0.449412 0.755141 0.971594
Si Si8 0.524599 0.594864 0.512808
O O1 0.066477 0.125473 0.207432
O O2 0.500000 0.000000 0.500000
O O3 0.588969 0.748353 0.338902
O O4 0.146025 0.135932 0.119594
O O5 0.426564 0.191480 0.931554
O O6 0.897336 0.460913 0.561908
O O7 0.890111 0.418571 0.696663
O O8 0.151827 0.121556 0.633268
O O9 0.673422 0.180623 0.479227
O O10 0.000000 0.000000 0.500000
O O11 0.272921 0.780078 0.756906
O O12 0.346364 0.713076 0.187020
O O13 0.340346 0.651789 0.300856
O O14 0.821859 0.059248 0.073240
O O15 0.907105 0.369360 0.354293
O O16 0.252542 0.486468 0.869252
O O17 0.500000 0.500000 0.000000
O O18 0.500000 0.500000 0.500000
#
# Coordination Sequence:
#
# PCOD9032922 Si02
#       8
#     2   2   2   2   2   2   2   2
#     4  12  25  38  61  96 134 177 227 275 329 398
#     4  11  25  45  70 100 139 176 226 283 343 406
#     4  11  24  47  75  97 131 179 225 279 355 410
#     4  10  22  44  63  91 136 172 220 279 331 398
#     4  11  23  44  62  93 135 178 224 273 329 397
#     4  12  23  40  69  93 132 187 232 266 335 400
#     4  11  25  44  67 104 140 174 230 286 334 403
#     4  10  22  46  74  98 132 174 224 288 349 411
#
# _framework density 23.110837
#
# number of rings (size 3 to 8) (size 9 to 14) (size 15 to 20)
#    0.000    1.000    3.750    2.625    3.500    3.500 
#    2.250    0.625    0.000    0.000    0.000    0.000 
#    0.000    0.000    0.000    0.000    0.000    0.000 
#
# Total GULP energy -89158.639997 kJ/mol
# GULP energy per Si atom -5572.415000 kJ/mol
# Density = 2.305824 g / cm^3
# Si number density = 23.110837 Si / 1000 Ang^3
#
#
#
# Elastic Constant Matrix: (Units=GPa)
#
#
# Indices 1 2 3 4 5 6 
#
# 1 99.9312 17.2918 25.9378 13.3585 2.3425 1.8278
# 2 17.2918 78.1070 -0.1969 10.3998 4.3381 -12.1527
# 3 25.9378 -0.1969 64.8657 18.6175 0.1287 9.7634
# 4 13.3585 10.3998 18.6175 24.4528 -1.4053 1.0957
# 5 2.3425 4.3381 0.1287 -1.4053 29.9909 13.3547
# 6 1.8278 -12.1527 9.7634 1.0957 13.3547 36.0650
#
#
#
# Elastic Compliance Matrix: (Units=1/GPa)
#
#
# Indices 1 2 3 4 5 6 
#
# 1 0.011783 -0.002236 -0.004021 -0.002471 -0.000733 0.000084
# 2 -0.002236 0.015767 0.002086 -0.007722 -0.005683 0.007201
# 3 -0.004021 0.002086 0.022192 -0.015266 0.001517 -0.005199
# 4 -0.002471 -0.007722 -0.015266 0.057521 0.004923 -0.001914
# 5 -0.000733 -0.005683 0.001517 0.004923 0.042548 -0.018194
# 6 0.000084 0.007201 -0.005199 -0.001914 -0.018194 0.038353
#
#
# Mechanical properties :
#
#
# Convention : Reuss Voigt Hill
#
# Bulk Modulus (GPa) = 24.15427 36.55215 30.35321
# Shear Modulus (GPa) = 23.77482 31.42649 27.60065
#
# Velocity S-wave (km/s) = 3.21086 3.69157 3.45957
# Velocity P-wave (km/s) = 4.92142 5.83272 5.39634
#
# Compressibility (1/GPa) = 0.04140055
#
# Stress axis : x y z
#
# Youngs Moduli (GPa) = 84.86568 63.42202 45.06179
#
# Poissons Ratio (x) = 0.14181 0.18118
# Poissons Ratio (y) = 0.18976 -0.09398
# Poissons Ratio (z) = 0.34121 -0.13227
#
# Static dielectric constant tensor:
#      x y z
#    x 1.858220 0.126350 -0.014120 
#    y 0.126350 1.867450 -0.009480 
#    z -0.014120 -0.009480 2.021830 
# 
# From -- ./inp_files/296788.got.cif
#   From: 2010.05.17/outbox.cif.g08.bks.cpg/sg2_149_cif.got.tgz:296788.got - 2010.06.03 11:33:40.
