data_PCOD9032296
_publ_section_title
;
Structure prediction by ZEFSAII (Michael W. Deem and Ramdas Pophale) SiO2 
 PCOD9032296
Probable space group: P -1
;
_chemical_formula_sum "Si O2"
_cell_formula_units_Z 10
_cell_length_a 14.632378
_cell_length_b 4.965170
_cell_length_c 8.461566
_cell_angle_alpha 99.917695
_cell_angle_beta 141.834200
_cell_angle_gamma 93.512803
_cell_volume 354.129159
_symmetry_space_group_name_H-M "P -1"
_symmetry_group_IT_number 2
_symmetry_cell_setting 'triclinic'
loop_
_space_group_symop_operation_xyz
x,y,z
-x,-y,-z
loop_
_atom_site_type_symbol
_atom_site_label
_atom_site_fract_x
_atom_site_fract_y
_atom_site_fract_z
Si Si1 0.004676 0.803327 0.674947
Si Si2 0.877246 0.248636 0.665213
Si Si3 0.574671 0.844118 0.305631
Si Si4 0.322168 0.569387 0.363785
Si Si5 0.255212 0.532987 0.914295
O O1 0.919742 0.510249 0.629061
O O2 0.884119 0.746139 0.358621
O O3 0.169161 0.772676 0.847726
O O4 0.997338 0.071613 0.795008
O O5 0.835793 0.362915 0.788583
O O6 0.706322 0.005936 0.374486
O O7 0.652520 0.667623 0.509267
O O8 0.552511 0.117145 0.397086
O O9 0.403411 0.635288 0.010435
O O10 0.319706 0.495405 0.170797
#
# Coordination Sequence:
#
# PCOD9032296 Si02
#       5
#     2   2   2   2   2
#     4  11  26  44  62  99 130 174 200 267 320 388
#     4  10  22  46  64  94 130 164 224 248 326 368
#     4  10  22  43  70  95 121 170 218 266 304 379
#     4  10  22  43  70  95 121 170 218 266 304 379
#     4  11  26  42  68  94 136 163 216 258 328 371
#
# _framework density 28.238287
#
# number of rings (size 3 to 8) (size 9 to 14) (size 15 to 20)
#    1.200    0.400    2.000    1.200    0.000   12.800 
#    0.000    0.000    0.000    0.000    0.000    0.000 
#    0.000    0.000    0.000    0.000    0.000    0.000 
#
# Total GULP energy -56047.411969 kJ/mol
# GULP energy per Si atom -5604.741197 kJ/mol
# Density = 2.817402 g / cm^3
# Si number density = 28.238287 Si / 1000 Ang^3
#
#
#
# Elastic Constant Matrix: (Units=GPa)
#
#
# Indices 1 2 3 4 5 6 
#
# 1 109.9428 21.1800 6.2995 -8.5417 31.9087 -22.7874
# 2 21.1800 186.2740 26.3909 -11.0798 -1.4730 -13.5783
# 3 6.2995 26.3909 86.3464 0.0303 14.5173 0.3407
# 4 -8.5417 -11.0798 0.0303 46.5284 4.0413 1.9657
# 5 31.9087 -1.4730 14.5173 4.0413 45.2804 0.4640
# 6 -22.7874 -13.5783 0.3407 1.9657 0.4640 44.5002
#
#
#
# Elastic Compliance Matrix: (Units=1/GPa)
#
#
# Indices 1 2 3 4 5 6 
#
# 1 0.013942 -0.001156 0.001080 0.002913 -0.010538 0.006760
# 2 -0.001156 0.005941 -0.001996 0.001020 0.001545 0.001175
# 3 0.001080 -0.001996 0.012952 0.000153 -0.004991 -0.000110
# 4 0.002913 0.001020 0.000153 0.022590 -0.004094 0.000847
# 5 -0.010538 0.001545 -0.004991 -0.004094 0.031578 -0.005035
# 6 0.006760 0.001175 -0.000110 0.000847 -0.005035 0.026308
#
#
# Mechanical properties :
#
#
# Convention : Reuss Voigt Hill
#
# Bulk Modulus (GPa) = 34.85272 54.47820 44.66546
# Shear Modulus (GPa) = 39.36423 49.17465 44.26944
#
# Velocity S-wave (km/s) = 3.73768 4.17756 3.96373
# Velocity P-wave (km/s) = 5.56742 6.52714 6.06629
#
# Compressibility (1/GPa) = 0.02869217
#
# Stress axis : x y z
#
# Youngs Moduli (GPa) = 71.72425 168.31580 77.20738
#
# Poissons Ratio (x) = 0.19451 -0.08339
# Poissons Ratio (y) = 0.08289 0.15412
# Poissons Ratio (z) = -0.07747 0.33600
#
# Static dielectric constant tensor:
#      x y z
#    x 2.224960 0.039560 -0.031610 
#    y 0.039560 2.147210 0.061930 
#    z -0.031610 0.061930 2.315130 
# 
# From -- ./inp_files/289105.got.cif
#   From: 2010.05.17/outbox.cif.g08.bks.cpg/sg2_145_cif.got.tgz:289105.got - 2010.06.03 11:33:40.
