data_PCOD9032439
_publ_section_title
;
Structure prediction by ZEFSAII (Michael W. Deem and Ramdas Pophale) SiO2 
 PCOD9032439
Probable space group: P -1
;
_chemical_formula_sum "Si O2"
_cell_formula_units_Z 14
_cell_length_a 5.490676
_cell_length_b 14.356217
_cell_length_c 12.060244
_cell_angle_alpha 51.263077
_cell_angle_beta 56.519383
_cell_angle_gamma 50.433738
_cell_volume 552.808514
_symmetry_space_group_name_H-M "P -1"
_symmetry_group_IT_number 2
_symmetry_cell_setting 'triclinic'
loop_
_space_group_symop_operation_xyz
x,y,z
-x,-y,-z
loop_
_atom_site_type_symbol
_atom_site_label
_atom_site_fract_x
_atom_site_fract_y
_atom_site_fract_z
Si Si1 0.085267 0.997087 0.850385
Si Si2 0.912360 0.515651 0.883500
Si Si3 0.916508 0.491292 0.381093
Si Si4 0.617470 0.291149 0.381263
Si Si5 0.201259 0.734707 0.885514
Si Si6 0.709702 0.274731 0.614433
Si Si7 0.616440 0.031580 0.564583
O O1 0.067104 0.873033 0.882304
O O2 0.446614 0.984084 0.739183
O O3 0.841927 0.139693 0.750951
O O4 0.000000 0.000000 0.000000
O O5 0.593493 0.656244 0.851220
O O6 0.145454 0.518704 0.727236
O O7 0.883426 0.380466 0.961141
O O8 0.000000 0.500000 0.000000
O O9 0.805421 0.390137 0.544434
O O10 0.685462 0.643560 0.355453
O O11 0.304535 0.435630 0.340755
O O12 0.849906 0.259006 0.239455
O O13 0.806143 0.248575 0.480899
O O14 0.450925 0.191656 0.489588
O O15 0.500000 0.000000 0.500000
O O16 0.000000 0.000000 0.500000
#
# Coordination Sequence:
#
# PCOD9032439 Si02
#       7
#     2   2   2   2   2   2   2
#     4  12  28  51  76 121 172 213 269 346 429 498
#     4  10  22  43  71 104 146 200 263 333 400 488
#     4  10  23  43  70 107 148 202 276 323 407 483
#     4  11  22  43  75 103 145 203 277 335 390 482
#     4  10  24  44  70 108 151 200 268 328 410 483
#     4  11  24  45  71 108 153 210 262 337 414 491
#     4  12  26  49  80 115 161 216 277 338 408 507
#
# _framework density 25.325226000000001
#
# number of rings (size 3 to 8) (size 9 to 14) (size 15 to 20)
#    0.000    1.143    2.857    2.143    2.000    2.286 
#    5.143    3.571    0.000    0.000    0.000    0.000 
#    0.000    0.000    0.000    0.000    0.000    0.000 
#
# Total GULP energy -78181.394914 kJ/mol
# GULP energy per Si atom -5584.385351 kJ/mol
# Density = 2.526758 g / cm^3
# Si number density = 25.325226 Si / 1000 Ang^3
#
#
#
# Elastic Constant Matrix: (Units=GPa)
#
#
# Indices 1 2 3 4 5 6 
#
# 1 111.5054 62.8013 55.6006 9.3130 15.3336 -8.9006
# 2 62.8013 188.6633 85.9606 -16.8514 12.5246 -5.2817
# 3 55.6006 85.9606 183.2591 11.2854 26.9263 10.2582
# 4 9.3130 -16.8514 11.2854 47.9696 3.5318 4.6050
# 5 15.3336 12.5246 26.9263 3.5318 48.1264 -1.3234
# 6 -8.9006 -5.2817 10.2582 4.6050 -1.3234 42.0262
#
#
#
# Elastic Compliance Matrix: (Units=1/GPa)
#
#
# Indices 1 2 3 4 5 6 
#
# 1 0.012617 -0.003420 -0.001934 -0.003360 -0.001718 0.003029
# 2 -0.003420 0.008263 -0.003199 0.004225 0.000437 0.000646
# 3 -0.001934 -0.003199 0.008286 -0.002211 -0.003099 -0.002689
# 4 -0.003360 0.004225 -0.002211 0.023765 -0.000598 -0.002264
# 5 -0.001718 0.000437 -0.003099 -0.000598 0.023024 0.001238
# 6 0.003029 0.000646 -0.002689 -0.002264 0.001238 0.025461
#
#
# Mechanical properties :
#
#
# Convention : Reuss Voigt Hill
#
# Bulk Modulus (GPa) = 82.91421 99.12807 91.02114
# Shear Modulus (GPa) = 40.80251 46.22880 43.51566
#
# Velocity S-wave (km/s) = 4.01826 4.27711 4.14970
# Velocity P-wave (km/s) = 7.37152 7.97613 7.67978
#
# Compressibility (1/GPa) = 0.01206066
#
# Stress axis : x y z
#
# Youngs Moduli (GPa) = 79.25516 121.02472 120.68647
#
# Poissons Ratio (x) = 0.41392 0.23341
# Poissons Ratio (y) = 0.27106 0.38603
# Poissons Ratio (z) = 0.15328 0.38711
#
# Static dielectric constant tensor:
#      x y z
#    x 2.110250 0.012900 -0.000710 
#    y 0.012900 2.103470 0.027770 
#    z -0.000710 0.027770 2.031080 
# 
# From -- ./inp_files/367443.got.cif
#   From: 2010.05.17/outbox.cif.g08.bks.cpg/sg2_184_cif.got.tgz:367443.got - 2010.06.03 11:33:40.
