data_PCOD9032200
_publ_section_title
;
Structure prediction by ZEFSAII (Michael W. Deem and Ramdas Pophale) SiO2 
 PCOD9032200
Probable space group: P -1
;
_chemical_formula_sum "Si O2"
_cell_formula_units_Z 12
_cell_length_a 10.895804
_cell_length_b 7.365378
_cell_length_c 10.337117
_cell_angle_alpha 135.634499
_cell_angle_beta 64.362719
_cell_angle_gamma 98.538244
_cell_volume 505.647954
_symmetry_space_group_name_H-M "P -1"
_symmetry_group_IT_number 2
_symmetry_cell_setting 'triclinic'
loop_
_space_group_symop_operation_xyz
x,y,z
-x,-y,-z
loop_
_atom_site_type_symbol
_atom_site_label
_atom_site_fract_x
_atom_site_fract_y
_atom_site_fract_z
Si Si1 0.912566 0.936273 0.626765
Si Si2 0.389191 0.703571 0.978613
Si Si3 0.708650 0.819810 0.238040
Si Si4 0.241356 0.354672 0.606386
Si Si5 0.464050 0.887825 0.759696
Si Si6 0.993679 0.162590 0.955539
O O1 0.867611 0.671736 0.469890
O O2 0.000000 0.000000 0.500000
O O3 0.760690 0.143341 0.815849
O O4 0.991291 0.963933 0.736248
O O5 0.386971 0.393915 0.829372
O O6 0.403861 0.787518 0.865639
O O7 0.500089 0.830976 0.069757
O O8 0.723322 0.872906 0.411734
O O9 0.636340 0.051686 0.288639
O O10 0.870013 0.720404 0.063607
O O11 0.390155 0.322165 0.453518
O O12 0.151568 0.607805 0.855638
O O13 0.000000 0.000000 0.000000
#
# Coordination Sequence:
#
# PCOD9032200 Si02
#       6
#     2   2   2   2   2   2
#     4  11  21  43  69  99 138 184 228 286 349 409
#     4  10  22  43  70 100 143 182 231 292 339 415
#     4  12  22  42  71 101 137 185 230 282 350 411
#     4  11  24  44  72  99 140 185 227 289 350 411
#     4  10  24  44  68 105 141 180 234 286 349 413
#     4  12  26  46  72 106 139 183 237 291 345 416
#
# _framework density 23.731926000000001
#
# number of rings (size 3 to 8) (size 9 to 14) (size 15 to 20)
#    0.000    1.000    3.333    3.500    0.000    1.333 
#    3.000    5.000    0.000    0.000    0.000    0.000 
#    0.000    0.000    0.000    0.000    0.000    0.000 
#
# Total GULP energy -67034.282374 kJ/mol
# GULP energy per Si atom -5586.190198 kJ/mol
# Density = 2.367791 g / cm^3
# Si number density = 23.731926 Si / 1000 Ang^3
#
#
#
# Elastic Constant Matrix: (Units=GPa)
#
#
# Indices 1 2 3 4 5 6 
#
# 1 116.4279 54.1425 51.6907 -20.2681 1.8689 9.4636
# 2 54.1425 93.5140 54.1099 -33.3406 9.5442 -7.3818
# 3 51.6907 54.1099 140.0188 -39.9782 3.5295 4.3859
# 4 -20.2681 -33.3406 -39.9782 42.7585 7.4159 8.3030
# 5 1.8689 9.5442 3.5295 7.4159 55.4312 -7.7648
# 6 9.4636 -7.3818 4.3859 8.3030 -7.7648 37.6773
#
#
#
# Elastic Compliance Matrix: (Units=1/GPa)
#
#
# Indices 1 2 3 4 5 6 
#
# 1 0.012954 -0.006752 -0.002164 -0.000396 0.000333 -0.004169
# 2 -0.006752 0.020418 -0.002304 0.010765 -0.004199 0.002727
# 3 -0.002164 -0.002304 0.011585 0.009068 -0.001995 -0.003666
# 4 -0.000396 0.010765 0.009068 0.043803 -0.009750 -0.010509
# 5 0.000333 -0.004199 -0.001995 -0.009750 0.020996 0.005802
# 6 -0.004169 0.002727 -0.003666 -0.010509 0.005802 0.032061
#
#
# Mechanical properties :
#
#
# Convention : Reuss Voigt Hill
#
# Bulk Modulus (GPa) = 44.40916 74.42743 59.41829
# Shear Modulus (GPa) = 29.10983 39.84124 34.47554
#
# Velocity S-wave (km/s) = 3.50610 4.10177 3.81557
# Velocity P-wave (km/s) = 5.92822 7.33910 6.67107
#
# Compressibility (1/GPa) = 0.02251788
#
# Stress axis : x y z
#
# Youngs Moduli (GPa) = 77.19396 48.97651 86.31869
#
# Poissons Ratio (x) = 0.33071 0.18676
# Poissons Ratio (y) = 0.52125 0.19884
# Poissons Ratio (z) = 0.16702 0.11282
#
# Static dielectric constant tensor:
#      x y z
#    x 1.986470 0.050480 0.067850 
#    y 0.050480 1.941700 0.059230 
#    z 0.067850 0.059230 1.922510 
# 
# From -- ./inp_files/232844.got.cif
#   From: 2010.05.17/outbox.cif.g08.bks.cpg/sg2_117_cif.got.tgz:232844.got - 2010.06.03 11:33:40.
