data_PCOD9032104
_publ_section_title
;
Structure prediction by ZEFSAII (Michael W. Deem and Ramdas Pophale) SiO2 
 PCOD9032104
Probable space group: P -1
;
_chemical_formula_sum "Si O2"
_cell_formula_units_Z 16
_cell_length_a 12.807175
_cell_length_b 9.233458
_cell_length_c 8.534333
_cell_angle_alpha 113.188676
_cell_angle_beta 64.701133
_cell_angle_gamma 132.194328
_cell_volume 667.354541
_symmetry_space_group_name_H-M "P -1"
_symmetry_group_IT_number 2
_symmetry_cell_setting 'triclinic'
loop_
_space_group_symop_operation_xyz
x,y,z
-x,-y,-z
loop_
_atom_site_type_symbol
_atom_site_label
_atom_site_fract_x
_atom_site_fract_y
_atom_site_fract_z
Si Si1 0.040597 0.705931 0.206175
Si Si2 0.787468 0.322088 0.337796
Si Si3 0.659948 0.023509 0.038479
Si Si4 0.561226 0.776644 0.713441
Si Si5 0.617427 0.682068 0.108807
Si Si6 0.617504 0.478899 0.555875
Si Si7 0.104093 0.157302 0.867172
Si Si8 0.180989 0.912386 0.518612
O O1 0.931425 0.471652 0.206128
O O2 0.965565 0.765568 0.160804
O O3 0.202208 0.813160 0.083808
O O4 0.068021 0.797002 0.401090
O O5 0.737112 0.446433 0.496071
O O6 0.822360 0.226527 0.409047
O O7 0.658734 0.151258 0.232490
O O8 0.540411 0.863792 0.920032
O O9 0.687728 0.886080 0.059614
O O10 0.653969 0.692185 0.654309
O O11 0.427501 0.589708 0.625575
O O12 0.661011 0.955755 0.607191
O O13 0.523029 0.666912 0.308359
O O14 0.744995 0.670843 0.073325
O O15 0.500000 0.500000 0.000000
O O16 0.149736 0.051050 0.681168
O O17 0.000000 0.000000 0.000000
#
# Coordination Sequence:
#
# PCOD9032104 Si02
#       8
#     2   2   2   2   2   2   2   2
#     4  11  25  43  71 101 140 185 245 294 357 420
#     4  12  25  43  69 103 145 190 231 293 368 424
#     4  11  23  44  69 101 141 185 233 301 350 424
#     4  10  22  43  69  96 137 182 238 292 344 417
#     4  12  24  44  71 105 145 178 238 296 353 422
#     4  11  24  42  71  98 142 186 236 289 359 426
#     4  12  23  44  73 104 137 191 243 298 353 420
#     4  11  23  43  67 100 140 184 239 298 352 421
#
# _framework density 23.975261
#
# number of rings (size 3 to 8) (size 9 to 14) (size 15 to 20)
#    0.000    0.750    5.000    1.875    1.750    4.500 
#    0.000    5.000    0.000    0.000    0.000    0.000 
#    0.000    0.000    0.000    0.000    0.000    0.000 
#
# Total GULP energy -89438.829483 kJ/mol
# GULP energy per Si atom -5589.926843 kJ/mol
# Density = 2.392069 g / cm^3
# Si number density = 23.975261 Si / 1000 Ang^3
#
#
#
# Elastic Constant Matrix: (Units=GPa)
#
#
# Indices 1 2 3 4 5 6 
#
# 1 61.5929 14.0929 28.5002 9.7923 12.9335 0.7868
# 2 14.0929 104.7798 27.6221 -11.4214 12.6103 -10.1192
# 3 28.5002 27.6221 93.0786 3.7610 23.8432 0.4124
# 4 9.7923 -11.4214 3.7610 53.2619 2.0041 6.1601
# 5 12.9335 12.6103 23.8432 2.0041 40.0786 5.4484
# 6 0.7868 -10.1192 0.4124 6.1601 5.4484 45.6759
#
#
#
# Elastic Compliance Matrix: (Units=1/GPa)
#
#
# Indices 1 2 3 4 5 6 
#
# 1 0.019966 -0.001431 -0.004777 -0.003553 -0.003003 0.000220
# 2 -0.001431 0.011150 -0.002466 0.002627 -0.002038 0.002406
# 3 -0.004777 -0.002466 0.014587 -0.000467 -0.006368 0.000227
# 4 -0.003553 0.002627 -0.000467 0.020269 -0.000134 -0.002070
# 5 -0.003003 -0.002038 -0.006368 -0.000134 0.030902 -0.004010
# 6 0.000220 0.002406 0.000227 -0.002070 -0.004010 0.023178
#
#
# Mechanical properties :
#
#
# Convention : Reuss Voigt Hill
#
# Bulk Modulus (GPa) = 35.26486 44.43130 39.84808
# Shear Modulus (GPa) = 34.04805 40.41901 37.23353
#
# Velocity S-wave (km/s) = 3.77255 4.11038 3.94508
# Velocity P-wave (km/s) = 5.80663 6.41088 6.11622
#
# Compressibility (1/GPa) = 0.02835684
#
# Stress axis : x y z
#
# Youngs Moduli (GPa) = 50.08507 89.68453 68.55351
#
# Poissons Ratio (x) = 0.12831 0.32748
# Poissons Ratio (y) = 0.07166 0.16902
# Poissons Ratio (z) = 0.23926 0.22112
#
# Static dielectric constant tensor:
#      x y z
#    x 1.986540 0.021870 0.022800 
#    y 0.021870 1.913700 0.023760 
#    z 0.022800 0.023760 1.978910 
# 
# From -- ./inp_files/299130.got.cif
#   From: 2010.05.17/outbox.cif.g08.bks.cpg/sg2_150_cif.got.tgz:299130.got - 2010.06.03 11:33:40.
