data_PCOD9032716
_publ_section_title
;
Structure prediction by ZEFSAII (Michael W. Deem and Ramdas Pophale) SiO2 
 PCOD9032716
Probable space group: P -1
;
_chemical_formula_sum "Si O2"
_cell_formula_units_Z 13
_cell_length_a 11.974113
_cell_length_b 18.850022
_cell_length_c 13.243747
_cell_angle_alpha 27.659761
_cell_angle_beta 136.918737
_cell_angle_gamma 155.872754
_cell_volume 517.155354
_symmetry_space_group_name_H-M "P -1"
_symmetry_group_IT_number 2
_symmetry_cell_setting 'triclinic'
loop_
_space_group_symop_operation_xyz
x,y,z
-x,-y,-z
loop_
_atom_site_type_symbol
_atom_site_label
_atom_site_fract_x
_atom_site_fract_y
_atom_site_fract_z
Si Si1 0.740427 0.997939 0.448238
Si Si2 0.143455 0.960265 0.100235
Si Si3 0.500000 0.500000 0.000000
Si Si4 0.817482 0.075532 0.052343
Si Si5 0.297693 0.671292 0.381388
Si Si6 0.671952 0.227747 0.240197
Si Si7 0.799282 0.642655 0.862522
O O1 0.493100 0.841290 0.397505
O O2 0.826515 0.219409 0.285251
O O3 0.602437 0.766454 0.723108
O O4 0.023195 0.157698 0.368363
O O5 0.215877 0.034656 0.935851
O O6 0.930228 0.645783 0.367999
O O7 0.442985 0.146939 0.123062
O O8 0.000000 0.000000 0.000000
O O9 0.514074 0.524573 0.110894
O O10 0.854231 0.283718 0.792555
O O11 0.102211 0.244617 0.094908
O O12 0.535028 0.833401 0.243506
O O13 0.500000 0.000000 0.500000
O O14 0.860000 0.509823 0.060514
#
# Coordination Sequence:
#
# PCOD9032716 Si02
#       7
#     2   2   1   2   2   2   2
#     4  11  24  45  70  99 133 183 229 282 338 409
#     4  12  27  43  68 101 141 180 224 287 341 399
#     4  12  24  42  64 100 138 170 226 274 348 400
#     4  10  22  45  72  97 125 179 228 274 336 412
#     4  10  22  43  73  96 126 174 233 274 333 409
#     4  12  25  45  69 104 141 184 229 282 344 406
#     4  11  25  43  71 101 137 178 224 285 344 410
#
# _framework density 25.137515
#
# number of rings (size 3 to 8) (size 9 to 14) (size 15 to 20)
#    0.000    0.923    3.077    3.231    4.308    0.615 
#    2.769    0.000    0.000    0.000    0.000    0.000 
#    0.000    0.000    0.000    0.000    0.000    0.000 
#
# Total GULP energy -72675.593021 kJ/mol
# GULP energy per Si atom -5590.430232 kJ/mol
# Density = 2.508030 g / cm^3
# Si number density = 25.137515 Si / 1000 Ang^3
#
#
#
# Elastic Constant Matrix: (Units=GPa)
#
#
# Indices 1 2 3 4 5 6 
#
# 1 203.5517 22.4116 27.7553 4.2841 -11.4235 -5.6635
# 2 22.4116 71.3158 3.9957 25.5348 -0.5364 -5.9677
# 3 27.7553 3.9957 89.8978 0.7427 -12.3953 4.1620
# 4 4.2841 25.5348 0.7427 35.3890 2.4340 -2.1765
# 5 -11.4235 -0.5364 -12.3953 2.4340 57.0397 -0.6257
# 6 -5.6635 -5.9677 4.1620 -2.1765 -0.6257 34.3002
#
#
#
# Elastic Compliance Matrix: (Units=1/GPa)
#
#
# Indices 1 2 3 4 5 6 
#
# 1 0.005363 -0.001761 -0.001523 0.000655 0.000708 0.000818
# 2 -0.001761 0.019777 -0.000273 -0.013936 0.000394 0.002306
# 3 -0.001523 -0.000273 0.012002 -0.000134 0.002287 -0.001722
# 4 0.000655 -0.013936 -0.000134 0.038357 -0.001665 0.000103
# 5 0.000708 0.000394 0.002287 -0.001665 0.018247 0.000135
# 6 0.000818 0.002306 -0.001722 0.000103 0.000135 0.029909
#
#
# Mechanical properties :
#
#
# Convention : Reuss Voigt Hill
#
# Bulk Modulus (GPa) = 33.30160 52.56561 42.93361
# Shear Modulus (GPa) = 35.51707 46.05263 40.78485
#
# Velocity S-wave (km/s) = 3.76295 4.28486 4.03236
# Velocity P-wave (km/s) = 5.67065 6.74067 6.22868
#
# Compressibility (1/GPa) = 0.03002859
#
# Stress axis : x y z
#
# Youngs Moduli (GPa) = 186.46224 50.56504 83.31664
#
# Poissons Ratio (x) = 0.08903 0.12692
# Poissons Ratio (y) = 0.32830 0.02272
# Poissons Ratio (z) = 0.28404 0.01379
#
# Static dielectric constant tensor:
#      x y z
#    x 2.063160 0.006840 -0.044500 
#    y 0.006840 2.133420 -0.050480 
#    z -0.044500 -0.050480 1.950360 
# 
# From -- ./inp_files/178133.got.cif
#   From: 2010.05.17/outbox.cif.g08.bks.cpg/sg2_90_cif.got.tgz:178133.got - 2010.06.03 11:33:40.
