data_PCOD9032708
_publ_section_title
;
Structure prediction by ZEFSAII (Michael W. Deem and Ramdas Pophale) SiO2 
 PCOD9032708
Probable space group: P -1
;
_chemical_formula_sum "Si O2"
_cell_formula_units_Z 16
_cell_length_a 15.732373
_cell_length_b 7.510002
_cell_length_c 8.959586
_cell_angle_alpha 122.257471
_cell_angle_beta 60.203497
_cell_angle_gamma 79.271006
_cell_volume 612.514334
_symmetry_space_group_name_H-M "P -1"
_symmetry_group_IT_number 2
_symmetry_cell_setting 'triclinic'
loop_
_space_group_symop_operation_xyz
x,y,z
-x,-y,-z
loop_
_atom_site_type_symbol
_atom_site_label
_atom_site_fract_x
_atom_site_fract_y
_atom_site_fract_z
Si Si1 0.443876 0.728572 0.977643
Si Si2 0.517322 0.919755 0.736903
Si Si3 0.212924 0.388147 0.653784
Si Si4 0.580188 0.267270 0.449014
Si Si5 0.033302 0.540776 0.652663
Si Si6 0.212665 0.270443 0.926079
Si Si7 0.983557 0.037087 0.779967
Si Si8 0.799001 0.233466 0.755604
O O1 0.322655 0.748563 0.118743
O O2 0.483144 0.832034 0.121951
O O3 0.433880 0.911423 0.930665
O O4 0.550593 0.427479 0.696755
O O5 0.660885 0.658779 0.518658
O O6 0.476553 0.889785 0.598854
O O7 0.164858 0.332898 0.524525
O O8 0.249390 0.218335 0.697103
O O9 0.097266 0.678652 0.941666
O O10 0.500000 0.500000 0.500000
O O11 0.277110 0.979903 0.812550
O O12 0.000000 0.500000 0.500000
O O13 0.933354 0.568597 0.860038
O O14 0.015512 0.811449 0.765227
O O15 0.236433 0.468842 0.067775
O O16 0.890255 0.079500 0.749444
O O17 0.112902 0.923419 0.534338
#
# Coordination Sequence:
#
# PCOD9032708 Si02
#       8
#     2   2   2   2   2   2   2   2
#     4  10  23  43  72 103 150 198 242 312 373 436
#     4  10  24  44  73 109 145 196 256 300 370 454
#     4  11  26  47  72 110 156 191 248 317 370 456
#     4  10  23  45  76 106 145 198 252 308 373 444
#     4  12  26  43  76 110 147 201 249 308 378 452
#     4  11  25  46  76 113 153 196 251 312 385 445
#     4  10  23  44  71 109 147 198 247 300 381 453
#     4  10  22  43  73 109 154 193 244 312 380 448
#
# _framework density 26.121838
#
# number of rings (size 3 to 8) (size 9 to 14) (size 15 to 20)
#    0.000    1.500    1.250    2.250    8.750    4.000 
#    0.000    2.500    0.000    0.000    0.000    0.000 
#    0.000    0.000    0.000    0.000    0.000    0.000 
#
# Total GULP energy -89470.003716 kJ/mol
# GULP energy per Si atom -5591.875232 kJ/mol
# Density = 2.606238 g / cm^3
# Si number density = 26.121838 Si / 1000 Ang^3
#
#
#
# Elastic Constant Matrix: (Units=GPa)
#
#
# Indices 1 2 3 4 5 6 
#
# 1 59.5459 -9.5546 27.7487 -4.1346 -10.7437 30.0046
# 2 -9.5546 93.6508 42.0964 1.0162 -8.2413 0.9114
# 3 27.7487 42.0964 124.6053 11.4812 -9.6558 17.6302
# 4 -4.1346 1.0162 11.4812 54.3170 8.0140 -4.8262
# 5 -10.7437 -8.2413 -9.6558 8.0140 49.6901 -2.9152
# 6 30.0046 0.9114 17.6302 -4.8262 -2.9152 43.5583
#
#
#
# Elastic Compliance Matrix: (Units=1/GPa)
#
#
# Indices 1 2 3 4 5 6 
#
# 1 0.031189 0.006627 -0.006239 0.001125 0.005357 -0.018614
# 2 0.006627 0.014210 -0.005863 0.000930 0.002369 -0.002227
# 3 -0.006239 -0.005863 0.011795 -0.002977 0.000412 -0.000656
# 4 0.001125 0.000930 -0.002977 0.019797 -0.003234 0.002388
# 5 0.005357 0.002369 0.000412 -0.003234 0.022114 -0.002785
# 6 -0.018614 -0.002227 -0.000656 0.002388 -0.002785 0.036170
#
#
# Mechanical properties :
#
#
# Convention : Reuss Voigt Hill
#
# Bulk Modulus (GPa) = 21.62548 44.26479 32.94513
# Shear Modulus (GPa) = 30.93299 44.01385 37.47342
#
# Velocity S-wave (km/s) = 3.44493 4.10926 3.79167
# Velocity P-wave (km/s) = 4.91121 6.28466 5.63990
#
# Compressibility (1/GPa) = 0.04624175
#
# Stress axis : x y z
#
# Youngs Moduli (GPa) = 32.06301 70.37431 84.78409
#
# Poissons Ratio (x) = -0.46636 0.52898
# Poissons Ratio (y) = -0.21248 0.49712
# Poissons Ratio (z) = 0.20004 0.41263
#
# Static dielectric constant tensor:
#      x y z
#    x 2.100310 -0.015690 0.096020 
#    y -0.015690 2.150470 0.025090 
#    z 0.096020 0.025090 2.091360 
# 
# From -- ./inp_files/327783.got.cif
#   From: 2010.05.17/outbox.cif.g08.bks.cpg/sg2_164_cif.got.tgz:327783.got - 2010.06.03 11:33:40.
