data_PCOD9032314
_publ_section_title
;
Structure prediction by ZEFSAII (Michael W. Deem and Ramdas Pophale) SiO2 
 PCOD9032314
Probable space group: P -1
;
_chemical_formula_sum "Si O2"
_cell_formula_units_Z 12
_cell_length_a 9.953917
_cell_length_b 11.035154
_cell_length_c 5.278287
_cell_angle_alpha 107.652096
_cell_angle_beta 103.309831
_cell_angle_gamma 86.062407
_cell_volume 537.643570
_symmetry_space_group_name_H-M "P -1"
_symmetry_group_IT_number 2
_symmetry_cell_setting 'triclinic'
loop_
_space_group_symop_operation_xyz
x,y,z
-x,-y,-z
loop_
_atom_site_type_symbol
_atom_site_label
_atom_site_fract_x
_atom_site_fract_y
_atom_site_fract_z
Si Si1 0.836116 0.991370 0.430182
Si Si2 0.638092 0.766016 0.199639
Si Si3 0.373424 0.402567 0.408181
Si Si4 0.650088 0.177840 0.753584
Si Si5 0.919257 0.458226 0.687244
Si Si6 0.244566 0.766507 0.666555
O O1 0.774658 0.851399 0.307950
O O2 0.783766 0.082661 0.238831
O O3 0.000000 0.000000 0.500000
O O4 0.758789 0.065775 0.672978
O O5 0.355135 0.754805 0.480791
O O6 0.619585 0.698431 0.880726
O O7 0.503778 0.855303 0.247567
O O8 0.500000 0.500000 0.500000
O O9 0.231103 0.478453 0.347708
O O10 0.362309 0.335092 0.635228
O O11 0.708633 0.270475 0.057021
O O12 0.887195 0.308375 0.543996
O O13 0.000000 0.500000 0.500000
O O14 0.000000 0.500000 0.000000
#
# Coordination Sequence:
#
# PCOD9032314 Si02
#       6
#     2   2   2   2   2   2
#     4  10  27  43  71 100 141 178 229 286 347 407
#     4  12  25  45  73 103 137 181 231 281 347 410
#     4  12  28  46  73 104 143 180 235 287 339 413
#     4  10  22  43  70  96 136 173 226 277 351 399
#     4  12  26  45  71 100 138 186 232 281 344 408
#     4  10  24  43  70  96 137 176 230 279 348 397
#
# _framework density 22.319617999999998
#
# number of rings (size 3 to 8) (size 9 to 14) (size 15 to 20)
#    1.000    0.000    0.000    6.000    7.000    1.333 
#    0.000    0.000    0.000    0.000    0.000    0.000 
#    0.000    0.000    0.000    0.000    0.000    0.000 
#
# Total GULP energy -66975.516060 kJ/mol
# GULP energy per Si atom -5581.293005 kJ/mol
# Density = 2.226882 g / cm^3
# Si number density = 22.319618 Si / 1000 Ang^3
#
#
#
# Elastic Constant Matrix: (Units=GPa)
#
#
# Indices 1 2 3 4 5 6 
#
# 1 182.8691 33.6256 51.3892 7.2420 -0.2128 14.6651
# 2 33.6256 63.4858 27.2313 -6.6499 3.2871 17.5322
# 3 51.3892 27.2313 158.9201 -19.3011 17.3991 7.9083
# 4 7.2420 -6.6499 -19.3011 28.2137 -5.6509 3.5589
# 5 -0.2128 3.2871 17.3991 -5.6509 34.6819 8.7269
# 6 14.6651 17.5322 7.9083 3.5589 8.7269 44.9065
#
#
#
# Elastic Compliance Matrix: (Units=1/GPa)
#
#
# Indices 1 2 3 4 5 6 
#
# 1 0.006831 -0.002936 -0.002234 -0.003702 0.000986 -0.000589
# 2 -0.002936 0.020647 -0.001700 0.005761 0.001728 -0.007595
# 3 -0.002234 -0.001700 0.008278 0.005176 -0.003199 0.000147
# 4 -0.003702 0.005761 0.005176 0.043207 0.005496 -0.006444
# 5 0.000986 0.001728 -0.003199 0.005496 0.033009 -0.007284
# 6 -0.000589 -0.007595 0.000147 -0.006444 -0.007284 0.027327
#
#
# Mechanical properties :
#
#
# Convention : Reuss Voigt Hill
#
# Bulk Modulus (GPa) = 45.42141 69.97414 57.69778
# Shear Modulus (GPa) = 31.17650 41.09566 36.13608
#
# Velocity S-wave (km/s) = 3.74146 4.29562 4.02808
# Velocity P-wave (km/s) = 6.24975 7.48479 6.89498
#
# Compressibility (1/GPa) = 0.02201605
#
# Stress axis : x y z
#
# Youngs Moduli (GPa) = 146.38990 48.43244 120.80489
#
# Poissons Ratio (x) = 0.14219 0.26989
# Poissons Ratio (y) = 0.42978 0.20538
# Poissons Ratio (z) = 0.32705 0.08234
#
# Static dielectric constant tensor:
#      x y z
#    x 1.923440 -0.093540 0.022420 
#    y -0.093540 2.106890 -0.083310 
#    z 0.022420 -0.083310 1.875790 
# 
# From -- ./inp_files/33555.got.cif
#   From: 2010.05.17/outbox.cif.g08.bks.cpg/sg2_17_cif.got.tgz:33555.got - 2010.06.03 11:33:40.
