data_PCOD9032251
_publ_section_title
;
Structure prediction by ZEFSAII (Michael W. Deem and Ramdas Pophale) SiO2 
 PCOD9032251
Probable space group: P -1
;
_chemical_formula_sum "Si O2"
_cell_formula_units_Z 12
_cell_length_a 8.092428
_cell_length_b 15.366710
_cell_length_c 5.433999
_cell_angle_alpha 74.629831
_cell_angle_beta 122.263972
_cell_angle_gamma 118.673884
_cell_volume 501.293423
_symmetry_space_group_name_H-M "P -1"
_symmetry_group_IT_number 2
_symmetry_cell_setting 'triclinic'
loop_
_space_group_symop_operation_xyz
x,y,z
-x,-y,-z
loop_
_atom_site_type_symbol
_atom_site_label
_atom_site_fract_x
_atom_site_fract_y
_atom_site_fract_z
Si Si1 0.086447 0.752387 0.972370
Si Si2 0.431029 0.895142 0.770842
Si Si3 0.647379 0.596082 0.700210
Si Si4 0.863832 0.477784 0.161501
Si Si5 0.374534 0.706501 0.615026
Si Si6 0.150935 0.944665 0.119216
O O1 0.285902 0.820978 0.915356
O O2 0.878144 0.675135 0.721873
O O3 0.179954 0.701236 0.287298
O O4 0.025812 0.833890 0.001009
O O5 0.488371 0.821734 0.691052
O O6 0.278173 0.934055 0.469317
O O7 0.652831 0.984818 0.952276
O O8 0.500000 0.500000 0.500000
O O9 0.515795 0.658187 0.628746
O O10 0.728070 0.543768 0.015668
O O11 0.000000 0.500000 0.500000
O O12 0.710731 0.361629 0.158038
O O13 0.000000 0.500000 0.000000
O O14 0.000000 0.000000 0.000000
#
# Coordination Sequence:
#
# PCOD9032251 Si02
#       6
#     2   2   2   2   2   2
#     4  11  24  46  70 102 145 188 240 304 375 438
#     4  10  23  42  70 101 141 185 233 303 371 447
#     4  12  27  45  72 106 145 199 254 306 369 441
#     4  12  25  48  74 101 149 199 251 315 377 438
#     4  11  25  44  68 102 143 188 246 303 372 444
#     4  10  22  43  70 104 139 179 236 299 372 450
#
# _framework density 23.938078999999998
#
# number of rings (size 3 to 8) (size 9 to 14) (size 15 to 20)
#    0.000    1.000    1.667    4.000    2.333    2.000 
#    6.000    0.000    0.000    0.000    0.000    0.000 
#    0.000    0.000    0.000    0.000    0.000    0.000 
#
# Total GULP energy -67100.580044 kJ/mol
# GULP energy per Si atom -5591.715004 kJ/mol
# Density = 2.388359 g / cm^3
# Si number density = 23.938079 Si / 1000 Ang^3
#
#
#
# Elastic Constant Matrix: (Units=GPa)
#
#
# Indices 1 2 3 4 5 6 
#
# 1 133.8606 54.5032 46.7848 -20.2438 23.2166 -14.7303
# 2 54.5032 150.8750 46.4839 -2.9900 23.6598 -1.6938
# 3 46.7848 46.4839 81.5056 -13.3220 13.7852 -6.7987
# 4 -20.2438 -2.9900 -13.3220 49.7893 -1.8538 4.5713
# 5 23.2166 23.6598 13.7852 -1.8538 41.1223 -20.3017
# 6 -14.7303 -1.6938 -6.7987 4.5713 -20.3017 60.1761
#
#
#
# Elastic Compliance Matrix: (Units=1/GPa)
#
#
# Indices 1 2 3 4 5 6 
#
# 1 0.010778 -0.002164 -0.003884 0.003019 -0.002951 0.000914
# 2 -0.002164 0.009081 -0.003668 -0.001285 -0.003747 -0.001855
# 3 -0.003884 -0.003668 0.017270 0.002751 -0.001227 0.000274
# 4 0.003019 -0.001285 0.002751 0.022022 -0.001464 -0.001153
# 5 -0.002951 -0.003747 -0.001227 -0.001464 0.033671 0.010504
# 6 0.000914 -0.001855 0.000274 -0.001153 0.010504 0.020452
#
#
# Mechanical properties :
#
#
# Convention : Reuss Voigt Hill
#
# Bulk Modulus (GPa) = 56.50354 73.53166 65.01760
# Shear Modulus (GPa) = 36.07376 44.78218 40.42797
#
# Velocity S-wave (km/s) = 3.88617 4.32991 4.11403
# Velocity P-wave (km/s) = 6.61753 7.46871 7.05597
#
# Compressibility (1/GPa) = 0.01769801
#
# Stress axis : x y z
#
# Youngs Moduli (GPa) = 92.78278 110.11740 57.90331
#
# Poissons Ratio (x) = 0.23831 0.22487
# Poissons Ratio (y) = 0.20080 0.21239
# Poissons Ratio (z) = 0.36032 0.40390
#
# Static dielectric constant tensor:
#      x y z
#    x 1.982290 0.018260 -0.058200 
#    y 0.018260 2.049830 0.042000 
#    z -0.058200 0.042000 1.908600 
# 
# From -- ./inp_files/37055.got.cif
#   From: 2010.05.17/outbox.cif.g08.bks.cpg/sg2_19_cif.got.tgz:37055.got - 2010.06.03 11:33:40.
