data_PCOD9032240
_publ_section_title
;
Structure prediction by ZEFSAII (Michael W. Deem and Ramdas Pophale) SiO2 
 PCOD9032240
Probable space group: P -1
;
_chemical_formula_sum "Si O2"
_cell_formula_units_Z 14
_cell_length_a 10.890544
_cell_length_b 10.736785
_cell_length_c 7.022238
_cell_angle_alpha 125.284757
_cell_angle_beta 122.609578
_cell_angle_gamma 72.871604
_cell_volume 564.435174
_symmetry_space_group_name_H-M "P -1"
_symmetry_group_IT_number 2
_symmetry_cell_setting 'triclinic'
loop_
_space_group_symop_operation_xyz
x,y,z
-x,-y,-z
loop_
_atom_site_type_symbol
_atom_site_label
_atom_site_fract_x
_atom_site_fract_y
_atom_site_fract_z
Si Si1 0.058407 0.043232 0.793178
Si Si2 0.331589 0.355612 0.738506
Si Si3 0.652730 0.477400 0.719249
Si Si4 0.259819 0.612835 0.657471
Si Si5 0.010640 0.247106 0.254764
Si Si6 0.641803 0.053041 0.932422
Si Si7 0.417968 0.833859 0.409438
O O1 0.000649 0.193585 0.980189
O O2 0.000000 0.000000 0.500000
O O3 0.012890 0.901233 0.763455
O O4 0.234095 0.046368 0.956253
O O5 0.362525 0.512548 0.786779
O O6 0.172108 0.306913 0.488103
O O7 0.445935 0.233899 0.655690
O O8 0.325408 0.394037 0.989701
O O9 0.500000 0.500000 0.500000
O O10 0.767938 0.472584 0.639501
O O11 0.651894 0.312264 0.675523
O O12 0.115193 0.643552 0.683223
O O13 0.339200 0.775556 0.821379
O O14 0.674461 0.085335 0.761096
O O15 0.489079 0.959783 0.721509
#
# Coordination Sequence:
#
# PCOD9032240 Si02
#       7
#     2   2   2   2   2   2   2
#     4  10  22  45  72 101 141 176 231 291 344 410
#     4  12  23  44  71  95 144 182 223 290 345 412
#     4  12  25  41  69 102 139 183 233 283 344 414
#     4  11  24  43  66 102 138 179 235 278 351 410
#     4  10  24  43  68 102 134 182 227 283 354 406
#     4  10  22  43  70 103 132 180 232 280 353 401
#     4  11  22  43  72  99 139 182 231 284 341 415
#
# _framework density 24.803557999999999
#
# number of rings (size 3 to 8) (size 9 to 14) (size 15 to 20)
#    0.000    1.143    4.286    1.714    0.000    5.714 
#    5.143    0.000    0.000    0.000    0.000    0.000 
#    0.000    0.000    0.000    0.000    0.000    0.000 
#
# Total GULP energy -78379.591113 kJ/mol
# GULP energy per Si atom -5598.542222 kJ/mol
# Density = 2.474710 g / cm^3
# Si number density = 24.803558 Si / 1000 Ang^3
#
#
#
# Elastic Constant Matrix: (Units=GPa)
#
#
# Indices 1 2 3 4 5 6 
#
# 1 77.5291 17.2119 58.3111 -0.2482 -14.9017 -23.0540
# 2 17.2119 57.3411 11.4418 -8.3629 -6.5311 -14.4199
# 3 58.3111 11.4418 182.5957 -14.8470 -30.4908 -15.4627
# 4 -0.2482 -8.3629 -14.8470 38.4115 0.0652 2.3957
# 5 -14.9017 -6.5311 -30.4908 0.0652 44.6112 6.4556
# 6 -23.0540 -14.4199 -15.4627 2.3957 6.4556 28.6965
#
#
#
# Elastic Compliance Matrix: (Units=1/GPa)
#
#
# Indices 1 2 3 4 5 6 
#
# 1 0.022006 -0.002472 -0.005849 -0.003490 0.001066 0.013336
# 2 -0.002472 0.020903 0.000792 0.004325 0.001579 0.008228
# 3 -0.005849 0.000792 0.008120 0.003333 0.003862 -0.001073
# 4 -0.003490 0.004325 0.003333 0.028340 0.001941 -0.001637
# 5 0.001066 0.001579 0.003862 0.001941 0.025969 -0.002273
# 6 0.013336 0.008228 -0.001073 -0.001637 -0.002273 0.049766
#
#
# Mechanical properties :
#
#
# Convention : Reuss Voigt Hill
#
# Bulk Modulus (GPa) = 27.80058 54.59950 41.20004
# Shear Modulus (GPa) = 27.44938 37.71059 32.57999
#
# Velocity S-wave (km/s) = 3.33028 3.90342 3.62818
# Velocity P-wave (km/s) = 5.10101 6.50970 5.84792
#
# Compressibility (1/GPa) = 0.03597047
#
# Stress axis : x y z
#
# Youngs Moduli (GPa) = 45.44257 47.83915 123.15366
#
# Poissons Ratio (x) = 0.11826 0.72031
# Poissons Ratio (y) = 0.11234 -0.09750
# Poissons Ratio (z) = 0.26579 -0.03787
#
# Static dielectric constant tensor:
#      x y z
#    x 2.015980 -0.005120 0.005430 
#    y -0.005120 1.978840 0.035660 
#    z 0.005430 0.035660 1.995780 
# 
# From -- ./inp_files/65690.got.cif
#   From: 2010.05.17/outbox.cif.g08.bks.cpg/sg2_33_cif.got.tgz:65690.got - 2010.06.03 11:33:40.
