data_PCOD9032639
_publ_section_title
;
Structure prediction by ZEFSAII (Michael W. Deem and Ramdas Pophale) SiO2 
 PCOD9032639
Probable space group: P -1
;
_chemical_formula_sum "Si O2"
_cell_formula_units_Z 12
_cell_length_a 5.280010
_cell_length_b 10.977798
_cell_length_c 14.094370
_cell_angle_alpha 38.299605
_cell_angle_beta 80.504300
_cell_angle_gamma 85.999285
_cell_volume 496.999336
_symmetry_space_group_name_H-M "P -1"
_symmetry_group_IT_number 2
_symmetry_cell_setting 'triclinic'
loop_
_space_group_symop_operation_xyz
x,y,z
-x,-y,-z
loop_
_atom_site_type_symbol
_atom_site_label
_atom_site_fract_x
_atom_site_fract_y
_atom_site_fract_z
Si Si1 0.803352 0.276186 0.602178
Si Si2 0.346857 0.361470 0.497343
Si Si3 0.753292 0.629650 0.944251
Si Si4 0.222828 0.878729 0.092146
Si Si5 0.451278 0.546200 0.191803
Si Si6 0.724728 0.886249 0.611882
O O1 0.533582 0.202091 0.615273
O O2 0.744229 0.500966 0.496191
O O3 0.831301 0.181804 0.759534
O O4 0.067346 0.273779 0.530522
O O5 0.512608 0.492403 0.329476
O O6 0.757379 0.828683 0.758578
O O7 0.500000 0.500000 0.000000
O O8 0.678907 0.643277 0.051808
O O9 0.000000 0.500000 0.000000
O O10 0.240598 0.697498 0.129935
O O11 0.500000 0.000000 0.000000
O O12 0.000000 0.000000 0.000000
O O13 0.332710 0.337035 0.286856
O O14 0.500000 0.000000 0.500000
O O15 0.000000 0.000000 0.500000
#
# Coordination Sequence:
#
# PCOD9032639 Si02
#       6
#     2   2   2   2   2   2
#     4   9  18  35  56  88 128 168 215 278 311 380
#     4   9  18  34  61  87 122 170 218 263 335 388
#     4  10  22  43  72  98 136 179 229 289 356 418
#     4  11  24  42  65  98 143 185 234 274 332 420
#     4  10  24  45  72  99 139 191 224 283 360 410
#     4  11  24  45  70 104 136 171 233 300 351 415
#
# _framework density 24.144901999999998
#
# number of rings (size 3 to 8) (size 9 to 14) (size 15 to 20)
#    0.000    2.000    0.000    3.000    0.000   12.000 
#    9.000    0.000    0.000    0.000    0.000    0.000 
#    0.000    0.000    0.000    0.000    0.000    0.000 
#
# Total GULP energy -66880.104379 kJ/mol
# GULP energy per Si atom -5573.342032 kJ/mol
# Density = 2.408995 g / cm^3
# Si number density = 24.144902 Si / 1000 Ang^3
#
#
#
# Elastic Constant Matrix: (Units=GPa)
#
#
# Indices 1 2 3 4 5 6 
#
# 1 194.4630 30.4230 94.6043 5.8559 35.8470 -39.7659
# 2 30.4230 93.8021 71.3675 9.2189 21.8512 -22.9958
# 3 94.6043 71.3675 188.9289 26.6284 9.0464 -34.2195
# 4 5.8559 9.2189 26.6284 63.7050 -8.1062 -7.3590
# 5 35.8470 21.8512 9.0464 -8.1062 46.4575 -10.1669
# 6 -39.7659 -22.9958 -34.2195 -7.3590 -10.1669 30.9918
#
#
#
# Elastic Compliance Matrix: (Units=1/GPa)
#
#
# Indices 1 2 3 4 5 6 
#
# 1 0.009576 0.003756 -0.004519 0.000590 -0.006394 0.008127
# 2 0.003756 0.018864 -0.007089 -0.000283 -0.008672 0.008078
# 3 -0.004519 -0.007089 0.010626 -0.002200 0.004742 0.001708
# 4 0.000590 -0.000283 -0.002200 0.017518 0.003944 0.003573
# 5 -0.006394 -0.008672 0.004742 0.003944 0.030650 0.001588
# 6 0.008127 0.008078 0.001708 0.003573 0.001588 0.051943
#
#
# Mechanical properties :
#
#
# Convention : Reuss Voigt Hill
#
# Bulk Modulus (GPa) = 42.80257 96.66484 69.73371
# Shear Modulus (GPa) = 30.73761 46.95083 38.84422
#
# Velocity S-wave (km/s) = 3.57185 4.41448 4.01533
# Velocity P-wave (km/s) = 5.89718 8.13054 7.10220
#
# Compressibility (1/GPa) = 0.02336308
#
# Stress axis : x y z
#
# Youngs Moduli (GPa) = 104.42773 53.01131 94.11029
#
# Poissons Ratio (x) = -0.19913 0.42529
# Poissons Ratio (y) = -0.39226 0.66711
# Poissons Ratio (z) = 0.47191 0.37577
#
# Static dielectric constant tensor:
#      x y z
#    x 1.757170 -0.198380 -0.052700 
#    y -0.198380 1.640820 -0.081150 
#    z -0.052700 -0.081150 1.946150 
# 
# From -- ./inp_files/482485.got.cif
#   From: 2010.05.17/outbox.cif.g08.bks.cpg/sg2_242_cif.got.tgz:482485.got - 2010.06.03 11:33:40.
