data_PCOD9032194
_publ_section_title
;
Structure prediction by ZEFSAII (Michael W. Deem and Ramdas Pophale) SiO2 
 PCOD9032194
Probable space group: P -1
;
_chemical_formula_sum "Si O2"
_cell_formula_units_Z 13
_cell_length_a 16.498800
_cell_length_b 6.526250
_cell_length_c 20.348369
_cell_angle_alpha 53.157300
_cell_angle_beta 19.217711
_cell_angle_gamma 52.898336
_cell_volume 571.429316
_symmetry_space_group_name_H-M "P -1"
_symmetry_group_IT_number 2
_symmetry_cell_setting 'triclinic'
loop_
_space_group_symop_operation_xyz
x,y,z
-x,-y,-z
loop_
_atom_site_type_symbol
_atom_site_label
_atom_site_fract_x
_atom_site_fract_y
_atom_site_fract_z
Si Si1 0.836184 0.884359 0.201585
Si Si2 0.417574 0.956290 0.223181
Si Si3 0.500000 0.000000 0.000000
Si Si4 0.258498 0.039330 0.595833
Si Si5 0.231109 0.504376 0.273139
Si Si6 0.073304 0.297958 0.157199
Si Si7 0.970919 0.385611 0.361563
O O1 0.548090 0.930580 0.392565
O O2 0.939487 0.582417 0.189024
O O3 0.842477 0.015814 0.243435
O O4 0.000000 0.000000 0.000000
O O5 0.372258 0.967829 0.177764
O O6 0.201636 0.827597 0.447695
O O7 0.420717 0.243322 0.193259
O O8 0.682317 0.777893 0.058445
O O9 0.360514 0.756901 0.126054
O O10 0.110579 0.906589 0.679312
O O11 0.208419 0.349496 0.569539
O O12 0.000000 0.500000 0.500000
O O13 0.122393 0.464545 0.291997
O O14 0.140383 0.289656 0.186134
#
# Coordination Sequence:
#
# PCOD9032194 Si02
#       7
#     2   2   1   2   2   2   2
#     4  10  22  43  70 100 139 183 228 287 356 421
#     4  12  26  43  69 101 139 186 237 295 354 422
#     4  12  26  46  72  98 138 186 242 292 360 416
#     4  10  23  43  68 103 141 180 234 290 348 426
#     4  12  27  48  71 102 143 189 240 300 354 422
#     4  11  25  43  69 104 140 182 236 292 355 425
#     4  11  25  45  70 102 142 186 239 294 359 416
#
# _framework density 22.749969
#
# number of rings (size 3 to 8) (size 9 to 14) (size 15 to 20)
#    0.000    0.923    1.538    4.154    4.308    4.308 
#    0.000    0.000    0.000    0.000    0.000    0.000 
#    0.000    0.000    0.000    0.000    0.000    0.000 
#
# Total GULP energy -72632.458990 kJ/mol
# GULP energy per Si atom -5587.112230 kJ/mol
# Density = 2.269819 g / cm^3
# Si number density = 22.749969 Si / 1000 Ang^3
#
#
#
# Elastic Constant Matrix: (Units=GPa)
#
#
# Indices 1 2 3 4 5 6 
#
# 1 80.7602 21.0973 37.8900 -6.9957 -4.0794 20.0199
# 2 21.0973 144.2882 64.8239 4.5154 -4.8791 7.8114
# 3 37.8900 64.8239 153.9501 5.9270 14.6167 8.2079
# 4 -6.9957 4.5154 5.9270 51.6008 -0.0203 -2.6782
# 5 -4.0794 -4.8791 14.6167 -0.0203 35.9694 -5.4410
# 6 20.0199 7.8114 8.2079 -2.6782 -5.4410 28.8252
#
#
#
# Elastic Compliance Matrix: (Units=1/GPa)
#
#
# Indices 1 2 3 4 5 6 
#
# 1 0.017035 -0.000229 -0.003827 0.002245 0.001928 -0.010107
# 2 -0.000229 0.008839 -0.003865 -0.000395 0.002641 -0.000673
# 3 -0.003827 -0.003865 0.009579 -0.001286 -0.004861 -0.000059
# 4 0.002245 -0.000395 -0.001286 0.019915 0.000875 0.000929
# 5 0.001928 0.002641 -0.004861 0.000875 0.031154 0.005291
# 6 -0.010107 -0.000673 -0.000059 0.000929 0.005291 0.042996
#
#
# Mechanical properties :
#
#
# Convention : Reuss Voigt Hill
#
# Bulk Modulus (GPa) = 50.99322 69.62455 60.30888
# Shear Modulus (GPa) = 32.91713 40.29155 36.60434
#
# Velocity S-wave (km/s) = 3.80795 4.21296 4.01557
# Velocity P-wave (km/s) = 6.46508 7.37130 6.93301
#
# Compressibility (1/GPa) = 0.01961045
#
# Stress axis : x y z
#
# Youngs Moduli (GPa) = 58.70278 113.13983 104.39524
#
# Poissons Ratio (x) = 0.02596 0.39949
# Poissons Ratio (y) = 0.01347 0.40348
# Poissons Ratio (z) = 0.22464 0.43727
#
# Static dielectric constant tensor:
#      x y z
#    x 1.829770 -0.009060 0.018810 
#    y -0.009060 1.820320 0.031960 
#    z 0.018810 0.031960 1.784840 
# 
# From -- ./inp_files/598885.got.cif
#   From: 2010.05.17/outbox.cif.g08.bks.cpg/sg2_300_cif.got.tgz:598885.got - 2010.06.03 11:33:40.
