data_PCOD9032813
_publ_section_title
;
Structure prediction by ZEFSAII (Michael W. Deem and Ramdas Pophale) SiO2 
 PCOD9032813
Probable space group: P -1
;
_chemical_formula_sum "Si O2"
_cell_formula_units_Z 16
_cell_length_a 14.254725
_cell_length_b 9.268943
_cell_length_c 15.456971
_cell_angle_alpha 93.149734
_cell_angle_beta 46.884492
_cell_angle_gamma 52.842552
_cell_volume 706.453236
_symmetry_space_group_name_H-M "P -1"
_symmetry_group_IT_number 2
_symmetry_cell_setting 'triclinic'
loop_
_space_group_symop_operation_xyz
x,y,z
-x,-y,-z
loop_
_atom_site_type_symbol
_atom_site_label
_atom_site_fract_x
_atom_site_fract_y
_atom_site_fract_z
Si Si1 0.928238 0.355578 0.888141
Si Si2 0.079471 0.322413 0.177806
Si Si3 0.451237 0.757337 0.831366
Si Si4 0.515380 0.811832 0.492075
Si Si5 0.899488 0.522305 0.477472
Si Si6 0.811533 0.165082 0.538933
Si Si7 0.546172 0.137068 0.664351
Si Si8 0.240112 0.765781 0.112334
O O1 0.937457 0.487949 0.824906
O O2 0.820494 0.321822 0.904475
O O3 0.237778 0.028670 0.714785
O O4 0.726930 0.587792 0.100135
O O5 0.797888 0.512302 0.351363
O O6 0.124494 0.268860 0.252498
O O7 0.260943 0.087131 0.974020
O O8 0.736184 0.548171 0.618935
O O9 0.521625 0.534662 0.732967
O O10 0.327398 0.810381 0.998203
O O11 0.516888 0.758070 0.390840
O O12 0.500000 0.000000 0.500000
O O13 0.000000 0.500000 0.500000
O O14 0.688733 0.840882 0.574584
O O15 0.749823 0.056132 0.569353
O O16 0.000000 0.000000 0.500000
O O17 0.983274 0.042132 0.344072
O O18 0.500000 0.500000 0.000000
#
# Coordination Sequence:
#
# PCOD9032813 Si02
#       8
#     2   2   2   2   2   2   2   2
#     4  11  22  42  73 101 132 178 236 281 332 411
#     4  11  25  46  68 105 136 179 229 289 352 387
#     4  12  26  42  66  99 142 176 220 285 348 403
#     4  10  22  43  75  99 131 181 234 294 328 400
#     4  12  26  43  67 102 146 176 222 291 350 408
#     4  12  23  44  69  97 138 183 230 274 333 417
#     4  12  22  43  74 103 131 179 240 274 338 410
#     4  12  24  43  71  97 137 185 230 274 338 419
#
# _framework density 22.648350000000001
#
# number of rings (size 3 to 8) (size 9 to 14) (size 15 to 20)
#    0.000    0.500    7.500    1.500    1.750    4.500 
#    0.000    1.250    0.000    0.000    0.000    0.000 
#    0.000    0.000    0.000    0.000    0.000    0.000 
#
# Total GULP energy -89085.944432 kJ/mol
# GULP energy per Si atom -5567.871527 kJ/mol
# Density = 2.259680 g / cm^3
# Si number density = 22.648350 Si / 1000 Ang^3
#
#
#
# Elastic Constant Matrix: (Units=GPa)
#
#
# Indices 1 2 3 4 5 6 
#
# 1 79.4954 4.0918 5.3799 7.0516 -4.3635 8.5262
# 2 4.0918 39.6752 2.5855 -10.8885 -1.6968 11.7995
# 3 5.3799 2.5855 138.3190 -11.3509 24.5341 2.7847
# 4 7.0516 -10.8885 -11.3509 35.3941 17.7390 -1.3668
# 5 -4.3635 -1.6968 24.5341 17.7390 42.8615 -4.2852
# 6 8.5262 11.7995 2.7847 -1.3668 -4.2852 23.9688
#
#
#
# Elastic Compliance Matrix: (Units=1/GPa)
#
#
# Indices 1 2 3 4 5 6 
#
# 1 0.013989 -0.001891 -0.001805 -0.006439 0.004711 -0.003360
# 2 -0.001891 0.034095 0.002478 0.015124 -0.008221 -0.017007
# 3 -0.001805 0.002478 0.009772 0.009003 -0.009698 -0.002933
# 4 -0.006439 0.015124 0.009003 0.050192 -0.026796 -0.008129
# 5 0.004711 -0.008221 -0.009698 -0.026796 0.041057 0.009310
# 6 -0.003360 -0.017007 -0.002933 -0.008129 0.009310 0.052830
#
#
# Mechanical properties :
#
#
# Convention : Reuss Voigt Hill
#
# Bulk Modulus (GPa) = 18.04450 31.28934 24.66692
# Shear Modulus (GPa) = 22.43711 36.80704 29.62207
#
# Velocity S-wave (km/s) = 3.15091 4.03569 3.62043
# Velocity P-wave (km/s) = 4.60676 5.96331 5.32838
#
# Compressibility (1/GPa) = 0.05541854
#
# Stress axis : x y z
#
# Youngs Moduli (GPa) = 71.48460 29.32968 102.33661
#
# Poissons Ratio (x) = 0.05547 0.18474
# Poissons Ratio (y) = 0.13520 -0.25358
# Poissons Ratio (z) = 0.12904 -0.07267
#
# Static dielectric constant tensor:
#      x y z
#    x 1.742180 -0.133190 0.021080 
#    y -0.133190 1.826750 0.030910 
#    z 0.021080 0.030910 1.864290 
# 
# From -- ./inp_files/529636.got.cif
#   From: 2010.05.17/outbox.cif.g08.bks.cpg/sg2_265_cif.got.tgz:529636.got - 2010.06.03 11:33:40.
