data_PCOD9032311
_publ_section_title
;
Structure prediction by ZEFSAII (Michael W. Deem and Ramdas Pophale) SiO2 
 PCOD9032311
Probable space group: P -1
;
_chemical_formula_sum "Si O2"
_cell_formula_units_Z 14
_cell_length_a 11.706298
_cell_length_b 14.838310
_cell_length_c 9.592199
_cell_angle_alpha 28.245598
_cell_angle_beta 128.560572
_cell_angle_gamma 122.971192
_cell_volume 616.531562
_symmetry_space_group_name_H-M "P -1"
_symmetry_group_IT_number 2
_symmetry_cell_setting 'triclinic'
loop_
_space_group_symop_operation_xyz
x,y,z
-x,-y,-z
loop_
_atom_site_type_symbol
_atom_site_label
_atom_site_fract_x
_atom_site_fract_y
_atom_site_fract_z
Si Si1 0.061261 0.195156 0.346848
Si Si2 0.854269 0.426397 0.251519
Si Si3 0.369725 0.524329 0.758603
Si Si4 0.835660 0.755343 0.343641
Si Si5 0.663462 0.908887 0.760669
Si Si6 0.764968 0.210712 0.234832
Si Si7 0.625068 0.398435 0.645110
O O1 0.163608 0.177528 0.585545
O O2 0.917610 0.278069 0.199863
O O3 0.113695 0.353609 0.061940
O O4 0.000000 0.000000 0.500000
O O5 0.776023 0.406331 0.367157
O O6 0.736387 0.356278 0.141422
O O7 0.000770 0.295315 0.522568
O O8 0.403749 0.639310 0.486966
O O9 0.500000 0.500000 0.000000
O O10 0.345962 0.310888 0.980458
O O11 0.753948 0.553471 0.543324
O O12 0.747118 0.908519 0.972754
O O13 0.500000 0.000000 0.500000
O O14 0.761143 0.010326 0.580610
O O15 0.662253 0.215864 0.016273
O O16 0.500000 0.500000 0.500000
#
# Coordination Sequence:
#
# PCOD9032311 Si02
#       7
#     2   2   2   2   2   2   2
#     4  11  22  40  67 103 137 169 224 290 340 403
#     4  11  21  43  71  96 137 171 233 281 340 409
#     4  11  25  43  66 101 133 179 229 287 340 401
#     4  10  22  43  70  96 132 191 224 274 349 400
#     4  11  24  43  64  97 140 179 229 279 338 403
#     4  11  21  43  64  94 133 178 223 274 338 402
#     4  11  21  40  69  93 127 181 228 263 341 408
#
# _framework density 22.707678000000001
#
# number of rings (size 3 to 8) (size 9 to 14) (size 15 to 20)
#    0.000    1.143    2.857    5.143    0.000    4.571 
#    7.714    0.714    0.000    0.000    0.000    0.000 
#    0.000    0.000    0.000    0.000    0.000    0.000 
#
# Total GULP energy -78093.972000 kJ/mol
# GULP energy per Si atom -5578.140857 kJ/mol
# Density = 2.265599 g / cm^3
# Si number density = 22.707678 Si / 1000 Ang^3
#
#
#
# Elastic Constant Matrix: (Units=GPa)
#
#
# Indices 1 2 3 4 5 6 
#
# 1 104.5787 1.9515 25.4818 23.1793 0.9427 -16.2950
# 2 1.9515 86.9449 32.6593 17.8194 -8.0635 -15.0223
# 3 25.4818 32.6593 127.7197 34.8118 -23.8109 -7.2221
# 4 23.1793 17.8194 34.8118 40.2134 -3.6743 -5.1926
# 5 0.9427 -8.0635 -23.8109 -3.6743 32.6231 2.4633
# 6 -16.2950 -15.0223 -7.2221 -5.1926 2.4633 31.4989
#
#
#
# Elastic Compliance Matrix: (Units=1/GPa)
#
#
# Indices 1 2 3 4 5 6 
#
# 1 0.012247 0.002438 -0.001340 -0.006342 -0.001919 0.006296
# 2 0.002438 0.014579 -0.002362 -0.004873 0.000746 0.006811
# 3 -0.001340 -0.002362 0.012316 -0.008273 0.007584 -0.000953
# 4 -0.006342 -0.004873 -0.008273 0.037448 -0.002757 -0.001113
# 5 -0.001919 0.000746 0.007584 -0.002757 0.036283 -0.002190
# 6 0.006296 0.006811 -0.000953 -0.001113 -0.002190 0.038022
#
#
# Mechanical properties :
#
#
# Convention : Reuss Voigt Hill
#
# Bulk Modulus (GPa) = 27.31202 48.82537 38.06870
# Shear Modulus (GPa) = 30.18828 38.14379 34.16603
#
# Velocity S-wave (km/s) = 3.65009 4.10295 3.88313
# Velocity P-wave (km/s) = 5.46059 6.63280 6.07503
#
# Compressibility (1/GPa) = 0.03661392
#
# Stress axis : x y z
#
# Youngs Moduli (GPa) = 81.65157 68.59300 81.19635
#
# Poissons Ratio (x) = -0.16724 0.10881
# Poissons Ratio (y) = -0.19907 0.19178
# Poissons Ratio (z) = 0.10942 0.16201
#
# Static dielectric constant tensor:
#      x y z
#    x 1.882550 0.082260 0.072120 
#    y 0.082260 1.716880 -0.051990 
#    z 0.072120 -0.051990 1.852640 
# 
# From -- ./inp_files/178169.got.cif
#   From: 2010.05.17/outbox.cif.g08.bks.cpg/sg2_90_cif.got.tgz:178169.got - 2010.06.03 11:33:40.
