data_PCOD9032535
_publ_section_title
;
Structure prediction by ZEFSAII (Michael W. Deem and Ramdas Pophale) SiO2 
 PCOD9032535
Probable space group: P -1
;
_chemical_formula_sum "Si O2"
_cell_formula_units_Z 14
_cell_length_a 9.022664
_cell_length_b 8.446516
_cell_length_c 12.625774
_cell_angle_alpha 108.542970
_cell_angle_beta 54.143446
_cell_angle_gamma 135.133099
_cell_volume 542.163042
_symmetry_space_group_name_H-M "P -1"
_symmetry_group_IT_number 2
_symmetry_cell_setting 'triclinic'
loop_
_space_group_symop_operation_xyz
x,y,z
-x,-y,-z
loop_
_atom_site_type_symbol
_atom_site_label
_atom_site_fract_x
_atom_site_fract_y
_atom_site_fract_z
Si Si1 0.618399 0.221177 0.151267
Si Si2 0.297299 0.261271 0.718996
Si Si3 0.206517 0.826589 0.372229
Si Si4 0.606956 0.425918 0.822900
Si Si5 0.283687 0.071505 0.054518
Si Si6 0.235553 0.519702 0.668535
Si Si7 0.838525 0.185669 0.361612
O O1 0.468061 0.182802 0.102005
O O2 0.831803 0.448219 0.177559
O O3 0.408256 0.086084 0.303860
O O4 0.705066 0.092263 0.053112
O O5 0.457967 0.410668 0.784820
O O6 0.378523 0.441198 0.632994
O O7 0.324209 0.079912 0.648449
O O8 0.001728 0.091118 0.826935
O O9 0.322670 0.719057 0.273879
O O10 0.134815 0.786655 0.516522
O O11 0.978348 0.698398 0.359828
O O12 0.884924 0.669121 0.771925
O O13 0.413356 0.285721 0.969140
O O14 0.266277 0.709765 0.625469
#
# Coordination Sequence:
#
# PCOD9032535 Si02
#       7
#     2   2   2   2   2   2   2
#     4  10  22  43  72 101 137 185 225 287 344 403
#     4  12  26  44  69 111 138 177 236 282 344 416
#     4  10  22  48  70 100 141 181 234 284 340 415
#     4  10  23  43  70 100 140 182 228 284 349 402
#     4  10  22  45  68 104 144 174 233 283 341 420
#     4  11  24  44  71 102 135 184 231 274 351 408
#     4  11  26  47  71 100 143 183 228 290 340 407
#
# _framework density 25.822489000000001
#
# number of rings (size 3 to 8) (size 9 to 14) (size 15 to 20)
#    0.000    1.429    1.429    3.857    4.000    5.143 
#    2.571    5.000    0.000    0.000    0.000    0.000 
#    0.000    0.000    0.000    0.000    0.000    0.000 
#
# Total GULP energy -78167.391297 kJ/mol
# GULP energy per Si atom -5583.385093 kJ/mol
# Density = 2.576372 g / cm^3
# Si number density = 25.822489 Si / 1000 Ang^3
#
#
#
# Elastic Constant Matrix: (Units=GPa)
#
#
# Indices 1 2 3 4 5 6 
#
# 1 -92.0323 -5.8578 -233.8018 -247.1020 66.4366 18.2051
# 2 -5.8578 120.1584 -6.8555 -33.1114 3.7706 -31.0454
# 3 -233.8018 -6.8555 -200.6827 -307.9638 53.9647 35.8276
# 4 -247.1020 -33.1114 -307.9638 -199.4256 33.8951 35.9880
# 5 66.4366 3.7706 53.9647 33.8951 40.8035 -1.2213
# 6 18.2051 -31.0454 35.8276 35.9880 -1.2213 38.9585
#
#
#
# Elastic Compliance Matrix: (Units=1/GPa)
#
#
# Indices 1 2 3 4 5 6 
#
# 1 0.008694 0.000161 -0.004400 -0.004138 -0.004801 0.003783
# 2 0.000161 0.010819 -0.001221 0.001326 -0.000496 0.008429
# 3 -0.004400 -0.001221 0.006106 -0.003610 0.002166 -0.001129
# 4 -0.004138 0.001326 -0.003610 0.006559 0.005954 0.000438
# 5 -0.004801 -0.000496 0.002166 0.005954 0.024413 -0.004879
# 6 0.003783 0.008429 -0.001129 0.000438 -0.004879 0.031097
#
#
# Mechanical properties :
#
#
# Convention : Reuss Voigt Hill
#
# Bulk Modulus (GPa) = 68.02870 -73.95409 -2.96269
# Shear Modulus (GPa) = 48.30588 -19.00214 14.65187
#
# Velocity S-wave (km/s) = 4.32984 -2.71565 2.38462
# Velocity P-wave (km/s) = 7.16928 6.20762 2.53615
#
# Compressibility (1/GPa) = 0.01469968
#
# Stress axis : x y z
#
# Youngs Moduli (GPa) = 115.02503 92.42777 163.77644
#
# Poissons Ratio (x) = -0.01486 0.72057
# Poissons Ratio (y) = -0.01849 0.19992
# Poissons Ratio (z) = 0.50608 0.11283
#
# Static dielectric constant tensor:
#      x y z
#    x 2.007070 -0.024810 -0.030050 
#    y -0.024810 2.127620 0.039180 
#    z -0.030050 0.039180 2.013170 
# 
# From -- ./inp_files/382880.got.cif
#   From: 2010.05.17/outbox.cif.g08.bks.cpg/sg2_192_cif.got.tgz:382880.got - 2010.06.03 11:33:40.
