data_PCOD9032115
_publ_section_title
;
Structure prediction by ZEFSAII (Michael W. Deem and Ramdas Pophale) SiO2 
 PCOD9032115
Probable space group: P -1
;
_chemical_formula_sum "Si O2"
_cell_formula_units_Z 14
_cell_length_a 7.006527
_cell_length_b 10.782868
_cell_length_c 12.081912
_cell_angle_alpha 77.060059
_cell_angle_beta 98.441777
_cell_angle_gamma 44.516401
_cell_volume 557.464350
_symmetry_space_group_name_H-M "P -1"
_symmetry_group_IT_number 2
_symmetry_cell_setting 'triclinic'
loop_
_space_group_symop_operation_xyz
x,y,z
-x,-y,-z
loop_
_atom_site_type_symbol
_atom_site_label
_atom_site_fract_x
_atom_site_fract_y
_atom_site_fract_z
Si Si1 0.236865 0.763532 0.046840
Si Si2 0.478980 0.552069 0.693180
Si Si3 0.839738 0.799030 0.614710
Si Si4 0.590918 0.213441 0.160189
Si Si5 0.347514 0.073132 0.093442
Si Si6 0.230497 0.419913 0.439233
Si Si7 0.259677 0.935123 0.288205
O O1 0.415085 0.626790 0.196852
O O2 0.456210 0.688143 0.979511
O O3 0.010555 0.765556 0.990702
O O4 0.000000 0.000000 0.000000
O O5 0.472944 0.668809 0.760829
O O6 0.714860 0.473667 0.634730
O O7 0.133860 0.701535 0.592040
O O8 0.849670 0.642947 0.648590
O O9 0.500000 0.000000 0.500000
O O10 0.864040 0.866424 0.714544
O O11 0.432783 0.158375 0.147128
O O12 0.957976 0.008072 0.229889
O O13 0.444198 0.897041 0.206727
O O14 0.500000 0.000000 0.000000
O O15 0.547214 0.226438 0.566653
O O16 0.000000 0.500000 0.500000
#
# Coordination Sequence:
#
# PCOD9032115 Si02
#       7
#     2   2   2   2   2   2   2
#     4  11  24  42  64 102 137 178 229 285 344 409
#     4  11  25  43  70 101 139 186 229 286 347 406
#     4   9  21  44  68  97 137 179 230 279 340 412
#     4  10  22  43  69  97 133 178 234 282 337 407
#     4  11  22  38  67  94 130 183 225 275 339 399
#     4  11  25  41  64 101 139 178 228 287 340 413
#     4   9  22  40  64  96 132 177 228 277 336 408
#
# _framework density 25.113714000000002
#
# number of rings (size 3 to 8) (size 9 to 14) (size 15 to 20)
#    0.000    1.714    1.429    1.286    2.000   12.000 
#    0.000    0.000    0.000    0.000    0.000    0.000 
#    0.000    0.000    0.000    0.000    0.000    0.000 
#
# Total GULP energy -78208.898717 kJ/mol
# GULP energy per Si atom -5586.349908 kJ/mol
# Density = 2.505655 g / cm^3
# Si number density = 25.113714 Si / 1000 Ang^3
#
#
#
# Elastic Constant Matrix: (Units=GPa)
#
#
# Indices 1 2 3 4 5 6 
#
# 1 187.9458 36.8386 48.0512 -4.1505 -6.5251 -10.8800
# 2 36.8386 72.1303 10.4291 2.9624 -1.2584 -1.4024
# 3 48.0512 10.4291 65.9162 3.6205 -2.5943 -3.1524
# 4 -4.1505 2.9624 3.6205 24.3043 -8.2539 -4.1513
# 5 -6.5251 -1.2584 -2.5943 -8.2539 40.0065 10.5242
# 6 -10.8800 -1.4024 -3.1524 -4.1513 10.5242 32.2451
#
#
#
# Elastic Compliance Matrix: (Units=1/GPa)
#
#
# Indices 1 2 3 4 5 6 
#
# 1 0.007413 -0.003141 -0.004943 0.003027 0.000893 0.001979
# 2 -0.003141 0.015569 -0.000072 -0.002668 -0.000421 -0.000596
# 3 -0.004943 -0.000072 0.018972 -0.003801 -0.000309 -0.000205
# 4 0.003027 -0.002668 -0.003801 0.046137 0.008728 0.003625
# 5 0.000893 -0.000421 -0.000309 0.008728 0.029040 -0.008102
# 6 0.001979 -0.000596 -0.000205 0.003625 -0.008102 0.034745
#
#
# Mechanical properties :
#
#
# Convention : Reuss Voigt Hill
#
# Bulk Modulus (GPa) = 38.99901 57.40332 48.20117
# Shear Modulus (GPa) = 28.29080 34.68942 31.49011
#
# Velocity S-wave (km/s) = 3.35999 3.72061 3.54489
# Velocity P-wave (km/s) = 5.53312 6.43150 5.99915
#
# Compressibility (1/GPa) = 0.02564168
#
# Stress axis : x y z
#
# Youngs Moduli (GPa) = 134.90571 64.22949 52.70844
#
# Poissons Ratio (x) = 0.20177 0.26054
# Poissons Ratio (y) = 0.42378 0.00379
# Poissons Ratio (z) = 0.66684 0.00462
#
# Static dielectric constant tensor:
#      x y z
#    x 1.974020 0.007760 0.022950 
#    y 0.007760 2.118540 0.037480 
#    z 0.022950 0.037480 2.044980 
# 
# From -- ./inp_files/482723.got.cif
#   From: 2010.05.17/outbox.cif.g08.bks.cpg/sg2_242_cif.got.tgz:482723.got - 2010.06.03 11:33:40.
