data_PCOD9032153
_publ_section_title
;
Structure prediction by ZEFSAII (Michael W. Deem and Ramdas Pophale) SiO2 
 PCOD9032153
Probable space group: P -1
;
_chemical_formula_sum "Si O2"
_cell_formula_units_Z 14
_cell_length_a 8.439119
_cell_length_b 11.689439
_cell_length_c 16.347737
_cell_angle_alpha 149.369041
_cell_angle_beta 63.010526
_cell_angle_gamma 129.617136
_cell_volume 614.189462
_symmetry_space_group_name_H-M "P -1"
_symmetry_group_IT_number 2
_symmetry_cell_setting 'triclinic'
loop_
_space_group_symop_operation_xyz
x,y,z
-x,-y,-z
loop_
_atom_site_type_symbol
_atom_site_label
_atom_site_fract_x
_atom_site_fract_y
_atom_site_fract_z
Si Si1 0.431696 0.563295 0.966701
Si Si2 0.737810 0.647881 0.565058
Si Si3 0.054375 0.153330 0.698691
Si Si4 0.267435 0.936445 0.410765
Si Si5 0.190638 0.422335 0.191819
Si Si6 0.036975 0.073495 0.172190
Si Si7 0.340009 0.883689 0.678894
O O1 0.587113 0.548833 0.857773
O O2 0.194983 0.363996 0.866436
O O3 0.500000 0.500000 0.000000
O O4 0.503280 0.870739 0.146467
O O5 0.500000 0.500000 0.500000
O O6 0.762788 0.406560 0.436650
O O7 0.773677 0.819801 0.743697
O O8 0.899290 0.857603 0.590609
O O9 0.898333 0.200215 0.710060
O O10 0.211900 0.132562 0.587010
O O11 0.223447 0.704595 0.340745
O O12 0.506643 0.079347 0.408808
O O13 0.098312 0.284912 0.215196
O O14 0.040983 0.206169 0.024479
O O15 0.847108 0.066514 0.261945
#
# Coordination Sequence:
#
# PCOD9032153 Si02
#       7
#     2   2   2   2   2   2   2
#     4  11  23  42  68 100 130 170 223 272 323 391
#     4  12  25  43  65  95 137 176 216 266 326 400
#     4  11  26  44  67  95 139 172 218 275 330 390
#     4  11  24  42  69  99 130 172 223 270 334 380
#     4  10  22  43  69  99 131 168 223 272 324 395
#     4  10  24  42  68  99 133 175 215 272 332 386
#     4  11  23  43  66 100 131 169 226 264 329 390
#
# _framework density 22.794267000000001
#
# number of rings (size 3 to 8) (size 9 to 14) (size 15 to 20)
#    0.000    1.143    2.857    3.000    2.000    3.429 
#    0.000    0.000    0.000    7.714    0.000    0.000 
#    0.000    0.000    0.000    0.000    0.000    0.000 
#
# Total GULP energy -78289.302804 kJ/mol
# GULP energy per Si atom -5592.093057 kJ/mol
# Density = 2.274239 g / cm^3
# Si number density = 22.794267 Si / 1000 Ang^3
#
#
#
# Elastic Constant Matrix: (Units=GPa)
#
#
# Indices 1 2 3 4 5 6 
#
# 1 48.7837 19.6186 34.9979 -11.0495 34.0859 12.3011
# 2 19.6186 85.7281 13.2441 3.8601 6.8345 11.8106
# 3 34.9979 13.2441 40.3897 1.7971 28.4397 13.0437
# 4 -11.0495 3.8601 1.7971 39.2877 6.6970 -3.5039
# 5 34.0859 6.8345 28.4397 6.6970 48.2420 5.9522
# 6 12.3011 11.8106 13.0437 -3.5039 5.9522 30.5657
#
#
#
# Elastic Compliance Matrix: (Units=1/GPa)
#
#
# Indices 1 2 3 4 5 6 
#
# 1 0.117550 -0.015212 -0.064424 0.046013 -0.049428 0.000963
# 2 -0.015212 0.014699 0.004745 -0.007547 0.007396 -0.003888
# 3 -0.064424 0.004745 0.084957 -0.023780 -0.000102 -0.014868
# 4 0.046013 -0.007547 -0.023780 0.044735 -0.024174 0.004382
# 5 -0.049428 0.007396 -0.000102 -0.024174 0.057641 0.003082
# 6 0.000963 -0.003888 -0.014868 0.004382 0.003082 0.040078
#
#
# Mechanical properties :
#
#
# Convention : Reuss Voigt Hill
#
# Bulk Modulus (GPa) = 14.83126 34.51362 24.67244
# Shear Modulus (GPa) = 9.39999 30.75514 20.07757
#
# Velocity S-wave (km/s) = 2.03293 3.67720 2.97107
# Velocity P-wave (km/s) = 3.46859 5.76223 4.75575
#
# Compressibility (1/GPa) = 0.06742515
#
# Stress axis : x y z
#
# Youngs Moduli (GPa) = 8.50703 68.03302 11.77061
#
# Poissons Ratio (x) = 1.03491 0.75831
# Poissons Ratio (y) = 0.12941 -0.05585
# Poissons Ratio (z) = 0.54805 -0.32283
#
# Static dielectric constant tensor:
#      x y z
#    x 1.863620 0.006960 0.028840 
#    y 0.006960 1.851210 -0.003010 
#    z 0.028840 -0.003010 1.888770 
# 
# From -- ./inp_files/185207.got.cif
#   From: 2010.05.17/outbox.cif.g08.bks.cpg/sg2_93_cif.got.tgz:185207.got - 2010.06.03 11:33:40.
