data_PCOD9032496
_publ_section_title
;
Structure prediction by ZEFSAII (Michael W. Deem and Ramdas Pophale) SiO2 
 PCOD9032496
Probable space group: P -1
;
_chemical_formula_sum "Si O2"
_cell_formula_units_Z 12
_cell_length_a 5.178157
_cell_length_b 16.458174
_cell_length_c 4.913125
_cell_angle_alpha 91.908406
_cell_angle_beta 86.964241
_cell_angle_gamma 77.221467
_cell_volume 407.331887
_symmetry_space_group_name_H-M "P -1"
_symmetry_group_IT_number 2
_symmetry_cell_setting 'triclinic'
loop_
_space_group_symop_operation_xyz
x,y,z
-x,-y,-z
loop_
_atom_site_type_symbol
_atom_site_label
_atom_site_fract_x
_atom_site_fract_y
_atom_site_fract_z
Si Si1 0.500279 0.815306 0.211673
Si Si2 0.949550 0.207030 0.150226
Si Si3 0.806205 0.396292 0.047055
Si Si4 0.780431 0.920647 0.519035
Si Si5 0.000000 0.500000 0.500000
Si Si6 0.000000 0.000000 0.000000
Si Si7 0.645644 0.624590 0.320093
O O1 0.529788 0.884566 0.436580
O O2 0.540597 0.724453 0.340695
O O3 0.250437 0.835099 0.020795
O O4 0.764066 0.804849 0.008663
O O5 0.837735 0.305151 0.166571
O O6 0.997063 0.165109 0.436813
O O7 0.825071 0.459129 0.290931
O O8 0.561949 0.406802 0.858664
O O9 0.051503 0.397738 0.823745
O O10 0.786314 0.965915 0.808329
O O11 0.858097 0.972738 0.276505
O O12 0.270897 0.422147 0.407836
#
# Coordination Sequence:
#
# PCOD9032496 Si02
#       7
#     2   2   2   2   1   1   2
#     4  10  22  43  71  97 132 181 233 285 337 407
#     4  10  22  43  71  97 132 181 233 285 337 407
#     4  10  23  40  61  95 129 171 228 276 332 400
#     4  11  21  46  69 107 138 190 220 293 335 430
#     4  12  22  38  62  92 132 188 200 294 326 420
#     4  10  24  42  74 104 150 172 236 272 360 408
#     4  10  23  40  61  95 129 171 228 276 332 400
#
# _framework density 29.460007000000001
#
# number of rings (size 3 to 8) (size 9 to 14) (size 15 to 20)
#    0.000    1.667    1.667    2.000    0.000    4.000 
#    0.000   15.000    0.000    0.000    0.000    0.000 
#    0.000    0.000    0.000    0.000    0.000    0.000 
#
# Total GULP energy -66985.057979 kJ/mol
# GULP energy per Si atom -5582.088165 kJ/mol
# Density = 2.939295 g / cm^3
# Si number density = 29.460007 Si / 1000 Ang^3
#
#
#
# Elastic Constant Matrix: (Units=GPa)
#
#
# Indices 1 2 3 4 5 6 
#
# 1 181.8476 47.5296 91.1028 -8.7843 46.0551 6.3555
# 2 47.5296 91.8076 82.9218 7.0874 19.9997 14.0768
# 3 91.1028 82.9218 205.9999 5.5208 30.1045 18.8892
# 4 -8.7843 7.0874 5.5208 51.5914 -0.3608 18.1488
# 5 46.0551 19.9997 30.1045 -0.3608 61.2556 -3.5906
# 6 6.3555 14.0768 18.8892 18.1488 -3.5906 57.6870
#
#
#
# Elastic Compliance Matrix: (Units=1/GPa)
#
#
# Indices 1 2 3 4 5 6 
#
# 1 0.008392 -0.001008 -0.002598 0.002086 -0.004737 -0.000779
# 2 -0.001008 0.017915 -0.006239 -0.001296 -0.002147 -0.001943
# 3 -0.002598 -0.006239 0.008658 -0.000164 -0.000324 -0.000995
# 4 0.002086 -0.001296 -0.000164 0.022382 -0.001342 -0.006985
# 5 -0.004737 -0.002147 -0.000324 -0.001342 0.020907 0.002875
# 6 -0.000779 -0.001943 -0.000995 -0.006985 0.002875 0.020597
#
#
# Mechanical properties :
#
#
# Convention : Reuss Voigt Hill
#
# Bulk Modulus (GPa) = 65.46583 102.52927 83.99755
# Shear Modulus (GPa) = 40.44292 51.31353 45.87823
#
# Velocity S-wave (km/s) = 3.70916 4.17802 3.95055
# Velocity P-wave (km/s) = 6.37291 7.62580 7.02734
#
# Compressibility (1/GPa) = 0.01527514
#
# Stress axis : x y z
#
# Youngs Moduli (GPa) = 119.16641 55.81928 115.50591
#
# Poissons Ratio (x) = 0.05625 0.30005
# Poissons Ratio (y) = 0.12010 0.72064
# Poissons Ratio (z) = 0.30956 0.34826
#
# Static dielectric constant tensor:
#      x y z
#    x 2.466410 0.110250 0.178800 
#    y 0.110250 2.476510 0.799810 
#    z 0.178800 0.799810 1.483420 
# 
# From -- ./inp_files/5201.got.cif
#   From: 2010.05.17/outbox.cif.g08.bks.cpg/sg2_3_cif.got.tgz:5201.got - 2010.06.03 11:33:40.
