data_PCOD9032359
_publ_section_title
;
Structure prediction by ZEFSAII (Michael W. Deem and Ramdas Pophale) SiO2 
 PCOD9032359
Probable space group: P -1
;
_chemical_formula_sum "Si O2"
_cell_formula_units_Z 11
_cell_length_a 8.189817
_cell_length_b 11.411145
_cell_length_c 6.926940
_cell_angle_alpha 126.316365
_cell_angle_beta 121.975952
_cell_angle_gamma 83.783590
_cell_volume 422.029804
_symmetry_space_group_name_H-M "P -1"
_symmetry_group_IT_number 2
_symmetry_cell_setting 'triclinic'
loop_
_space_group_symop_operation_xyz
x,y,z
-x,-y,-z
loop_
_atom_site_type_symbol
_atom_site_label
_atom_site_fract_x
_atom_site_fract_y
_atom_site_fract_z
Si Si1 0.669275 0.202611 0.269783
Si Si2 0.297935 0.396485 0.862969
Si Si3 0.632440 0.028013 0.418067
Si Si4 0.143785 0.459996 0.210781
Si Si5 0.000000 0.500000 0.500000
Si Si6 0.045558 0.071848 0.307130
O O1 0.749544 0.381673 0.446076
O O2 0.851491 0.127496 0.289354
O O3 0.619654 0.178396 0.441708
O O4 0.484080 0.108800 0.933456
O O5 0.137605 0.459529 0.712130
O O6 0.237365 0.221758 0.592607
O O7 0.500000 0.500000 0.000000
O O8 0.286934 0.406032 0.100234
O O9 0.864994 0.038494 0.613577
O O10 0.500000 0.000000 0.500000
O O11 0.040724 0.365115 0.238266
O O12 0.000000 0.500000 0.000000
O O13 0.000000 0.000000 0.000000
#
# Coordination Sequence:
#
# PCOD9032359 Si02
#       6
#     2   2   2   2   1   2
#     4  11  24  47  67 103 135 183 236 285 351 414
#     4  11  27  44  70 108 138 181 237 289 347 422
#     4  11  26  43  71  99 140 182 230 290 346 419
#     4  10  22  43  70  99 134 180 232 282 349 411
#     4  10  22  46  70  96 140 184 222 292 348 406
#     4  12  25  46  71 104 140 186 235 284 353 418
#
# _framework density 26.064509999999999
#
# number of rings (size 3 to 8) (size 9 to 14) (size 15 to 20)
#    0.000    1.091    5.455    0.545    5.091    5.091 
#    3.273    0.000    0.000    0.000    0.000    0.000 
#    0.000    0.000    0.000    0.000    0.000    0.000 
#
# Total GULP energy -61242.198388 kJ/mol
# GULP energy per Si atom -5567.472581 kJ/mol
# Density = 2.600519 g / cm^3
# Si number density = 26.064510 Si / 1000 Ang^3
#
#
#
# Elastic Constant Matrix: (Units=GPa)
#
#
# Indices 1 2 3 4 5 6 
#
# 1 107.5707 4.0455 55.5357 -18.1218 -28.0401 7.1763
# 2 4.0455 41.8816 31.6910 -12.6714 -0.2216 -17.3452
# 3 55.5357 31.6910 159.4952 -16.9128 -19.5329 -0.1362
# 4 -18.1218 -12.6714 -16.9128 58.9072 10.4232 2.9644
# 5 -28.0401 -0.2216 -19.5329 10.4232 57.2130 -11.0798
# 6 7.1763 -17.3452 -0.1362 2.9644 -11.0798 26.0863
#
#
#
# Elastic Compliance Matrix: (Units=1/GPa)
#
#
# Indices 1 2 3 4 5 6 
#
# 1 0.012983 0.002649 -0.004234 0.002581 0.004409 -0.000253
# 2 0.002649 0.043999 -0.008646 0.005780 0.003108 0.029145
# 3 -0.004234 -0.008646 0.009469 -0.000283 0.000331 -0.004362
# 4 0.002581 0.005780 -0.000283 0.019351 -0.002347 -0.000064
# 5 0.004409 0.003108 0.000331 -0.002347 0.022238 0.010567
# 6 -0.000253 0.029145 -0.004362 -0.000064 0.010567 0.062256
#
#
# Mechanical properties :
#
#
# Convention : Reuss Voigt Hill
#
# Bulk Modulus (GPa) = 21.74458 54.61022 38.17740
# Shear Modulus (GPa) = 24.26158 42.95299 33.60728
#
# Velocity S-wave (km/s) = 3.05426 4.06390 3.59470
# Velocity P-wave (km/s) = 4.56056 6.55879 5.64874
#
# Compressibility (1/GPa) = 0.04598847
#
# Stress axis : x y z
#
# Youngs Moduli (GPa) = 77.02276 22.72778 105.61113
#
# Poissons Ratio (x) = -0.06020 0.44711
# Poissons Ratio (y) = -0.20400 0.91314
# Poissons Ratio (z) = 0.32608 0.19651
#
# Static dielectric constant tensor:
#      x y z
#    x 1.855640 -0.175950 -0.225980 
#    y -0.175950 1.824640 0.121630 
#    z -0.225980 0.121630 1.918890 
# 
# From -- ./inp_files/26004.got.cif
#   From: 2010.05.17/outbox.cif.g08.bks.cpg/sg2_14_cif.got.tgz:26004.got - 2010.06.03 11:33:40.
