data_PCOD9032019
_publ_section_title
;
Structure prediction by ZEFSAII (Michael W. Deem and Ramdas Pophale) SiO2 
 PCOD9032019
Probable space group: P -1
;
_chemical_formula_sum "Si O2"
_cell_formula_units_Z 14
_cell_length_a 12.725871
_cell_length_b 10.784750
_cell_length_c 8.701471
_cell_angle_alpha 67.718799
_cell_angle_beta 34.253924
_cell_angle_gamma 82.089970
_cell_volume 585.509162
_symmetry_space_group_name_H-M "P -1"
_symmetry_group_IT_number 2
_symmetry_cell_setting 'triclinic'
loop_
_space_group_symop_operation_xyz
x,y,z
-x,-y,-z
loop_
_atom_site_type_symbol
_atom_site_label
_atom_site_fract_x
_atom_site_fract_y
_atom_site_fract_z
Si Si1 0.679142 0.440162 0.835326
Si Si2 0.100267 0.580459 0.114921
Si Si3 0.622952 0.851847 0.672249
Si Si4 0.010290 0.112342 0.572118
Si Si5 0.653557 0.177162 0.485037
Si Si6 0.256504 0.147601 0.826357
Si Si7 0.986343 0.299752 0.246157
O O1 0.761692 0.442223 0.906300
O O2 0.872180 0.532567 0.464670
O O3 0.500000 0.500000 0.000000
O O4 0.580879 0.273868 0.992548
O O5 0.096843 0.467708 0.039256
O O6 0.190391 0.740884 0.873092
O O7 0.691287 0.832288 0.425175
O O8 0.784667 0.844321 0.604767
O O9 0.612254 0.009604 0.619933
O O10 0.986267 0.243638 0.447175
O O11 0.000000 0.000000 0.500000
O O12 0.844970 0.020350 0.933583
O O13 0.451781 0.201786 0.670694
O O14 0.765039 0.247874 0.471272
O O15 0.106001 0.225118 0.028815
#
# Coordination Sequence:
#
# PCOD9032019 Si02
#       7
#     2   2   2   2   2   2   2
#     4  11  27  48  75 107 145 194 240 296 370 425
#     4  11  27  48  70 110 148 190 241 298 359 443
#     4  12  24  47  77 109 142 189 249 306 357 431
#     4  10  22  43  69 105 143 188 235 301 363 419
#     4  12  26  44  74 109 145 189 246 297 366 421
#     4  11  25  43  74 108 145 192 241 299 366 427
#     4  11  26  48  70 106 154 193 239 298 364 433
#
# _framework density 23.910813000000001
#
# number of rings (size 3 to 8) (size 9 to 14) (size 15 to 20)
#    0.000    0.857    4.286    2.143    4.000    5.714 
#    0.000    0.000    0.000    0.000    0.000    0.000 
#    0.000    0.000    0.000    0.000    0.000    0.000 
#
# Total GULP energy -78403.391067 kJ/mol
# GULP energy per Si atom -5600.242219 kJ/mol
# Density = 2.385639 g / cm^3
# Si number density = 23.910813 Si / 1000 Ang^3
#
#
#
# Elastic Constant Matrix: (Units=GPa)
#
#
# Indices 1 2 3 4 5 6 
#
# 1 173.1380 29.2561 38.6403 7.9051 -29.5469 2.0352
# 2 29.2561 73.4049 28.8451 -19.8818 -6.9039 6.0492
# 3 38.6403 28.8451 89.1207 -18.0644 -11.3084 -5.0167
# 4 7.9051 -19.8818 -18.0644 40.6632 6.8839 -0.0238
# 5 -29.5469 -6.9039 -11.3084 6.8839 45.5490 -9.5616
# 6 2.0352 6.0492 -5.0167 -0.0238 -9.5616 30.8214
#
#
#
# Elastic Compliance Matrix: (Units=1/GPa)
#
#
# Indices 1 2 3 4 5 6 
#
# 1 0.008017 -0.003119 -0.002808 -0.005187 0.005065 0.001193
# 2 -0.003119 0.018760 -0.003545 0.008601 -0.002363 -0.004780
# 3 -0.002808 -0.003545 0.015038 0.005263 0.001368 0.003757
# 4 -0.005187 0.008601 0.005263 0.033206 -0.006279 -0.002411
# 5 0.005065 -0.002363 0.001368 -0.006279 0.028071 0.009055
# 6 0.001193 -0.004780 0.003757 -0.002411 0.009055 0.036723
#
#
# Mechanical properties :
#
#
# Convention : Reuss Voigt Hill
#
# Bulk Modulus (GPa) = 43.72410 58.79406 51.25908
# Shear Modulus (GPa) = 30.05122 39.33487 34.69305
#
# Velocity S-wave (km/s) = 3.54899 4.06034 3.81325
# Velocity P-wave (km/s) = 5.92620 6.82819 6.39312
#
# Compressibility (1/GPa) = 0.02287068
#
# Stress axis : x y z
#
# Youngs Moduli (GPa) = 124.74204 53.30353 66.49966
#
# Poissons Ratio (x) = 0.16623 0.18673
# Poissons Ratio (y) = 0.38902 0.23577
# Poissons Ratio (z) = 0.35028 0.18898
#
# Static dielectric constant tensor:
#      x y z
#    x 1.900410 -0.025410 0.040990 
#    y -0.025410 1.921680 0.000960 
#    z 0.040990 0.000960 1.916130 
# 
# From -- ./inp_files/257332.got.cif
#   From: 2010.05.17/outbox.cif.g08.bks.cpg/sg2_129_cif.got.tgz:257332.got - 2010.06.03 11:33:40.
