data_PCOD9032953
_publ_section_title
;
Structure prediction by ZEFSAII (Michael W. Deem and Ramdas Pophale) SiO2 
 PCOD9032953
Probable space group: P -1
;
_chemical_formula_sum "Si O2"
_cell_formula_units_Z 15
_cell_length_a 8.473183
_cell_length_b 13.711706
_cell_length_c 11.918650
_cell_angle_alpha 31.976196
_cell_angle_beta 74.081008
_cell_angle_gamma 92.773221
_cell_volume 588.075325
_symmetry_space_group_name_H-M "P -1"
_symmetry_group_IT_number 2
_symmetry_cell_setting 'triclinic'
loop_
_space_group_symop_operation_xyz
x,y,z
-x,-y,-z
loop_
_atom_site_type_symbol
_atom_site_label
_atom_site_fract_x
_atom_site_fract_y
_atom_site_fract_z
Si Si1 0.058512 0.171772 0.951343
Si Si2 0.281402 0.787189 0.061365
Si Si3 0.661601 0.229690 0.610538
Si Si4 0.919684 0.685897 0.498531
Si Si5 0.289644 0.902599 0.687264
Si Si6 0.269111 0.315038 0.232788
Si Si7 0.883094 0.591544 0.048994
Si Si8 0.500000 0.500000 0.500000
O O1 0.918973 0.227142 0.856664
O O2 0.086580 0.269604 0.977279
O O3 0.275889 0.276000 0.762636
O O4 0.943432 0.908370 0.236490
O O5 0.306856 0.864616 0.851536
O O6 0.484508 0.973861 0.894853
O O7 0.234060 0.541352 0.314498
O O8 0.727034 0.341761 0.363734
O O9 0.588798 0.363453 0.559805
O O10 0.865453 0.275142 0.574391
O O11 0.832720 0.647361 0.679211
O O12 0.500000 0.000000 0.500000
O O13 0.241873 0.083115 0.489574
O O14 0.107149 0.670354 0.902916
O O15 0.500000 0.500000 0.000000
O O16 0.187605 0.326089 0.118139
#
# Coordination Sequence:
#
# PCOD9032953 Si02
#       8
#     2   2   2   2   2   2   2   1
#     4  10  23  46  73  98 142 173 232 292 338 417
#     4  11  23  47  64 104 141 178 225 286 347 406
#     4  11  25  45  75  97 138 182 226 295 348 410
#     4  12  24  45  68 105 142 180 231 282 340 417
#     4  11  22  40  64  96 143 184 235 280 331 411
#     4  12  25  38  65 102 141 190 235 275 335 415
#     4  10  22  44  64 101 139 186 230 284 342 397
#     4  10  22  52  76 100 134 180 226 290 362 404
#
# _framework density 25.506938000000002
#
# number of rings (size 3 to 8) (size 9 to 14) (size 15 to 20)
#    0.000    1.067    6.667    2.000    1.867    2.667 
#    2.400    0.667    0.000    0.000    0.000    0.000 
#    0.000    0.000    0.000    0.000    0.000    0.000 
#
# Total GULP energy -83853.834170 kJ/mol
# GULP energy per Si atom -5590.255611 kJ/mol
# Density = 2.544888 g / cm^3
# Si number density = 25.506938 Si / 1000 Ang^3
#
#
#
# Elastic Constant Matrix: (Units=GPa)
#
#
# Indices 1 2 3 4 5 6 
#
# 1 82.3213 51.4061 63.3984 16.0360 -17.5233 -4.0705
# 2 51.4061 87.1025 52.5684 -0.1781 -16.0719 0.1491
# 3 63.3984 52.5684 204.0552 -19.5141 -14.7985 3.0586
# 4 16.0360 -0.1781 -19.5141 58.0083 -7.6976 -1.1902
# 5 -17.5233 -16.0719 -14.7985 -7.6976 68.1296 6.0196
# 6 -4.0705 0.1491 3.0586 -1.1902 6.0196 47.6958
#
#
#
# Elastic Compliance Matrix: (Units=1/GPa)
#
#
# Indices 1 2 3 4 5 6 
#
# 1 0.026127 -0.011597 -0.005917 -0.009006 0.001484 0.002233
# 2 -0.011597 0.019207 -0.000892 0.003182 0.001815 -0.001142
# 3 -0.005917 -0.000892 0.007412 0.004164 0.000430 -0.000928
# 4 -0.009006 0.003182 0.004164 0.021365 0.001818 -0.000742
# 5 0.001484 0.001815 0.000430 0.001818 0.015952 -0.001875
# 6 0.002233 -0.001142 -0.000928 -0.000742 -0.001875 0.021438
#
#
# Mechanical properties :
#
#
# Convention : Reuss Voigt Hill
#
# Bulk Modulus (GPa) = 62.75832 78.69164 70.72498
# Shear Modulus (GPa) = 32.54708 48.50714 40.52711
#
# Velocity S-wave (km/s) = 3.57600 4.36561 3.99038
# Velocity P-wave (km/s) = 6.45819 7.50529 7.00134
#
# Compressibility (1/GPa) = 0.01593414
#
# Stress axis : x y z
#
# Youngs Moduli (GPa) = 38.27490 52.06555 134.91481
#
# Poissons Ratio (x) = 0.60380 0.79828
# Poissons Ratio (y) = 0.44387 0.12032
# Poissons Ratio (z) = 0.22647 0.04643
#
# Static dielectric constant tensor:
#      x y z
#    x 1.968180 0.001030 0.000780 
#    y 0.001030 2.108330 -0.001250 
#    z 0.000780 -0.001250 2.015590 
# 
# From -- ./inp_files/503586.got.cif
#   From: 2010.05.17/outbox.cif.g08.bks.cpg/sg2_252_cif.got.tgz:503586.got - 2010.06.03 11:33:40.
