data_PCOD9032323
_publ_section_title
;
Structure prediction by ZEFSAII (Michael W. Deem and Ramdas Pophale) SiO2 
 PCOD9032323
Probable space group: P -1
;
_chemical_formula_sum "Si O2"
_cell_formula_units_Z 14
_cell_length_a 7.298567
_cell_length_b 11.969501
_cell_length_c 14.830400
_cell_angle_alpha 49.438794
_cell_angle_beta 125.182190
_cell_angle_gamma 87.631805
_cell_volume 597.250011
_symmetry_space_group_name_H-M "P -1"
_symmetry_group_IT_number 2
_symmetry_cell_setting 'triclinic'
loop_
_space_group_symop_operation_xyz
x,y,z
-x,-y,-z
loop_
_atom_site_type_symbol
_atom_site_label
_atom_site_fract_x
_atom_site_fract_y
_atom_site_fract_z
Si Si1 0.345425 0.411453 0.634197
Si Si2 0.489156 0.145898 0.662118
Si Si3 0.715553 0.741055 0.959940
Si Si4 0.666601 0.097716 0.403176
Si Si5 0.194153 0.273209 0.323999
Si Si6 0.069434 0.795666 0.438840
Si Si7 0.422139 0.879918 0.992079
O O1 0.496849 0.289597 0.648746
O O2 0.302443 0.598250 0.550300
O O3 0.541137 0.255266 0.850677
O O4 0.000000 0.500000 0.500000
O O5 0.417984 0.207600 0.505746
O O6 0.195341 0.191618 0.600110
O O7 0.745045 0.906312 0.869747
O O8 0.434456 0.832198 0.764651
O O9 0.649156 0.750942 0.041770
O O10 0.961115 0.509391 0.129022
O O11 0.357731 0.190735 0.317920
O O12 0.781627 0.183556 0.448119
O O13 0.887865 0.860249 0.604687
O O14 0.897165 0.972173 0.225300
O O15 0.500000 0.000000 0.000000
#
# Coordination Sequence:
#
# PCOD9032323 Si02
#       7
#     2   2   2   2   2   2   2
#     4  10  17  32  54  81 114 144 177 223 280 326
#     4   9  19  33  56  86 106 143 188 227 281 329
#     4  10  19  34  60  81 107 148 187 231 270 336
#     4  10  23  40  53  84 114 150 192 224 280 329
#     4  10  21  38  61  76 110 158 188 228 273 336
#     4  10  21  35  57  83 121 141 181 241 273 328
#     4  11  19  33  57  90 112 144 185 226 284 334
#
# _framework density 23.440769
#
# number of rings (size 3 to 8) (size 9 to 14) (size 15 to 20)
#    0.000    2.000    4.286    2.143    0.000    6.286 
#    0.000    5.000    0.000    1.714    0.000    0.000 
#    0.000    0.000    0.000    0.000    0.000    0.000 
#
# Total GULP energy -78117.197195 kJ/mol
# GULP energy per Si atom -5579.799800 kJ/mol
# Density = 2.338742 g / cm^3
# Si number density = 23.440769 Si / 1000 Ang^3
#
#
#
# Elastic Constant Matrix: (Units=GPa)
#
#
# Indices 1 2 3 4 5 6 
#
# 1 29.9606 20.9991 11.4106 4.6190 -3.9948 -5.1189
# 2 20.9991 167.3792 36.5797 -16.8464 0.2618 -16.2522
# 3 11.4106 36.5797 74.5344 -18.5342 -10.2802 -4.1729
# 4 4.6190 -16.8464 -18.5342 60.3040 -3.7870 -9.3584
# 5 -3.9948 0.2618 -10.2802 -3.7870 13.5227 8.3623
# 6 -5.1189 -16.2522 -4.1729 -9.3584 8.3623 26.6100
#
#
#
# Elastic Compliance Matrix: (Units=1/GPa)
#
#
# Indices 1 2 3 4 5 6 
#
# 1 0.039974 -0.004632 -0.004120 -0.005147 0.007246 0.000127
# 2 -0.004632 0.008198 -0.003472 0.002140 -0.007747 0.006759
# 3 -0.004120 -0.003472 0.019418 0.005898 0.017252 -0.003216
# 4 -0.005147 0.002140 0.005898 0.020774 0.004287 0.007201
# 5 0.007246 -0.007747 0.017252 0.004287 0.111727 -0.034235
# 6 0.000127 0.006759 -0.003216 0.007201 -0.034235 0.054519
#
#
# Mechanical properties :
#
#
# Convention : Reuss Voigt Hill
#
# Bulk Modulus (GPa) = 23.17936 45.53921 34.35929
# Shear Modulus (GPa) = 17.03937 33.61299 25.32618
#
# Velocity S-wave (km/s) = 2.69905 3.79087 3.29056
# Velocity P-wave (km/s) = 4.42980 6.21534 5.39692
#
# Compressibility (1/GPa) = 0.04314183
#
# Stress axis : x y z
#
# Youngs Moduli (GPa) = 25.01627 121.97840 51.49993
#
# Poissons Ratio (x) = 0.56496 0.21218
# Poissons Ratio (y) = 0.11587 0.17882
# Poissons Ratio (z) = 0.10307 0.42354
#
# Static dielectric constant tensor:
#      x y z
#    x 1.982640 0.000160 0.073420 
#    y 0.000160 1.762390 0.063940 
#    z 0.073420 0.063940 1.783820 
# 
# From -- ./inp_files/268092.got.cif
#   From: 2010.05.17/outbox.cif.g08.bks.cpg/sg2_135_cif.got.tgz:268092.got - 2010.06.03 11:33:40.
