data_PCOD9032750
_publ_section_title
;
Structure prediction by ZEFSAII (Michael W. Deem and Ramdas Pophale) SiO2 
 PCOD9032750
Probable space group: P -1
;
_chemical_formula_sum "Si O2"
_cell_formula_units_Z 12
_cell_length_a 10.589319
_cell_length_b 21.296587
_cell_length_c 6.270376
_cell_angle_alpha 113.946723
_cell_angle_beta 66.386300
_cell_angle_gamma 157.084204
_cell_volume 501.793999
_symmetry_space_group_name_H-M "P -1"
_symmetry_group_IT_number 2
_symmetry_cell_setting 'triclinic'
loop_
_space_group_symop_operation_xyz
x,y,z
-x,-y,-z
loop_
_atom_site_type_symbol
_atom_site_label
_atom_site_fract_x
_atom_site_fract_y
_atom_site_fract_z
Si Si1 0.770000 0.342877 0.161325
Si Si2 0.589256 0.931079 0.694439
Si Si3 0.433144 0.636168 0.345098
Si Si4 0.701916 0.871879 0.191918
Si Si5 0.959619 0.223208 0.034407
Si Si6 0.593194 0.556041 0.276493
O O1 0.540133 0.185932 0.224386
O O2 0.704919 0.384805 0.386493
O O3 0.138518 0.490554 0.176843
O O4 0.634508 0.282302 0.929761
O O5 0.719801 0.950798 0.424852
O O6 0.815296 0.084645 0.886270
O O7 0.275916 0.838914 0.743371
O O8 0.677703 0.797996 0.276270
O O9 0.550048 0.617421 0.338621
O O10 0.000000 0.000000 0.000000
O O11 0.042408 0.295488 0.847725
O O12 0.316054 0.385725 0.115026
O O13 0.500000 0.500000 0.500000
#
# Coordination Sequence:
#
# PCOD9032750 Si02
#       6
#     2   2   2   2   2   2
#     4  10  22  43  74 103 136 188 228 297 358 412
#     4  10  23  47  69 100 146 182 237 288 353 422
#     4  10  23  46  70 102 146 177 239 294 347 424
#     4  11  26  42  75 109 135 188 234 297 359 411
#     4  10  24  46  69 101 145 187 232 293 341 428
#     4  11  25  45  74 104 138 190 239 288 353 415
#
# _framework density 23.914196
#
# number of rings (size 3 to 8) (size 9 to 14) (size 15 to 20)
#    0.000    1.667    1.667    0.500    4.667    6.667 
#    0.000    3.333    0.000    0.000    0.000    0.000 
#    0.000    0.000    0.000    0.000    0.000    0.000 
#
# Total GULP energy -67017.940144 kJ/mol
# GULP energy per Si atom -5584.828345 kJ/mol
# Density = 2.385977 g / cm^3
# Si number density = 23.914196 Si / 1000 Ang^3
#
#
#
# Elastic Constant Matrix: (Units=GPa)
#
#
# Indices 1 2 3 4 5 6 
#
# 1 84.7552 22.2874 59.8939 -3.3443 -24.8384 -8.4276
# 2 22.2874 99.4898 30.5805 -6.5688 -17.9586 -15.7726
# 3 59.8939 30.5805 130.3927 -7.1304 -30.8099 -14.3239
# 4 -3.3443 -6.5688 -7.1304 46.2519 0.6964 -2.9630
# 5 -24.8384 -17.9586 -30.8099 0.6964 38.4749 1.3762
# 6 -8.4276 -15.7726 -14.3239 -2.9630 1.3762 31.1845
#
#
#
# Elastic Compliance Matrix: (Units=1/GPa)
#
#
# Indices 1 2 3 4 5 6 
#
# 1 0.018791 -0.000764 -0.006819 0.000188 0.006264 0.001301
# 2 -0.000764 0.012265 -0.000771 0.001862 0.004379 0.005626
# 3 -0.006819 -0.000771 0.012689 0.001499 0.005247 0.003507
# 4 0.000188 0.001862 0.001499 0.022344 0.001653 0.003731
# 5 0.006264 0.004379 0.005247 0.001653 0.036076 0.004883
# 6 0.001301 0.005626 0.003507 0.003731 0.004883 0.037014
#
#
# Mechanical properties :
#
#
# Convention : Reuss Voigt Hill
#
# Bulk Modulus (GPa) = 36.98621 60.01792 48.50206
# Shear Modulus (GPa) = 30.32173 36.64066 33.48120
#
# Velocity S-wave (km/s) = 3.56468 3.91854 3.74579
# Velocity P-wave (km/s) = 5.69582 6.75463 6.24769
#
# Compressibility (1/GPa) = 0.02703710
#
# Stress axis : x y z
#
# Youngs Moduli (GPa) = 53.21778 81.53404 78.80910
#
# Poissons Ratio (x) = 0.06231 0.53738
# Poissons Ratio (y) = 0.04067 0.06074
# Poissons Ratio (z) = 0.36288 0.06284
#
# Static dielectric constant tensor:
#      x y z
#    x 1.978830 0.068890 0.025760 
#    y 0.068890 1.990360 -0.059720 
#    z 0.025760 -0.059720 2.089030 
# 
# From -- ./inp_files/84504.got.cif
#   From: 2010.05.17/outbox.cif.g08.bks.cpg/sg2_43_cif.got.tgz:84504.got - 2010.06.03 11:33:40.
