data_PCOD9032281
_publ_section_title
;
Structure prediction by ZEFSAII (Michael W. Deem and Ramdas Pophale) SiO2 
 PCOD9032281
Probable space group: P -1
;
_chemical_formula_sum "Si O2"
_cell_formula_units_Z 16
_cell_length_a 9.535309
_cell_length_b 17.230055
_cell_length_c 9.232160
_cell_angle_alpha 110.511333
_cell_angle_beta 135.233732
_cell_angle_gamma 98.566393
_cell_volume 798.074749
_symmetry_space_group_name_H-M "P -1"
_symmetry_group_IT_number 2
_symmetry_cell_setting 'triclinic'
loop_
_space_group_symop_operation_xyz
x,y,z
-x,-y,-z
loop_
_atom_site_type_symbol
_atom_site_label
_atom_site_fract_x
_atom_site_fract_y
_atom_site_fract_z
Si Si1 0.840251 0.207775 0.232703
Si Si2 0.223537 0.163341 0.524384
Si Si3 0.321033 0.245688 0.967361
Si Si4 0.107220 0.602796 0.558271
Si Si5 0.146355 0.079115 0.985412
Si Si6 0.258002 0.902879 0.183804
Si Si7 0.050910 0.698682 0.336947
Si Si8 0.610914 0.205690 0.602211
O O1 0.881203 0.311548 0.277679
O O2 0.777549 0.207111 0.355996
O O3 0.091073 0.216998 0.426163
O O4 0.677649 0.115380 0.940207
O O5 0.296638 0.188233 0.762010
O O6 0.455637 0.210793 0.617999
O O7 0.024287 0.038585 0.275577
O O8 0.232078 0.163082 0.976372
O O9 0.152082 0.285693 0.853587
O O10 0.611397 0.342820 0.254467
O O11 0.957385 0.600420 0.306702
O O12 0.000000 0.500000 0.500000
O O13 0.969200 0.090508 0.966822
O O14 0.388188 0.111971 0.276250
O O15 0.210147 0.813200 0.195355
O O16 0.500000 0.000000 0.500000
O O17 0.214257 0.706583 0.329567
#
# Coordination Sequence:
#
# PCOD9032281 Si02
#       8
#     2   2   2   2   2   2   2   2
#     4   9  21  42  57  90 122 155 211 253 295 362
#     4  11  22  37  60  90 131 168 203 239 299 360
#     4  11  22  42  61  90 122 161 204 258 293 367
#     4  10  22  43  70  87 113 157 207 264 319 356
#     4  12  22  36  57  90 130 174 201 237 295 359
#     4  12  22  35  59  88 127 174 206 235 294 359
#     4   9  22  39  61  91 117 157 205 256 307 354
#     4  12  21  36  58  87 127 168 201 248 288 356
#
# _framework density 20.048245999999999
#
# number of rings (size 3 to 8) (size 9 to 14) (size 15 to 20)
#    0.750    0.500    5.000    2.250    0.000    0.500 
#    2.250    2.500    0.000    6.000    0.000    0.000 
#    0.000    0.000    0.000    0.000    0.000    0.000 
#
# Total GULP energy -89100.810753 kJ/mol
# GULP energy per Si atom -5568.800672 kJ/mol
# Density = 2.000262 g / cm^3
# Si number density = 20.048246 Si / 1000 Ang^3
#
#
#
# Elastic Constant Matrix: (Units=GPa)
#
#
# Indices 1 2 3 4 5 6 
#
# 1 83.2677 42.1728 8.1193 3.0849 10.6404 13.9796
# 2 42.1728 122.6443 18.9080 -6.8570 18.1096 11.1758
# 3 8.1193 18.9080 36.8856 -15.8351 7.5729 -3.0565
# 4 3.0849 -6.8570 -15.8351 23.4948 3.2726 1.3075
# 5 10.6404 18.1096 7.5729 3.2726 21.9752 -8.7554
# 6 13.9796 11.1758 -3.0565 1.3075 -8.7554 28.1081
#
#
#
# Elastic Compliance Matrix: (Units=1/GPa)
#
#
# Indices 1 2 3 4 5 6 
#
# 1 0.016726 -0.003596 -0.002533 -0.003392 -0.007477 -0.009336
# 2 -0.003596 0.012218 -0.001632 0.004898 -0.011278 -0.006988
# 3 -0.002533 -0.001632 0.047044 0.034224 -0.018921 -0.000461
# 4 -0.003392 0.004898 0.034224 0.071942 -0.028378 -0.008725
# 5 -0.007477 -0.011278 -0.018921 -0.028378 0.082363 0.033121
# 6 -0.009336 -0.006988 -0.000461 -0.008725 0.033121 0.053671
#
#
# Mechanical properties :
#
#
# Convention : Reuss Voigt Hill
#
# Bulk Modulus (GPa) = 16.53844 42.35533 29.44689
# Shear Modulus (GPa) = 15.64249 26.28880 20.96564
#
# Velocity S-wave (km/s) = 2.79631 3.62508 3.23733
# Velocity P-wave (km/s) = 4.32355 6.22047 5.35664
#
# Compressibility (1/GPa) = 0.06046519
#
# Stress axis : x y z
#
# Youngs Moduli (GPa) = 59.78673 81.84823 21.25662
#
# Poissons Ratio (x) = 0.29431 0.05385
# Poissons Ratio (y) = 0.21498 0.03470
# Poissons Ratio (z) = 0.15145 0.13361
#
# Static dielectric constant tensor:
#      x y z
#    x 1.727490 -0.013450 -0.009760 
#    y -0.013450 1.753530 -0.043670 
#    z -0.009760 -0.043670 1.761680 
# 
# From -- ./inp_files/217934.got.cif
#   From: 2010.05.17/outbox.cif.g08.bks.cpg/sg2_109_cif.got.tgz:217934.got - 2010.06.03 11:33:40.
