data_PCOD9032273
_publ_section_title
;
Structure prediction by ZEFSAII (Michael W. Deem and Ramdas Pophale) SiO2 
 PCOD9032273
Probable space group: P -1
;
_chemical_formula_sum "Si O2"
_cell_formula_units_Z 16
_cell_length_a 8.548771
_cell_length_b 9.415731
_cell_length_c 12.029939
_cell_angle_alpha 130.029576
_cell_angle_beta 93.068402
_cell_angle_gamma 94.630059
_cell_volume 731.951341
_symmetry_space_group_name_H-M "P -1"
_symmetry_group_IT_number 2
_symmetry_cell_setting 'triclinic'
loop_
_space_group_symop_operation_xyz
x,y,z
-x,-y,-z
loop_
_atom_site_type_symbol
_atom_site_label
_atom_site_fract_x
_atom_site_fract_y
_atom_site_fract_z
Si Si1 0.397231 0.167761 0.104610
Si Si2 0.930124 0.566476 0.141749
Si Si3 0.865212 0.630696 0.785018
Si Si4 0.627358 0.968103 0.713298
Si Si5 0.385913 0.634336 0.512963
Si Si6 0.025444 0.988584 0.364027
Si Si7 0.579895 0.363813 0.014986
Si Si8 0.087870 0.705367 0.639991
O O1 0.222855 0.210811 0.080623
O O2 0.363804 0.139048 0.221281
O O3 0.497988 0.329151 0.114835
O O4 0.500000 0.000000 0.000000
O O5 0.757325 0.455271 0.094932
O O6 0.047981 0.510419 0.211269
O O7 0.931937 0.784751 0.233493
O O8 0.000000 0.500000 0.000000
O O9 0.730057 0.490903 0.641078
O O10 0.003768 0.740259 0.768664
O O11 0.492627 0.825657 0.571917
O O12 0.793155 0.994856 0.665977
O O13 0.582049 0.168585 0.849120
O O14 0.500000 0.500000 0.500000
O O15 0.273415 0.696015 0.637487
O O16 0.000000 0.000000 0.500000
O O17 0.950390 0.148694 0.379254
O O18 0.500000 0.500000 0.000000
O O19 0.000000 0.500000 0.500000
#
# Coordination Sequence:
#
# PCOD9032273 Si02
#       8
#     2   2   2   2   2   2   2   2
#     4  10  22  43  72 106 142 193 251 306 369 440
#     4  12  27  49  73 105 155 200 247 310 373 450
#     4  11  23  45  74 107 149 192 249 303 374 441
#     4  11  23  46  72 110 147 189 254 311 369 447
#     4  11  22  41  75 107 145 183 238 314 371 435
#     4  12  25  47  74 108 153 196 250 305 377 451
#     4  11  26  48  74 103 151 199 253 308 378 448
#     4  10  22  43  70 107 142 189 244 301 371 443
#
# _framework density 21.859379000000001
#
# number of rings (size 3 to 8) (size 9 to 14) (size 15 to 20)
#    0.000    1.000    3.750    3.000    3.500    1.000 
#    0.000    5.625    0.000    0.000    0.000    0.000 
#    0.000    0.000    0.000    0.000    0.000    0.000 
#
# Total GULP energy -89225.047723 kJ/mol
# GULP energy per Si atom -5576.565483 kJ/mol
# Density = 2.180963 g / cm^3
# Si number density = 21.859379 Si / 1000 Ang^3
#
#
#
# Elastic Constant Matrix: (Units=GPa)
#
#
# Indices 1 2 3 4 5 6 
#
# 1 147.9136 56.0119 28.5706 -3.6104 -22.1226 0.9356
# 2 56.0119 173.5974 43.8275 2.7703 -3.4687 -8.8243
# 3 28.5706 43.8275 64.4853 6.1318 -8.6659 4.3834
# 4 -3.6104 2.7703 6.1318 47.5365 4.6461 -10.3364
# 5 -22.1226 -3.4687 -8.6659 4.6461 44.7419 -11.0144
# 6 0.9356 -8.8243 4.3834 -10.3364 -11.0144 44.1801
#
#
#
# Elastic Compliance Matrix: (Units=1/GPa)
#
#
# Indices 1 2 3 4 5 6 
#
# 1 0.008533 -0.002169 -0.001925 0.000808 0.003768 0.000705
# 2 -0.002169 0.007683 -0.004563 0.000484 -0.000940 0.001912
# 3 -0.001925 -0.004563 0.020294 -0.003394 0.002208 -0.003128
# 4 0.000808 0.000484 -0.003394 0.022813 -0.001250 0.005442
# 5 0.003768 -0.000940 0.002208 -0.001250 0.026108 0.005730
# 6 0.000705 0.001912 -0.003128 0.005442 0.005730 0.026014
#
#
# Mechanical properties :
#
#
# Convention : Reuss Voigt Hill
#
# Bulk Modulus (GPa) = 52.09547 71.42403 61.75975
# Shear Modulus (GPa) = 36.99428 44.46413 40.72920
#
# Velocity S-wave (km/s) = 4.11831 4.51499 4.32121
# Velocity P-wave (km/s) = 6.81893 7.74115 7.29463
#
# Compressibility (1/GPa) = 0.01919553
#
# Stress axis : x y z
#
# Youngs Moduli (GPa) = 117.19792 130.15795 49.27683
#
# Poissons Ratio (x) = 0.28230 0.09485
# Poissons Ratio (y) = 0.25419 0.22486
# Poissons Ratio (z) = 0.22558 0.59393
#
# Static dielectric constant tensor:
#      x y z
#    x 1.806830 -0.005640 -0.013070 
#    y -0.005640 1.798740 0.007760 
#    z -0.013070 0.007760 1.902630 
# 
# From -- ./inp_files/380347.got.cif
#   From: 2010.05.17/outbox.cif.g08.bks.cpg/sg2_191_cif.got.tgz:380347.got - 2010.06.03 11:33:40.
