data_PCOD9032688
_publ_section_title
;
Structure prediction by ZEFSAII (Michael W. Deem and Ramdas Pophale) SiO2 
 PCOD9032688
Probable space group: P -1
;
_chemical_formula_sum "Si O2"
_cell_formula_units_Z 14
_cell_length_a 13.982585
_cell_length_b 7.320964
_cell_length_c 25.179200
_cell_angle_alpha 130.864045
_cell_angle_beta 18.422367
_cell_angle_gamma 123.853479
_cell_volume 593.746662
_symmetry_space_group_name_H-M "P -1"
_symmetry_group_IT_number 2
_symmetry_cell_setting 'triclinic'
loop_
_space_group_symop_operation_xyz
x,y,z
-x,-y,-z
loop_
_atom_site_type_symbol
_atom_site_label
_atom_site_fract_x
_atom_site_fract_y
_atom_site_fract_z
Si Si1 0.703372 0.781512 0.313627
Si Si2 0.827306 0.987240 0.854213
Si Si3 0.422706 0.998082 0.905889
Si Si4 0.056102 0.807484 0.385875
Si Si5 0.522074 0.162120 0.669719
Si Si6 0.981408 0.668767 0.617800
Si Si7 0.889264 0.247104 0.070670
O O1 0.634854 0.897332 0.312959
O O2 0.699283 0.491340 0.250419
O O3 0.500000 0.000000 0.500000
O O4 0.055076 0.771094 0.147355
O O5 0.046809 0.846291 0.664155
O O6 0.500000 0.000000 0.000000
O O7 0.814330 0.865310 0.896203
O O8 0.674125 0.795105 0.769863
O O9 0.624184 0.175498 0.808337
O O10 0.284262 0.852525 0.905815
O O11 0.059685 0.557641 0.368022
O O12 0.000000 0.000000 0.500000
O O13 0.757501 0.918656 0.525841
O O14 0.218245 0.298736 0.889387
O O15 0.742486 0.341194 0.571750
O O16 0.000000 0.000000 0.000000
#
# Coordination Sequence:
#
# PCOD9032688 Si02
#       7
#     2   2   2   2   2   2   2
#     4  12  26  48  76 106 150 201 243 305 379 441
#     4  10  22  43  73 104 142 194 244 299 375 441
#     4  10  24  45  71 106 147 198 242 309 373 435
#     4  11  26  42  69 108 145 191 255 304 360 446
#     4  11  25  45  75 105 145 194 244 303 377 429
#     4  10  24  46  74 105 148 194 251 306 368 446
#     4  12  28  47  75 115 151 190 253 309 369 445
#
# _framework density 23.579080000000001
#
# number of rings (size 3 to 8) (size 9 to 14) (size 15 to 20)
#    0.000    1.143    2.857    1.286    6.000    5.143 
#    2.571    2.857    0.000    0.000    0.000    0.000 
#    0.000    0.000    0.000    0.000    0.000    0.000 
#
# Total GULP energy -77999.684428 kJ/mol
# GULP energy per Si atom -5571.406031 kJ/mol
# Density = 2.352541 g / cm^3
# Si number density = 23.579080 Si / 1000 Ang^3
#
#
#
# Elastic Constant Matrix: (Units=GPa)
#
#
# Indices 1 2 3 4 5 6 
#
# 1 167.2598 73.0815 30.7004 6.1025 -7.9353 5.8261
# 2 73.0815 120.0805 34.8139 -11.1669 -16.2716 -21.0066
# 3 30.7004 34.8139 100.1939 -6.3315 7.7018 -2.2225
# 4 6.1025 -11.1669 -6.3315 24.5022 3.0696 -0.9378
# 5 -7.9353 -16.2716 7.7018 3.0696 44.0740 -0.5156
# 6 5.8261 -21.0066 -2.2225 -0.9378 -0.5156 41.3025
#
#
#
# Elastic Compliance Matrix: (Units=1/GPa)
#
#
# Indices 1 2 3 4 5 6 
#
# 1 0.009642 -0.007106 -0.000954 -0.006039 -0.000361 -0.005167
# 2 -0.007106 0.016730 -0.003285 0.008286 0.005006 0.009585
# 3 -0.000954 -0.003285 0.011812 0.002211 -0.003613 -0.000895
# 4 -0.006039 0.008286 0.002211 0.047106 -0.001623 0.006234
# 5 -0.000361 0.005006 -0.003613 -0.001623 0.025248 0.002681
# 6 -0.005167 0.009585 -0.000895 0.006234 0.002681 0.029943
#
#
# Mechanical properties :
#
#
# Convention : Reuss Voigt Hill
#
# Bulk Modulus (GPa) = 64.53484 73.85840 69.19662
# Shear Modulus (GPa) = 29.70275 38.57164 34.13719
#
# Velocity S-wave (km/s) = 3.55309 4.04894 3.80909
# Velocity P-wave (km/s) = 6.65293 7.29728 6.98254
#
# Compressibility (1/GPa) = 0.01549551
#
# Stress axis : x y z
#
# Youngs Moduli (GPa) = 103.71489 59.77123 84.66142
#
# Poissons Ratio (x) = 0.42473 0.08075
# Poissons Ratio (y) = 0.73699 0.27808
# Poissons Ratio (z) = 0.09892 0.19632
#
# Static dielectric constant tensor:
#      x y z
#    x 1.800380 -0.177940 0.015720 
#    y -0.177940 1.393440 0.002860 
#    z 0.015720 0.002860 2.305800 
# 
# From -- ./inp_files/619036.got.cif
#   From: 2010.05.17/outbox.cif.g08.bks.cpg/sg2_310_cif.got.tgz:619036.got - 2010.06.03 11:33:40.
