data_PCOD9032087
_publ_section_title
;
Structure prediction by ZEFSAII (Michael W. Deem and Ramdas Pophale) SiO2 
 PCOD9032087
Probable space group: P -1
;
_chemical_formula_sum "Si O2"
_cell_formula_units_Z 16
_cell_length_a 8.370622
_cell_length_b 11.016628
_cell_length_c 9.858223
_cell_angle_alpha 47.589543
_cell_angle_beta 70.938112
_cell_angle_gamma 76.386804
_cell_volume 634.254323
_symmetry_space_group_name_H-M "P -1"
_symmetry_group_IT_number 2
_symmetry_cell_setting 'triclinic'
loop_
_space_group_symop_operation_xyz
x,y,z
-x,-y,-z
loop_
_atom_site_type_symbol
_atom_site_label
_atom_site_fract_x
_atom_site_fract_y
_atom_site_fract_z
Si Si1 0.231083 0.867605 0.997974
Si Si2 0.753335 0.651697 0.178225
Si Si3 0.840948 0.015079 0.791424
Si Si4 0.165949 0.946547 0.634195
Si Si5 0.484944 0.143847 0.718044
Si Si6 0.124601 0.521909 0.223515
Si Si7 0.632686 0.759783 0.616568
Si Si8 0.700358 0.398646 0.156553
O O1 0.226878 0.671622 0.147793
O O2 0.115064 0.923901 0.114879
O O3 0.188990 0.915327 0.817028
O O4 0.400742 0.967096 0.904457
O O5 0.617684 0.716907 0.275147
O O6 0.676563 0.524644 0.189992
O O7 0.926366 0.567833 0.253155
O O8 0.806789 0.820468 0.961863
O O9 0.980854 0.026204 0.628922
O O10 0.678577 0.123476 0.715627
O O11 0.197858 0.766620 0.703328
O O12 0.300484 0.079088 0.449527
O O13 0.451951 0.184268 0.541536
O O14 0.202903 0.351440 0.382045
O O15 0.182970 0.521859 0.050073
O O16 0.481345 0.662552 0.802559
#
# Coordination Sequence:
#
# PCOD9032087 Si02
#       8
#     2   2   2   2   2   2   2   2
#     4   9  19  39  67  97 125 172 221 266 318 382
#     4  11  23  43  71 103 130 169 224 274 329 391
#     4  11  21  41  71 100 131 172 223 269 326 395
#     4  10  22  43  69  95 134 175 221 270 325 394
#     4  10  25  42  68 100 137 172 213 275 336 387
#     4  11  24  42  71  98 130 177 221 275 320 393
#     4  11  26  45  64  99 135 176 221 270 329 391
#     4  11  24  46  68  96 136 175 221 271 326 396
#
# _framework density 25.226471
#
# number of rings (size 3 to 8) (size 9 to 14) (size 15 to 20)
#    0.000    1.500    2.500    3.000    7.000    2.000 
#    4.500    1.250    0.000    0.000    0.000    0.000 
#    0.000    0.000    0.000    0.000    0.000    0.000 
#
# Total GULP energy -89562.631085 kJ/mol
# GULP energy per Si atom -5597.664443 kJ/mol
# Density = 2.516905 g / cm^3
# Si number density = 25.226471 Si / 1000 Ang^3
#
#
#
# Elastic Constant Matrix: (Units=GPa)
#
#
# Indices 1 2 3 4 5 6 
#
# 1 88.8244 42.6114 4.2921 4.6844 12.4683 -45.8771
# 2 42.6114 133.6113 17.9272 -7.4284 -13.9788 -12.1737
# 3 4.2921 17.9272 44.0090 2.6205 5.8825 -5.0897
# 4 4.6844 -7.4284 2.6205 34.1429 -10.3915 -4.6673
# 5 12.4683 -13.9788 5.8825 -10.3915 27.0278 -3.4020
# 6 -45.8771 -12.1737 -5.0897 -4.6673 -3.4020 47.5166
#
#
#
# Elastic Compliance Matrix: (Units=1/GPa)
#
#
# Indices 1 2 3 4 5 6 
#
# 1 0.039052 -0.014880 0.010679 -0.014074 -0.029476 0.031544
# 2 -0.014880 0.015322 -0.009123 0.010893 0.019838 -0.008928
# 3 0.010679 -0.009123 0.029554 -0.010279 -0.018924 0.008774
# 4 -0.014074 0.010893 -0.010279 0.042787 0.030117 -0.005540
# 5 -0.029476 0.019838 -0.018924 0.030117 0.074401 -0.017119
# 6 0.031544 -0.008928 0.008774 -0.005540 -0.017119 0.048383
#
#
# Mechanical properties :
#
#
# Convention : Reuss Voigt Hill
#
# Bulk Modulus (GPa) = 17.45821 44.01179 30.73500
# Shear Modulus (GPa) = 16.93538 35.17839 26.05689
#
# Velocity S-wave (km/s) = 2.59382 3.73836 3.21739
# Velocity P-wave (km/s) = 3.98825 6.00985 5.10022
#
# Compressibility (1/GPa) = 0.05727965
#
# Stress axis : x y z
#
# Youngs Moduli (GPa) = 25.60676 65.26728 33.83669
#
# Poissons Ratio (x) = 0.97116 -0.36133
# Poissons Ratio (y) = 0.38102 0.30869
# Poissons Ratio (z) = -0.27345 0.59543
#
# Static dielectric constant tensor:
#      x y z
#    x 2.072990 -0.007280 -0.002590 
#    y -0.007280 1.929320 0.018060 
#    z -0.002590 0.018060 2.018500 
# 
# From -- ./inp_files/388991.got.cif
#   From: 2010.05.17/outbox.cif.g08.bks.cpg/sg2_195_cif.got.tgz:388991.got - 2010.06.03 11:33:40.
