data_PCOD9032776
_publ_section_title
;
Structure prediction by ZEFSAII (Michael W. Deem and Ramdas Pophale) SiO2 
 PCOD9032776
Probable space group: P -1
;
_chemical_formula_sum "Si O2"
_cell_formula_units_Z 12
_cell_length_a 9.000503
_cell_length_b 14.624999
_cell_length_c 8.546269
_cell_angle_alpha 141.993869
_cell_angle_beta 64.681559
_cell_angle_gamma 127.030074
_cell_volume 550.469738
_symmetry_space_group_name_H-M "P -1"
_symmetry_group_IT_number 2
_symmetry_cell_setting 'triclinic'
loop_
_space_group_symop_operation_xyz
x,y,z
-x,-y,-z
loop_
_atom_site_type_symbol
_atom_site_label
_atom_site_fract_x
_atom_site_fract_y
_atom_site_fract_z
Si Si1 0.886446 0.069289 0.742520
Si Si2 0.182701 0.409293 0.239226
Si Si3 0.681823 0.172634 0.716998
Si Si4 0.113890 0.691341 0.505660
Si Si5 0.511241 0.627971 0.804787
Si Si6 0.197865 0.036945 0.038039
O O1 0.754205 0.109009 0.745479
O O2 0.033823 0.242434 0.992932
O O3 0.000000 0.000000 0.500000
O O4 0.791661 0.936354 0.746140
O O5 0.192701 0.568992 0.362088
O O6 0.379076 0.411803 0.162895
O O7 0.093041 0.392249 0.432795
O O8 0.844523 0.256913 0.624610
O O9 0.500000 0.000000 0.500000
O O10 0.643980 0.327455 0.996097
O O11 0.222984 0.873069 0.782557
O O12 0.500000 0.500000 0.500000
O O13 0.650943 0.808736 0.914320
O O14 0.000000 0.000000 0.000000
#
# Coordination Sequence:
#
# PCOD9032776 Si02
#       6
#     2   2   2   2   2   2
#     4  11  24  40  73 102 131 184 239 277 343 417
#     4  10  24  46  70  96 134 186 237 277 343 419
#     4  12  26  43  68 106 142 176 230 293 347 401
#     4  10  22  43  74  91 135 184 237 278 334 421
#     4  12  27  42  69 107 144 174 226 298 356 393
#     4  11  21  44  73  93 135 191 232 276 340 429
#
# _framework density 21.799565000000001
#
# number of rings (size 3 to 8) (size 9 to 14) (size 15 to 20)
#    0.000    1.000    5.000    2.000    7.000    4.667 
#    0.000    0.000    0.000    0.000    0.000    0.000 
#    0.000    0.000    0.000    0.000    0.000    0.000 
#
# Total GULP energy -66953.657990 kJ/mol
# GULP energy per Si atom -5579.471499 kJ/mol
# Density = 2.174995 g / cm^3
# Si number density = 21.799565 Si / 1000 Ang^3
#
#
#
# Elastic Constant Matrix: (Units=GPa)
#
#
# Indices 1 2 3 4 5 6 
#
# 1 116.5898 -10.7729 24.2472 -11.4743 -5.7115 -19.3193
# 2 -10.7729 51.8349 -7.7091 -12.2589 -1.6632 -17.9841
# 3 24.2472 -7.7091 101.9994 -3.8982 -13.7522 1.2915
# 4 -11.4743 -12.2589 -3.8982 46.9931 -6.5097 0.4302
# 5 -5.7115 -1.6632 -13.7522 -6.5097 35.1607 3.8390
# 6 -19.3193 -17.9841 1.2915 0.4302 3.8390 25.7231
#
#
#
# Elastic Compliance Matrix: (Units=1/GPa)
#
#
# Indices 1 2 3 4 5 6 
#
# 1 0.013232 0.009426 -0.002308 0.005475 0.000914 0.016416
# 2 0.009426 0.034868 0.000742 0.011484 0.002224 0.030896
# 3 -0.002308 0.000742 0.011091 0.001194 0.004488 -0.002462
# 4 0.005475 0.011484 0.001194 0.026389 0.005606 0.010803
# 5 0.000914 0.002224 0.004488 0.005606 0.031796 -0.002824
# 6 0.016416 0.030896 -0.002462 0.010803 -0.002824 0.073170
#
#
# Mechanical properties :
#
#
# Convention : Reuss Voigt Hill
#
# Bulk Modulus (GPa) = 13.34926 31.32829 22.33878
# Shear Modulus (GPa) = 25.02551 39.21931 32.12241
#
# Velocity S-wave (km/s) = 3.39186 4.24617 3.84283
# Velocity P-wave (km/s) = 4.63428 6.20017 5.47352
#
# Compressibility (1/GPa) = 0.07491051
#
# Stress axis : x y z
#
# Youngs Moduli (GPa) = 75.57493 28.67939 90.16556
#
# Poissons Ratio (x) = -0.27034 0.20815
# Poissons Ratio (y) = -0.71239 -0.06691
# Poissons Ratio (z) = 0.17446 -0.02128
#
# Static dielectric constant tensor:
#      x y z
#    x 1.851280 0.017270 -0.019650 
#    y 0.017270 1.829660 -0.072820 
#    z -0.019650 -0.072820 1.903820 
# 
# From -- ./inp_files/204675.got.cif
#   From: 2010.05.17/outbox.cif.g08.bks.cpg/sg2_103_cif.got.tgz:204675.got - 2010.06.03 11:33:40.
