data_PCOD9032767
_publ_section_title
;
Structure prediction by ZEFSAII (Michael W. Deem and Ramdas Pophale) SiO2 
 PCOD9032767
Probable space group: P -1
;
_chemical_formula_sum "Si O2"
_cell_formula_units_Z 16
_cell_length_a 12.734312
_cell_length_b 13.305939
_cell_length_c 10.984623
_cell_angle_alpha 45.069138
_cell_angle_beta 65.841711
_cell_angle_gamma 33.700235
_cell_volume 651.453617
_symmetry_space_group_name_H-M "P -1"
_symmetry_group_IT_number 2
_symmetry_cell_setting 'triclinic'
loop_
_space_group_symop_operation_xyz
x,y,z
-x,-y,-z
loop_
_atom_site_type_symbol
_atom_site_label
_atom_site_fract_x
_atom_site_fract_y
_atom_site_fract_z
Si Si1 0.127886 0.353901 0.690159
Si Si2 0.437271 0.928437 0.262317
Si Si3 0.159242 0.681087 0.554484
Si Si4 0.302501 0.125294 0.423428
Si Si5 0.792755 0.092544 0.525064
Si Si6 0.365359 0.877410 0.104615
Si Si7 0.819761 0.234764 0.790709
Si Si8 0.458288 0.651378 0.783173
O O1 0.000000 0.500000 0.500000
O O2 0.929968 0.578575 0.683793
O O3 0.322696 0.263016 0.694978
O O4 0.257944 0.071101 0.877666
O O5 0.339103 0.101657 0.280640
O O6 0.396384 0.804567 0.418498
O O7 0.312974 0.050396 0.088606
O O8 0.138064 0.868492 0.442677
O O9 0.385673 0.396771 0.743983
O O10 0.121486 0.729956 0.385064
O O11 0.979053 0.804920 0.623975
O O12 0.500000 0.000000 0.500000
O O13 0.341719 0.921947 0.625798
O O14 0.691714 0.277377 0.300538
O O15 0.282781 0.802440 0.188233
O O16 0.666281 0.469576 0.761033
O O17 0.000000 0.000000 0.000000
O O18 0.500000 0.500000 0.000000
#
# Coordination Sequence:
#
# PCOD9032767 Si02
#       8
#     2   2   2   2   2   2   2   2
#     4  12  29  52  79 110 155 214 265 320 388 467
#     4  11  25  51  75 110 151 202 264 310 389 463
#     4  11  22  46  73 112 156 200 250 321 395 462
#     4  11  26  50  78 110 156 211 256 328 387 469
#     4  10  22  43  74 107 151 202 246 321 390 461
#     4  12  27  47  77 115 153 206 261 322 393 471
#     4  12  26  45  77 118 159 201 255 331 398 473
#     4  11  25  45  71 115 155 198 259 319 399 462
#
# _framework density 24.560459999999999
#
# number of rings (size 3 to 8) (size 9 to 14) (size 15 to 20)
#    0.000    0.750    3.750    3.000    7.000    1.500 
#    2.250    0.000    0.000    0.000    0.000    0.000 
#    0.000    0.000    0.000    0.000    0.000    0.000 
#
# Total GULP energy -89086.765786 kJ/mol
# GULP energy per Si atom -5567.922862 kJ/mol
# Density = 2.450456 g / cm^3
# Si number density = 24.560460 Si / 1000 Ang^3
#
#
#
# Elastic Constant Matrix: (Units=GPa)
#
#
# Indices 1 2 3 4 5 6 
#
# 1 98.4049 20.7002 1.0566 3.2012 2.8719 -8.9212
# 2 20.7002 126.7679 43.0796 -8.5744 12.1056 -12.6283
# 3 1.0566 43.0796 133.6565 -5.1378 14.1021 -10.2448
# 4 3.2012 -8.5744 -5.1378 33.7676 1.1045 9.9216
# 5 2.8719 12.1056 14.1021 1.1045 42.6190 2.9845
# 6 -8.9212 -12.6283 -10.2448 9.9216 2.9845 40.7376
#
#
#
# Elastic Compliance Matrix: (Units=1/GPa)
#
#
# Indices 1 2 3 4 5 6 
#
# 1 0.010857 -0.001842 0.000679 -0.002120 -0.000556 0.002535
# 2 -0.001842 0.009556 -0.002679 0.001788 -0.001861 0.001586
# 3 0.000679 -0.002679 0.008713 0.000176 -0.002287 0.001634
# 4 -0.002120 0.001788 0.000176 0.032597 -0.000725 -0.007752
# 5 -0.000556 -0.001861 -0.002287 -0.000725 0.025011 -0.002929
# 6 0.002535 0.001586 0.001634 -0.007752 -0.002929 0.028108
#
#
# Mechanical properties :
#
#
# Convention : Reuss Voigt Hill
#
# Bulk Modulus (GPa) = 46.63270 54.27804 50.45537
# Shear Modulus (GPa) = 38.55867 43.02438 40.79152
#
# Velocity S-wave (km/s) = 3.96656 4.18996 4.07979
# Velocity P-wave (km/s) = 6.32505 6.74948 6.54071
#
# Compressibility (1/GPa) = 0.02144418
#
# Stress axis : x y z
#
# Youngs Moduli (GPa) = 92.10519 104.64403 114.76770
#
# Poissons Ratio (x) = 0.19270 -0.07794
# Poissons Ratio (y) = 0.16961 0.30745
# Poissons Ratio (z) = -0.06255 0.28033
#
# Static dielectric constant tensor:
#      x y z
#    x 2.086240 -0.002080 0.026230 
#    y -0.002080 2.162150 -0.048690 
#    z 0.026230 -0.048690 2.141590 
# 
# From -- ./inp_files/455468.got.cif
#   From: 2010.05.17/outbox.cif.g08.bks.cpg/sg2_228_cif.got.tgz:455468.got - 2010.06.03 11:33:40.
