data_PCOD9032951
_publ_section_title
;
Structure prediction by ZEFSAII (Michael W. Deem and Ramdas Pophale) SiO2 
 PCOD9032951
Probable space group: P -1
;
_chemical_formula_sum "Si O2"
_cell_formula_units_Z 16
_cell_length_a 6.106367
_cell_length_b 9.065754
_cell_length_c 16.962459
_cell_angle_alpha 74.975154
_cell_angle_beta 77.358689
_cell_angle_gamma 50.773554
_cell_volume 700.653358
_symmetry_space_group_name_H-M "P -1"
_symmetry_group_IT_number 2
_symmetry_cell_setting 'triclinic'
loop_
_space_group_symop_operation_xyz
x,y,z
-x,-y,-z
loop_
_atom_site_type_symbol
_atom_site_label
_atom_site_fract_x
_atom_site_fract_y
_atom_site_fract_z
Si Si1 0.285748 0.882504 0.660593
Si Si2 0.715153 0.227286 0.591701
Si Si3 0.362835 0.136308 0.733430
Si Si4 0.300896 0.948394 0.124823
Si Si5 0.304817 0.414888 0.449574
Si Si6 0.193345 0.676425 0.822672
Si Si7 0.825118 0.350459 0.830830
Si Si8 0.142075 0.369878 0.930904
O O1 0.577411 0.729747 0.612929
O O2 0.162444 0.784127 0.729219
O O3 0.339548 0.991269 0.705769
O O4 0.040494 0.039508 0.598167
O O5 0.532257 0.191885 0.664891
O O6 0.553350 0.295494 0.511840
O O7 0.706974 0.403534 0.598632
O O8 0.524405 0.052414 0.815614
O O9 0.047156 0.321798 0.754288
O O10 0.210507 0.811476 0.167036
O O11 0.538031 0.824380 0.055979
O O12 0.014698 0.164892 0.117236
O O13 0.000000 0.500000 0.500000
O O14 0.525183 0.556609 0.830553
O O15 0.149171 0.512324 0.850061
O O16 0.963308 0.313147 0.910886
O O17 0.000000 0.500000 0.000000
#
# Coordination Sequence:
#
# PCOD9032951 Si02
#       8
#     2   2   2   2   2   2   2   2
#     4  12  26  42  70  98 135 173 227 282 338 393
#     4  11  25  46  67  94 137 174 227 277 338 396
#     4  11  22  42  69  95 134 173 217 287 332 385
#     4  10  22  44  64 100 137 165 225 276 327 398
#     4  11  28  47  66  96 134 184 224 273 345 402
#     4  11  24  40  69 104 129 175 228 273 335 396
#     4  10  23  41  67  98 136 168 222 274 335 391
#     4  10  25  45  69  99 140 180 218 271 334 402
#
# _framework density 22.835825
#
# number of rings (size 3 to 8) (size 9 to 14) (size 15 to 20)
#    0.000    1.250    2.500    1.125   10.500    6.500 
#    0.000    1.250    0.000    0.000    0.000    0.000 
#    0.000    0.000    0.000    0.000    0.000    0.000 
#
# Total GULP energy -89390.653532 kJ/mol
# GULP energy per Si atom -5586.915846 kJ/mol
# Density = 2.278385 g / cm^3
# Si number density = 22.835825 Si / 1000 Ang^3
#
#
#
# Elastic Constant Matrix: (Units=GPa)
#
#
# Indices 1 2 3 4 5 6 
#
# 1 92.9195 61.0215 27.3269 15.8450 -0.1074 -8.4456
# 2 61.0215 167.1631 47.7552 32.5264 -14.8843 -23.1963
# 3 27.3269 47.7552 58.0229 21.5217 -0.9659 4.6223
# 4 15.8450 32.5264 21.5217 50.7856 1.8942 -10.2816
# 5 -0.1074 -14.8843 -0.9659 1.8942 20.8014 5.9434
# 6 -8.4456 -23.1963 4.6223 -10.2816 5.9434 35.5749
#
#
#
# Elastic Compliance Matrix: (Units=1/GPa)
#
#
# Indices 1 2 3 4 5 6 
#
# 1 0.014932 -0.004594 -0.003564 0.000294 -0.003902 0.001749
# 2 -0.004594 0.011310 -0.006695 -0.002101 0.006384 0.005480
# 3 -0.003564 -0.006695 0.028782 -0.009198 0.000716 -0.011730
# 4 0.000294 -0.002101 -0.009198 0.026885 -0.006897 0.008817
# 5 -0.003902 0.006384 0.000716 -0.006897 0.055609 -0.008141
# 6 0.001749 0.005480 -0.011730 0.008817 -0.008141 0.037530
#
#
# Mechanical properties :
#
#
# Convention : Reuss Voigt Hill
#
# Bulk Modulus (GPa) = 39.50196 65.59030 52.54613
# Shear Modulus (GPa) = 23.45279 33.56585 28.50932
#
# Velocity S-wave (km/s) = 3.20819 3.83806 3.53717
# Velocity P-wave (km/s) = 5.57307 6.95886 6.30416
#
# Compressibility (1/GPa) = 0.02531520
#
# Stress axis : x y z
#
# Youngs Moduli (GPa) = 66.97113 88.41901 34.74396
#
# Poissons Ratio (x) = 0.40624 0.12384
# Poissons Ratio (y) = 0.30769 0.23262
# Poissons Ratio (z) = 0.23871 0.59200
#
# Static dielectric constant tensor:
#      x y z
#    x 1.841700 -0.039950 0.001220 
#    y -0.039950 1.859880 -0.026170 
#    z 0.001220 -0.026170 1.907690 
# 
# From -- ./inp_files/548027.got.cif
#   From: 2010.05.17/outbox.cif.g08.bks.cpg/sg2_275_cif.got.tgz:548027.got - 2010.06.03 11:33:40.
