data_PCOD9032422
_publ_section_title
;
Structure prediction by ZEFSAII (Michael W. Deem and Ramdas Pophale) SiO2 
 PCOD9032422
Probable space group: P -1
;
_chemical_formula_sum "Si O2"
_cell_formula_units_Z 15
_cell_length_a 8.784418
_cell_length_b 20.585948
_cell_length_c 6.340508
_cell_angle_alpha 66.719116
_cell_angle_beta 62.840598
_cell_angle_gamma 38.613666
_cell_volume 635.113515
_symmetry_space_group_name_H-M "P -1"
_symmetry_group_IT_number 2
_symmetry_cell_setting 'triclinic'
loop_
_space_group_symop_operation_xyz
x,y,z
-x,-y,-z
loop_
_atom_site_type_symbol
_atom_site_label
_atom_site_fract_x
_atom_site_fract_y
_atom_site_fract_z
Si Si1 0.614805 0.578182 0.195694
Si Si2 0.050424 0.273001 0.099190
Si Si3 0.500000 0.500000 0.000000
Si Si4 0.158754 0.792240 0.437481
Si Si5 0.107925 0.376990 0.275388
Si Si6 0.972382 0.083449 0.014026
Si Si7 0.546723 0.066568 0.827392
Si Si8 0.555277 0.194116 0.446928
O O1 0.376717 0.678447 0.343018
O O2 0.817527 0.485868 0.353744
O O3 0.544682 0.540755 0.116718
O O4 0.755845 0.599120 0.958652
O O5 0.982626 0.215495 0.301963
O O6 0.103005 0.311137 0.208557
O O7 0.800961 0.377019 0.002007
O O8 0.317661 0.180648 0.931341
O O9 0.295184 0.816236 0.439182
O O10 0.987603 0.870990 0.251235
O O11 0.271932 0.309196 0.462586
O O12 0.699630 0.177140 0.169228
O O13 0.171376 0.016075 0.158971
O O14 0.000000 0.000000 0.000000
O O15 0.562459 0.106532 0.550325
O O16 0.500000 0.000000 0.000000
#
# Coordination Sequence:
#
# PCOD9032422 Si02
#       8
#     2   2   1   2   2   2   2   2
#     4  10  22  44  72 106 140 185 231 294 353 425
#     4  11  26  45  69 110 141 188 236 294 355 426
#     4  10  24  46  76 102 148 184 238 288 356 432
#     4  12  26  44  76 101 142 192 239 286 359 426
#     4  10  22  43  71 103 143 176 236 293 351 415
#     4  12  26  48  72 100 142 190 239 294 348 427
#     4  12  28  43  69 105 145 184 237 293 356 414
#     4  12  25  47  73 103 141 191 237 291 355 426
#
# _framework density 23.617826000000001
#
# number of rings (size 3 to 8) (size 9 to 14) (size 15 to 20)
#    0.000    0.800    2.667    3.600    5.600    4.267 
#    0.000    0.000    0.000    0.000    0.000    0.000 
#    0.000    0.000    0.000    0.000    0.000    0.000 
#
# Total GULP energy -83553.957290 kJ/mol
# GULP energy per Si atom -5570.263819 kJ/mol
# Density = 2.356407 g / cm^3
# Si number density = 23.617826 Si / 1000 Ang^3
#
#
#
# Elastic Constant Matrix: (Units=GPa)
#
#
# Indices 1 2 3 4 5 6 
#
# 1 53.7053 11.7566 15.6554 -7.9961 -6.2231 -2.8087
# 2 11.7566 131.9464 20.4877 -7.3190 8.2900 -18.3486
# 3 15.6554 20.4877 53.5769 -23.1463 -8.4689 -8.6896
# 4 -7.9961 -7.3190 -23.1463 38.3237 -5.4736 10.7710
# 5 -6.2231 8.2900 -8.4689 -5.4736 20.2712 -7.0239
# 6 -2.8087 -18.3486 -8.6896 10.7710 -7.0239 40.1067
#
#
#
# Elastic Compliance Matrix: (Units=1/GPa)
#
#
# Indices 1 2 3 4 5 6 
#
# 1 0.021146 -0.001604 -0.003065 0.003108 0.006863 0.000450
# 2 -0.001604 0.009080 -0.004933 -0.003239 -0.006185 0.002760
# 3 -0.003065 -0.004933 0.035036 0.021924 0.022748 0.003215
# 4 0.003108 -0.003239 0.021924 0.043716 0.021699 -0.004454
# 5 0.006863 -0.006185 0.022748 0.021699 0.072611 0.009468
# 6 0.000450 0.002760 0.003215 -0.004454 0.009468 0.029779
#
#
# Mechanical properties :
#
#
# Convention : Reuss Voigt Hill
#
# Bulk Modulus (GPa) = 21.71187 37.22529 29.46858
# Shear Modulus (GPa) = 20.33143 32.49558 26.41350
#
# Velocity S-wave (km/s) = 2.93721 3.71333 3.34783
# Velocity P-wave (km/s) = 4.55147 5.84643 5.23912
#
# Compressibility (1/GPa) = 0.04605776
#
# Stress axis : x y z
#
# Youngs Moduli (GPa) = 47.28950 110.12657 28.54247
#
# Poissons Ratio (x) = 0.17669 0.08748
# Poissons Ratio (y) = 0.07587 0.14080
# Poissons Ratio (z) = 0.14494 0.54325
#
# Static dielectric constant tensor:
#      x y z
#    x 2.018280 -0.059840 -0.074360 
#    y -0.059840 1.891790 0.013860 
#    z -0.074360 0.013860 1.932210 
# 
# From -- ./inp_files/52339.got.cif
#   From: 2010.05.17/outbox.cif.g08.bks.cpg/sg2_27_cif.got.tgz:52339.got - 2010.06.03 11:33:40.
