data_PCOD9032150
_publ_section_title
;
Structure prediction by ZEFSAII (Michael W. Deem and Ramdas Pophale) SiO2 
 PCOD9032150
Probable space group: P -1
;
_chemical_formula_sum "Si O2"
_cell_formula_units_Z 16
_cell_length_a 11.236493
_cell_length_b 5.172110
_cell_length_c 23.882986
_cell_angle_alpha 119.505760
_cell_angle_beta 146.287454
_cell_angle_gamma 62.609910
_cell_volume 666.806650
_symmetry_space_group_name_H-M "P -1"
_symmetry_group_IT_number 2
_symmetry_cell_setting 'triclinic'
loop_
_space_group_symop_operation_xyz
x,y,z
-x,-y,-z
loop_
_atom_site_type_symbol
_atom_site_label
_atom_site_fract_x
_atom_site_fract_y
_atom_site_fract_z
Si Si1 0.444454 0.805917 0.204819
Si Si2 0.072073 0.466034 0.383941
Si Si3 0.826699 0.418180 0.755596
Si Si4 0.429664 0.100743 0.109297
Si Si5 0.368777 0.807645 0.598033
Si Si6 0.413228 0.112740 0.417781
Si Si7 0.982530 0.281479 0.917593
Si Si8 0.113268 0.172193 0.746934
O O1 0.473608 0.448739 0.170091
O O2 0.230020 0.872350 0.166745
O O3 0.402132 0.970445 0.146874
O O4 0.630452 0.943384 0.327591
O O5 0.165578 0.621226 0.491194
O O6 0.278707 0.420852 0.416623
O O7 0.900256 0.675862 0.303243
O O8 0.994065 0.142357 0.331027
O O9 0.591153 0.592027 0.672511
O O10 0.936366 0.466042 0.862612
O O11 0.991240 0.405989 0.767410
O O12 0.770377 0.076367 0.698267
O O13 0.641663 0.916413 0.148507
O O14 0.212333 0.087636 0.987250
O O15 0.407907 0.933786 0.564918
O O16 0.500000 0.000000 0.500000
O O17 0.000000 0.500000 0.000000
#
# Coordination Sequence:
#
# PCOD9032150 Si02
#       8
#     2   2   2   2   2   2   2   2
#     4  11  24  43  70  97 126 171 221 282 330 385
#     4  11  23  39  63  97 134 175 213 265 332 389
#     4  11  22  38  65 101 136 165 218 271 335 396
#     4  11  25  47  66  89 133 178 224 269 325 386
#     4  12  21  37  65  99 133 163 219 277 335 382
#     4  11  20  35  59  97 141 163 203 267 335 386
#     4  10  22  43  69  99 127 167 219 284 335 379
#     4  11  25  43  63  93 135 181 219 257 322 406
#
# _framework density 23.994962999999998
#
# number of rings (size 3 to 8) (size 9 to 14) (size 15 to 20)
#    0.000    1.000    3.750    4.500    0.000    1.500 
#    0.000    3.750    0.000    6.750    0.000    0.000 
#    0.000    0.000    0.000    0.000    0.000    0.000 
#
# Total GULP energy -89414.651881 kJ/mol
# GULP energy per Si atom -5588.415743 kJ/mol
# Density = 2.394035 g / cm^3
# Si number density = 23.994963 Si / 1000 Ang^3
#
#
#
# Elastic Constant Matrix: (Units=GPa)
#
#
# Indices 1 2 3 4 5 6 
#
# 1 70.9216 14.2555 22.7076 -16.0376 -16.2817 9.1582
# 2 14.2555 84.4984 18.6751 -17.4348 -10.1774 14.8309
# 3 22.7076 18.6751 94.0469 -25.5647 -19.7233 -5.0985
# 4 -16.0376 -17.4348 -25.5647 46.5814 -1.9861 0.6479
# 5 -16.2817 -10.1774 -19.7233 -1.9861 41.8450 -12.6520
# 6 9.1582 14.8309 -5.0985 0.6479 -12.6520 29.8503
#
#
#
# Elastic Compliance Matrix: (Units=1/GPa)
#
#
# Indices 1 2 3 4 5 6 
#
# 1 0.017547 -0.000237 -0.001928 0.005159 0.005024 -0.003577
# 2 -0.000237 0.014572 -0.001915 0.004447 0.000534 -0.007365
# 3 -0.001928 -0.001915 0.015863 0.007600 0.009013 0.007908
# 4 0.005159 0.004447 0.007600 0.029423 0.008167 0.000329
# 5 0.005024 0.000534 0.009013 0.008167 0.034965 0.014375
# 6 -0.003577 -0.007365 0.007908 0.000329 0.014375 0.045694
#
#
# Mechanical properties :
#
#
# Convention : Reuss Voigt Hill
#
# Bulk Modulus (GPa) = 25.11069 40.08257 32.59663
# Shear Modulus (GPa) = 27.85561 36.57725 32.21643
#
# Velocity S-wave (km/s) = 3.41089 3.90856 3.66817
# Velocity P-wave (km/s) = 5.09901 6.09179 5.61738
#
# Compressibility (1/GPa) = 0.03982368
#
# Stress axis : x y z
#
# Youngs Moduli (GPa) = 56.99035 68.62392 63.03802
#
# Poissons Ratio (x) = 0.01625 0.12151
# Poissons Ratio (y) = 0.01350 0.12072
# Poissons Ratio (z) = 0.10985 0.13141
#
# Static dielectric constant tensor:
#      x y z
#    x 1.977320 0.017840 0.065780 
#    y 0.017840 1.999130 0.025460 
#    z 0.065780 0.025460 1.947390 
# 
# From -- ./inp_files/109608.got.cif
#   From: 2010.05.17/outbox.cif.g08.bks.cpg/sg2_55_cif.got.tgz:109608.got - 2010.06.03 11:33:40.
