data_PCOD9032699
_publ_section_title
;
Structure prediction by ZEFSAII (Michael W. Deem and Ramdas Pophale) SiO2 
 PCOD9032699
Probable space group: P -1
;
_chemical_formula_sum "Si O2"
_cell_formula_units_Z 14
_cell_length_a 11.522348
_cell_length_b 8.024805
_cell_length_c 7.472896
_cell_angle_alpha 67.371529
_cell_angle_beta 103.938214
_cell_angle_gamma 73.589812
_cell_volume 562.103588
_symmetry_space_group_name_H-M "P -1"
_symmetry_group_IT_number 2
_symmetry_cell_setting 'triclinic'
loop_
_space_group_symop_operation_xyz
x,y,z
-x,-y,-z
loop_
_atom_site_type_symbol
_atom_site_label
_atom_site_fract_x
_atom_site_fract_y
_atom_site_fract_z
Si Si1 0.791266 0.408537 0.514618
Si Si2 0.047572 0.096987 0.635005
Si Si3 0.476792 0.513776 0.700768
Si Si4 0.928571 0.259979 0.978354
Si Si5 0.461822 0.227668 0.101723
Si Si6 0.186380 0.318141 0.061817
Si Si7 0.710609 0.844266 0.437030
O O1 0.682163 0.363298 0.389154
O O2 0.822369 0.310947 0.761591
O O3 0.729391 0.639353 0.438350
O O4 0.934691 0.319815 0.517241
O O5 0.188225 0.087164 0.650414
O O6 0.000000 0.000000 0.500000
O O7 0.048602 0.952584 0.853161
O O8 0.500000 0.500000 0.500000
O O9 0.543975 0.631729 0.787940
O O10 0.507814 0.313403 0.909946
O O11 0.869630 0.444630 0.020310
O O12 0.065850 0.270974 0.970332
O O13 0.314440 0.246993 0.015233
O O14 0.564668 0.010109 0.286085
O O15 0.238766 0.207650 0.317847
#
# Coordination Sequence:
#
# PCOD9032699 Si02
#       7
#     2   2   2   2   2   2   2
#     4  11  26  46  68 104 147 185 237 306 357 431
#     4  12  24  42  73 104 140 188 244 293 364 428
#     4  11  26  47  73 109 146 188 250 301 355 433
#     4  10  23  43  71 108 142 188 233 302 358 426
#     4  11  26  46  78 103 146 203 234 298 369 427
#     4  10  22  43  73 107 147 184 240 289 364 435
#     4  11  24  44  71 108 147 189 242 296 361 435
#
# _framework density 24.906444
#
# number of rings (size 3 to 8) (size 9 to 14) (size 15 to 20)
#    0.000    1.143    1.429    3.857    8.000    1.714 
#    0.000    0.000    0.000    0.000    0.000    0.000 
#    0.000    0.000    0.000    0.000    0.000    0.000 
#
# Total GULP energy -78429.381581 kJ/mol
# GULP energy per Si atom -5602.098684 kJ/mol
# Density = 2.484976 g / cm^3
# Si number density = 24.906444 Si / 1000 Ang^3
#
#
#
# Elastic Constant Matrix: (Units=GPa)
#
#
# Indices 1 2 3 4 5 6 
#
# 1 106.2934 8.7544 24.4659 -15.7239 8.7574 -3.8594
# 2 8.7544 62.1227 40.9891 -16.7418 -8.6671 -9.3381
# 3 24.4659 40.9891 136.2999 0.8571 -3.9403 -3.5334
# 4 -15.7239 -16.7418 0.8571 48.7347 -7.6324 6.7379
# 5 8.7574 -8.6671 -3.9403 -7.6324 47.4440 3.4180
# 6 -3.8594 -9.3381 -3.5334 6.7379 3.4180 30.7104
#
#
#
# Elastic Compliance Matrix: (Units=1/GPa)
#
#
# Indices 1 2 3 4 5 6 
#
# 1 0.010486 0.000743 -0.002151 0.003342 -0.001493 0.000729
# 2 0.000743 0.024563 -0.007327 0.008991 0.004885 0.004203
# 3 -0.002151 -0.007327 0.009915 -0.003409 -0.000627 -0.000540
# 4 0.003342 0.008991 -0.003409 0.026046 0.005187 -0.003530
# 5 -0.001493 0.004885 -0.000627 0.005187 0.023208 -0.002495
# 6 0.000729 0.004203 -0.000540 -0.003530 -0.002495 0.034922
#
#
# Mechanical properties :
#
#
# Convention : Reuss Voigt Hill
#
# Bulk Modulus (GPa) = 36.36927 50.34834 43.35880
# Shear Modulus (GPa) = 32.09790 40.74493 36.42141
#
# Velocity S-wave (km/s) = 3.59380 4.04904 3.82819
# Velocity P-wave (km/s) = 5.64398 6.48987 6.08165
#
# Compressibility (1/GPa) = 0.02749574
#
# Stress axis : x y z
#
# Youngs Moduli (GPa) = 95.36854 40.71203 100.85255
#
# Poissons Ratio (x) = -0.03027 0.21694
# Poissons Ratio (y) = -0.07090 0.73890
# Poissons Ratio (z) = 0.20514 0.29828
#
# Static dielectric constant tensor:
#      x y z
#    x 1.939650 -0.042670 -0.026180 
#    y -0.042670 1.983740 0.039090 
#    z -0.026180 0.039090 1.921170 
# 
# From -- ./inp_files/160226.got.cif
#   From: 2010.05.17/outbox.cif.g08.bks.cpg/sg2_81_cif.got.tgz:160226.got - 2010.06.03 11:33:40.
