data_PCOD9032611
_publ_section_title
;
Structure prediction by ZEFSAII (Michael W. Deem and Ramdas Pophale) SiO2 
 PCOD9032611
Probable space group: P -1
;
_chemical_formula_sum "Si O2"
_cell_formula_units_Z 16
_cell_length_a 5.351422
_cell_length_b 26.474601
_cell_length_c 5.155602
_cell_angle_alpha 104.777144
_cell_angle_beta 91.232161
_cell_angle_gamma 120.973077
_cell_volume 595.193098
_symmetry_space_group_name_H-M "P -1"
_symmetry_group_IT_number 2
_symmetry_cell_setting 'triclinic'
loop_
_space_group_symop_operation_xyz
x,y,z
-x,-y,-z
loop_
_atom_site_type_symbol
_atom_site_label
_atom_site_fract_x
_atom_site_fract_y
_atom_site_fract_z
Si Si1 0.936236 0.780017 0.952131
Si Si2 0.379713 0.956474 0.185947
Si Si3 0.622160 0.658144 0.062006
Si Si4 0.180210 0.558577 0.265894
Si Si5 0.191094 0.073137 0.674297
Si Si6 0.798018 0.593966 0.594604
Si Si7 0.760230 0.819545 0.489001
Si Si8 0.845973 0.274909 0.458313
O O1 0.673657 0.707007 0.903024
O O2 0.867327 0.810932 0.755895
O O3 0.194209 0.772109 0.833209
O O4 0.954824 0.814280 0.261895
O O5 0.516768 0.914779 0.163419
O O6 0.031019 0.923265 0.133505
O O7 0.500000 0.000000 0.500000
O O8 0.500000 0.000000 0.000000
O O9 0.713412 0.610933 0.890880
O O10 0.311300 0.617087 0.145292
O O11 0.861904 0.703084 0.336992
O O12 0.483715 0.567223 0.400855
O O13 0.953978 0.556493 0.475689
O O14 0.000000 0.500000 0.000000
O O15 0.244402 0.119526 0.502745
O O16 0.000000 0.000000 0.500000
O O17 0.059554 0.661346 0.589947
O O18 0.427197 0.759781 0.400722
#
# Coordination Sequence:
#
# PCOD9032611 Si02
#       8
#     2   2   2   2   2   2   2   2
#     4  11  25  45  67 106 138 185 242 303 370 435
#     4  10  22  43  72  95 135 181 235 278 343 424
#     4  10  23  44  72 102 145 189 248 302 373 432
#     4  11  24  44  67 106 150 195 246 300 362 435
#     4  10  25  48  71 107 143 193 236 300 366 443
#     4  10  24  40  71  99 139 194 242 299 363 430
#     4  12  27  42  75 103 147 183 246 303 373 442
#     4  10  24  44  69 102 139 186 242 305 369 435
#
# _framework density 26.882033
#
# number of rings (size 3 to 8) (size 9 to 14) (size 15 to 20)
#    0.000    1.500    1.250    1.500    8.750    7.000 
#    2.250    0.000    0.000    0.000    0.000    0.000 
#    0.000    0.000    0.000    0.000    0.000    0.000 
#
# Total GULP energy -89505.225117 kJ/mol
# GULP energy per Si atom -5594.076570 kJ/mol
# Density = 2.682085 g / cm^3
# Si number density = 26.882033 Si / 1000 Ang^3
#
#
#
# Elastic Constant Matrix: (Units=GPa)
#
#
# Indices 1 2 3 4 5 6 
#
# 1 160.3533 19.1659 35.5793 -1.2103 -23.5205 6.4793
# 2 19.1659 99.4710 21.4566 -13.2834 -21.7362 11.4758
# 3 35.5793 21.4566 139.6448 -9.8889 -24.4294 1.4221
# 4 -1.2103 -13.2834 -9.8889 54.8892 -4.5832 -5.8000
# 5 -23.5205 -21.7362 -24.4294 -4.5832 33.9083 -2.8806
# 6 6.4793 11.4758 1.4221 -5.8000 -2.8806 32.1181
#
#
#
# Elastic Compliance Matrix: (Units=1/GPa)
#
#
# Indices 1 2 3 4 5 6 
#
# 1 0.007119 -0.000129 -0.001068 0.000169 0.004029 -0.000951
# 2 -0.000129 0.012709 -0.000237 0.003369 0.008073 -0.003172
# 3 -0.001068 -0.000237 0.008591 0.002021 0.005637 0.000790
# 4 0.000169 0.003369 0.002021 0.020273 0.006723 0.002937
# 5 0.004029 0.008073 0.005637 0.006723 0.042522 0.001081
# 6 -0.000951 -0.003172 0.000790 0.002937 0.001081 0.033053
#
#
# Mechanical properties :
#
#
# Convention : Reuss Voigt Hill
#
# Bulk Modulus (GPa) = 39.13535 61.31918 50.22727
# Shear Modulus (GPa) = 36.85931 45.73428 41.29679
#
# Velocity S-wave (km/s) = 3.70692 4.12915 3.92372
# Velocity P-wave (km/s) = 5.73685 6.75227 6.26517
#
# Compressibility (1/GPa) = 0.02555234
#
# Stress axis : x y z
#
# Youngs Moduli (GPa) = 140.46694 78.68458 116.40560
#
# Poissons Ratio (x) = 0.01013 0.12428
# Poissons Ratio (y) = 0.01809 0.02757
# Poissons Ratio (z) = 0.14996 0.01863
#
# Static dielectric constant tensor:
#      x y z
#    x 2.199180 -0.074810 0.008080 
#    y -0.074810 2.144480 0.035450 
#    z 0.008080 0.035450 2.104320 
# 
# From -- ./inp_files/14617.got.cif
#   From: 2010.05.17/outbox.cif.g08.bks.cpg/sg2_8_cif.got.tgz:14617.got - 2010.06.03 11:33:40.
