data_PCOD9032053
_publ_section_title
;
Structure prediction by ZEFSAII (Michael W. Deem and Ramdas Pophale) SiO2 
 PCOD9032053
Probable space group: P -1
;
_chemical_formula_sum "Si O2"
_cell_formula_units_Z 16
_cell_length_a 8.616549
_cell_length_b 10.977047
_cell_length_c 14.426816
_cell_angle_alpha 108.140234
_cell_angle_beta 52.877246
_cell_angle_gamma 137.554455
_cell_volume 711.156699
_symmetry_space_group_name_H-M "P -1"
_symmetry_group_IT_number 2
_symmetry_cell_setting 'triclinic'
loop_
_space_group_symop_operation_xyz
x,y,z
-x,-y,-z
loop_
_atom_site_type_symbol
_atom_site_label
_atom_site_fract_x
_atom_site_fract_y
_atom_site_fract_z
Si Si1 0.653697 0.977497 0.869222
Si Si2 0.290906 0.984926 0.707249
Si Si3 0.161872 0.776659 0.530652
Si Si4 0.167575 0.582355 0.864382
Si Si5 0.834463 0.641949 0.932002
Si Si6 0.924562 0.894132 0.098747
Si Si7 0.840214 0.646764 0.314213
Si Si8 0.316379 0.570039 0.495714
O O1 0.839407 0.985249 0.877714
O O2 0.852235 0.154245 0.772549
O O3 0.442952 0.796899 0.838824
O O4 0.500000 0.000000 0.000000
O O5 0.609644 0.085904 0.600516
O O6 0.325475 0.146367 0.771493
O O7 0.159935 0.891615 0.631257
O O8 0.061162 0.813863 0.819811
O O9 0.275405 0.701241 0.523559
O O10 0.862152 0.592878 0.555196
O O11 0.245520 0.483167 0.771957
O O12 0.942313 0.547980 0.871989
O O13 0.000000 0.500000 0.000000
O O14 0.500000 0.500000 0.000000
O O15 0.878431 0.729109 0.038205
O O16 0.000000 0.000000 0.000000
O O17 0.635159 0.670641 0.403432
O O18 0.809575 0.540529 0.388285
#
# Coordination Sequence:
#
# PCOD9032053 Si02
#       8
#     2   2   2   2   2   2   2   2
#     4  12  24  44  68  99 139 178 221 277 335 407
#     4  10  23  39  67  97 128 171 224 273 332 392
#     4  10  22  43  69  92 128 171 229 279 327 390
#     4  12  26  42  68 101 138 180 223 271 341 406
#     4  11  25  42  65 101 138 175 221 272 337 406
#     4  10  23  41  64  96 135 170 220 270 334 395
#     4  11  25  45  68  99 138 174 224 275 341 400
#     4  10  24  45  66  94 128 177 221 281 335 390
#
# _framework density 22.498555
#
# number of rings (size 3 to 8) (size 9 to 14) (size 15 to 20)
#    0.000    1.250    2.500    1.500    7.000    4.000 
#    0.000    1.250    0.000    0.000    0.000    0.000 
#    0.000    0.000    0.000    0.000    0.000    0.000 
#
# Total GULP energy -89293.182889 kJ/mol
# GULP energy per Si atom -5580.823931 kJ/mol
# Density = 2.244735 g / cm^3
# Si number density = 22.498555 Si / 1000 Ang^3
#
#
#
# Elastic Constant Matrix: (Units=GPa)
#
#
# Indices 1 2 3 4 5 6 
#
# 1 61.0898 -6.0249 17.5812 -8.9472 6.2610 -4.0379
# 2 -6.0249 93.7669 34.6717 -10.3563 4.2873 7.2298
# 3 17.5812 34.6717 135.0015 -2.5350 7.1136 -11.7048
# 4 -8.9472 -10.3563 -2.5350 48.5346 -2.4061 0.9639
# 5 6.2610 4.2873 7.1136 -2.4061 21.5901 -4.4225
# 6 -4.0379 7.2298 -11.7048 0.9639 -4.4225 24.1790
#
#
#
# Elastic Compliance Matrix: (Units=1/GPa)
#
#
# Indices 1 2 3 4 5 6 
#
# 1 0.018465 0.002860 -0.002840 0.003640 -0.004609 -0.000134
# 2 0.002860 0.013330 -0.004113 0.003129 -0.003038 -0.006180
# 3 -0.002840 -0.004113 0.009290 -0.001043 -0.000470 0.005208
# 4 0.003640 0.003129 -0.001043 0.021958 0.000794 -0.001563
# 5 -0.004609 -0.003038 -0.000470 0.000794 0.050363 0.009091
# 6 -0.000134 -0.006180 0.005208 -0.001563 0.009091 0.047430
#
#
# Mechanical properties :
#
#
# Convention : Reuss Voigt Hill
#
# Bulk Modulus (GPa) = 30.39532 42.47938 36.43735
# Shear Modulus (GPa) = 27.77940 35.10277 31.44108
#
# Velocity S-wave (km/s) = 3.51767 3.95425 3.74233
# Velocity P-wave (km/s) = 5.48068 6.30635 5.90796
#
# Compressibility (1/GPa) = 0.03289980
#
# Stress axis : x y z
#
# Youngs Moduli (GPa) = 54.15603 75.01729 107.64060
#
# Poissons Ratio (x) = -0.21451 0.30565
# Poissons Ratio (y) = -0.15486 0.44271
# Poissons Ratio (z) = 0.15378 0.30854
#
# Static dielectric constant tensor:
#      x y z
#    x 1.967980 -0.057090 -0.028760 
#    y -0.057090 1.822740 -0.009050 
#    z -0.028760 -0.009050 1.803200 
# 
# From -- ./inp_files/500535.got.cif
#   From: 2010.05.17/outbox.cif.g08.bks.cpg/sg2_251_cif.got.tgz:500535.got - 2010.06.03 11:33:40.
