data_PCOD9032358
_publ_section_title
;
Structure prediction by ZEFSAII (Michael W. Deem and Ramdas Pophale) SiO2 
 PCOD9032358
Probable space group: P -1
;
_chemical_formula_sum "Si O2"
_cell_formula_units_Z 16
_cell_length_a 10.522452
_cell_length_b 19.122892
_cell_length_c 7.780543
_cell_angle_alpha 111.541345
_cell_angle_beta 80.577385
_cell_angle_gamma 147.497528
_cell_volume 748.389433
_symmetry_space_group_name_H-M "P -1"
_symmetry_group_IT_number 2
_symmetry_cell_setting 'triclinic'
loop_
_space_group_symop_operation_xyz
x,y,z
-x,-y,-z
loop_
_atom_site_type_symbol
_atom_site_label
_atom_site_fract_x
_atom_site_fract_y
_atom_site_fract_z
Si Si1 0.541084 0.360694 0.845567
Si Si2 0.242621 0.160020 0.170523
Si Si3 0.499157 0.563784 0.786386
Si Si4 0.330770 0.976871 0.612674
Si Si5 0.393988 0.750454 0.018115
Si Si6 0.060706 0.114801 0.540406
Si Si7 0.907864 0.674635 0.628455
Si Si8 0.034845 0.447926 0.318262
O O1 0.575692 0.300369 0.891676
O O2 0.260539 0.239644 0.746814
O O3 0.686288 0.420776 0.691366
O O4 0.622623 0.473532 0.040139
O O5 0.358773 0.288487 0.161808
O O6 0.178546 0.162614 0.369826
O O7 0.447143 0.197379 0.135835
O O8 0.000000 0.000000 0.000000
O O9 0.718879 0.613529 0.758382
O O10 0.278661 0.435454 0.587887
O O11 0.171882 0.946804 0.484580
O O12 0.125419 0.836608 0.656621
O O13 0.500000 0.000000 0.500000
O O14 0.497491 0.119332 0.809534
O O15 0.122107 0.622278 0.885362
O O16 0.000000 0.000000 0.500000
O O17 0.026607 0.658134 0.660679
O O18 0.000000 0.500000 0.500000
#
# Coordination Sequence:
#
# PCOD9032358 Si02
#       8
#     2   2   2   2   2   2   2   2
#     4  11  24  42  74 103 133 178 244 295 348 415
#     4  11  19  41  71  97 132 178 239 289 342 413
#     4  10  22  43  70  99 134 179 235 296 350 404
#     4  12  28  44  69 103 148 189 224 293 367 418
#     4  11  24  45  68 101 138 184 233 294 350 418
#     4  12  22  42  71 105 132 180 243 290 340 423
#     4  11  25  46  68  96 144 186 230 289 359 421
#     4  12  27  43  70 104 142 185 233 288 363 435
#
# _framework density 21.379244
#
# number of rings (size 3 to 8) (size 9 to 14) (size 15 to 20)
#    0.000    0.750    3.750    4.125    5.250    3.000 
#    0.000    0.000    0.000    0.000    0.000    0.000 
#    0.000    0.000    0.000    0.000    0.000    0.000 
#
# Total GULP energy -89357.226143 kJ/mol
# GULP energy per Si atom -5584.826634 kJ/mol
# Density = 2.133058 g / cm^3
# Si number density = 21.379244 Si / 1000 Ang^3
#
#
#
# Elastic Constant Matrix: (Units=GPa)
#
#
# Indices 1 2 3 4 5 6 
#
# 1 136.8319 24.5718 47.0110 -0.7685 -12.8687 3.1984
# 2 24.5718 60.8591 17.6378 0.4825 -5.9956 -2.2632
# 3 47.0110 17.6378 110.5179 8.6676 -13.9248 5.1463
# 4 -0.7685 0.4825 8.6676 36.2596 10.4199 -3.0327
# 5 -12.8687 -5.9956 -13.9248 10.4199 42.6610 -2.1472
# 6 3.1984 -2.2632 5.1463 -3.0327 -2.1472 35.1584
#
#
#
# Elastic Compliance Matrix: (Units=1/GPa)
#
#
# Indices 1 2 3 4 5 6 
#
# 1 0.009032 -0.002595 -0.003326 0.000676 0.001090 -0.000377
# 2 -0.002595 0.018168 -0.001698 -0.000130 0.001335 0.001724
# 3 -0.003326 -0.001698 0.011546 -0.003922 0.003403 -0.001627
# 4 0.000676 -0.000130 -0.003922 0.031224 -0.008586 0.002673
# 5 0.001090 0.001335 0.003403 -0.008586 0.027186 0.000408
# 6 -0.000377 0.001724 -0.001627 0.002673 0.000408 0.029082
#
#
# Mechanical properties :
#
#
# Convention : Reuss Voigt Hill
#
# Bulk Modulus (GPa) = 42.53641 54.07224 48.30432
# Shear Modulus (GPa) = 33.48749 37.41502 35.45125
#
# Velocity S-wave (km/s) = 3.96201 4.18791 4.07653
# Velocity P-wave (km/s) = 6.39292 6.98081 6.69332
#
# Compressibility (1/GPa) = 0.02350927
#
# Stress axis : x y z
#
# Youngs Moduli (GPa) = 110.71724 55.04281 86.60931
#
# Poissons Ratio (x) = 0.14282 0.28806
# Poissons Ratio (y) = 0.28728 0.14702
# Poissons Ratio (z) = 0.36824 0.09344
#
# Static dielectric constant tensor:
#      x y z
#    x 1.796520 0.036870 -0.025850 
#    y 0.036870 1.632430 0.168850 
#    z -0.025850 0.168850 1.667010 
# 
# From -- ./inp_files/218267.got.cif
#   From: 2010.05.17/outbox.cif.g08.bks.cpg/sg2_110_cif.got.tgz:218267.got - 2010.06.03 11:33:40.
