data_PCOD9032522
_publ_section_title
;
Structure prediction by ZEFSAII (Michael W. Deem and Ramdas Pophale) SiO2 
 PCOD9032522
Probable space group: P -1
;
_chemical_formula_sum "Si O2"
_cell_formula_units_Z 14
_cell_length_a 9.056292
_cell_length_b 10.949753
_cell_length_c 8.971494
_cell_angle_alpha 55.582873
_cell_angle_beta 98.137723
_cell_angle_gamma 121.947128
_cell_volume 606.778856
_symmetry_space_group_name_H-M "P -1"
_symmetry_group_IT_number 2
_symmetry_cell_setting 'triclinic'
loop_
_space_group_symop_operation_xyz
x,y,z
-x,-y,-z
loop_
_atom_site_type_symbol
_atom_site_label
_atom_site_fract_x
_atom_site_fract_y
_atom_site_fract_z
Si Si1 0.007044 0.668178 0.319205
Si Si2 0.916347 0.174384 0.469324
Si Si3 0.555044 0.683349 0.302286
Si Si4 0.333047 0.805578 0.073892
Si Si5 0.350511 0.464922 0.810403
Si Si6 0.730930 0.799480 0.541627
Si Si7 0.801176 0.381094 0.117801
O O1 0.071979 0.810362 0.361994
O O2 0.144643 0.758968 0.140228
O O3 0.000000 0.500000 0.500000
O O4 0.808858 0.588051 0.290144
O O5 0.828173 0.278518 0.326639
O O6 0.121422 0.250887 0.396401
O O7 0.805709 0.978443 0.520658
O O8 0.500000 0.500000 0.500000
O O9 0.380573 0.686704 0.258991
O O10 0.614828 0.684026 0.139418
O O11 0.696050 0.823618 0.345456
O O12 0.316724 0.756720 0.932717
O O13 0.500000 0.000000 0.000000
O O14 0.540457 0.647396 0.685005
O O15 0.275793 0.501527 0.923582
O O16 0.000000 0.500000 0.000000
#
# Coordination Sequence:
#
# PCOD9032522 Si02
#       7
#     2   2   2   2   2   2   2
#     4  12  22  43  72 101 129 188 236 273 330 420
#     4  11  24  42  69  99 138 169 231 283 334 406
#     4  10  22  43  71  99 131 179 235 273 330 413
#     4  12  28  47  68 101 147 180 219 289 356 399
#     4  11  23  39  69  96 128 177 229 275 330 406
#     4  10  23  41  68 102 127 171 227 289 329 385
#     4  12  26  43  63 100 139 175 219 282 345 403
#
# _framework density 23.072655999999998
#
# number of rings (size 3 to 8) (size 9 to 14) (size 15 to 20)
#    0.000    0.857    4.286    2.571    8.000    1.143 
#    0.000    0.714    0.000    0.000    0.000    0.000 
#    0.000    0.000    0.000    0.000    0.000    0.000 
#
# Total GULP energy -78168.493036 kJ/mol
# GULP energy per Si atom -5583.463788 kJ/mol
# Density = 2.302014 g / cm^3
# Si number density = 23.072656 Si / 1000 Ang^3
#
#
#
# Elastic Constant Matrix: (Units=GPa)
#
#
# Indices 1 2 3 4 5 6 
#
# 1 95.7132 32.5033 15.6243 8.4462 -20.8379 10.8172
# 2 32.5033 177.3035 23.0967 39.2211 -20.4889 -0.0316
# 3 15.6243 23.0967 36.8006 17.7824 -9.3668 2.0011
# 4 8.4462 39.2211 17.7824 35.5372 -2.2787 -9.0117
# 5 -20.8379 -20.4889 -9.3668 -2.2787 38.6310 12.0719
# 6 10.8172 -0.0316 2.0011 -9.0117 12.0719 47.0262
#
#
#
# Elastic Compliance Matrix: (Units=1/GPa)
#
#
# Indices 1 2 3 4 5 6 
#
# 1 0.013612 -0.000811 -0.001772 -0.002351 0.008089 -0.005583
# 2 -0.000811 0.008423 0.001382 -0.010265 0.004711 -0.003043
# 3 -0.001772 0.001382 0.041752 -0.023496 0.011252 -0.008759
# 4 -0.002351 -0.010265 -0.023496 0.054853 -0.014066 0.015656
# 5 0.008089 0.004711 0.011252 -0.014066 0.039377 -0.015140
# 6 -0.005583 -0.003043 -0.008759 0.015656 -0.015140 0.029806
#
#
# Mechanical properties :
#
#
# Convention : Reuss Voigt Hill
#
# Bulk Modulus (GPa) = 16.29026 50.25177 33.27102
# Shear Modulus (GPa) = 23.73191 40.14507 31.93849
#
# Velocity S-wave (km/s) = 3.21062 4.17579 3.72460
# Velocity P-wave (km/s) = 4.56287 6.71392 5.74006
#
# Compressibility (1/GPa) = 0.06138639
#
# Stress axis : x y z
#
# Youngs Moduli (GPa) = 73.46498 118.72122 23.95080
#
# Poissons Ratio (x) = 0.09625 0.04244
# Poissons Ratio (y) = 0.05956 -0.03311
# Poissons Ratio (z) = 0.13018 -0.16410
#
# Static dielectric constant tensor:
#      x y z
#    x 1.906540 -0.060660 -0.008080 
#    y -0.060660 1.894360 0.039810 
#    z -0.008080 0.039810 1.916310 
# 
# From -- ./inp_files/185155.got.cif
#   From: 2010.05.17/outbox.cif.g08.bks.cpg/sg2_93_cif.got.tgz:185155.got - 2010.06.03 11:33:40.
