data_PCOD9032057
_publ_section_title
;
Structure prediction by ZEFSAII (Michael W. Deem and Ramdas Pophale) SiO2 
 PCOD9032057
Probable space group: P -1
;
_chemical_formula_sum "Si O2"
_cell_formula_units_Z 16
_cell_length_a 8.888798
_cell_length_b 13.235987
_cell_length_c 9.651995
_cell_angle_alpha 117.754060
_cell_angle_beta 126.736366
_cell_angle_gamma 92.591729
_cell_volume 716.534975
_symmetry_space_group_name_H-M "P -1"
_symmetry_group_IT_number 2
_symmetry_cell_setting 'triclinic'
loop_
_space_group_symop_operation_xyz
x,y,z
-x,-y,-z
loop_
_atom_site_type_symbol
_atom_site_label
_atom_site_fract_x
_atom_site_fract_y
_atom_site_fract_z
Si Si1 0.984770 0.621984 0.130662
Si Si2 0.631537 0.156721 0.682169
Si Si3 0.096379 0.725067 0.544618
Si Si4 0.229555 0.113290 0.312036
Si Si5 0.048701 0.742447 0.836403
Si Si6 0.411688 0.142589 0.144321
Si Si7 0.047230 0.969187 0.657132
Si Si8 0.683151 0.615688 0.753548
O O1 0.174281 0.757463 0.261528
O O2 0.003727 0.622910 0.306972
O O3 0.000000 0.500000 0.000000
O O4 0.759885 0.605676 0.942744
O O5 0.448171 0.197944 0.568356
O O6 0.500000 0.000000 0.500000
O O7 0.736498 0.189430 0.913196
O O8 0.342679 0.809713 0.701350
O O9 0.076039 0.687166 0.669940
O O10 0.991978 0.820744 0.532800
O O11 0.076985 0.174076 0.217319
O O12 0.311116 0.076250 0.193122
O O13 0.087658 0.008048 0.279997
O O14 0.886159 0.642263 0.789198
O O15 0.373072 0.267179 0.201763
O O16 0.285635 0.052159 0.891016
O O17 0.000000 0.000000 0.500000
O O18 0.500000 0.500000 0.500000
#
# Coordination Sequence:
#
# PCOD9032057 Si02
#       8
#     2   2   2   2   2   2   2   2
#     4  11  24  45  70  98 131 176 230 280 333 419
#     4  11  25  39  70 102 133 179 230 273 333 408
#     4  11  23  42  63  96 133 171 218 285 346 395
#     4  10  23  39  64  88 135 173 221 259 333 392
#     4   9  24  43  63  98 137 169 221 283 333 393
#     4  11  22  39  64  91 131 179 223 267 340 402
#     4  11  25  37  60  95 137 171 219 280 342 398
#     4  10  22  43  69  93 125 177 233 277 328 408
#
# _framework density 22.329684
#
# number of rings (size 3 to 8) (size 9 to 14) (size 15 to 20)
#    0.000    1.500    1.250    2.250   14.000    0.000 
#    0.000    6.250    0.000    0.000    0.000    0.000 
#    0.000    0.000    0.000    0.000    0.000    0.000 
#
# Total GULP energy -89280.101707 kJ/mol
# GULP energy per Si atom -5580.006357 kJ/mol
# Density = 2.227886 g / cm^3
# Si number density = 22.329684 Si / 1000 Ang^3
#
#
#
# Elastic Constant Matrix: (Units=GPa)
#
#
# Indices 1 2 3 4 5 6 
#
# 1 70.2852 5.6636 38.9093 -16.4059 -4.6758 4.5869
# 2 5.6636 51.7432 31.1319 -16.9852 -8.6036 -9.3375
# 3 38.9093 31.1319 194.1817 -33.1451 -1.9028 1.1730
# 4 -16.4059 -16.9852 -33.1451 50.6941 -0.7494 -7.9868
# 5 -4.6758 -8.6036 -1.9028 -0.7494 45.6940 -8.1420
# 6 4.5869 -9.3375 1.1730 -7.9868 -8.1420 24.9030
#
#
#
# Elastic Compliance Matrix: (Units=1/GPa)
#
#
# Indices 1 2 3 4 5 6 
#
# 1 0.016798 0.001401 -0.002895 0.003950 0.001826 -0.000569
# 2 0.001401 0.029254 -0.003097 0.011082 0.008784 0.017283
# 3 -0.002895 -0.003097 0.006610 0.002272 -0.000642 -0.000421
# 4 0.003950 0.011082 0.002272 0.028540 0.005603 0.014306
# 5 0.001826 0.008784 -0.000642 0.005603 0.026167 0.013340
# 6 -0.000569 0.017283 -0.000421 0.014306 0.013340 0.055710
#
#
# Mechanical properties :
#
#
# Convention : Reuss Voigt Hill
#
# Bulk Modulus (GPa) = 22.99954 51.95775 37.47864
# Shear Modulus (GPa) = 26.77295 40.29193 33.53244
#
# Velocity S-wave (km/s) = 3.46639 4.25244 3.87938
# Velocity P-wave (km/s) = 5.13259 6.88695 6.07345
#
# Compressibility (1/GPa) = 0.04347913
#
# Stress axis : x y z
#
# Youngs Moduli (GPa) = 59.53054 34.18370 151.27515
#
# Poissons Ratio (x) = -0.04788 0.43793
# Poissons Ratio (y) = -0.08339 0.46856
# Poissons Ratio (z) = 0.17234 0.10588
#
# Static dielectric constant tensor:
#      x y z
#    x 1.883730 -0.002410 -0.015980 
#    y -0.002410 1.917260 -0.035860 
#    z -0.015980 -0.035860 1.877840 
# 
# From -- ./inp_files/208832.got.cif
#   From: 2010.05.17/outbox.cif.g08.bks.cpg/sg2_105_cif.got.tgz:208832.got - 2010.06.03 11:33:40.
