data_PCOD9032375
_publ_section_title
;
Structure prediction by ZEFSAII (Michael W. Deem and Ramdas Pophale) SiO2 
 PCOD9032375
Probable space group: P -1
;
_chemical_formula_sum "Si O2"
_cell_formula_units_Z 16
_cell_length_a 8.899395
_cell_length_b 24.512495
_cell_length_c 11.796174
_cell_angle_alpha 30.491043
_cell_angle_beta 148.241238
_cell_angle_gamma 143.865208
_cell_volume 659.631484
_symmetry_space_group_name_H-M "P -1"
_symmetry_group_IT_number 2
_symmetry_cell_setting 'triclinic'
loop_
_space_group_symop_operation_xyz
x,y,z
-x,-y,-z
loop_
_atom_site_type_symbol
_atom_site_label
_atom_site_fract_x
_atom_site_fract_y
_atom_site_fract_z
Si Si1 0.322511 0.135751 0.867565
Si Si2 0.328306 0.005061 0.757473
Si Si3 0.866736 0.571900 0.533755
Si Si4 0.507149 0.738601 0.624143
Si Si5 0.847855 0.643851 0.648676
Si Si6 0.543157 0.717994 0.940211
Si Si7 0.772855 0.582734 0.957865
Si Si8 0.230123 0.052060 0.214027
O O1 0.326050 0.262467 0.629089
O O2 0.248014 0.102887 0.008924
O O3 0.060651 0.051537 0.778101
O O4 0.606931 0.098765 0.080523
O O5 0.494072 0.133488 0.601995
O O6 0.000000 0.000000 0.500000
O O7 0.500000 0.000000 0.000000
O O8 0.822145 0.584156 0.617571
O O9 0.171888 0.662656 0.527498
O O10 0.623513 0.618513 0.234731
O O11 0.930435 0.454069 0.756423
O O12 0.587253 0.704827 0.860026
O O13 0.734605 0.704358 0.745603
O O14 0.753808 0.569918 0.832770
O O15 0.200524 0.709160 0.764713
O O16 0.742057 0.842182 0.877356
O O17 0.500000 0.500000 0.000000
O O18 0.500000 0.000000 0.500000
#
# Coordination Sequence:
#
# PCOD9032375 Si02
#       8
#     2   2   2   2   2   2   2   2
#     4  11  24  39  66 102 136 186 235 288 360 440
#     4  12  29  46  70 106 153 205 245 297 366 453
#     4  10  22  43  71 100 132 181 236 308 368 425
#     4  10  24  45  68  99 140 189 241 294 366 442
#     4  11  22  42  68 104 134 175 241 295 366 434
#     4  11  22  39  69 101 139 175 233 304 360 439
#     4  10  23  46  70  92 137 189 237 305 366 441
#     4  11  21  37  66 100 137 179 225 291 362 429
#
# _framework density 24.255967999999999
#
# number of rings (size 3 to 8) (size 9 to 14) (size 15 to 20)
#    0.000    1.250    2.500    2.625    8.750    2.000 
#    0.000    0.000    0.000    0.000    0.000    0.000 
#    0.000    0.000    0.000    0.000    0.000    0.000 
#
# Total GULP energy -89374.405757 kJ/mol
# GULP energy per Si atom -5585.900360 kJ/mol
# Density = 2.420076 g / cm^3
# Si number density = 24.255968 Si / 1000 Ang^3
#
#
#
# Elastic Constant Matrix: (Units=GPa)
#
#
# Indices 1 2 3 4 5 6 
#
# 1 88.8693 11.1644 42.2664 -7.5568 12.5647 -8.8937
# 2 11.1644 82.7188 32.1414 6.2214 2.4557 -2.4579
# 3 42.2664 32.1414 157.7539 -12.3093 23.6819 0.6227
# 4 -7.5568 6.2214 -12.3093 35.4809 -1.0984 0.8598
# 5 12.5647 2.4557 23.6819 -1.0984 47.3966 -14.3239
# 6 -8.8937 -2.4579 0.6227 0.8598 -14.3239 17.8130
#
#
#
# Elastic Compliance Matrix: (Units=1/GPa)
#
#
# Indices 1 2 3 4 5 6 
#
# 1 0.013806 -0.000393 -0.003575 0.001606 0.000350 0.007168
# 2 -0.000393 0.013750 -0.003306 -0.003666 0.002063 0.003652
# 3 -0.003575 -0.003306 0.009053 0.002962 -0.005485 -0.007111
# 4 0.001606 -0.003666 0.002962 0.030206 -0.001847 -0.002751
# 5 0.000350 0.002063 -0.005485 -0.001847 0.031467 0.026044
# 6 0.007168 0.003652 -0.007111 -0.002751 0.026044 0.081545
#
#
# Mechanical properties :
#
#
# Convention : Reuss Voigt Hill
#
# Bulk Modulus (GPa) = 45.32698 55.60962 50.46830
# Shear Modulus (GPa) = 24.78570 36.38941 30.58755
#
# Velocity S-wave (km/s) = 3.20009 3.87748 3.55495
# Velocity P-wave (km/s) = 5.69048 6.55914 6.14019
#
# Compressibility (1/GPa) = 0.02206192
#
# Stress axis : x y z
#
# Youngs Moduli (GPa) = 72.43058 72.72767 110.46227
#
# Poissons Ratio (x) = 0.02856 0.39485
# Poissons Ratio (y) = 0.02845 0.36523
# Poissons Ratio (z) = 0.25890 0.24046
#
# Static dielectric constant tensor:
#      x y z
#    x 1.947510 -0.008890 0.016130 
#    y -0.008890 2.034190 0.053450 
#    z 0.016130 0.053450 1.923720 
# 
# From -- ./inp_files/285805.got.cif
#   From: 2010.05.17/outbox.cif.g08.bks.cpg/sg2_143_cif.got.tgz:285805.got - 2010.06.03 11:33:40.
