data_PCOD9032642
_publ_section_title
;
Structure prediction by ZEFSAII (Michael W. Deem and Ramdas Pophale) SiO2 
 PCOD9032642
Probable space group: P -1
;
_chemical_formula_sum "Si O2"
_cell_formula_units_Z 16
_cell_length_a 10.945408
_cell_length_b 8.738293
_cell_length_c 16.552586
_cell_angle_alpha 39.911312
_cell_angle_beta 51.885883
_cell_angle_gamma 78.703602
_cell_volume 667.536247
_symmetry_space_group_name_H-M "P -1"
_symmetry_group_IT_number 2
_symmetry_cell_setting 'triclinic'
loop_
_space_group_symop_operation_xyz
x,y,z
-x,-y,-z
loop_
_atom_site_type_symbol
_atom_site_label
_atom_site_fract_x
_atom_site_fract_y
_atom_site_fract_z
Si Si1 0.857678 0.671951 0.929608
Si Si2 0.653577 0.842361 0.283235
Si Si3 0.816821 0.838545 0.587786
Si Si4 0.532713 0.698729 0.042953
Si Si5 0.081941 0.311223 0.561049
Si Si6 0.407023 0.886155 0.494665
Si Si7 0.529813 0.224452 0.777864
Si Si8 0.055372 0.391324 0.905220
O O1 0.964776 0.581170 0.864282
O O2 0.664518 0.597120 0.003853
O O3 0.950839 0.006759 0.777034
O O4 0.852207 0.545923 0.069611
O O5 0.500000 0.500000 0.500000
O O6 0.571420 0.953319 0.339509
O O7 0.617526 0.889082 0.186493
O O8 0.881045 0.059116 0.107587
O O9 0.671600 0.533511 0.809644
O O10 0.878337 0.771059 0.507490
O O11 0.698770 0.972957 0.556686
O O12 0.000000 0.000000 0.500000
O O13 0.528827 0.709700 0.138931
O O14 0.585887 0.001881 0.866723
O O15 0.282131 0.496839 0.445369
O O16 0.000000 0.500000 0.500000
O O17 0.235704 0.548274 0.709390
O O18 0.500000 0.000000 0.500000
#
# Coordination Sequence:
#
# PCOD9032642 Si02
#       8
#     2   2   2   2   2   2   2   2
#     4  11  21  43  73 102 135 186 246 292 360 445
#     4  12  29  48  73 110 152 189 253 315 363 440
#     4  11  26  44  69 105 140 187 245 305 364 440
#     4  10  22  43  72  98 143 193 231 301 372 436
#     4  11  22  42  69 101 144 183 232 300 368 435
#     4  12  27  50  76 106 151 201 244 307 380 448
#     4  10  24  43  64 105 143 185 238 296 373 435
#     4  11  25  45  72 107 139 194 247 294 367 449
#
# _framework density 23.968734999999999
#
# number of rings (size 3 to 8) (size 9 to 14) (size 15 to 20)
#    0.000    1.000    2.500    3.750    8.750    0.500 
#    2.250    1.875    0.000    0.000    0.000    0.000 
#    0.000    0.000    0.000    0.000    0.000    0.000 
#
# Total GULP energy -89306.152154 kJ/mol
# GULP energy per Si atom -5581.634510 kJ/mol
# Density = 2.391418 g / cm^3
# Si number density = 23.968735 Si / 1000 Ang^3
#
#
#
# Elastic Constant Matrix: (Units=GPa)
#
#
# Indices 1 2 3 4 5 6 
#
# 1 99.0009 27.4831 16.2955 -6.5921 -20.2993 12.0096
# 2 27.4831 35.7938 15.1898 -9.4357 -4.0853 -4.4623
# 3 16.2955 15.1898 140.7451 -8.2164 -21.1677 4.8827
# 4 -6.5921 -9.4357 -8.2164 31.6218 -0.1465 -2.9561
# 5 -20.2993 -4.0853 -21.1677 -0.1465 35.3694 -13.4768
# 6 12.0096 -4.4623 4.8827 -2.9561 -13.4768 35.8421
#
#
#
# Elastic Compliance Matrix: (Units=1/GPa)
#
#
# Indices 1 2 3 4 5 6 
#
# 1 0.014977 -0.011772 0.000536 -0.000635 0.005878 -0.004399
# 2 -0.011772 0.042340 -0.002891 0.010427 0.000509 0.010661
# 3 0.000536 -0.002891 0.008179 0.001430 0.005007 0.000347
# 4 -0.000635 0.010427 0.001430 0.035532 0.004040 0.005766
# 5 0.005878 0.000509 0.005007 0.004040 0.039522 0.012605
# 6 -0.004399 0.010661 0.000347 0.005766 0.012605 0.035869
#
#
# Mechanical properties :
#
#
# Convention : Reuss Voigt Hill
#
# Bulk Modulus (GPa) = 26.85157 43.71962 35.28560
# Shear Modulus (GPa) = 23.03213 35.00476 29.01844
#
# Velocity S-wave (km/s) = 3.10324 3.82571 3.48326
# Velocity P-wave (km/s) = 4.90583 6.14773 5.56156
#
# Compressibility (1/GPa) = 0.03724177
#
# Stress axis : x y z
#
# Youngs Moduli (GPa) = 66.76748 23.61855 122.25713
#
# Poissons Ratio (x) = 0.27805 -0.06553
# Poissons Ratio (y) = 0.78601 0.35345
# Poissons Ratio (z) = -0.03579 0.06828
#
# Static dielectric constant tensor:
#      x y z
#    x 2.019710 -0.030620 -0.312620 
#    y -0.030620 1.909440 -0.066370 
#    z -0.312620 -0.066370 2.295170 
# 
# From -- ./inp_files/566429.got.cif
#   From: 2010.05.17/outbox.cif.g08.bks.cpg/sg2_284_cif.got.tgz:566429.got - 2010.06.03 11:33:40.
