data_PCOD9032294
_publ_section_title
;
Structure prediction by ZEFSAII (Michael W. Deem and Ramdas Pophale) SiO2 
 PCOD9032294
Probable space group: P -1
;
_chemical_formula_sum "Si O2"
_cell_formula_units_Z 14
_cell_length_a 7.786264
_cell_length_b 5.373686
_cell_length_c 16.429646
_cell_angle_alpha 85.535554
_cell_angle_beta 57.399878
_cell_angle_gamma 64.874412
_cell_volume 513.963158
_symmetry_space_group_name_H-M "P -1"
_symmetry_group_IT_number 2
_symmetry_cell_setting 'triclinic'
loop_
_space_group_symop_operation_xyz
x,y,z
-x,-y,-z
loop_
_atom_site_type_symbol
_atom_site_label
_atom_site_fract_x
_atom_site_fract_y
_atom_site_fract_z
Si Si1 0.663037 0.868086 0.038182
Si Si2 0.145004 0.728071 0.070930
Si Si3 0.047735 0.357232 0.620214
Si Si4 0.584231 0.566580 0.391159
Si Si5 0.672249 0.171377 0.242403
Si Si6 0.765016 0.903183 0.595582
Si Si7 0.624463 0.343215 0.812364
O O1 0.814731 0.542384 0.984567
O O2 0.803457 0.044714 0.996647
O O3 0.484468 0.875166 0.153141
O O4 0.500000 0.000000 0.000000
O O5 0.311939 0.626171 0.110898
O O6 0.887327 0.891612 0.165775
O O7 0.263188 0.283288 0.624717
O O8 0.130536 0.204761 0.517093
O O9 0.945427 0.692213 0.619081
O O10 0.857505 0.283650 0.708441
O O11 0.500000 0.500000 0.500000
O O12 0.735557 0.315063 0.298482
O O13 0.357851 0.761593 0.391342
O O14 0.453132 0.147160 0.331141
O O15 0.572082 0.387456 0.187685
#
# Coordination Sequence:
#
# PCOD9032294 Si02
#       7
#     2   2   2   2   2   2   2
#     4  10  23  49  76 106 142 187 239 297 363 431
#     4  11  25  46  76 105 145 187 237 298 368 421
#     4  10  22  43  70  94 135 188 224 294 354 414
#     4  12  25  41  67  97 140 185 232 290 347 417
#     4  11  26  44  66 106 136 184 239 287 352 431
#     4  10  23  45  62  98 141 173 239 285 350 425
#     4  10  23  45  71  98 139 181 237 288 355 425
#
# _framework density 27.239308999999999
#
# number of rings (size 3 to 8) (size 9 to 14) (size 15 to 20)
#    0.000    1.429    1.429    3.000    6.000    2.857 
#   12.857    0.000    0.000    0.000    0.000    0.000 
#    0.000    0.000    0.000    0.000    0.000    0.000 
#
# Total GULP energy -78470.907787 kJ/mol
# GULP energy per Si atom -5605.064842 kJ/mol
# Density = 2.717731 g / cm^3
# Si number density = 27.239309 Si / 1000 Ang^3
#
#
#
# Elastic Constant Matrix: (Units=GPa)
#
#
# Indices 1 2 3 4 5 6 
#
# 1 127.2702 35.2007 42.7063 -7.4110 2.1083 -12.1054
# 2 35.2007 157.5597 64.1528 -5.2095 -1.6836 -5.7379
# 3 42.7063 64.1528 197.6181 -13.2028 -18.1372 20.2055
# 4 -7.4110 -5.2095 -13.2028 53.6562 3.3660 0.5598
# 5 2.1083 -1.6836 -18.1372 3.3660 37.3163 -3.4039
# 6 -12.1054 -5.7379 20.2055 0.5598 -3.4039 43.4400
#
#
#
# Elastic Compliance Matrix: (Units=1/GPa)
#
#
# Indices 1 2 3 4 5 6 
#
# 1 0.009221 -0.001100 -0.002044 0.000713 -0.001331 0.003261
# 2 -0.001100 0.007668 -0.002496 0.000000 -0.000639 0.001817
# 3 -0.002044 -0.002496 0.007062 0.001068 0.002977 -0.003965
# 4 0.000713 0.000000 0.001068 0.019087 -0.001302 -0.000646
# 5 -0.001331 -0.000639 0.002977 -0.001302 0.028446 0.000406
# 6 0.003261 0.001817 -0.003965 -0.000646 0.000406 0.026053
#
#
# Mechanical properties :
#
#
# Convention : Reuss Voigt Hill
#
# Bulk Modulus (GPa) = 78.91310 85.17417 82.04364
# Shear Modulus (GPa) = 44.23186 49.57506 46.90346
#
# Velocity S-wave (km/s) = 4.03404 4.27075 4.15408
# Velocity P-wave (km/s) = 7.12258 7.46028 7.29339
#
# Compressibility (1/GPa) = 0.01267217
#
# Stress axis : x y z
#
# Youngs Moduli (GPa) = 108.44763 130.40851 141.59934
#
# Poissons Ratio (x) = 0.14343 0.28937
# Poissons Ratio (y) = 0.11928 0.35346
# Poissons Ratio (z) = 0.22162 0.32552
#
# Static dielectric constant tensor:
#      x y z
#    x 2.069340 0.033160 0.020590 
#    y 0.033160 2.182150 0.001600 
#    z 0.020590 0.001600 2.112000 
# 
# From -- ./inp_files/553406.got.cif
#   From: 2010.05.17/outbox.cif.g08.bks.cpg/sg2_277_cif.got.tgz:553406.got - 2010.06.03 11:33:40.
