data_PCOD9032640
_publ_section_title
;
Structure prediction by ZEFSAII (Michael W. Deem and Ramdas Pophale) SiO2 
 PCOD9032640
Probable space group: P -1
;
_chemical_formula_sum "Si O2"
_cell_formula_units_Z 14
_cell_length_a 9.520924
_cell_length_b 15.693484
_cell_length_c 5.501394
_cell_angle_alpha 108.735011
_cell_angle_beta 49.076173
_cell_angle_gamma 114.455324
_cell_volume 563.869151
_symmetry_space_group_name_H-M "P -1"
_symmetry_group_IT_number 2
_symmetry_cell_setting 'triclinic'
loop_
_space_group_symop_operation_xyz
x,y,z
-x,-y,-z
loop_
_atom_site_type_symbol
_atom_site_label
_atom_site_fract_x
_atom_site_fract_y
_atom_site_fract_z
Si Si1 0.344244 0.280837 0.789243
Si Si2 0.720991 0.428140 0.281328
Si Si3 0.839295 0.217693 0.617116
Si Si4 0.123727 0.094359 0.070802
Si Si5 0.469757 0.051642 0.836161
Si Si6 0.445362 0.420171 0.191559
Si Si7 0.974390 0.323242 0.061576
O O1 0.555911 0.340773 0.515913
O O2 0.189837 0.312636 0.828764
O O3 0.274120 0.168966 0.790769
O O4 0.331520 0.322970 0.111273
O O5 0.643090 0.410942 0.078199
O O6 0.684217 0.528976 0.459093
O O7 0.919877 0.419331 0.160215
O O8 0.622184 0.153652 0.766982
O O9 0.874294 0.264960 0.884629
O O10 0.975933 0.148694 0.381809
O O11 0.891206 0.284876 0.385213
O O12 0.256235 0.063851 0.088767
O O13 0.000000 0.000000 0.000000
O O14 0.500000 0.000000 0.500000
O O15 0.500000 0.000000 0.000000
O O16 0.500000 0.500000 0.000000
#
# Coordination Sequence:
#
# PCOD9032640 Si02
#       7
#     2   2   2   2   2   2   2
#     4  10  24  43  69 101 136 183 232 279 351 409
#     4  10  22  43  72  98 139 181 225 288 345 411
#     4  11  26  46  65 103 137 176 240 283 343 409
#     4  11  25  47  71  99 144 183 227 293 340 404
#     4  12  26  44  69  98 131 182 234 283 346 407
#     4   9  21  43  67 103 136 177 229 280 349 416
#     4  11  26  42  73 101 137 178 232 286 337 418
#
# _framework density 24.828455999999999
#
# number of rings (size 3 to 8) (size 9 to 14) (size 15 to 20)
#    0.000    1.429    1.429    1.714   12.000    3.429 
#    0.000    6.429    0.000    0.000    0.000    0.000 
#    0.000    0.000    0.000    0.000    0.000    0.000 
#
# Total GULP energy -78266.649357 kJ/mol
# GULP energy per Si atom -5590.474954 kJ/mol
# Density = 2.477195 g / cm^3
# Si number density = 24.828456 Si / 1000 Ang^3
#
#
#
# Elastic Constant Matrix: (Units=GPa)
#
#
# Indices 1 2 3 4 5 6 
#
# 1 185.5150 21.7969 35.1185 8.7426 2.7923 -39.2164
# 2 21.7969 108.9285 18.5648 -7.1212 14.4959 -22.1132
# 3 35.1185 18.5648 70.2196 5.3257 18.0254 -4.4701
# 4 8.7426 -7.1212 5.3257 32.4122 1.1442 -1.0864
# 5 2.7923 14.4959 18.0254 1.1442 46.1343 6.2349
# 6 -39.2164 -22.1132 -4.4701 -1.0864 6.2349 45.7949
#
#
#
# Elastic Compliance Matrix: (Units=1/GPa)
#
#
# Indices 1 2 3 4 5 6 
#
# 1 0.007306 0.000243 -0.003234 -0.001182 -0.000041 0.006036
# 2 0.000243 0.011414 -0.002035 0.003112 -0.003707 0.006099
# 3 -0.003234 -0.002035 0.018034 -0.002368 -0.005986 -0.001233
# 4 -0.001182 0.003112 -0.002368 0.032316 -0.000938 0.001153
# 5 -0.000041 -0.003707 -0.005986 -0.000938 0.026013 -0.005974
# 6 0.006036 0.006099 -0.001233 0.001153 -0.005974 0.030671
#
#
# Mechanical properties :
#
#
# Convention : Reuss Voigt Hill
#
# Bulk Modulus (GPa) = 37.45071 57.29150 47.37110
# Shear Modulus (GPa) = 34.55289 44.14715 39.35002
#
# Velocity S-wave (km/s) = 3.73455 4.22131 3.98537
# Velocity P-wave (km/s) = 5.80623 6.84721 6.34810
#
# Compressibility (1/GPa) = 0.02670177
#
# Stress axis : x y z
#
# Youngs Moduli (GPa) = 136.86809 87.61524 55.45092
#
# Poissons Ratio (x) = -0.02126 0.17931
# Poissons Ratio (y) = -0.03321 0.11284
# Poissons Ratio (z) = 0.44259 0.17830
#
# Static dielectric constant tensor:
#      x y z
#    x 1.903260 -0.000300 -0.030180 
#    y -0.000300 1.957030 0.000660 
#    z -0.030180 0.000660 2.193470 
# 
# From -- ./inp_files/37084.got.cif
#   From: 2010.05.17/outbox.cif.g08.bks.cpg/sg2_19_cif.got.tgz:37084.got - 2010.06.03 11:33:40.
