data_PCOD9032405
_publ_section_title
;
Structure prediction by ZEFSAII (Michael W. Deem and Ramdas Pophale) SiO2 
 PCOD9032405
Probable space group: P -1
;
_chemical_formula_sum "Si O2"
_cell_formula_units_Z 16
_cell_length_a 19.733229
_cell_length_b 6.008899
_cell_length_c 9.137383
_cell_angle_alpha 117.273959
_cell_angle_beta 127.796849
_cell_angle_gamma 52.624203
_cell_volume 673.908433
_symmetry_space_group_name_H-M "P -1"
_symmetry_group_IT_number 2
_symmetry_cell_setting 'triclinic'
loop_
_space_group_symop_operation_xyz
x,y,z
-x,-y,-z
loop_
_atom_site_type_symbol
_atom_site_label
_atom_site_fract_x
_atom_site_fract_y
_atom_site_fract_z
Si Si1 0.954179 0.685640 0.351923
Si Si2 0.699820 0.816343 0.298360
Si Si3 0.986526 0.719983 0.917697
Si Si4 0.209996 0.836555 0.325774
Si Si5 0.451823 0.679511 0.343799
Si Si6 0.860231 0.279017 0.512067
Si Si7 0.669441 0.608921 0.897246
Si Si8 0.537437 0.896406 0.317092
O O1 0.000000 0.500000 0.500000
O O2 0.935639 0.486646 0.158974
O O3 0.037365 0.732221 0.393174
O O4 0.869891 0.985087 0.373407
O O5 0.777661 0.538778 0.399882
O O6 0.596822 0.862261 0.238964
O O7 0.720949 0.068339 0.461184
O O8 0.709403 0.733424 0.115252
O O9 0.872293 0.872224 0.766571
O O10 0.000000 0.500000 0.000000
O O11 0.000000 0.000000 0.000000
O O12 0.159306 0.726236 0.344596
O O13 0.263093 0.592510 0.202871
O O14 0.500000 0.500000 0.500000
O O15 0.372976 0.595160 0.154860
O O16 0.528157 0.641931 0.306932
O O17 0.415096 0.988671 0.460626
O O18 0.573928 0.876652 0.790077
#
# Coordination Sequence:
#
# PCOD9032405 Si02
#       8
#     2   2   2   2   2   2   2   2
#     4  11  23  48  74 102 144 192 246 309 392 457
#     4  12  26  44  74 107 146 200 253 312 376 453
#     4  12  28  49  80 112 152 203 253 319 391 475
#     4  12  27  48  70 112 153 189 253 317 381 458
#     4   9  20  40  67 101 132 191 239 303 367 439
#     4  11  25  43  76 104 148 196 247 320 384 459
#     4  11  26  44  70 106 150 194 254 306 377 454
#     4  10  22  43  71 101 148 198 246 308 378 442
#
# _framework density 23.742100000000001
#
# number of rings (size 3 to 8) (size 9 to 14) (size 15 to 20)
#    0.000    1.000    3.750    1.125    8.750    2.500 
#    0.000    0.000    0.000    0.000    0.000    0.000 
#    0.000    0.000    0.000    0.000    0.000    0.000 
#
# Total GULP energy -89295.318403 kJ/mol
# GULP energy per Si atom -5580.957400 kJ/mol
# Density = 2.368806 g / cm^3
# Si number density = 23.742100 Si / 1000 Ang^3
#
#
#
# Elastic Constant Matrix: (Units=GPa)
#
#
# Indices 1 2 3 4 5 6 
#
# 1 140.1859 35.4843 48.6780 12.9695 -20.3632 12.5439
# 2 35.4843 109.5277 53.6380 1.6778 -7.0205 -8.9548
# 3 48.6780 53.6380 130.4955 14.0110 -17.9345 4.3417
# 4 12.9695 1.6778 14.0110 38.6376 -3.0079 -2.7127
# 5 -20.3632 -7.0205 -17.9345 -3.0079 35.6704 7.2527
# 6 12.5439 -8.9548 4.3417 -2.7127 7.2527 43.7025
#
#
#
# Elastic Compliance Matrix: (Units=1/GPa)
#
#
# Indices 1 2 3 4 5 6 
#
# 1 0.009543 -0.002314 -0.001550 -0.002447 0.004823 -0.004012
# 2 -0.002314 0.012461 -0.004903 0.002151 -0.002000 0.004170
# 3 -0.001550 -0.004903 0.011242 -0.003207 0.004050 -0.002548
# 4 -0.002447 0.002151 -0.003207 0.027937 -0.000911 0.003347
# 5 0.004823 -0.002000 0.004050 -0.000911 0.033957 -0.007889
# 6 -0.004012 0.004170 -0.002548 0.003347 -0.007889 0.026658
#
#
# Mechanical properties :
#
#
# Convention : Reuss Voigt Hill
#
# Bulk Modulus (GPa) = 63.64437 72.86775 68.25606
# Shear Modulus (GPa) = 34.58540 39.76270 37.17405
#
# Velocity S-wave (km/s) = 3.82083 4.09684 3.96124
# Velocity P-wave (km/s) = 6.80659 7.28950 7.05218
#
# Compressibility (1/GPa) = 0.01571231
#
# Stress axis : x y z
#
# Youngs Moduli (GPa) = 104.78718 80.25160 88.94995
#
# Poissons Ratio (x) = 0.18572 0.13783
# Poissons Ratio (y) = 0.24251 0.43613
# Poissons Ratio (z) = 0.16238 0.39348
#
# Static dielectric constant tensor:
#      x y z
#    x 1.855800 0.020970 0.058440 
#    y 0.020970 1.939840 0.054220 
#    z 0.058440 0.054220 2.015470 
# 
# From -- ./inp_files/340683.got.cif
#   From: 2010.05.17/outbox.cif.g08.bks.cpg/sg2_171_cif.got.tgz:340683.got - 2010.06.03 11:33:40.
