data_PCOD9032235
_publ_section_title
;
Structure prediction by ZEFSAII (Michael W. Deem and Ramdas Pophale) SiO2 
 PCOD9032235
Probable space group: P -1
;
_chemical_formula_sum "Si O2"
_cell_formula_units_Z 13
_cell_length_a 13.463370
_cell_length_b 4.937589
_cell_length_c 8.472914
_cell_angle_alpha 95.891850
_cell_angle_beta 64.775185
_cell_angle_gamma 114.493422
_cell_volume 461.807302
_symmetry_space_group_name_H-M "P -1"
_symmetry_group_IT_number 2
_symmetry_cell_setting 'triclinic'
loop_
_space_group_symop_operation_xyz
x,y,z
-x,-y,-z
loop_
_atom_site_type_symbol
_atom_site_label
_atom_site_fract_x
_atom_site_fract_y
_atom_site_fract_z
Si Si1 0.078460 0.325428 0.891369
Si Si2 0.321350 0.418471 0.889734
Si Si3 0.500000 0.000000 0.000000
Si Si4 0.607412 0.397250 0.666091
Si Si5 0.084503 0.923905 0.613980
Si Si6 0.171499 0.252277 0.269709
Si Si7 0.336675 0.061322 0.566336
O O1 0.213388 0.471274 0.876699
O O2 0.084342 0.233791 0.700916
O O3 0.000000 0.500000 0.000000
O O4 0.000000 0.000000 0.000000
O O5 0.367428 0.255198 0.715888
O O6 0.416026 0.718880 0.922102
O O7 0.246638 0.204471 0.071689
O O8 0.515811 0.238830 0.858495
O O9 0.733131 0.474353 0.680707
O O10 0.621598 0.706446 0.595697
O O11 0.609073 0.177879 0.513400
O O12 0.124078 0.982317 0.409664
O O13 0.191001 0.899970 0.641580
O O14 0.945364 0.699680 0.703454
#
# Coordination Sequence:
#
# PCOD9032235 Si02
#       7
#     2   2   1   2   2   2   2
#     4  11  23  42  66  99 135 180 224 280 340 411
#     4  10  22  43  70 102 140 184 234 286 338 415
#     4  10  24  48  74 104 138 184 232 288 346 400
#     4  10  23  45  66  99 134 177 226 280 338 410
#     4   9  19  37  64  94 137 179 220 280 340 409
#     4   9  18  40  59  99 132 179 219 281 334 405
#     4  10  23  42  68  97 135 176 227 278 344 404
#
# _framework density 28.150271
#
# number of rings (size 3 to 8) (size 9 to 14) (size 15 to 20)
#    0.000    2.154    1.538    0.000    0.000    9.846 
#   16.615    4.615    0.000    0.000    0.000    0.000 
#    0.000    0.000    0.000    0.000    0.000    0.000 
#
# Total GULP energy -72615.851109 kJ/mol
# GULP energy per Si atom -5585.834701 kJ/mol
# Density = 2.808620 g / cm^3
# Si number density = 28.150271 Si / 1000 Ang^3
#
#
#
# Elastic Constant Matrix: (Units=GPa)
#
#
# Indices 1 2 3 4 5 6 
#
# 1 100.7468 41.9219 25.7839 24.8911 6.6280 27.7766
# 2 41.9219 121.4338 27.3574 10.8366 -1.3650 6.9273
# 3 25.7839 27.3574 149.1776 -8.2507 4.0320 5.7133
# 4 24.8911 10.8366 -8.2507 52.1754 3.2068 9.1868
# 5 6.6280 -1.3650 4.0320 3.2068 49.6347 17.3686
# 6 27.7766 6.9273 5.7133 9.1868 17.3686 57.3501
#
#
#
# Elastic Compliance Matrix: (Units=1/GPa)
#
#
# Indices 1 2 3 4 5 6 
#
# 1 0.015042 -0.003900 -0.001987 -0.005679 0.000458 -0.005845
# 2 -0.003900 0.009871 -0.001212 -0.000546 0.000682 0.000698
# 3 -0.001987 -0.001212 0.007410 0.002378 -0.000582 0.000166
# 4 -0.005679 -0.000546 0.002378 0.022552 -0.000610 -0.000848
# 5 0.000458 0.000682 -0.000582 -0.000610 0.022643 -0.007006
# 6 -0.005845 0.000698 0.000166 -0.000848 -0.007006 0.022425
#
#
# Mechanical properties :
#
#
# Convention : Reuss Voigt Hill
#
# Bulk Modulus (GPa) = 55.17103 62.38717 58.77910
# Shear Modulus (GPa) = 41.60412 50.25172 45.92792
#
# Velocity S-wave (km/s) = 3.84856 4.22966 4.04360
# Velocity P-wave (km/s) = 6.27613 6.78702 6.53657
#
# Compressibility (1/GPa) = 0.01812546
#
# Stress axis : x y z
#
# Youngs Moduli (GPa) = 66.48182 101.30986 134.95343
#
# Poissons Ratio (x) = 0.39508 0.26819
# Poissons Ratio (y) = 0.25926 0.16350
# Poissons Ratio (z) = 0.13212 0.12274
#
# Static dielectric constant tensor:
#      x y z
#    x 2.272460 0.019080 -0.040160 
#    y 0.019080 2.151020 -0.039980 
#    z -0.040160 -0.039980 2.241540 
# 
# From -- ./inp_files/321927.got.cif
#   From: 2010.05.17/outbox.cif.g08.bks.cpg/sg2_161_cif.got.tgz:321927.got - 2010.06.03 11:33:40.
