data_PCOD9032249
_publ_section_title
;
Structure prediction by ZEFSAII (Michael W. Deem and Ramdas Pophale) SiO2 
 PCOD9032249
Probable space group: P -1
;
_chemical_formula_sum "Si O2"
_cell_formula_units_Z 12
_cell_length_a 7.456832
_cell_length_b 8.724955
_cell_length_c 13.747122
_cell_angle_alpha 47.049064
_cell_angle_beta 43.638430
_cell_angle_gamma 58.586348
_cell_volume 451.071699
_symmetry_space_group_name_H-M "P -1"
_symmetry_group_IT_number 2
_symmetry_cell_setting 'triclinic'
loop_
_space_group_symop_operation_xyz
x,y,z
-x,-y,-z
loop_
_atom_site_type_symbol
_atom_site_label
_atom_site_fract_x
_atom_site_fract_y
_atom_site_fract_z
Si Si1 0.771374 0.614912 0.598925
Si Si2 0.142098 0.645505 0.952524
Si Si3 0.720537 0.424942 0.898323
Si Si4 0.481161 0.000442 0.124277
Si Si5 0.649390 0.526060 0.323125
Si Si6 0.870751 0.090822 0.336470
O O1 0.831471 0.547535 0.713863
O O2 0.514093 0.517584 0.700666
O O3 0.000000 0.500000 0.500000
O O4 0.759444 0.864368 0.490018
O O5 0.227785 0.729510 0.628534
O O6 0.169384 0.847194 0.790967
O O7 0.400581 0.543287 0.950380
O O8 0.000000 0.500000 0.000000
O O9 0.005731 0.390466 0.869714
O O10 0.661920 0.185073 0.006425
O O11 0.183191 0.067881 0.236535
O O12 0.570045 0.785861 0.230900
O O13 0.500000 0.000000 0.000000
O O14 0.500000 0.500000 0.500000
#
# Coordination Sequence:
#
# PCOD9032249 Si02
#       6
#     2   2   2   2   2   2
#     4  12  24  46  74 110 151 192 241 308 375 432
#     4  10  22  43  70 104 138 189 250 291 348 439
#     4  12  25  45  77 110 143 198 250 295 369 448
#     4  12  22  44  72 105 146 191 243 302 356 438
#     4  11  22  42  70 100 143 192 241 293 361 432
#     4  11  22  43  75 101 145 194 238 300 370 424
#
# _framework density 26.603307999999998
#
# number of rings (size 3 to 8) (size 9 to 14) (size 15 to 20)
#    0.000    0.667    5.000    4.500    0.000    0.667 
#    0.000   10.000    0.000    0.000    0.000    0.000 
#    0.000    0.000    0.000    0.000    0.000    0.000 
#
# Total GULP energy -66859.777809 kJ/mol
# GULP energy per Si atom -5571.648151 kJ/mol
# Density = 2.654276 g / cm^3
# Si number density = 26.603308 Si / 1000 Ang^3
#
#
#
# Elastic Constant Matrix: (Units=GPa)
#
#
# Indices 1 2 3 4 5 6 
#
# 1 192.2410 81.0017 84.0689 7.7399 37.6637 6.7931
# 2 81.0017 201.6081 101.2226 -8.4747 25.6157 -15.0360
# 3 84.0689 101.2226 219.7872 -37.1924 68.3447 14.0600
# 4 7.7399 -8.4747 -37.1924 77.5464 0.3607 -15.9698
# 5 37.6637 25.6157 68.3447 0.3607 69.5267 2.5570
# 6 6.7931 -15.0360 14.0600 -15.9698 2.5570 64.1474
#
#
#
# Elastic Compliance Matrix: (Units=1/GPa)
#
#
# Indices 1 2 3 4 5 6 
#
# 1 0.007192 -0.002097 -0.001554 -0.001961 -0.001537 -0.001339
# 2 -0.002097 0.007445 -0.003264 -0.000010 0.001505 0.002620
# 3 -0.001554 -0.003264 0.009810 0.004252 -0.007570 -0.001390
# 4 -0.001961 -0.000010 0.004252 0.015834 -0.003319 0.003348
# 5 -0.001537 0.001505 -0.007570 -0.003319 0.022102 0.000467
# 6 -0.001339 0.002620 -0.001390 0.003348 0.000467 0.017465
#
#
# Mechanical properties :
#
#
# Convention : Reuss Voigt Hill
#
# Bulk Modulus (GPa) = 94.17876 127.35809 110.76842
# Shear Modulus (GPa) = 51.43180 65.40032 58.41606
#
# Velocity S-wave (km/s) = 4.40168 4.96356 4.69104
# Velocity P-wave (km/s) = 7.83014 8.99034 8.43022
#
# Compressibility (1/GPa) = 0.01061811
#
# Stress axis : x y z
#
# Youngs Moduli (GPa) = 139.04328 134.31578 101.93910
#
# Poissons Ratio (x) = 0.28161 0.15836
# Poissons Ratio (y) = 0.29152 0.33276
# Poissons Ratio (z) = 0.21601 0.43844
#
# Static dielectric constant tensor:
#      x y z
#    x 2.316710 -0.043090 -0.147350 
#    y -0.043090 2.284720 0.210390 
#    z -0.147350 0.210390 2.113610 
# 
# From -- ./inp_files/60958.got.cif
#   From: 2010.05.17/outbox.cif.g08.bks.cpg/sg2_31_cif.got.tgz:60958.got - 2010.06.03 11:33:40.
