data_PCOD9032033
_publ_section_title
;
Structure prediction by ZEFSAII (Michael W. Deem and Ramdas Pophale) SiO2 
 PCOD9032033
Probable space group: P -1
;
_chemical_formula_sum "Si O2"
_cell_formula_units_Z 15
_cell_length_a 14.494389
_cell_length_b 13.407906
_cell_length_c 5.059539
_cell_angle_alpha 66.953655
_cell_angle_beta 76.126876
_cell_angle_gamma 39.835510
_cell_volume 576.501581
_symmetry_space_group_name_H-M "P -1"
_symmetry_group_IT_number 2
_symmetry_cell_setting 'triclinic'
loop_
_space_group_symop_operation_xyz
x,y,z
-x,-y,-z
loop_
_atom_site_type_symbol
_atom_site_label
_atom_site_fract_x
_atom_site_fract_y
_atom_site_fract_z
Si Si1 0.632767 0.491367 0.664068
Si Si2 0.876042 0.789478 0.471644
Si Si3 0.088197 0.706449 0.034894
Si Si4 0.171887 0.398839 0.180822
Si Si5 0.640623 0.729909 0.299526
Si Si6 0.000000 0.000000 0.500000
Si Si7 0.315479 0.994225 0.116926
Si Si8 0.319779 0.751777 0.497561
O O1 0.746150 0.402746 0.913823
O O2 0.650907 0.590615 0.400423
O O3 0.463281 0.627633 0.706923
O O4 0.675756 0.355034 0.589052
O O5 0.922018 0.625094 0.654882
O O6 0.006186 0.754371 0.320465
O O7 0.790227 0.899249 0.673921
O O8 0.758760 0.893801 0.206537
O O9 0.090442 0.584181 0.035872
O O10 0.010615 0.870443 0.770520
O O11 0.296855 0.302737 0.418714
O O12 0.254649 0.307165 0.946992
O O13 0.473817 0.901249 0.183376
O O14 0.165898 0.883343 0.605966
O O15 0.331906 0.850819 0.215502
#
# Coordination Sequence:
#
# PCOD9032033 Si02
#       8
#     2   2   2   2   2   1   2   2
#     4   9  22  44  72 100 150 193 249 296 375 450
#     4  12  26  45  70 106 152 195 247 309 370 442
#     4  11  26  46  72 111 146 202 246 310 374 450
#     4  11  24  45  74 105 146 197 252 302 367 448
#     4  10  22  44  73 109 145 194 249 306 373 446
#     4  12  24  42  74 102 148 180 248 308 374 430
#     4  11  25  44  70 110 152 190 247 310 377 439
#     4  10  22  43  69 108 141 196 239 311 366 445
#
# _framework density 26.019009
#
# number of rings (size 3 to 8) (size 9 to 14) (size 15 to 20)
#    0.000    1.333    1.333    2.800    1.867    7.467 
#    0.000    7.333    0.000    0.000    0.000    0.000 
#    0.000    0.000    0.000    0.000    0.000    0.000 
#
# Total GULP energy -83858.507295 kJ/mol
# GULP energy per Si atom -5590.567153 kJ/mol
# Density = 2.595979 g / cm^3
# Si number density = 26.019009 Si / 1000 Ang^3
#
#
#
# Elastic Constant Matrix: (Units=GPa)
#
#
# Indices 1 2 3 4 5 6 
#
# 1 137.2027 49.1591 58.5253 -23.2938 -8.0657 -9.3192
# 2 49.1591 93.1744 48.7212 -18.2156 0.9172 -12.2752
# 3 58.5253 48.7212 131.6327 -28.2001 -15.8122 1.2615
# 4 -23.2938 -18.2156 -28.2001 36.0204 9.3347 0.8299
# 5 -8.0657 0.9172 -15.8122 9.3347 51.8597 -15.3736
# 6 -9.3192 -12.2752 1.2615 0.8299 -15.3736 51.5174
#
#
#
# Elastic Compliance Matrix: (Units=1/GPa)
#
#
# Indices 1 2 3 4 5 6 
#
# 1 0.010186 -0.003305 -0.002671 0.002601 0.000746 0.001301
# 2 -0.003305 0.015433 -0.003819 0.003066 -0.001730 0.002607
# 3 -0.002671 -0.003819 0.011482 0.004857 0.001930 -0.001177
# 4 0.002601 0.003066 0.004857 0.036105 -0.004958 -0.000979
# 5 0.000746 -0.001730 0.001930 -0.004958 0.022860 0.006577
# 6 0.001301 0.002607 -0.001177 -0.000979 0.006577 0.022275
#
#
# Mechanical properties :
#
#
# Convention : Reuss Voigt Hill
#
# Bulk Modulus (GPa) = 57.10702 74.98011 66.04356
# Shear Modulus (GPa) = 34.77865 41.58646 38.18256
#
# Velocity S-wave (km/s) = 3.66001 4.00223 3.83494
# Velocity P-wave (km/s) = 6.31322 7.08781 6.71170
#
# Compressibility (1/GPa) = 0.01751098
#
# Stress axis : x y z
#
# Youngs Moduli (GPa) = 98.17578 64.79648 87.09515
#
# Poissons Ratio (x) = 0.21413 0.23264
# Poissons Ratio (y) = 0.32444 0.33261
# Poissons Ratio (z) = 0.26224 0.24745
#
# Static dielectric constant tensor:
#      x y z
#    x 2.052720 0.017560 -0.009520 
#    y 0.017560 2.045390 -0.007070 
#    z -0.009520 -0.007070 1.994150 
# 
# From -- ./inp_files/97572.got.cif
#   From: 2010.05.17/outbox.cif.g08.bks.cpg/sg2_49_cif.got.tgz:97572.got - 2010.06.03 11:33:40.
