data_PCOD9032523
_publ_section_title
;
Structure prediction by ZEFSAII (Michael W. Deem and Ramdas Pophale) SiO2 
 PCOD9032523
Probable space group: P -1
;
_chemical_formula_sum "Si O2"
_cell_formula_units_Z 16
_cell_length_a 11.835743
_cell_length_b 17.578940
_cell_length_c 6.094622
_cell_angle_alpha 132.664142
_cell_angle_beta 62.540027
_cell_angle_gamma 129.986528
_cell_volume 713.694206
_symmetry_space_group_name_H-M "P -1"
_symmetry_group_IT_number 2
_symmetry_cell_setting 'triclinic'
loop_
_space_group_symop_operation_xyz
x,y,z
-x,-y,-z
loop_
_atom_site_type_symbol
_atom_site_label
_atom_site_fract_x
_atom_site_fract_y
_atom_site_fract_z
Si Si1 0.040489 0.914506 0.933486
Si Si2 0.061205 0.464718 0.172156
Si Si3 0.347343 0.454912 0.421888
Si Si4 0.246934 0.230302 0.791385
Si Si5 0.892051 0.725994 0.377166
Si Si6 0.321430 0.039210 0.244551
Si Si7 0.414274 0.900898 0.198197
Si Si8 0.244703 0.630952 0.975381
O O1 0.033072 0.823456 0.574318
O O2 0.903466 0.838750 0.070455
O O3 0.185147 0.977781 0.075805
O O4 0.000000 0.000000 0.000000
O O5 0.000000 0.500000 0.500000
O O6 0.919759 0.408282 0.030436
O O7 0.083597 0.352910 0.977809
O O8 0.207441 0.573972 0.143374
O O9 0.500000 0.500000 0.500000
O O10 0.214622 0.366859 0.528616
O O11 0.315000 0.564479 0.641487
O O12 0.337914 0.367936 0.061870
O O13 0.197572 0.223042 0.569331
O O14 0.322340 0.149550 0.584753
O O15 0.314301 0.940992 0.229143
O O16 0.468831 0.091271 0.070822
O O17 0.500000 0.000000 0.500000
O O18 0.338430 0.771962 0.130059
#
# Coordination Sequence:
#
# PCOD9032523 Si02
#       8
#     2   2   2   2   2   2   2   2
#     4  11  24  41  70 102 140 179 227 295 355 411
#     4  10  22  43  71  99 133 175 232 289 344 412
#     4  10  24  43  67  99 135 180 224 288 351 413
#     4  11  24  42  70 103 136 172 237 287 352 415
#     4  10  23  41  66 104 132 178 224 287 357 415
#     4  11  27  46  68 108 136 192 240 282 355 420
#     4  11  29  48  70  98 146 194 236 284 347 428
#     4  10  24  45  67 100 134 181 229 282 352 409
#
# _framework density 22.418566999999999
#
# number of rings (size 3 to 8) (size 9 to 14) (size 15 to 20)
#    0.000    1.500    1.250    1.125    8.750    3.500 
#    2.250    0.000    0.000    0.000    0.000    0.000 
#    0.000    0.000    0.000    0.000    0.000    0.000 
#
# Total GULP energy -89338.401711 kJ/mol
# GULP energy per Si atom -5583.650107 kJ/mol
# Density = 2.236754 g / cm^3
# Si number density = 22.418567 Si / 1000 Ang^3
#
#
#
# Elastic Constant Matrix: (Units=GPa)
#
#
# Indices 1 2 3 4 5 6 
#
# 1 108.8519 29.7540 35.5211 30.3513 -2.3446 -11.7046
# 2 29.7540 117.1641 56.4880 31.2231 -5.8663 -14.0097
# 3 35.5211 56.4880 135.4647 25.7548 -14.1215 -5.2930
# 4 30.3513 31.2231 25.7548 32.7494 1.3268 -3.6969
# 5 -2.3446 -5.8663 -14.1215 1.3268 43.5253 0.2233
# 6 -11.7046 -14.0097 -5.2930 -3.6969 0.2233 29.4417
#
#
#
# Elastic Compliance Matrix: (Units=1/GPa)
#
#
# Indices 1 2 3 4 5 6 
#
# 1 0.013013 0.000916 -0.001397 -0.011421 0.000699 0.003919
# 2 0.000916 0.013396 -0.003577 -0.010306 0.000984 0.004794
# 3 -0.001397 -0.003577 0.010170 -0.003509 0.002854 -0.000891
# 4 -0.011421 -0.010306 -0.003509 0.053523 -0.004757 -0.003319
# 5 0.000699 0.000984 0.002854 -0.004757 0.024214 0.000478
# 6 0.003919 0.004794 -0.000891 -0.003319 0.000478 0.037224
#
#
# Mechanical properties :
#
#
# Convention : Reuss Voigt Hill
#
# Bulk Modulus (GPa) = 35.13309 67.22297 51.17803
# Shear Modulus (GPa) = 29.56076 37.12445 33.34261
#
# Velocity S-wave (km/s) = 3.63517 4.07377 3.86071
# Velocity P-wave (km/s) = 5.77276 7.22343 6.53845
#
# Compressibility (1/GPa) = 0.02846320
#
# Stress axis : x y z
#
# Youngs Moduli (GPa) = 76.84485 74.64942 98.33215
#
# Poissons Ratio (x) = -0.06837 0.13735
# Poissons Ratio (y) = -0.07038 0.35172
# Poissons Ratio (z) = 0.10734 0.26701
#
# Static dielectric constant tensor:
#      x y z
#    x 1.856470 -0.057940 -0.005240 
#    y -0.057940 1.834740 -0.003010 
#    z -0.005240 -0.003010 1.898040 
# 
# From -- ./inp_files/81699.got.cif
#   From: 2010.05.17/outbox.cif.g08.bks.cpg/sg2_41_cif.got.tgz:81699.got - 2010.06.03 11:33:40.
