data_PCOD9032388
_publ_section_title
;
Structure prediction by ZEFSAII (Michael W. Deem and Ramdas Pophale) SiO2 
 PCOD9032388
Probable space group: P -1
;
_chemical_formula_sum "Si O2"
_cell_formula_units_Z 16
_cell_length_a 17.473154
_cell_length_b 5.453060
_cell_length_c 11.843951
_cell_angle_alpha 95.036226
_cell_angle_beta 132.701064
_cell_angle_gamma 61.592242
_cell_volume 679.634057
_symmetry_space_group_name_H-M "P -1"
_symmetry_group_IT_number 2
_symmetry_cell_setting 'triclinic'
loop_
_space_group_symop_operation_xyz
x,y,z
-x,-y,-z
loop_
_atom_site_type_symbol
_atom_site_label
_atom_site_fract_x
_atom_site_fract_y
_atom_site_fract_z
Si Si1 0.933401 0.423723 0.026326
Si Si2 0.403163 0.698419 0.509143
Si Si3 0.248296 0.404636 0.340382
Si Si4 0.824133 0.903474 0.126318
Si Si5 0.861833 0.092348 0.399758
Si Si6 0.048507 0.930908 0.281470
Si Si7 0.442596 0.592130 0.136549
Si Si8 0.389660 0.338659 0.869537
O O1 0.808322 0.505392 0.838910
O O2 0.894307 0.597976 0.113702
O O3 0.000000 0.500000 0.000000
O O4 0.031872 0.087738 0.152204
O O5 0.500000 0.500000 0.500000
O O6 0.326705 0.548287 0.446011
O O7 0.486092 0.632890 0.700525
O O8 0.322688 0.049433 0.415131
O O9 0.135483 0.578437 0.326017
O O10 0.908606 0.027344 0.180692
O O11 0.824925 0.925892 0.265925
O O12 0.680848 0.084672 0.943484
O O13 0.882508 0.005319 0.549138
O O14 0.758295 0.453510 0.304863
O O15 0.000000 0.000000 0.500000
O O16 0.544410 0.597940 0.162602
O O17 0.379358 0.486651 0.984615
O O18 0.500000 0.000000 0.000000
#
# Coordination Sequence:
#
# PCOD9032388 Si02
#       8
#     2   2   2   2   2   2   2   2
#     4  12  25  43  70 105 143 194 247 306 379 450
#     4  12  28  48  72 109 149 197 251 313 368 449
#     4  12  27  46  75 107 150 195 251 309 379 441
#     4  10  23  44  68 103 144 185 243 306 372 449
#     4   9  21  43  67 105 140 183 242 302 378 439
#     4  11  24  42  72 102 144 186 240 308 374 447
#     4  10  24  42  69 102 140 193 246 295 373 439
#     4  10  22  43  71 100 143 189 241 302 369 450
#
# _framework density 23.542083000000002
#
# number of rings (size 3 to 8) (size 9 to 14) (size 15 to 20)
#    0.000    1.250    1.250    3.000    7.000    3.500 
#    0.000    2.500    0.000    0.000    0.000    0.000 
#    0.000    0.000    0.000    0.000    0.000    0.000 
#
# Total GULP energy -89208.125803 kJ/mol
# GULP energy per Si atom -5575.507863 kJ/mol
# Density = 2.348850 g / cm^3
# Si number density = 23.542083 Si / 1000 Ang^3
#
#
#
# Elastic Constant Matrix: (Units=GPa)
#
#
# Indices 1 2 3 4 5 6 
#
# 1 133.7244 51.9027 14.5889 -52.1311 15.2575 -20.1195
# 2 51.9027 110.2985 40.2895 -34.4169 -2.1297 -19.9441
# 3 14.5889 40.2895 181.2045 -4.1299 -25.4938 -3.7911
# 4 -52.1311 -34.4169 -4.1299 60.5889 -18.3461 6.3003
# 5 15.2575 -2.1297 -25.4938 -18.3461 55.0254 -4.4306
# 6 -20.1195 -19.9441 -3.7911 6.3003 -4.4306 31.2076
#
#
#
# Elastic Compliance Matrix: (Units=1/GPa)
#
#
# Indices 1 2 3 4 5 6 
#
# 1 0.012629 -0.002153 -0.000274 0.009024 -0.000312 0.004867
# 2 -0.002153 0.014037 -0.002305 0.006087 0.002621 0.006446
# 3 -0.000274 -0.002305 0.006445 -0.000192 0.002875 -0.000420
# 4 0.009024 0.006087 -0.000192 0.029605 0.007904 0.004830
# 5 -0.000312 0.002621 0.002875 0.007904 0.022605 0.003437
# 6 0.004867 0.006446 -0.000420 0.004830 0.003437 0.038762
#
#
# Mechanical properties :
#
#
# Convention : Reuss Voigt Hill
#
# Bulk Modulus (GPa) = 42.29081 70.97662 56.63372
# Shear Modulus (GPa) = 35.35290 50.59413 42.97351
#
# Velocity S-wave (km/s) = 3.87937 4.64086 4.27709
# Velocity P-wave (km/s) = 6.17000 7.67666 6.96419
#
# Compressibility (1/GPa) = 0.02364580
#
# Stress axis : x y z
#
# Youngs Moduli (GPa) = 79.17981 71.23978 155.16885
#
# Poissons Ratio (x) = 0.15336 0.04259
# Poissons Ratio (y) = 0.17046 0.35773
# Poissons Ratio (z) = 0.02173 0.16424
#
# Static dielectric constant tensor:
#      x y z
#    x 1.965790 -0.071680 0.091790 
#    y -0.071680 2.141800 -0.207820 
#    z 0.091790 -0.207820 2.055440 
# 
# From -- ./inp_files/459524.got.cif
#   From: 2010.05.17/outbox.cif.g08.bks.cpg/sg2_230_cif.got.tgz:459524.got - 2010.06.03 11:33:40.
