data_PCOD9032596
_publ_section_title
;
Structure prediction by ZEFSAII (Michael W. Deem and Ramdas Pophale) SiO2 
 PCOD9032596
Probable space group: P -1
;
_chemical_formula_sum "Si O2"
_cell_formula_units_Z 13
_cell_length_a 7.686249
_cell_length_b 8.772150
_cell_length_c 13.806352
_cell_angle_alpha 53.092678
_cell_angle_beta 56.170645
_cell_angle_gamma 84.073397
_cell_volume 579.710162
_symmetry_space_group_name_H-M "P -1"
_symmetry_group_IT_number 2
_symmetry_cell_setting 'triclinic'
loop_
_space_group_symop_operation_xyz
x,y,z
-x,-y,-z
loop_
_atom_site_type_symbol
_atom_site_label
_atom_site_fract_x
_atom_site_fract_y
_atom_site_fract_z
Si Si1 0.928119 0.790297 0.160679
Si Si2 0.572920 0.513906 0.126953
Si Si3 0.539772 0.790296 0.549026
Si Si4 0.978298 0.977103 0.631833
Si Si5 0.719067 0.977103 0.891064
Si Si6 0.840733 0.513907 0.859140
Si Si7 0.500000 0.500000 0.500000
O O1 0.671311 0.678447 0.308741
O O2 0.020114 0.630489 0.142390
O O3 0.069647 0.852649 0.192468
O O4 0.000000 0.000000 0.000000
O O5 0.564619 0.369511 0.272878
O O6 0.325631 0.499999 0.174370
O O7 0.706542 0.751366 0.012021
O O8 0.683884 0.446285 0.026857
O O9 0.467240 0.678446 0.512813
O O10 0.500000 0.000000 0.500000
O O11 0.807232 0.852648 0.454884
O O12 0.762344 0.984242 0.757879
O O13 0.981952 0.751367 0.736612
O O14 0.000000 0.000000 0.500000
O O15 0.500000 0.000000 0.000000
#
# Coordination Sequence:
#
# PCOD9032596 Si02
#       7
#     2   2   2   2   2   2   1
#     4  12  26  47  73 105 149 197 245 311 375 447
#     4  10  22  43  72 107 139 186 247 301 376 453
#     4  12  26  47  73 105 149 197 245 311 375 447
#     4  11  23  45  72 107 145 189 247 312 377 443
#     4  11  23  45  72 107 145 189 247 312 377 443
#     4  10  22  43  72 107 139 186 247 301 376 453
#     4  12  28  52  68 114 152 200 262 290 384 464
#
# _framework density 22.424999
#
# number of rings (size 3 to 8) (size 9 to 14) (size 15 to 20)
#    0.000    0.923    4.615    1.846    2.154    0.000 
#    8.308    6.154    0.000    0.000    0.000    0.000 
#    0.000    0.000    0.000    0.000    0.000    0.000 
#
# Total GULP energy -72367.677901 kJ/mol
# GULP energy per Si atom -5566.744454 kJ/mol
# Density = 2.237396 g / cm^3
# Si number density = 22.424999 Si / 1000 Ang^3
#
#
#
# Elastic Constant Matrix: (Units=GPa)
#
#
# Indices 1 2 3 4 5 6 
#
# 1 28.4703 26.1044 27.3704 14.6339 6.4542 -5.5783
# 2 26.1044 157.3192 64.5261 17.2322 23.2217 -10.3377
# 3 27.3704 64.5261 161.3134 16.1019 13.7059 -23.1615
# 4 14.6339 17.2322 16.1019 43.0119 11.2676 -10.0579
# 5 6.4542 23.2217 13.7059 11.2676 25.4212 -13.1125
# 6 -5.5783 -10.3377 -23.1615 -10.0579 -13.1125 26.4664
#
#
#
# Elastic Compliance Matrix: (Units=1/GPa)
#
#
# Indices 1 2 3 4 5 6 
#
# 1 0.051908 -0.004824 -0.005659 -0.013845 -0.000244 -0.001278
# 2 -0.004824 0.009134 -0.002713 0.000152 -0.007526 -0.003494
# 3 -0.005659 -0.002713 0.008987 0.000666 0.002417 0.007063
# 4 -0.013845 0.000152 0.000666 0.031017 -0.007824 0.005635
# 5 -0.000244 -0.007526 0.002417 -0.007824 0.062400 0.027067
# 6 -0.001278 -0.003494 0.007063 0.005635 0.027067 0.057882
#
#
# Mechanical properties :
#
#
# Convention : Reuss Voigt Hill
#
# Bulk Modulus (GPa) = 22.91522 64.78941 43.85231
# Shear Modulus (GPa) = 19.06471 34.25338 26.65905
#
# Velocity S-wave (km/s) = 2.91890 3.91252 3.45165
# Velocity P-wave (km/s) = 4.64766 7.02600 5.95674
#
# Compressibility (1/GPa) = 0.04363913
#
# Stress axis : x y z
#
# Youngs Moduli (GPa) = 19.26467 109.47807 111.27786
#
# Poissons Ratio (x) = 0.52809 0.62969
# Poissons Ratio (y) = 0.09293 0.30186
# Poissons Ratio (z) = 0.10901 0.29697
#
# Static dielectric constant tensor:
#      x y z
#    x 1.919490 0.042460 -0.040810 
#    y 0.042460 1.822350 0.039000 
#    z -0.040810 0.039000 1.832070 
# 
# From -- ./inp_files/151486.got.cif
#   From: 2010.05.17/outbox.cif.g08.bks.cpg/sg2_76_cif.got.tgz:151486.got - 2010.06.03 11:33:40.
