data_PCOD9032278
_publ_section_title
;
Structure prediction by ZEFSAII (Michael W. Deem and Ramdas Pophale) SiO2 
 PCOD9032278
Probable space group: P -1
;
_chemical_formula_sum "Si O2"
_cell_formula_units_Z 16
_cell_length_a 5.251194
_cell_length_b 14.892696
_cell_length_c 10.172197
_cell_angle_alpha 60.149417
_cell_angle_beta 80.769882
_cell_angle_gamma 91.548221
_cell_volume 675.708087
_symmetry_space_group_name_H-M "P -1"
_symmetry_group_IT_number 2
_symmetry_cell_setting 'triclinic'
loop_
_space_group_symop_operation_xyz
x,y,z
-x,-y,-z
loop_
_atom_site_type_symbol
_atom_site_label
_atom_site_fract_x
_atom_site_fract_y
_atom_site_fract_z
Si Si1 0.213613 0.480634 0.104009
Si Si2 0.335577 0.839341 0.799576
Si Si3 0.772702 0.024236 0.601517
Si Si4 0.577991 0.811548 0.446238
Si Si5 0.446339 0.372641 0.612039
Si Si6 0.097413 0.995052 0.851260
Si Si7 0.921473 0.414457 0.687771
Si Si8 0.178501 0.242905 0.265949
O O1 0.162818 0.538785 0.202084
O O2 0.158423 0.359078 0.226426
O O3 0.500000 0.500000 0.000000
O O4 0.000000 0.500000 0.000000
O O5 0.509651 0.944971 0.654573
O O6 0.554999 0.761824 0.838057
O O7 0.077809 0.796650 0.769273
O O8 0.229322 0.888944 0.901819
O O9 0.686614 0.139988 0.532269
O O10 0.878016 0.994205 0.757102
O O11 0.000000 0.000000 0.500000
O O12 0.550186 0.696590 0.468678
O O13 0.715871 0.898265 0.273304
O O14 0.748193 0.810180 0.564788
O O15 0.500000 0.500000 0.500000
O O16 0.676557 0.342206 0.704234
O O17 0.171912 0.355202 0.720134
O O18 0.000000 0.000000 0.000000
O O19 0.000000 0.500000 0.500000
#
# Coordination Sequence:
#
# PCOD9032278 Si02
#       8
#     2   2   2   2   2   2   2   2
#     4  12  27  51  75 113 159 203 252 332 400 456
#     4  11  25  46  75 108 150 198 248 318 380 458
#     4  11  24  49  75 112 156 197 258 319 387 461
#     4  11  27  42  80 113 147 205 262 312 386 461
#     4  10  22  43  70 108 144 189 248 317 362 446
#     4  11  26  50  72 108 160 197 247 319 388 458
#     4  10  22  45  73 100 145 196 245 306 374 446
#     4  12  25  47  77 113 150 198 264 313 385 469
#
# _framework density 23.678863
#
# number of rings (size 3 to 8) (size 9 to 14) (size 15 to 20)
#    0.000    1.000    1.250    4.500    3.500    8.500 
#    6.750    0.000    0.000    0.000    0.000    0.000 
#    0.000    0.000    0.000    0.000    0.000    0.000 
#
# Total GULP energy -89343.614172 kJ/mol
# GULP energy per Si atom -5583.975886 kJ/mol
# Density = 2.362497 g / cm^3
# Si number density = 23.678863 Si / 1000 Ang^3
#
#
#
# Elastic Constant Matrix: (Units=GPa)
#
#
# Indices 1 2 3 4 5 6 
#
# 1 212.8889 50.2235 37.2996 33.3058 -9.6708 -3.8448
# 2 50.2235 151.6811 25.4868 38.7154 -9.1034 -2.2536
# 3 37.2996 25.4868 106.4858 41.2282 -11.0245 -4.8551
# 4 33.3058 38.7154 41.2282 45.3726 -12.0017 3.4903
# 5 -9.6708 -9.1034 -11.0245 -12.0017 21.7308 8.2342
# 6 -3.8448 -2.2536 -4.8551 3.4903 8.2342 35.0645
#
#
#
# Elastic Compliance Matrix: (Units=1/GPa)
#
#
# Indices 1 2 3 4 5 6 
#
# 1 0.005473 -0.001024 -0.000618 -0.002650 -0.000044 0.000723
# 2 -0.001024 0.008843 0.001565 -0.008763 -0.001518 0.001901
# 3 -0.000618 0.001565 0.015254 -0.015619 -0.002095 0.004192
# 4 -0.002650 -0.008763 -0.015619 0.052239 0.021064 -0.013163
# 5 -0.000044 -0.001518 -0.002095 0.021064 0.062431 -0.017150
# 6 0.000723 0.001901 0.004192 -0.013163 -0.017150 0.034638
#
#
# Mechanical properties :
#
#
# Convention : Reuss Voigt Hill
#
# Bulk Modulus (GPa) = 33.99537 77.45284 55.72410
# Shear Modulus (GPa) = 26.47781 44.30331 35.39056
#
# Velocity S-wave (km/s) = 3.34758 4.33021 3.87021
# Velocity P-wave (km/s) = 5.41570 7.60142 6.59967
#
# Compressibility (1/GPa) = 0.02941577
#
# Stress axis : x y z
#
# Youngs Moduli (GPa) = 182.72786 113.08634 65.55518
#
# Poissons Ratio (x) = 0.11579 0.04049
# Poissons Ratio (y) = 0.18710 -0.10257
# Poissons Ratio (z) = 0.11286 -0.17693
#
# Static dielectric constant tensor:
#      x y z
#    x 2.029040 0.022580 -0.083430 
#    y 0.022580 1.924400 -0.048800 
#    z -0.083430 -0.048800 1.928000 
# 
# From -- ./inp_files/134930.got.cif
#   From: 2010.05.17/outbox.cif.g08.bks.cpg/sg2_68_cif.got.tgz:134930.got - 2010.06.03 11:33:40.
