data_PCOD9032792
_publ_section_title
;
Structure prediction by ZEFSAII (Michael W. Deem and Ramdas Pophale) SiO2 
 PCOD9032792
Probable space group: P -1
;
_chemical_formula_sum "Si O2"
_cell_formula_units_Z 14
_cell_length_a 8.705400
_cell_length_b 7.717900
_cell_length_c 8.990731
_cell_angle_alpha 102.584449
_cell_angle_beta 67.463576
_cell_angle_gamma 104.075280
_cell_volume 535.919070
_symmetry_space_group_name_H-M "P -1"
_symmetry_group_IT_number 2
_symmetry_cell_setting 'triclinic'
loop_
_space_group_symop_operation_xyz
x,y,z
-x,-y,-z
loop_
_atom_site_type_symbol
_atom_site_label
_atom_site_fract_x
_atom_site_fract_y
_atom_site_fract_z
Si Si1 0.212920 0.698836 0.653803
Si Si2 0.233492 0.901287 0.980785
Si Si3 0.615801 0.448375 0.816064
Si Si4 0.815946 0.008838 0.514707
Si Si5 0.543481 0.798574 0.425462
Si Si6 0.389087 0.175655 0.176558
Si Si7 0.037879 0.601249 0.164297
O O1 0.411108 0.687445 0.568835
O O2 0.105773 0.506380 0.696509
O O3 0.176199 0.798234 0.533647
O O4 0.185549 0.840424 0.820096
O O5 0.086199 0.805777 0.126390
O O6 0.286543 0.105659 0.051470
O O7 0.412567 0.828044 0.921515
O O8 0.509007 0.289474 0.728899
O O9 0.647911 0.628222 0.737180
O O10 0.789699 0.420532 0.819349
O O11 0.500000 0.500000 0.000000
O O12 0.738924 0.844071 0.401710
O O13 0.687334 0.965254 0.693732
O O14 0.000000 0.000000 0.500000
O O15 0.500000 0.000000 0.500000
O O16 0.000000 0.500000 0.000000
#
# Coordination Sequence:
#
# PCOD9032792 Si02
#       7
#     2   2   2   2   2   2   2
#     4  10  22  45  73 100 142 196 246 290 358 444
#     4  10  22  43  75 101 142 196 243 293 363 440
#     4  12  26  45  73 111 149 190 243 306 363 433
#     4  11  24  45  68 107 145 181 239 309 367 423
#     4  10  25  45  76  99 141 196 243 290 369 436
#     4  11  24  42  72 109 141 187 249 297 362 433
#     4  10  23  46  71 110 145 193 249 300 360 432
#
# _framework density 26.123346999999999
#
# number of rings (size 3 to 8) (size 9 to 14) (size 15 to 20)
#    0.000    1.429    2.857    0.857    8.000    1.143 
#    7.714    3.571    0.000    0.000    0.000    0.000 
#    0.000    0.000    0.000    0.000    0.000    0.000 
#
# Total GULP energy -78274.374921 kJ/mol
# GULP energy per Si atom -5591.026780 kJ/mol
# Density = 2.606389 g / cm^3
# Si number density = 26.123347 Si / 1000 Ang^3
#
#
#
# Elastic Constant Matrix: (Units=GPa)
#
#
# Indices 1 2 3 4 5 6 
#
# 1 135.0850 47.3985 48.7244 -3.4671 7.5850 40.4737
# 2 47.3985 125.3882 67.3535 -7.7317 5.3505 28.5013
# 3 48.7244 67.3535 136.8395 -15.4194 1.4607 22.3745
# 4 -3.4671 -7.7317 -15.4194 69.7292 24.5768 3.5970
# 5 7.5850 5.3505 1.4607 24.5768 38.5863 -7.0510
# 6 40.4737 28.5013 22.3745 3.5970 -7.0510 48.1468
#
#
#
# Elastic Compliance Matrix: (Units=1/GPa)
#
#
# Indices 1 2 3 4 5 6 
#
# 1 0.011503 -0.000896 -0.001813 0.002416 -0.005298 -0.009253
# 2 -0.000896 0.012168 -0.004641 0.001700 -0.003314 -0.004906
# 3 -0.001813 -0.004641 0.010647 0.002130 -0.000938 -0.000973
# 4 0.002416 0.001700 0.002130 0.021038 -0.015632 -0.007888
# 5 -0.005298 -0.003314 -0.000938 -0.015632 0.039944 0.013869
# 6 -0.009253 -0.004906 -0.000973 -0.007888 0.013869 0.034525
#
#
# Mechanical properties :
#
#
# Convention : Reuss Voigt Hill
#
# Bulk Modulus (GPa) = 50.97436 80.47393 65.72414
# Shear Modulus (GPa) = 33.09848 46.88155 39.99002
#
# Velocity S-wave (km/s) = 3.56337 4.24089 3.91681
# Velocity P-wave (km/s) = 6.04032 7.40625 6.75788
#
# Compressibility (1/GPa) = 0.01961771
#
# Stress axis : x y z
#
# Youngs Moduli (GPa) = 86.93337 82.18039 93.92331
#
# Poissons Ratio (x) = 0.07364 0.17028
# Poissons Ratio (y) = 0.07789 0.43593
# Poissons Ratio (z) = 0.15761 0.38143
#
# Static dielectric constant tensor:
#      x y z
#    x 2.136270 -0.011670 0.024650 
#    y -0.011670 2.075730 0.009560 
#    z 0.024650 0.009560 2.132350 
# 
# From -- ./inp_files/159140.got.cif
#   From: 2010.05.17/outbox.cif.g08.bks.cpg/sg2_80_cif.got.tgz:159140.got - 2010.06.03 11:33:40.
