data_PCOD9032258
_publ_section_title
;
Structure prediction by ZEFSAII (Michael W. Deem and Ramdas Pophale) SiO2 
 PCOD9032258
Probable space group: P -1
;
_chemical_formula_sum "Si O2"
_cell_formula_units_Z 14
_cell_length_a 9.572656
_cell_length_b 13.251220
_cell_length_c 15.554140
_cell_angle_alpha 152.161898
_cell_angle_beta 47.002260
_cell_angle_gamma 121.692493
_cell_volume 656.198871
_symmetry_space_group_name_H-M "P -1"
_symmetry_group_IT_number 2
_symmetry_cell_setting 'triclinic'
loop_
_space_group_symop_operation_xyz
x,y,z
-x,-y,-z
loop_
_atom_site_type_symbol
_atom_site_label
_atom_site_fract_x
_atom_site_fract_y
_atom_site_fract_z
Si Si1 0.765079 0.812578 0.432340
Si Si2 0.543602 0.610166 0.154509
Si Si3 0.714474 0.531478 0.404081
Si Si4 0.978578 0.044356 0.943199
Si Si5 0.817920 0.211288 0.835820
Si Si6 0.275925 0.063389 0.173535
Si Si7 0.642061 0.045607 0.389974
O O1 0.726281 0.626881 0.374947
O O2 0.572113 0.889155 0.513834
O O3 0.964356 0.752221 0.247186
O O4 0.788866 0.017049 0.636723
O O5 0.354480 0.768537 0.398986
O O6 0.668030 0.794626 0.223076
O O7 0.500000 0.500000 0.000000
O O8 0.657084 0.426165 0.034068
O O9 0.500000 0.500000 0.500000
O O10 0.761230 0.714161 0.587328
O O11 0.872320 0.301306 0.169678
O O12 0.849075 0.914314 0.843705
O O13 0.193769 0.966807 0.757272
O O14 0.000000 0.000000 0.000000
O O15 0.780940 0.122937 0.879734
O O16 0.500000 0.000000 0.000000
#
# Coordination Sequence:
#
# PCOD9032258 Si02
#       7
#     2   2   2   2   2   2   2
#     4  10  22  43  70 105 136 182 239 287 349 430
#     4  11  24  43  68 103 146 184 226 292 358 416
#     4  11  23  46  76 102 141 189 239 296 353 425
#     4  12  28  46  71 104 144 186 239 300 361 424
#     4  10  23  42  72  98 140 185 236 291 351 419
#     4  11  26  46  74 103 137 188 247 293 355 430
#     4  11  26  41  68 106 145 182 235 288 363 428
#
# _framework density 21.334994999999999
#
# number of rings (size 3 to 8) (size 9 to 14) (size 15 to 20)
#    0.000    1.143    2.857    1.714    8.000    4.571 
#    0.000    0.000    0.000    0.000    0.000    0.000 
#    0.000    0.000    0.000    0.000    0.000    0.000 
#
# Total GULP energy -78265.352166 kJ/mol
# GULP energy per Si atom -5590.382298 kJ/mol
# Density = 2.128644 g / cm^3
# Si number density = 21.334995 Si / 1000 Ang^3
#
#
#
# Elastic Constant Matrix: (Units=GPa)
#
#
# Indices 1 2 3 4 5 6 
#
# 1 122.3714 57.1060 35.6202 -7.4005 10.7787 -7.6293
# 2 57.1060 149.0259 45.3554 -25.9762 -2.7411 -0.8417
# 3 35.6202 45.3554 116.3510 -9.6957 18.1913 7.6504
# 4 -7.4005 -25.9762 -9.6957 48.7543 -1.1909 -4.8916
# 5 10.7787 -2.7411 18.1913 -1.1909 32.9574 -7.6137
# 6 -7.6293 -0.8417 7.6504 -4.8916 -7.6137 26.6803
#
#
#
# Elastic Compliance Matrix: (Units=1/GPa)
#
#
# Indices 1 2 3 4 5 6 
#
# 1 0.010737 -0.003703 -0.001706 -0.000466 -0.002269 0.002710
# 2 -0.003703 0.009991 -0.003248 0.004456 0.004526 0.002296
# 3 -0.001706 -0.003248 0.011984 -0.000433 -0.007806 -0.006333
# 4 -0.000466 0.004456 -0.000433 0.023319 0.002807 0.005208
# 5 -0.002269 0.004526 -0.007806 0.002807 0.038958 0.013364
# 6 0.002710 0.002296 -0.006333 0.005208 0.013364 0.044913
#
#
# Mechanical properties :
#
#
# Convention : Reuss Voigt Hill
#
# Bulk Modulus (GPa) = 64.94534 73.76795 69.35665
# Shear Modulus (GPa) = 30.79792 38.32286 34.56039
#
# Velocity S-wave (km/s) = 3.80352 4.24281 4.02915
# Velocity P-wave (km/s) = 7.05662 7.65853 7.36372
#
# Compressibility (1/GPa) = 0.01539756
#
# Stress axis : x y z
#
# Youngs Moduli (GPa) = 93.13622 100.09344 83.44457
#
# Poissons Ratio (x) = 0.37062 0.14235
# Poissons Ratio (y) = 0.34486 0.27105
# Poissons Ratio (z) = 0.15889 0.32513
#
# Static dielectric constant tensor:
#      x y z
#    x 1.759980 0.002710 0.019490 
#    y 0.002710 1.786960 0.001880 
#    z 0.019490 0.001880 1.791980 
# 
# From -- ./inp_files/501069.got.cif
#   From: 2010.05.17/outbox.cif.g08.bks.cpg/sg2_251_cif.got.tgz:501069.got - 2010.06.03 11:33:40.
