data_PCOD9032108
_publ_section_title
;
Structure prediction by ZEFSAII (Michael W. Deem and Ramdas Pophale) SiO2 
 PCOD9032108
Probable space group: P -1
;
_chemical_formula_sum "Si O2"
_cell_formula_units_Z 16
_cell_length_a 8.054267
_cell_length_b 12.901839
_cell_length_c 9.031240
_cell_angle_alpha 67.396647
_cell_angle_beta 65.845441
_cell_angle_gamma 103.785741
_cell_volume 697.949940
_symmetry_space_group_name_H-M "P -1"
_symmetry_group_IT_number 2
_symmetry_cell_setting 'triclinic'
loop_
_space_group_symop_operation_xyz
x,y,z
-x,-y,-z
loop_
_atom_site_type_symbol
_atom_site_label
_atom_site_fract_x
_atom_site_fract_y
_atom_site_fract_z
Si Si1 0.305159 0.137701 0.860688
Si Si2 0.012024 0.135145 0.443911
Si Si3 0.084492 0.326646 0.082815
Si Si4 0.694927 0.488178 0.867801
Si Si5 0.266611 0.761922 0.985775
Si Si6 0.543925 0.032614 0.637006
Si Si7 0.513754 0.573534 0.304834
Si Si8 0.044594 0.863868 0.211877
O O1 0.455122 0.282456 0.772856
O O2 0.109953 0.144672 0.857216
O O3 0.413821 0.096369 0.716269
O O4 0.212789 0.015112 0.071550
O O5 0.075281 0.177489 0.566410
O O6 0.123741 0.222128 0.214888
O O7 0.783053 0.119852 0.527575
O O8 0.000000 0.000000 0.500000
O O9 0.104331 0.418676 0.162400
O O10 0.275587 0.405186 0.862901
O O11 0.882580 0.266029 0.088454
O O12 0.673871 0.349498 0.967869
O O13 0.677999 0.506929 0.689236
O O14 0.500000 0.500000 0.000000
O O15 0.151615 0.781277 0.160362
O O16 0.464595 0.897087 0.818585
O O17 0.500000 0.000000 0.500000
O O18 0.500000 0.500000 0.500000
#
# Coordination Sequence:
#
# PCOD9032108 Si02
#       8
#     2   2   2   2   2   2   2   2
#     4  10  22  43  69  96 143 172 231 274 351 403
#     4  12  26  41  70 103 143 179 226 282 349 417
#     4  11  24  48  68  99 136 185 231 282 348 403
#     4  10  26  44  69  98 133 182 236 287 338 402
#     4  11  23  45  72  98 142 180 231 286 344 416
#     4  11  24  40  66 108 135 176 222 278 349 410
#     4  11  25  46  72  98 133 183 233 287 342 408
#     4  10  23  41  72 102 133 185 219 283 346 417
#
# _framework density 22.924278999999999
#
# number of rings (size 3 to 8) (size 9 to 14) (size 15 to 20)
#    0.000    1.250    2.500    1.875   10.500    3.000 
#    2.250    1.250    0.000    0.000    0.000    0.000 
#    0.000    0.000    0.000    0.000    0.000    0.000 
#
# Total GULP energy -89405.645567 kJ/mol
# GULP energy per Si atom -5587.852848 kJ/mol
# Density = 2.287210 g / cm^3
# Si number density = 22.924279 Si / 1000 Ang^3
#
#
#
# Elastic Constant Matrix: (Units=GPa)
#
#
# Indices 1 2 3 4 5 6 
#
# 1 53.6885 28.4362 22.7278 3.5427 10.5434 -4.1199
# 2 28.4362 134.0902 27.2191 -2.5373 16.6169 -5.5730
# 3 22.7278 27.2191 102.9420 5.6288 20.5637 5.0860
# 4 3.5427 -2.5373 5.6288 29.2525 6.1623 5.0556
# 5 10.5434 16.6169 20.5637 6.1623 32.7586 2.5890
# 6 -4.1199 -5.5730 5.0860 5.0556 2.5890 51.4211
#
#
#
# Elastic Compliance Matrix: (Units=1/GPa)
#
#
# Indices 1 2 3 4 5 6 
#
# 1 0.022985 -0.003741 -0.003455 -0.002162 -0.003094 0.002146
# 2 -0.003741 0.008915 -0.001059 0.001952 -0.003078 0.000734
# 3 -0.003455 -0.001059 0.011981 -0.000572 -0.005667 -0.001235
# 4 -0.002162 0.001952 -0.000572 0.036662 -0.006581 -0.003178
# 5 -0.003094 -0.003078 -0.005667 -0.006581 0.037980 -0.001286
# 6 0.002146 0.000734 -0.001235 -0.003178 -0.001286 0.020198
#
#
# Mechanical properties :
#
#
# Convention : Reuss Voigt Hill
#
# Bulk Modulus (GPa) = 36.53654 49.72077 43.12865
# Shear Modulus (GPa) = 30.42158 36.84229 33.63194
#
# Velocity S-wave (km/s) = 3.64682 4.01325 3.83441
# Velocity P-wave (km/s) = 5.80559 6.57352 6.20145
#
# Compressibility (1/GPa) = 0.02736986
#
# Stress axis : x y z
#
# Youngs Moduli (GPa) = 43.50618 112.17009 83.46271
#
# Poissons Ratio (x) = 0.41967 0.28838
# Poissons Ratio (y) = 0.16277 0.08841
# Poissons Ratio (z) = 0.15032 0.11882
#
# Static dielectric constant tensor:
#      x y z
#    x 1.844750 0.115310 0.135270 
#    y 0.115310 1.692820 -0.352780 
#    z 0.135270 -0.352780 1.302780 
# 
# From -- ./inp_files/185792.got.cif
#   From: 2010.05.17/outbox.cif.g08.bks.cpg/sg2_93_cif.got.tgz:185792.got - 2010.06.03 11:33:40.
