data_PCOD9032309
_publ_section_title
;
Structure prediction by ZEFSAII (Michael W. Deem and Ramdas Pophale) SiO2 
 PCOD9032309
Probable space group: P -1
;
_chemical_formula_sum "Si O2"
_cell_formula_units_Z 15
_cell_length_a 5.007222
_cell_length_b 5.181582
_cell_length_c 25.406451
_cell_angle_alpha 99.809326
_cell_angle_beta 61.350300
_cell_angle_gamma 85.772333
_cell_volume 560.736300
_symmetry_space_group_name_H-M "P -1"
_symmetry_group_IT_number 2
_symmetry_cell_setting 'triclinic'
loop_
_space_group_symop_operation_xyz
x,y,z
-x,-y,-z
loop_
_atom_site_type_symbol
_atom_site_label
_atom_site_fract_x
_atom_site_fract_y
_atom_site_fract_z
Si Si1 0.212566 0.361811 0.740798
Si Si2 0.846379 0.913214 0.799473
Si Si3 0.084801 0.724280 0.038563
Si Si4 0.447047 0.651272 0.397152
Si Si5 0.322155 0.359515 0.843159
Si Si6 0.480492 0.799401 0.919109
Si Si7 0.829880 0.397639 0.438793
Si Si8 0.000000 0.000000 0.500000
O O1 0.458788 0.302078 0.669247
O O2 0.336854 0.461432 0.786853
O O3 0.071649 0.107113 0.764038
O O4 0.961768 0.617937 0.757396
O O5 0.517932 0.063069 0.814210
O O6 0.775478 0.897186 0.868809
O O7 0.018213 0.634225 0.100457
O O8 0.416390 0.760187 0.985668
O O9 0.823323 0.985211 0.061679
O O10 0.000000 0.500000 0.000000
O O11 0.722914 0.437229 0.389654
O O12 0.096048 0.578862 0.432733
O O13 0.377903 0.911629 0.448834
O O14 0.467099 0.535376 0.877476
O O15 0.500000 0.500000 0.500000
O O16 0.960205 0.130220 0.447764
#
# Coordination Sequence:
#
# PCOD9032309 Si02
#       8
#     2   2   2   2   2   2   2   1
#     4  12  29  44  69 105 143 191 249 296 371 455
#     4  11  25  45  66  97 142 187 242 302 366 442
#     4   8  16  32  66  99 131 186 239 302 386 435
#     4  11  27  44  73 110 148 193 248 304 372 449
#     4  10  22  43  70  95 142 193 238 312 375 444
#     4   9  17  38  68  95 137 187 241 308 377 439
#     4  10  23  45  71 109 145 184 240 299 368 437
#     4  10  22  46  78 104 146 188 236 304 366 430
#
# _framework density 26.750539
#
# number of rings (size 3 to 8) (size 9 to 14) (size 15 to 20)
#    0.000    1.867    1.333    1.600    7.467    5.867 
#    0.000    1.333    0.000    0.000    0.000    0.000 
#    0.000    0.000    0.000    0.000    0.000    0.000 
#
# Total GULP energy -83575.682974 kJ/mol
# GULP energy per Si atom -5571.712198 kJ/mol
# Density = 2.668965 g / cm^3
# Si number density = 26.750539 Si / 1000 Ang^3
#
#
#
# Elastic Constant Matrix: (Units=GPa)
#
#
# Indices 1 2 3 4 5 6 
#
# 1 104.2588 23.6232 52.6073 -18.2965 -5.1303 2.0033
# 2 23.6232 98.6272 34.1591 -15.9912 -7.5002 -13.1209
# 3 52.6073 34.1591 187.1570 -17.6397 -7.8614 2.4570
# 4 -18.2965 -15.9912 -17.6397 39.3403 -10.2756 -4.8447
# 5 -5.1303 -7.5002 -7.8614 -10.2756 38.0347 -9.9347
# 6 2.0033 -13.1209 2.4570 -4.8447 -9.9347 50.5307
#
#
#
# Elastic Compliance Matrix: (Units=1/GPa)
#
#
# Indices 1 2 3 4 5 6 
#
# 1 0.012090 -0.001016 -0.002690 0.004607 0.002186 0.000259
# 2 -0.001016 0.012900 -0.001344 0.006122 0.005101 0.005045
# 3 -0.002690 -0.001344 0.006520 0.001367 0.001030 -0.000226
# 4 0.004607 0.006122 0.001367 0.035101 0.013517 0.007363
# 5 0.002186 0.005101 0.001030 0.013517 0.033844 0.009138
# 6 0.000259 0.005045 -0.000226 0.007363 0.009138 0.023603
#
#
# Mechanical properties :
#
#
# Convention : Reuss Voigt Hill
#
# Bulk Modulus (GPa) = 46.70995 67.86912 57.28954
# Shear Modulus (GPa) = 35.38709 44.22470 39.80590
#
# Velocity S-wave (km/s) = 3.64105 4.07040 3.86170
# Velocity P-wave (km/s) = 5.93090 6.89326 6.43011
#
# Compressibility (1/GPa) = 0.02140872
#
# Stress axis : x y z
#
# Youngs Moduli (GPa) = 82.71081 77.52163 153.38247
#
# Poissons Ratio (x) = 0.07880 0.41264
# Poissons Ratio (y) = 0.08407 0.20610
# Poissons Ratio (z) = 0.22252 0.10416
#
# Static dielectric constant tensor:
#      x y z
#    x 2.202580 -0.097230 0.035020 
#    y -0.097230 1.824230 -0.208410 
#    z 0.035020 -0.208410 2.091200 
# 
# From -- ./inp_files/602883.got.cif
#   From: 2010.05.17/outbox.cif.g08.bks.cpg/sg2_302_cif.got.tgz:602883.got - 2010.06.03 11:33:40.
