data_PCOD9032041
_publ_section_title
;
Structure prediction by ZEFSAII (Michael W. Deem and Ramdas Pophale) SiO2 
 PCOD9032041
Probable space group: P -1
;
_chemical_formula_sum "Si O2"
_cell_formula_units_Z 16
_cell_length_a 15.114299
_cell_length_b 12.056759
_cell_length_c 15.246331
_cell_angle_alpha 71.679656
_cell_angle_beta 26.954846
_cell_angle_gamma 53.057477
_cell_volume 796.737984
_symmetry_space_group_name_H-M "P -1"
_symmetry_group_IT_number 2
_symmetry_cell_setting 'triclinic'
loop_
_space_group_symop_operation_xyz
x,y,z
-x,-y,-z
loop_
_atom_site_type_symbol
_atom_site_label
_atom_site_fract_x
_atom_site_fract_y
_atom_site_fract_z
Si Si1 0.571248 0.723174 0.830983
Si Si2 0.919915 0.048513 0.378858
Si Si3 0.800519 0.894572 0.156458
Si Si4 0.516891 0.013107 0.765067
Si Si5 0.623610 0.316721 0.413023
Si Si6 0.323406 0.262644 0.576125
Si Si7 0.955594 0.479610 0.398335
Si Si8 0.817552 0.851549 0.802619
O O1 0.639364 0.829832 0.724686
O O2 0.748899 0.614699 0.788752
O O3 0.702359 0.594057 0.666624
O O4 0.225007 0.869458 0.111066
O O5 0.740963 0.017975 0.578148
O O6 0.735172 0.200014 0.430571
O O7 0.018295 0.098148 0.352762
O O8 0.827973 0.776535 0.229669
O O9 0.593779 0.942734 0.247551
O O10 0.627285 0.075655 0.313722
O O11 0.102220 0.793724 0.868476
O O12 0.251472 0.146933 0.034926
O O13 0.500000 0.500000 0.500000
O O14 0.391545 0.337405 0.563899
O O15 0.131473 0.394933 0.633077
O O16 0.001868 0.331079 0.355484
O O17 0.500000 0.000000 0.000000
#
# Coordination Sequence:
#
# PCOD9032041 Si02
#       8
#     2   2   2   2   2   2   2   2
#     4  10  22  43  69  88 131 166 205 271 315 366
#     4  11  22  42  66  94 124 172 213 253 325 378
#     4  11  23  44  65  93 129 170 209 262 322 368
#     4  11  21  42  68  89 127 169 210 256 320 377
#     4  12  24  40  65  95 130 167 210 261 321 378
#     4  11  24  40  68  96 125 168 218 260 307 389
#     4  11  21  43  66  95 127 168 210 263 319 366
#     4  11  22  41  65  91 127 167 210 258 309 378
#
# _framework density 20.081885
#
# number of rings (size 3 to 8) (size 9 to 14) (size 15 to 20)
#    0.000    1.000    7.500    1.125    0.000    2.000 
#    0.000    5.000    0.000    0.000    0.000    0.000 
#    0.000    0.000    0.000    0.000    0.000    0.000 
#
# Total GULP energy -89428.985466 kJ/mol
# GULP energy per Si atom -5589.311592 kJ/mol
# Density = 2.003618 g / cm^3
# Si number density = 20.081885 Si / 1000 Ang^3
#
#
#
# Elastic Constant Matrix: (Units=GPa)
#
#
# Indices 1 2 3 4 5 6 
#
# 1 97.8937 39.2160 6.3515 7.5794 2.8699 5.2092
# 2 39.2160 96.1561 41.6095 7.1448 -4.2478 10.7460
# 3 6.3515 41.6095 40.2189 -2.3067 2.2208 19.4365
# 4 7.5794 7.1448 -2.3067 30.8968 11.4926 -1.9266
# 5 2.8699 -4.2478 2.2208 11.4926 31.9302 16.0816
# 6 5.2092 10.7460 19.4365 -1.9266 16.0816 44.0354
#
#
#
# Elastic Compliance Matrix: (Units=1/GPa)
#
#
# Indices 1 2 3 4 5 6 
#
# 1 0.013420 -0.008865 0.008350 -0.000167 -0.001638 -0.002519
# 2 -0.008865 0.027621 -0.030301 -0.008992 0.007529 0.004540
# 3 0.008350 -0.030301 0.065994 0.009189 -0.001762 -0.021677
# 4 -0.000167 -0.008992 0.009189 0.043678 -0.021538 0.007935
# 5 -0.001638 0.007529 -0.001762 -0.021538 0.050550 -0.020269
# 6 -0.002519 0.004540 -0.021677 0.007935 -0.020269 0.039216
#
#
# Mechanical properties :
#
#
# Convention : Reuss Voigt Hill
#
# Bulk Modulus (GPa) = 22.02497 45.40254 33.71375
# Shear Modulus (GPa) = 15.76067 31.17860 23.46964
#
# Velocity S-wave (km/s) = 2.80450 3.94455 3.42233
# Velocity P-wave (km/s) = 4.63448 6.58815 5.69570
#
# Compressibility (1/GPa) = 0.04540301
#
# Stress axis : x y z
#
# Youngs Moduli (GPa) = 74.51787 36.20447 15.15285
#
# Poissons Ratio (x) = 0.32095 -0.12653
# Poissons Ratio (y) = 0.66060 0.45915
# Poissons Ratio (z) = -0.62226 1.09704
#
# Static dielectric constant tensor:
#      x y z
#    x 1.732170 -0.007830 0.002060 
#    y -0.007830 1.697670 0.015630 
#    z 0.002060 0.015630 1.696350 
# 
# From -- ./inp_files/531790.got.cif
#   From: 2010.05.17/outbox.cif.g08.bks.cpg/sg2_266_cif.got.tgz:531790.got - 2010.06.03 11:33:40.
