data_PCOD9032365
_publ_section_title
;
Structure prediction by ZEFSAII (Michael W. Deem and Ramdas Pophale) SiO2 
 PCOD9032365
Probable space group: P -1
;
_chemical_formula_sum "Si O2"
_cell_formula_units_Z 16
_cell_length_a 15.117805
_cell_length_b 9.673256
_cell_length_c 14.791278
_cell_angle_alpha 94.923677
_cell_angle_beta 28.843647
_cell_angle_gamma 74.235769
_cell_volume 719.694499
_symmetry_space_group_name_H-M "P -1"
_symmetry_group_IT_number 2
_symmetry_cell_setting 'triclinic'
loop_
_space_group_symop_operation_xyz
x,y,z
-x,-y,-z
loop_
_atom_site_type_symbol
_atom_site_label
_atom_site_fract_x
_atom_site_fract_y
_atom_site_fract_z
Si Si1 0.193872 0.127139 0.768425
Si Si2 0.776061 0.344305 0.300537
Si Si3 0.680921 0.737606 0.022534
Si Si4 0.917751 0.619081 0.489208
Si Si5 0.049341 0.440613 0.803667
Si Si6 0.898253 0.961367 0.505753
Si Si7 0.520379 0.129836 0.229873
Si Si8 0.956355 0.016635 0.247690
O O1 0.050437 0.348683 0.885788
O O2 0.158504 0.047311 0.709956
O O3 0.500000 0.000000 0.500000
O O4 0.024245 0.159218 0.004941
O O5 0.500000 0.500000 0.500000
O O6 0.848383 0.460333 0.270218
O O7 0.789856 0.238811 0.370927
O O8 0.420026 0.855329 0.204789
O O9 0.664349 0.904023 0.079456
O O10 0.925374 0.560439 0.732866
O O11 0.752613 0.607079 0.038466
O O12 0.000000 0.500000 0.500000
O O13 0.973492 0.755721 0.439646
O O14 0.611458 0.771034 0.744240
O O15 0.276195 0.251183 0.524363
O O16 0.964583 0.980504 0.345883
O O17 0.000000 0.000000 0.500000
O O18 0.736586 0.124617 0.060654
#
# Coordination Sequence:
#
# PCOD9032365 Si02
#       8
#     2   2   2   2   2   2   2   2
#     4  12  26  44  73 103 148 193 246 300 370 441
#     4  12  26  43  70 110 142 188 249 300 367 435
#     4  10  22  44  70  97 138 189 239 284 367 427
#     4  10  24  44  71  99 136 184 245 296 355 439
#     4  11  23  44  70 101 137 189 240 290 357 439
#     4  11  28  45  70 109 145 189 239 296 369 426
#     4  10  22  43  70  99 137 191 233 290 372 418
#     4  12  25  46  70 101 153 184 234 309 359 429
#
# _framework density 22.231653999999999
#
# number of rings (size 3 to 8) (size 9 to 14) (size 15 to 20)
#    0.000    1.000    1.250    5.250    7.000    1.500 
#    4.500    0.000    0.000    0.000    0.000    0.000 
#    0.000    0.000    0.000    0.000    0.000    0.000 
#
# Total GULP energy -89288.027758 kJ/mol
# GULP energy per Si atom -5580.501735 kJ/mol
# Density = 2.218105 g / cm^3
# Si number density = 22.231654 Si / 1000 Ang^3
#
#
#
# Elastic Constant Matrix: (Units=GPa)
#
#
# Indices 1 2 3 4 5 6 
#
# 1 144.2907 69.8195 40.6790 -0.5244 -15.4378 2.5673
# 2 69.8195 152.2122 29.3315 13.4938 -1.2895 -20.9124
# 3 40.6790 29.3315 82.6542 9.0076 -11.6175 -4.7194
# 4 -0.5244 13.4938 9.0076 30.4943 1.6698 -1.3903
# 5 -15.4378 -1.2895 -11.6175 1.6698 42.8139 3.3718
# 6 2.5673 -20.9124 -4.7194 -1.3903 3.3718 52.0600
#
#
#
# Elastic Compliance Matrix: (Units=1/GPa)
#
#
# Indices 1 2 3 4 5 6 
#
# 1 0.010663 -0.004840 -0.003639 0.003114 0.002819 -0.002900
# 2 -0.004840 0.009826 -0.000694 -0.003939 -0.001810 0.004135
# 3 -0.003639 -0.000694 0.015061 -0.004316 0.002846 0.000967
# 4 0.003114 -0.003939 -0.004316 0.035897 -0.001483 -0.001072
# 5 0.002819 -0.001810 0.002846 -0.001483 0.025329 -0.002288
# 6 -0.002900 0.004135 0.000967 -0.001072 -0.002288 0.021220
#
#
# Mechanical properties :
#
#
# Convention : Reuss Voigt Hill
#
# Bulk Modulus (GPa) = 58.12569 73.20190 65.66380
# Shear Modulus (GPa) = 35.19250 41.02878 38.11064
#
# Velocity S-wave (km/s) = 3.98300 4.30060 4.14484
# Velocity P-wave (km/s) = 6.88147 7.59333 7.24614
#
# Compressibility (1/GPa) = 0.01720410
#
# Stress axis : x y z
#
# Youngs Moduli (GPa) = 93.78236 101.77470 66.39548
#
# Poissons Ratio (x) = 0.49263 0.24161
# Poissons Ratio (y) = 0.45394 0.04605
# Poissons Ratio (z) = 0.34126 0.07059
#
# Static dielectric constant tensor:
#      x y z
#    x 2.036690 -0.079420 0.053240 
#    y -0.079420 1.877090 -0.036510 
#    z 0.053240 -0.036510 1.862840 
# 
# From -- ./inp_files/339878.got.cif
#   From: 2010.05.17/outbox.cif.g08.bks.cpg/sg2_170_cif.got.tgz:339878.got - 2010.06.03 11:33:40.
