data_PCOD9032660
_publ_section_title
;
Structure prediction by ZEFSAII (Michael W. Deem and Ramdas Pophale) SiO2 
 PCOD9032660
Probable space group: P -1
;
_chemical_formula_sum "Si O2"
_cell_formula_units_Z 12
_cell_length_a 15.132224
_cell_length_b 5.052643
_cell_length_c 8.013210
_cell_angle_alpha 114.045651
_cell_angle_beta 123.447619
_cell_angle_gamma 73.640354
_cell_volume 465.533494
_symmetry_space_group_name_H-M "P -1"
_symmetry_group_IT_number 2
_symmetry_cell_setting 'triclinic'
loop_
_space_group_symop_operation_xyz
x,y,z
-x,-y,-z
loop_
_atom_site_type_symbol
_atom_site_label
_atom_site_fract_x
_atom_site_fract_y
_atom_site_fract_z
Si Si1 0.769367 0.845409 0.643780
Si Si2 0.613532 0.138636 0.145362
Si Si3 0.294144 0.495025 0.945220
Si Si4 0.103460 0.646282 0.207070
Si Si5 0.889417 0.403507 0.424805
Si Si6 0.612136 0.317613 0.562807
O O1 0.851282 0.097169 0.782839
O O2 0.648215 0.974085 0.550563
O O3 0.806656 0.621586 0.767147
O O4 0.805234 0.658500 0.470995
O O5 0.637561 0.299142 0.385476
O O6 0.695662 0.856144 0.138253
O O7 0.374376 0.640612 0.937287
O O8 0.500000 0.000000 0.000000
O O9 0.180969 0.671634 0.826391
O O10 0.331232 0.561421 0.185872
O O11 0.088698 0.754714 0.413995
O O12 0.000000 0.500000 0.000000
O O13 0.000000 0.500000 0.500000
O O14 0.500000 0.500000 0.500000
#
# Coordination Sequence:
#
# PCOD9032660 Si02
#       6
#     2   2   2   2   2   2
#     4  10  24  45  67 107 150 188 248 317 365 455
#     4  12  26  52  75 110 158 192 260 324 376 458
#     4  12  28  49  75 113 154 203 251 326 379 460
#     4  10  22  43  73 100 145 196 245 310 382 438
#     4  10  25  46  72 107 152 196 253 309 388 445
#     4  12  27  48  82 112 151 208 258 308 402 454
#
# _framework density 25.776876999999999
#
# number of rings (size 3 to 8) (size 9 to 14) (size 15 to 20)
#    1.000    0.000    3.333    2.000    2.333    4.000 
#    0.000    0.000    0.000    0.000    0.000    0.000 
#    0.000    0.000    0.000    0.000    0.000    0.000 
#
# Total GULP energy -66872.539366 kJ/mol
# GULP energy per Si atom -5572.711614 kJ/mol
# Density = 2.571821 g / cm^3
# Si number density = 25.776877 Si / 1000 Ang^3
#
#
#
# Elastic Constant Matrix: (Units=GPa)
#
#
# Indices 1 2 3 4 5 6 
#
# 1 115.0227 35.7761 60.3529 -11.5949 -8.0561 18.4583
# 2 35.7761 92.7546 19.8969 -0.4233 -16.1392 19.0097
# 3 60.3529 19.8969 181.0908 -30.1677 -13.0410 19.8367
# 4 -11.5949 -0.4233 -30.1677 34.7336 -9.4591 2.1956
# 5 -8.0561 -16.1392 -13.0410 -9.4591 57.3741 1.1192
# 6 18.4583 19.0097 19.8367 2.1956 1.1192 47.9393
#
#
#
# Elastic Compliance Matrix: (Units=1/GPa)
#
#
# Indices 1 2 3 4 5 6 
#
# 1 0.011879 -0.003456 -0.003105 0.001424 0.000264 -0.001990
# 2 -0.003456 0.013536 0.000530 0.000743 0.003651 -0.004376
# 3 -0.003105 0.000530 0.008169 0.006997 0.002778 -0.002780
# 4 0.001424 0.000743 0.006997 0.037992 0.008374 -0.005674
# 5 0.000264 0.003651 0.002778 0.008374 0.020575 -0.003562
# 6 -0.001990 -0.004376 -0.002780 -0.005674 -0.003562 0.024855
#
#
# Mechanical properties :
#
#
# Convention : Reuss Voigt Hill
#
# Bulk Modulus (GPa) = 46.46132 68.99111 57.72621
# Shear Modulus (GPa) = 36.69993 46.19889 41.44941
#
# Velocity S-wave (km/s) = 3.77736 4.23810 4.01435
# Velocity P-wave (km/s) = 6.09000 7.12541 6.62796
#
# Compressibility (1/GPa) = 0.02152328
#
# Stress axis : x y z
#
# Youngs Moduli (GPa) = 84.17874 73.87941 122.41489
#
# Poissons Ratio (x) = 0.25530 0.38012
# Poissons Ratio (y) = 0.29089 -0.06493
# Poissons Ratio (z) = 0.26139 -0.03919
#
# Static dielectric constant tensor:
#      x y z
#    x 2.107410 -0.009720 0.039260 
#    y -0.009720 2.110760 0.041910 
#    z 0.039260 0.041910 2.423650 
# 
# From -- ./inp_files/76092.got.cif
#   From: 2010.05.17/outbox.cif.g08.bks.cpg/sg2_39_cif.got.tgz:76092.got - 2010.06.03 11:33:40.
