data_PCOD9032562
_publ_section_title
;
Structure prediction by ZEFSAII (Michael W. Deem and Ramdas Pophale) SiO2 
 PCOD9032562
Probable space group: P -1
;
_chemical_formula_sum "Si O2"
_cell_formula_units_Z 14
_cell_length_a 5.109267
_cell_length_b 7.779068
_cell_length_c 22.464396
_cell_angle_alpha 47.913301
_cell_angle_beta 63.078573
_cell_angle_gamma 54.902383
_cell_volume 538.785273
_symmetry_space_group_name_H-M "P -1"
_symmetry_group_IT_number 2
_symmetry_cell_setting 'triclinic'
loop_
_space_group_symop_operation_xyz
x,y,z
-x,-y,-z
loop_
_atom_site_type_symbol
_atom_site_label
_atom_site_fract_x
_atom_site_fract_y
_atom_site_fract_z
Si Si1 0.813433 0.981987 0.120170
Si Si2 0.169100 0.230807 0.963775
Si Si3 0.917684 0.764062 0.818900
Si Si4 0.623795 0.499233 0.408123
Si Si5 0.683361 0.996334 0.331240
Si Si6 0.942370 0.544208 0.734280
Si Si7 0.819689 0.781930 0.491053
O O1 0.444552 0.099663 0.151494
O O2 0.875344 0.846441 0.080793
O O3 0.024894 0.743141 0.194811
O O4 0.923855 0.207113 0.043120
O O5 0.126508 0.518674 0.894165
O O6 0.500000 0.000000 0.000000
O O7 0.926288 0.662358 0.774067
O O8 0.085856 0.956522 0.750902
O O9 0.314098 0.434620 0.457825
O O10 0.763998 0.467254 0.334494
O O11 0.897353 0.307385 0.468827
O O12 0.579334 0.777558 0.369690
O O13 0.380846 0.263475 0.308192
O O14 0.857630 0.907583 0.396588
O O15 0.500000 0.000000 0.500000
#
# Coordination Sequence:
#
# PCOD9032562 Si02
#       7
#     2   2   2   2   2   2   2
#     4  10  23  43  70 106 143 187 244 299 367 441
#     4  10  22  43  72 102 146 189 240 296 368 444
#     4  11  25  43  71 106 146 191 243 306 368 444
#     4  12  28  47  77 105 152 198 255 312 373 440
#     4  12  27  43  72 104 145 193 250 303 377 438
#     4  11  25  44  69 101 146 192 246 302 373 432
#     4  12  26  50  76 107 148 201 253 313 373 441
#
# _framework density 25.984375
#
# number of rings (size 3 to 8) (size 9 to 14) (size 15 to 20)
#    0.000    0.857    1.429    4.286    6.000    4.000 
#    0.000    0.000    0.000    0.000    0.000    0.000 
#    0.000    0.000    0.000    0.000    0.000    0.000 
#
# Total GULP energy -78484.476736 kJ/mol
# GULP energy per Si atom -5606.034053 kJ/mol
# Density = 2.592523 g / cm^3
# Si number density = 25.984375 Si / 1000 Ang^3
#
#
#
# Elastic Constant Matrix: (Units=GPa)
#
#
# Indices 1 2 3 4 5 6 
#
# 1 88.7665 19.9267 66.8454 -5.0019 0.9059 -15.2828
# 2 19.9267 107.0030 76.1593 1.1333 8.9133 -7.4278
# 3 66.8454 76.1593 217.0315 -25.3191 -18.0857 -19.2497
# 4 -5.0019 1.1333 -25.3191 40.6043 -27.0064 10.7704
# 5 0.9059 8.9133 -18.0857 -27.0064 44.3375 4.6813
# 6 -15.2828 -7.4278 -19.2497 10.7704 4.6813 52.4251
#
#
#
# Elastic Compliance Matrix: (Units=1/GPa)
#
#
# Indices 1 2 3 4 5 6 
#
# 1 0.019029 0.007457 -0.011915 -0.021191 -0.020545 0.008417
# 2 0.007457 0.024115 -0.017065 -0.036467 -0.035225 0.009962
# 3 -0.011915 -0.017065 0.021173 0.039720 0.037521 -0.009628
# 4 -0.021191 -0.036467 0.039720 0.125023 0.103464 -0.031683
# 5 -0.020545 -0.035225 0.037521 0.103464 0.111381 -0.028405
# 6 0.008417 0.009962 -0.009628 -0.031683 -0.028405 0.028450
#
#
# Mechanical properties :
#
#
# Convention : Reuss Voigt Hill
#
# Bulk Modulus (GPa) = 47.01516 82.07376 64.54446
# Shear Modulus (GPa) = 13.18194 44.13136 28.65665
#
# Velocity S-wave (km/s) = 2.25478 4.12561 3.32451
# Velocity P-wave (km/s) = 4.99115 7.37215 6.29525
#
# Compressibility (1/GPa) = 0.02126974
#
# Stress axis : x y z
#
# Youngs Moduli (GPa) = 52.55137 41.46806 47.23100
#
# Poissons Ratio (x) = -0.30923 0.56278
# Poissons Ratio (y) = -0.39188 0.80600
# Poissons Ratio (z) = 0.62617 0.70766
#
# Static dielectric constant tensor:
#      x y z
#    x 2.074510 0.023310 -0.017780 
#    y 0.023310 2.096570 -0.003050 
#    z -0.017780 -0.003050 2.040690 
# 
# From -- ./inp_files/124642.got.cif
#   From: 2010.05.17/outbox.cif.g08.bks.cpg/sg2_63_cif.got.tgz:124642.got - 2010.06.03 11:33:40.
