data_PCOD9032870
_publ_section_title
;
Structure prediction by ZEFSAII (Michael W. Deem and Ramdas Pophale) SiO2 
 PCOD9032870
Probable space group: P -1
;
_chemical_formula_sum "Si O2"
_cell_formula_units_Z 14
_cell_length_a 5.871879
_cell_length_b 23.573180
_cell_length_c 4.945957
_cell_angle_alpha 89.411350
_cell_angle_beta 96.349873
_cell_angle_gamma 62.493438
_cell_volume 602.034788
_symmetry_space_group_name_H-M "P -1"
_symmetry_group_IT_number 2
_symmetry_cell_setting 'triclinic'
loop_
_space_group_symop_operation_xyz
x,y,z
-x,-y,-z
loop_
_atom_site_type_symbol
_atom_site_label
_atom_site_fract_x
_atom_site_fract_y
_atom_site_fract_z
Si Si1 0.086582 0.084758 0.888916
Si Si2 0.579708 0.041634 0.306443
Si Si3 0.095289 0.413040 0.480502
Si Si4 0.247559 0.858650 0.632689
Si Si5 0.777924 0.446224 0.944926
Si Si6 0.511124 0.711446 0.630532
Si Si7 0.404615 0.651786 0.156354
O O1 0.983779 0.127784 0.607111
O O2 0.166202 0.012468 0.805418
O O3 0.351908 0.076146 0.057509
O O4 0.871526 0.115989 0.089714
O O5 0.632300 0.095500 0.447819
O O6 0.500000 0.000000 0.500000
O O7 0.999907 0.443290 0.175472
O O8 0.207506 0.336069 0.456354
O O9 0.350864 0.407803 0.659930
O O10 0.858484 0.447945 0.648853
O O11 0.444216 0.784012 0.661547
O O12 0.500000 0.500000 0.000000
O O13 0.776144 0.377757 0.963454
O O14 0.321724 0.704321 0.381251
O O15 0.487170 0.679347 0.907825
#
# Coordination Sequence:
#
# PCOD9032870 Si02
#       7
#     2   2   2   2   2   2   2
#     4  11  25  42  66  95 126 166 205 269 323 360
#     4  11  25  44  65  97 128 162 211 263 328 368
#     4  10  22  44  61  94 133 165 201 267 315 351
#     4  12  25  43  66  94 126 168 215 257 308 388
#     4  12  24  40  69  98 122 168 214 250 319 377
#     4  10  22  47  63  88 132 172 207 254 318 367
#     4  10  22  45  63  91 130 166 203 262 307 371
#
# _framework density 23.254467999999999
#
# number of rings (size 3 to 8) (size 9 to 14) (size 15 to 20)
#    0.857    0.286    2.857    3.000    4.000    1.143 
#    7.714    0.000    0.000    0.000    0.000    0.000 
#    0.000    0.000    0.000    0.000    0.000    0.000 
#
# Total GULP energy -78146.227386 kJ/mol
# GULP energy per Si atom -5581.873385 kJ/mol
# Density = 2.320154 g / cm^3
# Si number density = 23.254468 Si / 1000 Ang^3
#
#
#
# Elastic Constant Matrix: (Units=GPa)
#
#
# Indices 1 2 3 4 5 6 
#
# 1 34.5531 35.0186 24.9654 7.4407 2.6761 10.4256
# 2 35.0186 145.4566 43.7789 29.0369 -1.5119 2.0273
# 3 24.9654 43.7789 140.3908 5.2869 -7.0861 2.5951
# 4 7.4407 29.0369 5.2869 30.0405 -11.1164 0.2241
# 5 2.6761 -1.5119 -7.0861 -11.1164 35.2200 1.4606
# 6 10.4256 2.0273 2.5951 0.2241 1.4606 23.9094
#
#
#
# Elastic Compliance Matrix: (Units=1/GPa)
#
#
# Indices 1 2 3 4 5 6 
#
# 1 0.049815 -0.009132 -0.005772 -0.004548 -0.005948 -0.019915
# 2 -0.009132 0.011384 -0.001753 -0.009290 -0.002245 0.003431
# 3 -0.005772 -0.001753 0.008714 0.002648 0.002889 0.001518
# 4 -0.004548 -0.009290 0.002648 0.048779 0.015832 0.001059
# 5 -0.005948 -0.002245 0.002889 0.015832 0.034317 0.000226
# 6 -0.019915 0.003431 0.001518 0.001059 0.000226 0.050029
#
#
# Mechanical properties :
#
#
# Convention : Reuss Voigt Hill
#
# Bulk Modulus (GPa) = 27.32229 58.65849 42.99039
# Shear Modulus (GPa) = 20.11646 32.27649 26.19648
#
# Velocity S-wave (km/s) = 2.94438 3.72959 3.36000
# Velocity P-wave (km/s) = 4.83052 6.62011 5.79481
#
# Compressibility (1/GPa) = 0.03660016
#
# Stress axis : x y z
#
# Youngs Moduli (GPa) = 20.07415 87.83940 114.75752
#
# Poissons Ratio (x) = 0.80217 0.66234
# Poissons Ratio (y) = 0.18332 0.20117
# Poissons Ratio (z) = 0.11586 0.15398
#
# Static dielectric constant tensor:
#      x y z
#    x 1.902070 -0.006040 -0.003210 
#    y -0.006040 1.864430 0.017760 
#    z -0.003210 0.017760 1.880960 
# 
# From -- ./inp_files/12455.got.cif
#   From: 2010.05.17/outbox.cif.g08.bks.cpg/sg2_7_cif.got.tgz:12455.got - 2010.06.03 11:33:40.
