data_PCOD9032654
_publ_section_title
;
Structure prediction by ZEFSAII (Michael W. Deem and Ramdas Pophale) SiO2 
 PCOD9032654
Probable space group: P -1
;
_chemical_formula_sum "Si O2"
_cell_formula_units_Z 13
_cell_length_a 8.227675
_cell_length_b 7.409497
_cell_length_c 14.399033
_cell_angle_alpha 64.704935
_cell_angle_beta 66.879063
_cell_angle_gamma 37.661081
_cell_volume 482.548309
_symmetry_space_group_name_H-M "P -1"
_symmetry_group_IT_number 2
_symmetry_cell_setting 'triclinic'
loop_
_space_group_symop_operation_xyz
x,y,z
-x,-y,-z
loop_
_atom_site_type_symbol
_atom_site_label
_atom_site_fract_x
_atom_site_fract_y
_atom_site_fract_z
Si Si1 0.301596 0.083185 0.829612
Si Si2 0.757459 0.070758 0.575369
Si Si3 0.448383 0.679712 0.614425
Si Si4 0.073814 0.675176 0.760551
Si Si5 0.758156 0.447744 0.770718
Si Si6 0.000000 0.500000 0.000000
Si Si7 0.551967 0.274931 0.964385
O O1 0.308812 0.312415 0.775005
O O2 0.052569 0.230313 0.790601
O O3 0.558588 0.755237 0.807194
O O4 0.253212 0.050942 0.954942
O O5 0.563188 0.389788 0.599505
O O6 0.630300 0.105423 0.499072
O O7 0.000000 0.000000 0.500000
O O8 0.890126 0.819565 0.678005
O O9 0.200764 0.790991 0.704398
O O10 0.676447 0.559205 0.659251
O O11 0.934282 0.696713 0.876472
O O12 0.676839 0.288468 0.847858
O O13 0.279594 0.395855 0.976323
O O14 0.500000 0.500000 0.000000
#
# Coordination Sequence:
#
# PCOD9032654 Si02
#       7
#     2   2   2   2   2   1   2
#     4  11  26  44  68 103 151 191 233 302 374 423
#     4   9  22  42  71  97 137 181 239 306 364 416
#     4  10  22  43  73 100 131 189 249 293 357 436
#     4  11  24  42  68 104 145 182 237 303 354 442
#     4  11  24  46  72 100 144 196 243 291 364 442
#     4  12  24  42  74 112 144 196 246 286 372 442
#     4  10  23  44  66 102 151 196 237 297 355 432
#
# _framework density 26.940308000000002
#
# number of rings (size 3 to 8) (size 9 to 14) (size 15 to 20)
#    0.000    1.538    1.538    2.308    8.615    3.077 
#    0.000    1.538    0.000    0.000    0.000    0.000 
#    0.000    0.000    0.000    0.000    0.000    0.000 
#
# Total GULP energy -72611.516966 kJ/mol
# GULP energy per Si atom -5585.501305 kJ/mol
# Density = 2.687899 g / cm^3
# Si number density = 26.940308 Si / 1000 Ang^3
#
#
#
# Elastic Constant Matrix: (Units=GPa)
#
#
# Indices 1 2 3 4 5 6 
#
# 1 149.0704 14.1286 53.3940 -3.1957 19.9670 -20.2841
# 2 14.1286 63.2090 31.0772 -15.5720 -18.1880 2.9178
# 3 53.3940 31.0772 211.6020 -27.2039 38.5254 -2.4213
# 4 -3.1957 -15.5720 -27.2039 51.6940 -14.2259 -0.0324
# 5 19.9670 -18.1880 38.5254 -14.2259 53.4639 -2.8533
# 6 -20.2841 2.9178 -2.4213 -0.0324 -2.8533 37.3250
#
#
#
# Elastic Compliance Matrix: (Units=1/GPa)
#
#
# Indices 1 2 3 4 5 6 
#
# 1 0.008494 -0.003027 -0.001253 -0.002034 -0.003600 0.004495
# 2 -0.003027 0.025732 -0.004681 0.009395 0.015610 -0.002759
# 3 -0.001253 -0.004681 0.006875 0.000488 -0.005966 -0.000325
# 4 -0.002034 0.009395 0.000488 0.025122 0.010235 -0.001004
# 5 -0.003600 0.015610 -0.005966 0.010235 0.032324 -0.001084
# 6 0.004495 -0.002759 -0.000325 -0.001004 -0.001084 0.029345
#
#
# Mechanical properties :
#
#
# Convention : Reuss Voigt Hill
#
# Bulk Modulus (GPa) = 43.14407 69.00899 56.07653
# Shear Modulus (GPa) = 32.56447 50.18200 41.37323
#
# Velocity S-wave (km/s) = 3.48050 4.32060 3.92310
# Velocity P-wave (km/s) = 5.67462 7.11064 6.43283
#
# Compressibility (1/GPa) = 0.02317815
#
# Stress axis : x y z
#
# Youngs Moduli (GPa) = 117.72612 38.86156 145.45736
#
# Poissons Ratio (x) = 0.11764 0.18232
# Poissons Ratio (y) = 0.35636 0.68092
# Poissons Ratio (z) = 0.14756 0.18192
#
# Static dielectric constant tensor:
#      x y z
#    x 2.029760 -0.029360 0.049510 
#    y -0.029360 2.141010 0.019250 
#    z 0.049510 0.019250 2.211460 
# 
# From -- ./inp_files/35064.got.cif
#   From: 2010.05.17/outbox.cif.g08.bks.cpg/sg2_18_cif.got.tgz:35064.got - 2010.06.03 11:33:40.
