data_PCOD9032849
_publ_section_title
;
Structure prediction by ZEFSAII (Michael W. Deem and Ramdas Pophale) SiO2 
 PCOD9032849
Probable space group: P -1
;
_chemical_formula_sum "Si O2"
_cell_formula_units_Z 14
_cell_length_a 4.873286
_cell_length_b 9.268175
_cell_length_c 21.736115
_cell_angle_alpha 37.030841
_cell_angle_beta 106.860285
_cell_angle_gamma 113.154764
_cell_volume 543.117124
_symmetry_space_group_name_H-M "P -1"
_symmetry_group_IT_number 2
_symmetry_cell_setting 'triclinic'
loop_
_space_group_symop_operation_xyz
x,y,z
-x,-y,-z
loop_
_atom_site_type_symbol
_atom_site_label
_atom_site_fract_x
_atom_site_fract_y
_atom_site_fract_z
Si Si1 0.312408 0.414939 0.215010
Si Si2 0.127141 0.099445 0.907915
Si Si3 0.536076 0.627364 0.524291
Si Si4 0.698065 0.275258 0.047812
Si Si5 0.355938 0.651298 0.849381
Si Si6 0.815141 0.179095 0.480053
Si Si7 0.808357 0.456005 0.707904
O O1 0.443216 0.249877 0.231758
O O2 0.121393 0.784725 0.177647
O O3 0.459691 0.410355 0.960241
O O4 0.571079 0.675737 0.140828
O O5 0.989837 0.419060 0.167661
O O6 0.219191 0.912629 0.930378
O O7 0.000000 0.000000 0.000000
O O8 0.500000 0.500000 0.500000
O O9 0.259320 0.722998 0.492448
O O10 0.565374 0.434795 0.646073
O O11 0.850291 0.847193 0.479272
O O12 0.605109 0.183537 0.142575
O O13 0.000000 0.500000 0.000000
O O14 0.746484 0.624248 0.702858
O O15 0.895442 0.391703 0.360376
O O16 0.500000 0.000000 0.500000
#
# Coordination Sequence:
#
# PCOD9032849 Si02
#       7
#     2   2   2   2   2   2   2
#     4  12  23  47  68 101 139 192 254 305 359 431
#     4  12  26  47  74 105 146 209 255 304 357 437
#     4  10  22  43  79 112 150 190 238 306 384 459
#     4  11  24  44  66  97 141 189 263 313 367 413
#     4  11  24  43  68  95 135 196 244 321 361 420
#     4  10  22  44  80 113 146 189 235 308 386 444
#     4  10  25  42  78 106 154 179 259 303 368 444
#
# _framework density 25.777128999999999
#
# number of rings (size 3 to 8) (size 9 to 14) (size 15 to 20)
#    0.857    0.286    2.857    3.429    0.000    5.143 
#    0.000    0.000   15.714    0.000    0.000    0.000 
#    0.000    0.000    0.000    0.000    0.000    0.000 
#
# Total GULP energy -78273.844983 kJ/mol
# GULP energy per Si atom -5590.988927 kJ/mol
# Density = 2.571846 g / cm^3
# Si number density = 25.777129 Si / 1000 Ang^3
#
#
#
# Elastic Constant Matrix: (Units=GPa)
#
#
# Indices 1 2 3 4 5 6 
#
# 1 175.2287 33.0231 31.0362 20.7476 -22.6062 -5.7681
# 2 33.0231 102.1657 40.3891 38.8252 -20.7230 -11.0880
# 3 31.0362 40.3891 104.5630 37.0720 -21.2892 -12.0424
# 4 20.7476 38.8252 37.0720 51.3926 -5.4124 -14.0009
# 5 -22.6062 -20.7230 -21.2892 -5.4124 54.4876 19.3802
# 6 -5.7681 -11.0880 -12.0424 -14.0009 19.3802 58.3160
#
#
#
# Elastic Compliance Matrix: (Units=1/GPa)
#
#
# Indices 1 2 3 4 5 6 
#
# 1 0.006422 -0.000920 -0.000715 -0.001353 0.002160 -0.000730
# 2 -0.000920 0.015152 -0.001281 -0.010057 0.004357 -0.001337
# 3 -0.000715 -0.001281 0.014113 -0.008724 0.004178 -0.000883
# 4 -0.001353 -0.010057 -0.008724 0.035039 -0.006734 0.006803
# 5 0.002160 0.004357 0.004178 -0.006734 0.024685 -0.007916
# 6 -0.000730 -0.001337 -0.000883 0.006803 -0.007916 0.020903
#
#
# Mechanical properties :
#
#
# Convention : Reuss Voigt Hill
#
# Bulk Modulus (GPa) = 33.49580 65.65046 49.57313
# Shear Modulus (GPa) = 37.85071 51.33982 44.59527
#
# Velocity S-wave (km/s) = 3.83611 4.46767 4.16388
# Velocity P-wave (km/s) = 5.71345 7.22061 6.51079
#
# Compressibility (1/GPa) = 0.02985449
#
# Stress axis : x y z
#
# Youngs Moduli (GPa) = 155.72108 65.99642 70.85805
#
# Poissons Ratio (x) = 0.06070 0.05069
# Poissons Ratio (y) = 0.14323 0.09077
# Poissons Ratio (z) = 0.11140 0.08454
#
# Static dielectric constant tensor:
#      x y z
#    x 2.076380 0.037590 0.062200 
#    y 0.037590 2.145110 0.034870 
#    z 0.062200 0.034870 2.178530 
# 
# From -- ./inp_files/547014.got.cif
#   From: 2010.05.17/outbox.cif.g08.bks.cpg/sg2_274_cif.got.tgz:547014.got - 2010.06.03 11:33:40.
