data_PCOD9032983
_publ_section_title
;
Structure prediction by ZEFSAII (Michael W. Deem and Ramdas Pophale) SiO2 
 PCOD9032983
Probable space group: P -1
;
_chemical_formula_sum "Si O2"
_cell_formula_units_Z 16
_cell_length_a 6.817463
_cell_length_b 20.197559
_cell_length_c 17.479646
_cell_angle_alpha 161.684094
_cell_angle_beta 66.907773
_cell_angle_gamma 114.256672
_cell_volume 689.578677
_symmetry_space_group_name_H-M "P -1"
_symmetry_group_IT_number 2
_symmetry_cell_setting 'triclinic'
loop_
_space_group_symop_operation_xyz
x,y,z
-x,-y,-z
loop_
_atom_site_type_symbol
_atom_site_label
_atom_site_fract_x
_atom_site_fract_y
_atom_site_fract_z
Si Si1 0.024955 0.182971 0.760678
Si Si2 0.505056 0.188067 0.334395
Si Si3 0.294399 0.496672 0.971050
Si Si4 0.674344 0.771571 0.840412
Si Si5 0.766183 0.549304 0.433775
Si Si6 0.637907 0.908505 0.578202
Si Si7 0.425030 0.176096 0.800861
Si Si8 0.203003 0.391445 0.205813
O O1 0.818127 0.115452 0.770842
O O2 0.088216 0.415058 0.966364
O O3 0.233339 0.148123 0.739677
O O4 0.000000 0.000000 0.500000
O O5 0.302311 0.267887 0.410689
O O6 0.683644 0.390865 0.536624
O O7 0.439610 0.115716 0.350644
O O8 0.615927 0.999248 0.073473
O O9 0.292023 0.308701 0.702705
O O10 0.500000 0.500000 0.000000
O O11 0.358526 0.716763 0.157474
O O12 0.795373 0.656318 0.630339
O O13 0.441962 0.628701 0.728236
O O14 0.797382 0.774986 0.906612
O O15 0.973578 0.437606 0.260783
O O16 0.459285 0.961861 0.603568
O O17 0.351528 0.327360 0.044253
#
# Coordination Sequence:
#
# PCOD9032983 Si02
#       8
#     2   2   2   2   2   2   2   2
#     4   9  22  39  61  90 118 158 210 247 311 376
#     4  11  23  39  63  95 130 165 211 259 314 370
#     4   9  20  41  60  88 123 155 206 254 309 372
#     4  10  22  44  64  93 127 166 208 266 311 370
#     4  10  24  41  66  92 129 165 213 258 312 373
#     4  11  22  40  63  90 127 164 204 258 310 372
#     4  11  22  39  64  87 129 164 202 261 313 367
#     4  11  23  39  63  96 125 170 211 254 317 375
#
# _framework density 23.202575
#
# number of rings (size 3 to 8) (size 9 to 14) (size 15 to 20)
#    0.000    1.750    2.500    0.750    1.750    7.500 
#    0.000    2.500    0.000    0.000    0.000    0.000 
#    0.000    0.000    0.000    0.000    0.000    0.000 
#
# Total GULP energy -89422.333102 kJ/mol
# GULP energy per Si atom -5588.895819 kJ/mol
# Density = 2.314976 g / cm^3
# Si number density = 23.202575 Si / 1000 Ang^3
#
#
#
# Elastic Constant Matrix: (Units=GPa)
#
#
# Indices 1 2 3 4 5 6 
#
# 1 83.2911 20.3978 9.4349 5.6146 -11.0827 -16.6293
# 2 20.3978 59.2213 -6.7676 10.1114 -5.8611 -18.0990
# 3 9.4349 -6.7676 74.1581 0.0446 -12.4261 -11.3529
# 4 5.6146 10.1114 0.0446 22.3393 -5.5533 -7.7819
# 5 -11.0827 -5.8611 -12.4261 -5.5533 35.6351 -0.6879
# 6 -16.6293 -18.0990 -11.3529 -7.7819 -0.6879 30.4581
#
#
#
# Elastic Compliance Matrix: (Units=1/GPa)
#
#
# Indices 1 2 3 4 5 6 
#
# 1 0.014522 -0.002833 -0.000427 0.000902 0.004166 0.006410
# 2 -0.002833 0.023808 0.005380 -0.004202 0.004519 0.013634
# 3 -0.000427 0.005380 0.016801 0.002983 0.007271 0.010152
# 4 0.000902 -0.004202 0.002983 0.053210 0.009171 0.012910
# 5 0.004166 0.004519 0.007271 0.009171 0.034274 0.010787
# 6 0.006410 0.013634 0.010152 0.012910 0.010787 0.051760
#
#
# Mechanical properties :
#
#
# Convention : Reuss Voigt Hill
#
# Bulk Modulus (GPa) = 16.84352 29.20009 23.02180
# Shear Modulus (GPa) = 23.81796 30.59352 27.20574
#
# Velocity S-wave (km/s) = 3.20741 3.63511 3.42794
# Velocity P-wave (km/s) = 4.58168 5.49826 5.06076
#
# Compressibility (1/GPa) = 0.05937003
#
# Stress axis : x y z
#
# Youngs Moduli (GPa) = 68.86282 42.00244 59.52048
#
# Poissons Ratio (x) = 0.11901 0.02544
# Poissons Ratio (y) = 0.19511 -0.32024
# Poissons Ratio (z) = 0.02943 -0.22599
#
# Static dielectric constant tensor:
#      x y z
#    x 1.910180 -0.023430 -0.018010 
#    y -0.023430 1.906450 0.037690 
#    z -0.018010 0.037690 1.847190 
# 
# From -- ./inp_files/47644.got.cif
#   From: 2010.05.17/outbox.cif.g08.bks.cpg/sg2_24_cif.got.tgz:47644.got - 2010.06.03 11:33:40.
