data_PCOD9032515
_publ_section_title
;
Structure prediction by ZEFSAII (Michael W. Deem and Ramdas Pophale) SiO2 
 PCOD9032515
Probable space group: P -1
;
_chemical_formula_sum "Si O2"
_cell_formula_units_Z 16
_cell_length_a 7.747077
_cell_length_b 13.472871
_cell_length_c 12.861027
_cell_angle_alpha 138.062832
_cell_angle_beta 94.084540
_cell_angle_gamma 58.942448
_cell_volume 643.906392
_symmetry_space_group_name_H-M "P -1"
_symmetry_group_IT_number 2
_symmetry_cell_setting 'triclinic'
loop_
_space_group_symop_operation_xyz
x,y,z
-x,-y,-z
loop_
_atom_site_type_symbol
_atom_site_label
_atom_site_fract_x
_atom_site_fract_y
_atom_site_fract_z
Si Si1 0.347369 0.806987 0.274850
Si Si2 0.406394 0.780834 0.972069
Si Si3 0.815115 0.475458 0.458139
Si Si4 0.754283 0.711045 0.319171
Si Si5 0.599776 0.083663 0.134511
Si Si6 0.881063 0.848188 0.613802
Si Si7 0.901144 0.314806 0.102764
Si Si8 0.223676 0.556618 0.144098
O O1 0.475071 0.856979 0.389490
O O2 0.259066 0.711718 0.253958
O O3 0.129589 0.010633 0.359535
O O4 0.575958 0.630487 0.071744
O O5 0.328414 0.977302 0.179595
O O6 0.330442 0.848516 0.903788
O O7 0.256049 0.732430 0.971038
O O8 0.679729 0.569449 0.840021
O O9 0.568889 0.710376 0.644724
O O10 0.850354 0.382968 0.274987
O O11 0.000000 0.500000 0.500000
O O12 0.888785 0.320573 0.435216
O O13 0.796397 0.762351 0.472827
O O14 0.836806 0.492312 0.169185
O O15 0.946837 0.671209 0.217298
O O16 0.500000 0.000000 0.000000
O O17 0.823544 0.891610 0.057141
#
# Coordination Sequence:
#
# PCOD9032515 Si02
#       8
#     2   2   2   2   2   2   2   2
#     4  10  23  44  70 100 136 181 231 296 353 409
#     4  11  23  44  66 100 144 185 227 295 356 411
#     4  12  23  43  68 103 140 185 234 290 344 417
#     4  12  23  44  71 105 134 184 239 282 355 429
#     4  12  23  41  69  99 137 194 235 278 359 417
#     4  11  23  42  71  96 142 180 230 296 352 409
#     4  12  25  44  70 103 147 182 237 290 347 432
#     4  10  22  43  71  98 138 182 231 292 353 414
#
# _framework density 24.848334000000001
#
# number of rings (size 3 to 8) (size 9 to 14) (size 15 to 20)
#    0.000    0.750    5.000    2.625    0.000    2.000 
#    2.250    0.000    0.000    0.000    0.000    0.000 
#    0.000    0.000    0.000    0.000    0.000    0.000 
#
# Total GULP energy -89474.198762 kJ/mol
# GULP energy per Si atom -5592.137423 kJ/mol
# Density = 2.479178 g / cm^3
# Si number density = 24.848334 Si / 1000 Ang^3
#
#
#
# Elastic Constant Matrix: (Units=GPa)
#
#
# Indices 1 2 3 4 5 6 
#
# 1 104.4423 1.8851 30.3798 -3.1847 11.5526 4.5316
# 2 1.8851 88.8758 39.1173 10.6751 2.7536 -6.9517
# 3 30.3798 39.1173 122.1580 8.6938 -2.7443 -4.1554
# 4 -3.1847 10.6751 8.6938 41.4936 0.8687 2.2256
# 5 11.5526 2.7536 -2.7443 0.8687 31.0747 2.2679
# 6 4.5316 -6.9517 -4.1554 2.2256 2.2679 37.2202
#
#
#
# Elastic Compliance Matrix: (Units=1/GPa)
#
#
# Indices 1 2 3 4 5 6 
#
# 1 0.011133 0.001109 -0.003373 0.001441 -0.004478 -0.001338
# 2 0.001109 0.013743 -0.004464 -0.002590 -0.002114 0.002217
# 3 -0.003373 -0.004464 0.010638 -0.001430 0.002578 0.000693
# 4 0.001441 -0.002590 -0.001430 0.025319 -0.000975 -0.002273
# 5 -0.004478 -0.002114 0.002578 -0.000975 0.034404 -0.001600
# 6 -0.001338 0.002217 0.000693 -0.002273 -0.001600 0.027755
#
#
# Mechanical properties :
#
#
# Convention : Reuss Voigt Hill
#
# Bulk Modulus (GPa) = 45.33464 50.91559 48.12512
# Shear Modulus (GPa) = 34.77055 38.23064 36.50059
#
# Velocity S-wave (km/s) = 3.74479 3.92670 3.83683
# Velocity P-wave (km/s) = 6.08129 6.41044 6.24803
#
# Compressibility (1/GPa) = 0.02205819
#
# Stress axis : x y z
#
# Youngs Moduli (GPa) = 89.82368 72.76417 94.00528
#
# Poissons Ratio (x) = -0.08071 0.31704
# Poissons Ratio (y) = -0.09963 0.41968
# Poissons Ratio (z) = 0.30293 0.32485
#
# Static dielectric constant tensor:
#      x y z
#    x 1.900520 0.008200 0.077930 
#    y 0.008200 2.065830 -0.017480 
#    z 0.077930 -0.017480 1.809050 
# 
# From -- ./inp_files/504439.got.cif
#   From: 2010.05.17/outbox.cif.g08.bks.cpg/sg2_253_cif.got.tgz:504439.got - 2010.06.03 11:33:40.
