data_PCOD9032846
_publ_section_title
;
Structure prediction by ZEFSAII (Michael W. Deem and Ramdas Pophale) SiO2 
 PCOD9032846
Probable space group: P -1
;
_chemical_formula_sum "Si O2"
_cell_formula_units_Z 9
_cell_length_a 8.593834
_cell_length_b 8.495580
_cell_length_c 9.927651
_cell_angle_alpha 56.745986
_cell_angle_beta 61.981558
_cell_angle_gamma 35.537950
_cell_volume 351.891162
_symmetry_space_group_name_H-M "P -1"
_symmetry_group_IT_number 2
_symmetry_cell_setting 'triclinic'
loop_
_space_group_symop_operation_xyz
x,y,z
-x,-y,-z
loop_
_atom_site_type_symbol
_atom_site_label
_atom_site_fract_x
_atom_site_fract_y
_atom_site_fract_z
Si Si1 0.559128 0.521467 0.189005
Si Si2 0.282522 0.247199 0.077906
Si Si3 0.000000 0.500000 0.500000
Si Si4 0.040944 0.744290 0.613352
Si Si5 0.030916 0.083530 0.806452
O O1 0.708398 0.473233 0.284810
O O2 0.245251 0.762419 0.222702
O O3 0.620827 0.618479 0.996463
O O4 0.705227 0.210111 0.236688
O O5 0.218686 0.152629 0.265438
O O6 0.000000 0.500000 0.000000
O O7 0.500000 0.000000 0.000000
O O8 0.077464 0.604320 0.525592
O O9 0.957548 0.700108 0.303665
O O10 0.000000 0.000000 0.500000
O O11 0.000000 0.000000 0.000000
#
# Coordination Sequence:
#
# PCOD9032846 Si02
#       5
#     2   2   1   2   2
#     4  11  24  50  80 108 162 214 270 330 413 484
#     4  10  22  43  78 114 148 215 274 322 408 495
#     4  12  28  50  82 124 168 214 284 338 420 492
#     4  11  24  50  79 120 167 214 272 344 414 492
#     4  12  27  51  78 119 160 213 272 343 403 495
#
# _framework density 25.576091000000002
#
# number of rings (size 3 to 8) (size 9 to 14) (size 15 to 20)
#    0.000    0.889    2.222    4.667    0.000    3.556 
#    8.000    0.000    0.000    0.000    0.000    0.000 
#    0.000    0.000    0.000    0.000    0.000    0.000 
#
# Total GULP energy -50116.910459 kJ/mol
# GULP energy per Si atom -5568.545607 kJ/mol
# Density = 2.551788 g / cm^3
# Si number density = 25.576091 Si / 1000 Ang^3
#
#
#
# Elastic Constant Matrix: (Units=GPa)
#
#
# Indices 1 2 3 4 5 6 
#
# 1 136.7640 24.9337 62.4948 -9.1310 -4.3132 23.3750
# 2 24.9337 72.6113 16.4277 -15.8084 22.9737 -2.5914
# 3 62.4948 16.4277 182.5839 -5.7271 -37.1398 14.9127
# 4 -9.1310 -15.8084 -5.7271 32.3653 15.6282 -5.8372
# 5 -4.3132 22.9737 -37.1398 15.6282 61.9721 -4.6627
# 6 23.3750 -2.5914 14.9127 -5.8372 -4.6627 37.2768
#
#
#
# Elastic Compliance Matrix: (Units=1/GPa)
#
#
# Indices 1 2 3 4 5 6 
#
# 1 0.010035 -0.002855 -0.002808 0.000145 -0.000368 -0.005391
# 2 -0.002855 0.026144 -0.004827 0.020761 -0.017522 0.006598
# 3 -0.002808 -0.004827 0.008471 -0.005856 0.008006 -0.001879
# 4 0.000145 0.020761 -0.005856 0.053232 -0.023940 0.009036
# 5 -0.000368 -0.017522 0.008006 -0.023940 0.033156 -0.003791
# 6 -0.005391 0.006598 -0.001879 0.009036 -0.003791 0.032358
#
#
# Mechanical properties :
#
#
# Convention : Reuss Voigt Hill
#
# Bulk Modulus (GPa) = 42.24809 66.63016 54.43912
# Shear Modulus (GPa) = 26.00577 45.52970 35.76773
#
# Velocity S-wave (km/s) = 3.19219 4.22378 3.74369
# Velocity P-wave (km/s) = 5.49010 7.06367 6.32600
#
# Compressibility (1/GPa) = 0.02366971
#
# Stress axis : x y z
#
# Youngs Moduli (GPa) = 99.65203 38.25004 118.05518
#
# Poissons Ratio (x) = 0.10919 0.33149
# Poissons Ratio (y) = 0.28448 0.56986
# Poissons Ratio (z) = 0.27982 0.18464
#
# Static dielectric constant tensor:
#      x y z
#    x 1.977410 0.037510 0.002990 
#    y 0.037510 1.978540 0.020650 
#    z 0.002990 0.020650 2.193540 
# 
# From -- ./inp_files/29962.got.cif
#   From: 2010.05.17/outbox.cif.g08.bks.cpg/sg2_15_cif.got.tgz:29962.got - 2010.06.03 11:33:40.
