data_PCOD9032833
_publ_section_title
;
Structure prediction by ZEFSAII (Michael W. Deem and Ramdas Pophale) SiO2 
 PCOD9032833
Probable space group: P -1
;
_chemical_formula_sum "Si O2"
_cell_formula_units_Z 16
_cell_length_a 15.142371
_cell_length_b 15.451438
_cell_length_c 8.608502
_cell_angle_alpha 94.061532
_cell_angle_beta 68.400525
_cell_angle_gamma 152.335108
_cell_volume 701.292951
_symmetry_space_group_name_H-M "P -1"
_symmetry_group_IT_number 2
_symmetry_cell_setting 'triclinic'
loop_
_space_group_symop_operation_xyz
x,y,z
-x,-y,-z
loop_
_atom_site_type_symbol
_atom_site_label
_atom_site_fract_x
_atom_site_fract_y
_atom_site_fract_z
Si Si1 0.496268 0.767365 0.881412
Si Si2 0.078759 0.840015 0.088294
Si Si3 0.603596 0.987244 0.332709
Si Si4 0.267628 0.749988 0.937871
Si Si5 0.990260 0.687186 0.660062
Si Si6 0.794525 0.757133 0.384940
Si Si7 0.088848 0.965250 0.536740
Si Si8 0.923036 0.549940 0.346261
O O1 0.429611 0.800564 0.844727
O O2 0.703276 0.967236 0.900174
O O3 0.633475 0.811490 0.693613
O O4 0.247554 0.527132 0.100731
O O5 0.930929 0.804640 0.188843
O O6 0.914508 0.619115 0.229675
O O7 0.223077 0.940560 0.850089
O O8 0.331704 0.721894 0.521776
O O9 0.607657 0.066103 0.212711
O O10 0.772021 0.156693 0.391569
O O11 0.000000 0.500000 0.000000
O O12 0.171065 0.703521 0.161627
O O13 0.035647 0.827481 0.627021
O O14 0.943889 0.608636 0.510318
O O15 0.500000 0.500000 0.500000
O O16 0.883175 0.805510 0.510494
O O17 0.894314 0.940573 0.343782
#
# Coordination Sequence:
#
# PCOD9032833 Si02
#       8
#     2   2   2   2   2   2   2   2
#     4  11  23  46  69  93 148 180 228 284 343 401
#     4  10  23  48  68  99 137 183 225 281 350 408
#     4  11  26  43  71 101 142 181 234 280 337 406
#     4  11  26  45  66 105 139 188 234 281 337 401
#     4  12  24  43  71 102 136 186 225 283 342 398
#     4  10  22  43  76  98 132 179 229 278 350 415
#     4  10  25  45  68 102 136 182 223 283 351 408
#     4  11  25  45  68  99 140 180 236 277 337 408
#
# _framework density 22.815000000000001
#
# number of rings (size 3 to 8) (size 9 to 14) (size 15 to 20)
#    0.000    1.250    5.000    0.000    5.250    4.000 
#    0.000    7.500    0.000    0.000    0.000    0.000 
#    0.000    0.000    0.000    0.000    0.000    0.000 
#
# Total GULP energy -89582.816084 kJ/mol
# GULP energy per Si atom -5598.926005 kJ/mol
# Density = 2.276307 g / cm^3
# Si number density = 22.815000 Si / 1000 Ang^3
#
#
#
# Elastic Constant Matrix: (Units=GPa)
#
#
# Indices 1 2 3 4 5 6 
#
# 1 89.8761 47.9899 52.7511 2.0560 -21.5222 2.2061
# 2 47.9899 84.2270 37.2994 -20.0958 -9.3947 -6.6320
# 3 52.7511 37.2994 134.6021 -22.7427 -7.4010 -12.8213
# 4 2.0560 -20.0958 -22.7427 37.4448 -10.9768 -6.1806
# 5 -21.5222 -9.3947 -7.4010 -10.9768 41.4105 -0.6732
# 6 2.2061 -6.6320 -12.8213 -6.1806 -0.6732 37.0473
#
#
#
# Elastic Compliance Matrix: (Units=1/GPa)
#
#
# Indices 1 2 3 4 5 6 
#
# 1 0.026217 -0.014728 -0.009533 -0.015525 0.004303 -0.010009
# 2 -0.014728 0.024371 0.003232 0.018444 0.003495 0.009499
# 3 -0.009533 0.003232 0.013086 0.011882 0.001392 0.007682
# 4 -0.015525 0.018444 0.011882 0.051020 0.012041 0.017069
# 5 0.004303 0.003495 0.001392 0.012041 0.030674 0.003417
# 6 -0.010009 0.009499 0.007682 0.017069 0.003417 0.034857
#
#
# Mechanical properties :
#
#
# Convention : Reuss Voigt Hill
#
# Bulk Modulus (GPa) = 46.26384 64.97624 55.62004
# Shear Modulus (GPa) = 21.78749 34.55817 28.17283
#
# Velocity S-wave (km/s) = 3.09360 3.89615 3.51784
# Velocity P-wave (km/s) = 5.75172 6.98437 6.39780
#
# Compressibility (1/GPa) = 0.02161515
#
# Stress axis : x y z
#
# Youngs Moduli (GPa) = 38.14306 41.03160 76.41950
#
# Poissons Ratio (x) = 0.60432 0.72852
# Poissons Ratio (y) = 0.56178 -0.24697
# Poissons Ratio (z) = 0.36362 -0.13260
#
# Static dielectric constant tensor:
#      x y z
#    x 1.845480 -0.013210 -0.018980 
#    y -0.013210 1.883230 0.045140 
#    z -0.018980 0.045140 1.870300 
# 
# From -- ./inp_files/315254.got.cif
#   From: 2010.05.17/outbox.cif.g08.bks.cpg/sg2_158_cif.got.tgz:315254.got - 2010.06.03 11:33:40.
