data_PCOD9032944
_publ_section_title
;
Structure prediction by ZEFSAII (Michael W. Deem and Ramdas Pophale) SiO2 
 PCOD9032944
Probable space group: P -1
;
_chemical_formula_sum "Si O2"
_cell_formula_units_Z 10
_cell_length_a 10.713919
_cell_length_b 6.896263
_cell_length_c 11.850290
_cell_angle_alpha 72.746365
_cell_angle_beta 35.547796
_cell_angle_gamma 89.812197
_cell_volume 439.186865
_symmetry_space_group_name_H-M "P -1"
_symmetry_group_IT_number 2
_symmetry_cell_setting 'triclinic'
loop_
_space_group_symop_operation_xyz
x,y,z
-x,-y,-z
loop_
_atom_site_type_symbol
_atom_site_label
_atom_site_fract_x
_atom_site_fract_y
_atom_site_fract_z
Si Si1 0.769173 0.359021 0.825278
Si Si2 0.022414 0.781046 0.979018
Si Si3 0.887556 0.787061 0.535061
Si Si4 0.509885 0.909006 0.719182
Si Si5 0.143694 0.633848 0.692657
O O1 0.726331 0.545286 0.752831
O O2 0.893983 0.243109 0.675656
O O3 0.966197 0.514427 0.742874
O O4 0.569037 0.170855 0.080644
O O5 0.026068 0.743921 0.849482
O O6 0.278443 0.801086 0.830669
O O7 0.831140 0.561122 0.219849
O O8 0.000000 0.000000 0.000000
O O9 0.720894 0.833268 0.559441
O O10 0.000000 0.000000 0.500000
O O11 0.622931 0.172798 0.564997
#
# Coordination Sequence:
#
# PCOD9032944 Si02
#       5
#     2   2   2   2   2
#     4  10  24  44  65  97 133 168 213 266 319 383
#     4  10  24  44  66  95 134 167 216 268 318 384
#     4  11  23  45  66  95 136 166 216 269 314 386
#     4  11  23  42  69  96 128 174 212 262 328 376
#     4  10  22  44  63  99 127 166 218 264 316 388
#
# _framework density 22.769351
#
# number of rings (size 3 to 8) (size 9 to 14) (size 15 to 20)
#    0.000    1.600    2.000    1.200    5.600    1.600 
#   14.400    0.000    0.000    0.000    0.000    0.000 
#    0.000    0.000    0.000    0.000    0.000    0.000 
#
# Total GULP energy -55864.155045 kJ/mol
# GULP energy per Si atom -5586.415504 kJ/mol
# Density = 2.271753 g / cm^3
# Si number density = 22.769351 Si / 1000 Ang^3
#
#
#
# Elastic Constant Matrix: (Units=GPa)
#
#
# Indices 1 2 3 4 5 6 
#
# 1 65.5256 36.2358 5.0010 3.5316 -1.0708 1.6003
# 2 36.2358 170.3067 61.3587 0.3062 19.4242 -2.1014
# 3 5.0010 61.3587 107.2648 -44.5907 22.7541 -13.8386
# 4 3.5316 0.3062 -44.5907 49.2790 -6.8930 10.2921
# 5 -1.0708 19.4242 22.7541 -6.8930 34.7121 -3.7977
# 6 1.6003 -2.1014 -13.8386 10.2921 -3.7977 30.0739
#
#
#
# Elastic Compliance Matrix: (Units=1/GPa)
#
#
# Indices 1 2 3 4 5 6 
#
# 1 0.017682 -0.004537 0.001443 0.000472 0.002180 -0.000480
# 2 -0.004537 0.010034 -0.008266 -0.007356 -0.001860 -0.000579
# 3 0.001443 -0.008266 0.024263 0.020382 -0.006896 0.002664
# 4 0.000472 -0.007356 0.020382 0.039507 -0.001923 -0.004923
# 5 0.002180 -0.001860 -0.006896 -0.001923 0.034226 0.001561
# 6 -0.000480 -0.000579 0.002664 -0.004923 0.001561 0.036345
#
#
# Mechanical properties :
#
#
# Convention : Reuss Voigt Hill
#
# Bulk Modulus (GPa) = 34.17847 60.92088 47.54968
# Shear Modulus (GPa) = 25.70305 38.84644 32.27474
#
# Velocity S-wave (km/s) = 3.36347 4.13496 3.76901
# Velocity P-wave (km/s) = 5.48883 7.04350 6.31420
#
# Compressibility (1/GPa) = 0.02925819
#
# Stress axis : x y z
#
# Youngs Moduli (GPa) = 56.55391 99.66596 41.21460
#
# Poissons Ratio (x) = 0.45223 -0.05947
# Poissons Ratio (y) = 0.25661 0.34068
# Poissons Ratio (z) = -0.08161 0.82383
#
# Static dielectric constant tensor:
#      x y z
#    x 1.843760 -0.029440 0.021650 
#    y -0.029440 1.843540 -0.023060 
#    z 0.021650 -0.023060 1.894830 
# 
# From -- ./inp_files/2281.got.cif
#   From: 2010.05.17/outbox.cif.g08.bks.cpg/sg2_2_cif.got.tgz:2281.got - 2010.06.03 11:33:40.
