data_PCOD9032223
_publ_section_title
;
Structure prediction by ZEFSAII (Michael W. Deem and Ramdas Pophale) SiO2 
 PCOD9032223
Probable space group: P -1
;
_chemical_formula_sum "Si O2"
_cell_formula_units_Z 16
_cell_length_a 8.440265
_cell_length_b 18.318866
_cell_length_c 12.193507
_cell_angle_alpha 153.378568
_cell_angle_beta 62.617152
_cell_angle_gamma 126.801952
_cell_volume 661.247323
_symmetry_space_group_name_H-M "P -1"
_symmetry_group_IT_number 2
_symmetry_cell_setting 'triclinic'
loop_
_space_group_symop_operation_xyz
x,y,z
-x,-y,-z
loop_
_atom_site_type_symbol
_atom_site_label
_atom_site_fract_x
_atom_site_fract_y
_atom_site_fract_z
Si Si1 0.124671 0.438628 0.752962
Si Si2 0.653123 0.631388 0.222651
Si Si3 0.338801 0.746836 0.500909
Si Si4 0.031586 0.328114 0.975028
Si Si5 0.696619 0.005426 0.999135
Si Si6 0.302620 0.916926 0.529548
Si Si7 0.285099 0.322830 0.333221
Si Si8 0.078335 0.156182 0.950492
O O1 0.292776 0.469260 0.832513
O O2 0.163844 0.352132 0.513115
O O3 0.141260 0.636591 0.978246
O O4 0.908593 0.286251 0.671836
O O5 0.542183 0.737711 0.453176
O O6 0.500000 0.500000 0.000000
O O7 0.861740 0.748025 0.246921
O O8 0.187593 0.543471 0.235704
O O9 0.392314 0.895310 0.587827
O O10 0.228108 0.802473 0.702846
O O11 0.019966 0.238448 0.974809
O O12 0.863775 0.010912 0.871682
O O13 0.673842 0.848291 0.879995
O O14 0.500000 0.000000 0.000000
O O15 0.500000 0.000000 0.500000
O O16 0.214971 0.061459 0.748565
O O17 0.500000 0.500000 0.500000
O O18 0.186857 0.290260 0.199699
#
# Coordination Sequence:
#
# PCOD9032223 Si02
#       8
#     2   2   2   2   2   2   2   2
#     4  11  24  47  73 107 148 196 254 306 370 440
#     4  10  22  44  72 103 150 192 243 307 366 434
#     4  10  22  43  70 101 143 192 243 296 367 433
#     4  10  24  42  71 106 142 197 243 301 365 436
#     4  12  26  46  72 107 150 197 243 304 373 445
#     4  11  23  46  74 105 144 199 249 305 366 440
#     4  12  28  47  78 110 149 194 249 311 372 452
#     4  12  25  48  75 109 158 192 248 307 377 438
#
# _framework density 24.196694999999998
#
# number of rings (size 3 to 8) (size 9 to 14) (size 15 to 20)
#    0.000    1.000    2.500    3.750    7.000    2.000 
#    4.500    1.250    0.000    0.000    0.000    0.000 
#    0.000    0.000    0.000    0.000    0.000    0.000 
#
# Total GULP energy -89296.194425 kJ/mol
# GULP energy per Si atom -5581.012152 kJ/mol
# Density = 2.414162 g / cm^3
# Si number density = 24.196695 Si / 1000 Ang^3
#
#
#
# Elastic Constant Matrix: (Units=GPa)
#
#
# Indices 1 2 3 4 5 6 
#
# 1 174.6424 63.3566 27.8154 -2.1067 -20.3031 -21.2060
# 2 63.3566 125.1851 30.6101 -7.5386 -15.4116 -10.8648
# 3 27.8154 30.6101 46.5860 -1.1481 -21.5884 12.0040
# 4 -2.1067 -7.5386 -1.1481 22.7928 7.2681 -10.9146
# 5 -20.3031 -15.4116 -21.5884 7.2681 46.0724 -2.6644
# 6 -21.2060 -10.8648 12.0040 -10.9146 -2.6644 49.8917
#
#
#
# Elastic Compliance Matrix: (Units=1/GPa)
#
#
# Indices 1 2 3 4 5 6 
#
# 1 0.007823 -0.002557 -0.003530 0.001284 0.000964 0.003950
# 2 -0.002557 0.011813 -0.008034 0.006007 -0.001619 0.004646
# 3 -0.003530 -0.008034 0.039505 -0.012999 0.015464 -0.014773
# 4 0.001284 0.006007 -0.012999 0.057075 -0.011545 0.016851
# 5 0.000964 -0.001619 0.015464 -0.011545 0.030392 -0.004566
# 6 0.003950 0.004646 -0.014773 0.016851 -0.004566 0.029731
#
#
# Mechanical properties :
#
#
# Convention : Reuss Voigt Hill
#
# Bulk Modulus (GPa) = 32.36529 65.55309 48.95919
# Shear Modulus (GPa) = 23.26871 38.72680 30.99776
#
# Velocity S-wave (km/s) = 3.10441 4.00496 3.58309
# Velocity P-wave (km/s) = 5.12394 6.96684 6.11521
#
# Compressibility (1/GPa) = 0.03089729
#
# Stress axis : x y z
#
# Youngs Moduli (GPa) = 127.82593 84.65504 25.31324
#
# Poissons Ratio (x) = 0.21649 0.08936
# Poissons Ratio (y) = 0.32690 0.20337
# Poissons Ratio (z) = 0.45124 0.68014
#
# Static dielectric constant tensor:
#      x y z
#    x 2.107000 -0.004240 0.071320 
#    y -0.004240 1.921550 -0.047680 
#    z 0.071320 -0.047680 1.978370 
# 
# From -- ./inp_files/403543.got.cif
#   From: 2010.05.17/outbox.cif.g08.bks.cpg/sg2_202_cif.got.tgz:403543.got - 2010.06.03 11:33:40.
