data_PCOD9032747
_publ_section_title
;
Structure prediction by ZEFSAII (Michael W. Deem and Ramdas Pophale) SiO2 
 PCOD9032747
Probable space group: P -1
;
_chemical_formula_sum "Si O2"
_cell_formula_units_Z 15
_cell_length_a 14.521011
_cell_length_b 5.488245
_cell_length_c 17.450333
_cell_angle_alpha 50.142401
_cell_angle_beta 30.485730
_cell_angle_gamma 53.302565
_cell_volume 537.920044
_symmetry_space_group_name_H-M "P -1"
_symmetry_group_IT_number 2
_symmetry_cell_setting 'triclinic'
loop_
_space_group_symop_operation_xyz
x,y,z
-x,-y,-z
loop_
_atom_site_type_symbol
_atom_site_label
_atom_site_fract_x
_atom_site_fract_y
_atom_site_fract_z
Si Si1 0.974989 0.947017 0.281669
Si Si2 0.419332 0.306369 0.668852
Si Si3 0.267132 0.480029 0.102101
Si Si4 0.204890 0.479949 0.979097
Si Si5 0.925051 0.865242 0.501981
Si Si6 0.000000 0.500000 0.000000
Si Si7 0.424720 0.211511 0.440176
Si Si8 0.552552 0.962386 0.829253
O O1 0.957590 0.052691 0.361626
O O2 0.785366 0.838217 0.412263
O O3 0.125026 0.642878 0.232429
O O4 0.056111 0.218359 0.115493
O O5 0.500000 0.500000 0.500000
O O6 0.206954 0.355337 0.834953
O O7 0.529198 0.447822 0.631589
O O8 0.473309 0.938378 0.678823
O O9 0.171529 0.562622 0.073410
O O10 0.343416 0.125999 0.146248
O O11 0.435131 0.682685 0.946092
O O12 0.129611 0.710049 0.919673
O O13 0.399726 0.263542 0.888766
O O14 0.712730 0.916914 0.662167
O O15 0.000000 0.500000 0.500000
O O16 0.000000 0.000000 0.500000
O O17 0.500000 0.000000 0.500000
#
# Coordination Sequence:
#
# PCOD9032747 Si02
#       8
#     2   2   2   2   2   1   2   2
#     4  11  25  43  74 106 144 194 245 300 386 440
#     4  10  24  47  71 103 144 195 242 311 365 437
#     4  10  22  43  74 102 141 189 241 305 373 450
#     4  11  25  45  71 103 142 197 241 314 368 449
#     4  12  27  45  73 110 150 189 246 310 370 452
#     4  12  28  48  72 110 148 194 268 302 380 452
#     4  10  23  42  73 101 143 191 242 295 364 437
#     4  10  23  44  67 106 140 185 246 299 380 443
#
# _framework density 27.885185
#
# number of rings (size 3 to 8) (size 9 to 14) (size 15 to 20)
#    0.000    1.333    1.333    2.800    9.333    1.600 
#    2.400    0.000    0.000    0.000    0.000    0.000 
#    0.000    0.000    0.000    0.000    0.000    0.000 
#
# Total GULP energy -83629.629272 kJ/mol
# GULP energy per Si atom -5575.308618 kJ/mol
# Density = 2.782172 g / cm^3
# Si number density = 27.885185 Si / 1000 Ang^3
#
#
#
# Elastic Constant Matrix: (Units=GPa)
#
#
# Indices 1 2 3 4 5 6 
#
# 1 182.6422 32.6005 53.8824 21.9160 -18.7013 21.3838
# 2 32.6005 130.8851 43.6063 27.7904 -13.3474 17.2703
# 3 53.8824 43.6063 181.1594 45.3056 -8.6310 4.2216
# 4 21.9160 27.7904 45.3056 41.4778 -1.2698 -1.6571
# 5 -18.7013 -13.3474 -8.6310 -1.2698 56.4400 9.6799
# 6 21.3838 17.2703 4.2216 -1.6571 9.6799 48.7113
#
#
#
# Elastic Compliance Matrix: (Units=1/GPa)
#
#
# Indices 1 2 3 4 5 6 
#
# 1 0.006790 -0.000089 -0.001236 -0.002236 0.002578 -0.003430
# 2 -0.000089 0.010002 -0.000638 -0.006040 0.002826 -0.004219
# 3 -0.001236 -0.000638 0.007983 -0.007634 0.000538 -0.000290
# 4 -0.002236 -0.006040 -0.007634 0.037800 -0.003474 0.005761
# 5 0.002578 0.002826 0.000538 -0.003474 0.020332 -0.006339
# 6 -0.003430 -0.004219 -0.000290 0.005761 -0.006339 0.025011
#
#
# Mechanical properties :
#
#
# Convention : Reuss Voigt Hill
#
# Bulk Modulus (GPa) = 47.96428 83.87391 65.91909
# Shear Modulus (GPa) = 42.09003 53.63232 47.86117
#
# Velocity S-wave (km/s) = 3.88932 4.39033 4.14740
# Velocity P-wave (km/s) = 6.11613 7.47286 6.82828
#
# Compressibility (1/GPa) = 0.02084885
#
# Stress axis : x y z
#
# Youngs Moduli (GPa) = 147.28487 99.97733 125.27008
#
# Poissons Ratio (x) = 0.00891 0.15485
# Poissons Ratio (y) = 0.01313 0.07987
# Poissons Ratio (z) = 0.18206 0.06375
#
# Static dielectric constant tensor:
#      x y z
#    x 1.717850 -0.165900 0.342200 
#    y -0.165900 0.869370 1.040570 
#    z 0.342200 1.040570 1.382320 
# 
# From -- ./inp_files/571500.got.cif
#   From: 2010.05.17/outbox.cif.g08.bks.cpg/sg2_286_cif.got.tgz:571500.got - 2010.06.03 11:33:40.
