data_PCOD9032687
_publ_section_title
;
Structure prediction by ZEFSAII (Michael W. Deem and Ramdas Pophale) SiO2 
 PCOD9032687
Probable space group: P -1
;
_chemical_formula_sum "Si O2"
_cell_formula_units_Z 15
_cell_length_a 14.345557
_cell_length_b 15.070677
_cell_length_c 10.544695
_cell_angle_alpha 155.021650
_cell_angle_beta 142.539189
_cell_angle_gamma 36.626632
_cell_volume 554.089838
_symmetry_space_group_name_H-M "P -1"
_symmetry_group_IT_number 2
_symmetry_cell_setting 'triclinic'
loop_
_space_group_symop_operation_xyz
x,y,z
-x,-y,-z
loop_
_atom_site_type_symbol
_atom_site_label
_atom_site_fract_x
_atom_site_fract_y
_atom_site_fract_z
Si Si1 0.384847 0.231955 0.230855
Si Si2 0.375501 0.295248 0.782923
Si Si3 0.500000 0.500000 0.500000
Si Si4 0.042475 0.209712 0.263970
Si Si5 0.164145 0.798477 0.202266
Si Si6 0.863852 0.255844 0.618563
Si Si7 0.948752 0.450446 0.725182
Si Si8 0.561657 0.078163 0.468203
O O1 0.430600 0.423327 0.456128
O O2 0.193251 0.313160 0.105659
O O3 0.425582 0.207221 0.390299
O O4 0.500000 0.000000 0.000000
O O5 0.517084 0.212651 0.725577
O O6 0.227910 0.204811 0.464144
O O7 0.437143 0.171004 0.821571
O O8 0.300648 0.556224 0.046661
O O9 0.675247 0.299019 0.449789
O O10 0.950433 0.390838 0.503261
O O11 0.970294 0.239386 0.084229
O O12 0.000000 0.000000 0.000000
O O13 0.101253 0.868645 0.366835
O O14 0.265288 0.937482 0.423375
O O15 0.934268 0.254536 0.548470
O O16 0.891028 0.490447 0.992243
#
# Coordination Sequence:
#
# PCOD9032687 Si02
#       8
#     2   2   1   2   2   2   2   2
#     4  11  25  44  72 104 143 189 245 301 369 440
#     4  11  25  44  69 100 144 189 242 305 362 432
#     4  10  22  46  68 106 142 188 238 300 360 432
#     4  12  25  47  73 107 149 195 245 302 366 447
#     4  12  23  44  75 101 144 194 242 307 372 432
#     4  10  22  43  73 104 141 194 236 305 371 436
#     4  10  24  46  71 108 149 193 244 301 374 441
#     4  11  25  43  65 108 139 189 251 297 367 444
#
# _framework density 27.071421999999998
#
# number of rings (size 3 to 8) (size 9 to 14) (size 15 to 20)
#    0.000    1.067    4.000    1.600    5.600    0.000 
#    4.800    1.333    0.000    0.000    0.000    0.000 
#    0.000    0.000    0.000    0.000    0.000    0.000 
#
# Total GULP energy -83738.065262 kJ/mol
# GULP energy per Si atom -5582.537684 kJ/mol
# Density = 2.700981 g / cm^3
# Si number density = 27.071422 Si / 1000 Ang^3
#
#
#
# Elastic Constant Matrix: (Units=GPa)
#
#
# Indices 1 2 3 4 5 6 
#
# 1 188.4526 47.9907 31.4800 5.0382 -3.8248 16.9454
# 2 47.9907 112.1493 18.1104 -14.0469 -16.5765 47.1880
# 3 31.4800 18.1104 71.2113 0.7575 0.8887 6.0833
# 4 5.0382 -14.0469 0.7575 40.9714 3.3956 2.9422
# 5 -3.8248 -16.5765 0.8887 3.3956 40.1611 11.3352
# 6 16.9454 47.1880 6.0833 2.9422 11.3352 59.2497
#
#
#
# Elastic Compliance Matrix: (Units=1/GPa)
#
#
# Indices 1 2 3 4 5 6 
#
# 1 0.006417 -0.003341 -0.002067 -0.001913 -0.000930 0.001310
# 2 -0.003341 0.021875 -0.002704 0.008220 0.013489 -0.019178
# 3 -0.002067 -0.002704 0.015544 -0.000906 -0.002027 0.001582
# 4 -0.001913 0.008220 -0.000906 0.027786 0.003106 -0.007880
# 5 -0.000930 0.013489 -0.002027 0.003106 0.034992 -0.017117
# 6 0.001310 -0.019178 0.001582 -0.007880 -0.017117 0.035280
#
#
# Mechanical properties :
#
#
# Convention : Reuss Voigt Hill
#
# Bulk Modulus (GPa) = 36.21504 62.99728 49.60616
# Shear Modulus (GPa) = 29.88240 46.35858 38.12049
#
# Velocity S-wave (km/s) = 3.32601 4.14267 3.75660
# Velocity P-wave (km/s) = 5.30626 6.79732 6.09754
#
# Compressibility (1/GPa) = 0.02761284
#
# Stress axis : x y z
#
# Youngs Moduli (GPa) = 155.84103 45.71332 64.33340
#
# Poissons Ratio (x) = 0.15271 0.13298
# Poissons Ratio (y) = 0.52060 0.17396
# Poissons Ratio (z) = 0.32213 0.12361
#
# Static dielectric constant tensor:
#      x y z
#    x 2.092930 0.070200 -0.062220 
#    y 0.070200 2.099910 0.071390 
#    z -0.062220 0.071390 1.956500 
# 
# From -- ./inp_files/455292.got.cif
#   From: 2010.05.17/outbox.cif.g08.bks.cpg/sg2_228_cif.got.tgz:455292.got - 2010.06.03 11:33:40.
