data_PCOD9032700
_publ_section_title
;
Structure prediction by ZEFSAII (Michael W. Deem and Ramdas Pophale) SiO2 
 PCOD9032700
Probable space group: P -1
;
_chemical_formula_sum "Si O2"
_cell_formula_units_Z 16
_cell_length_a 9.259529
_cell_length_b 25.606277
_cell_length_c 5.085255
_cell_angle_alpha 95.178442
_cell_angle_beta 82.138390
_cell_angle_gamma 143.813988
_cell_volume 704.761340
_symmetry_space_group_name_H-M "P -1"
_symmetry_group_IT_number 2
_symmetry_cell_setting 'triclinic'
loop_
_space_group_symop_operation_xyz
x,y,z
-x,-y,-z
loop_
_atom_site_type_symbol
_atom_site_label
_atom_site_fract_x
_atom_site_fract_y
_atom_site_fract_z
Si Si1 0.648245 0.200746 0.685488
Si Si2 0.930959 0.107899 0.631300
Si Si3 0.213213 0.098379 0.381912
Si Si4 0.066920 0.792172 0.690330
Si Si5 0.846041 0.408813 0.621258
Si Si6 0.553172 0.928441 0.968284
Si Si7 0.771432 0.328680 0.093440
Si Si8 0.647069 0.726088 0.037848
O O1 0.445053 0.173196 0.554104
O O2 0.883413 0.248153 0.487821
O O3 0.503844 0.102847 0.730161
O O4 0.740864 0.263259 0.934029
O O5 0.880974 0.144861 0.492956
O O6 0.055005 0.104439 0.388408
O O7 0.717159 0.019432 0.822780
O O8 0.143100 0.182714 0.818258
O O9 0.322554 0.092296 0.132091
O O10 0.000000 0.000000 0.500000
O O11 0.280100 0.855433 0.885809
O O12 0.797208 0.724182 0.849421
O O13 0.850329 0.363110 0.385140
O O14 0.000000 0.500000 0.500000
O O15 0.928856 0.408931 0.881350
O O16 0.570472 0.349875 0.734054
O O17 0.502231 0.278205 0.118017
#
# Coordination Sequence:
#
# PCOD9032700 Si02
#       8
#     2   2   2   2   2   2   2   2
#     4  11  23  40  59  92 133 179 228 270 337 397
#     4  11  21  39  56  92 124 178 236 284 327 373
#     4   9  20  35  55  83 118 165 222 285 328 376
#     4  11  24  39  57  90 131 185 226 278 327 391
#     4  10  22  43  73 108 131 164 214 276 342 413
#     4  10  24  36  58  83 132 182 232 276 328 382
#     4  10  23  40  72 101 135 169 215 276 335 408
#     4  10  23  36  67  94 128 171 213 283 329 390
#
# _framework density 22.702722000000001
#
# number of rings (size 3 to 8) (size 9 to 14) (size 15 to 20)
#    0.750    1.000    1.250    2.250    7.000    7.000 
#    0.000    0.000    0.000    1.500    0.000    0.000 
#    0.000    0.000    0.000    0.000    0.000    0.000 
#
# Total GULP energy -89145.283956 kJ/mol
# GULP energy per Si atom -5571.580247 kJ/mol
# Density = 2.265105 g / cm^3
# Si number density = 22.702722 Si / 1000 Ang^3
#
#
#
# Elastic Constant Matrix: (Units=GPa)
#
#
# Indices 1 2 3 4 5 6 
#
# 1 109.4074 6.7329 34.4879 -2.8996 -30.5605 4.3416
# 2 6.7329 84.7805 34.3785 -26.5806 -9.8948 -20.5173
# 3 34.4879 34.3785 91.7009 -16.7681 -30.3331 4.6996
# 4 -2.8996 -26.5806 -16.7681 32.8484 -0.8415 5.0714
# 5 -30.5605 -9.8948 -30.3331 -0.8415 46.4305 -6.8160
# 6 4.3416 -20.5173 4.6996 5.0714 -6.8160 23.8651
#
#
#
# Elastic Compliance Matrix: (Units=1/GPa)
#
#
# Indices 1 2 3 4 5 6 
#
# 1 0.011679 0.001540 -0.002767 0.000812 0.006429 0.001408
# 2 0.001540 0.023927 -0.006494 0.013191 0.005077 0.020216
# 3 -0.002767 -0.006494 0.018269 0.005195 0.007712 -0.007578
# 4 0.000812 0.013191 0.005195 0.043551 0.007998 0.003200
# 5 0.006429 0.005077 0.007712 0.007998 0.033433 0.009525
# 6 0.001408 0.020216 -0.007578 0.003200 0.009525 0.062559
#
#
# Mechanical properties :
#
#
# Convention : Reuss Voigt Hill
#
# Bulk Modulus (GPa) = 26.01851 48.56525 37.29188
# Shear Modulus (GPa) = 22.55604 34.64813 28.60209
#
# Velocity S-wave (km/s) = 3.15547 3.91086 3.55329
# Velocity P-wave (km/s) = 4.97608 6.46771 5.77030
#
# Compressibility (1/GPa) = 0.03843418
#
# Stress axis : x y z
#
# Youngs Moduli (GPa) = 85.62366 41.79434 54.73653
#
# Poissons Ratio (x) = -0.06437 0.15144
# Poissons Ratio (y) = -0.13187 0.35545
# Poissons Ratio (z) = 0.23690 0.27140
#
# Static dielectric constant tensor:
#      x y z
#    x 1.899570 -0.029520 -0.075660 
#    y -0.029520 1.915710 -0.179910 
#    z -0.075660 -0.179910 2.476390 
# 
# From -- ./inp_files/56493.got.cif
#   From: 2010.05.17/outbox.cif.g08.bks.cpg/sg2_29_cif.got.tgz:56493.got - 2010.06.03 11:33:40.
