data_PCOD9032002
_publ_section_title
;
Structure prediction by ZEFSAII (Michael W. Deem and Ramdas Pophale) SiO2 
 PCOD9032002
Probable space group: P -1
;
_chemical_formula_sum "Si O2"
_cell_formula_units_Z 12
_cell_length_a 4.928173
_cell_length_b 8.876422
_cell_length_c 15.039508
_cell_angle_alpha 52.110802
_cell_angle_beta 91.583437
_cell_angle_gamma 69.624969
_cell_volume 460.075288
_symmetry_space_group_name_H-M "P -1"
_symmetry_group_IT_number 2
_symmetry_cell_setting 'triclinic'
loop_
_space_group_symop_operation_xyz
x,y,z
-x,-y,-z
loop_
_atom_site_type_symbol
_atom_site_label
_atom_site_fract_x
_atom_site_fract_y
_atom_site_fract_z
Si Si1 0.188264 0.814300 0.308956
Si Si2 0.267328 0.424755 0.906097
Si Si3 0.071264 0.279049 0.337335
Si Si4 0.045774 0.860897 0.961365
Si Si5 0.721704 0.626730 0.519337
Si Si6 0.325529 0.838585 0.725239
O O1 0.419157 0.766959 0.410218
O O2 0.292667 0.575823 0.359710
O O3 0.171979 0.974142 0.174007
O O4 0.844706 0.943650 0.299543
O O5 0.285594 0.647358 0.846803
O O6 0.180456 0.476467 0.781142
O O7 0.589978 0.240638 0.007165
O O8 0.030891 0.339898 0.965151
O O9 0.201862 0.254794 0.444787
O O10 0.340674 0.223828 0.286566
O O11 0.887828 0.146656 0.365521
O O12 0.000000 0.000000 0.000000
O O13 0.000000 0.500000 0.500000
#
# Coordination Sequence:
#
# PCOD9032002 Si02
#       6
#     2   2   2   2   2   2
#     4  11  29  44  70 108 138 187 243 288 353 409
#     4  10  22  43  69 103 138 179 229 277 350 420
#     4  10  23  47  75  99 146 184 228 285 364 405
#     4  12  25  42  72 103 143 186 226 286 353 422
#     4  11  28  48  71 100 146 183 243 300 337 421
#     4  10  24  46  73 108 140 186 230 288 357 420
#
# _framework density 26.082689999999999
#
# number of rings (size 3 to 8) (size 9 to 14) (size 15 to 20)
#    1.000    0.333    1.667    1.500   11.667    2.667 
#    0.000    0.000    0.000    0.000    0.000    0.000 
#    0.000    0.000    0.000    0.000    0.000    0.000 
#
# Total GULP energy -67015.573889 kJ/mol
# GULP energy per Si atom -5584.631157 kJ/mol
# Density = 2.602332 g / cm^3
# Si number density = 26.082690 Si / 1000 Ang^3
#
#
#
# Elastic Constant Matrix: (Units=GPa)
#
#
# Indices 1 2 3 4 5 6 
#
# 1 112.4038 7.4872 23.7939 -14.0432 8.7611 -2.0560
# 2 7.4872 68.2936 39.5230 -12.3479 11.0277 9.5801
# 3 23.7939 39.5230 164.8204 -24.0666 11.4426 3.0762
# 4 -14.0432 -12.3479 -24.0666 32.1497 5.7165 -4.8094
# 5 8.7611 11.0277 11.4426 5.7165 44.6572 -6.8973
# 6 -2.0560 9.5801 3.0762 -4.8094 -6.8973 35.2373
#
#
#
# Elastic Compliance Matrix: (Units=1/GPa)
#
#
# Indices 1 2 3 4 5 6 
#
# 1 0.009761 0.000418 -0.000721 0.004392 -0.002292 0.000670
# 2 0.000418 0.019109 -0.003421 0.005137 -0.005389 -0.005226
# 3 -0.000721 -0.003421 0.007744 0.004514 -0.001493 0.000536
# 4 0.004392 0.005137 0.004514 0.040163 -0.008062 0.002369
# 5 -0.002292 -0.005389 -0.001493 -0.008062 0.026443 0.005537
# 6 0.000670 -0.005226 0.000536 0.002369 0.005537 0.031199
#
#
# Mechanical properties :
#
#
# Convention : Reuss Voigt Hill
#
# Bulk Modulus (GPa) = 34.28756 54.12510 44.20633
# Shear Modulus (GPa) = 32.98375 40.72310 36.85343
#
# Velocity S-wave (km/s) = 3.55996 3.95563 3.76299
# Velocity P-wave (km/s) = 5.48379 6.45438 5.98878
#
# Compressibility (1/GPa) = 0.02916510
#
# Stress axis : x y z
#
# Youngs Moduli (GPa) = 102.44893 52.33257 129.12570
#
# Poissons Ratio (x) = -0.02185 0.09314
# Poissons Ratio (y) = -0.04278 0.44169
# Poissons Ratio (z) = 0.07390 0.17901
#
# Static dielectric constant tensor:
#      x y z
#    x 2.031930 0.019620 -0.082510 
#    y 0.019620 2.108240 0.003790 
#    z -0.082510 0.003790 2.114660 
# 
# From -- ./inp_files/479607.got.cif
#   From: 2010.05.17/outbox.cif.g08.bks.cpg/sg2_240_cif.got.tgz:479607.got - 2010.06.03 11:33:40.
