data_PCOD9032334
_publ_section_title
;
Structure prediction by ZEFSAII (Michael W. Deem and Ramdas Pophale) SiO2 
 PCOD9032334
Probable space group: P -1
;
_chemical_formula_sum "Si O2"
_cell_formula_units_Z 14
_cell_length_a 12.008790
_cell_length_b 8.841515
_cell_length_c 8.967913
_cell_angle_alpha 84.756020
_cell_angle_beta 85.649859
_cell_angle_gamma 34.633670
_cell_volume 538.882485
_symmetry_space_group_name_H-M "P -1"
_symmetry_group_IT_number 2
_symmetry_cell_setting 'triclinic'
loop_
_space_group_symop_operation_xyz
x,y,z
-x,-y,-z
loop_
_atom_site_type_symbol
_atom_site_label
_atom_site_fract_x
_atom_site_fract_y
_atom_site_fract_z
Si Si1 0.719006 0.815885 0.505620
Si Si2 0.959752 0.154665 0.240482
Si Si3 0.654803 0.980432 0.818914
Si Si4 0.985161 0.767354 0.470642
Si Si5 0.242908 0.364041 0.945752
Si Si6 0.469386 0.503073 0.680790
Si Si7 0.756262 0.394456 0.811386
O O1 0.866505 0.526688 0.456037
O O2 0.788241 0.901093 0.427845
O O3 0.500000 0.000000 0.500000
O O4 0.752783 0.800536 0.679704
O O5 0.048790 0.081999 0.402735
O O6 0.916434 0.368202 0.157675
O O7 0.754440 0.294713 0.276690
O O8 0.107191 0.902711 0.139039
O O9 0.440865 0.143638 0.848891
O O10 0.595378 0.218283 0.758418
O O11 0.771646 0.787338 0.968685
O O12 0.112291 0.689309 0.330094
O O13 0.272270 0.450462 0.072371
O O14 0.500000 0.500000 0.500000
O O15 0.553878 0.553001 0.756306
#
# Coordination Sequence:
#
# PCOD9032334 Si02
#       7
#     2   2   2   2   2   2   2
#     4  11  23  41  71  99 137 176 230 291 346 401
#     4  11  24  43  69 101 144 183 232 282 353 408
#     4  10  22  43  70  97 139 184 234 282 340 418
#     4  11  24  41  67 108 134 175 236 289 344 415
#     4  10  23  45  69  97 142 190 231 282 344 413
#     4  11  24  41  71 104 139 184 227 289 350 399
#     4  12  24  44  70 105 142 179 237 287 341 422
#
# _framework density 25.979690000000002
#
# number of rings (size 3 to 8) (size 9 to 14) (size 15 to 20)
#    0.000    1.143    2.857    3.429    2.000    2.286 
#    0.000    4.286    9.429    0.000    0.000    0.000 
#    0.000    0.000    0.000    0.000    0.000    0.000 
#
# Total GULP energy -78293.696416 kJ/mol
# GULP energy per Si atom -5592.406887 kJ/mol
# Density = 2.592056 g / cm^3
# Si number density = 25.979690 Si / 1000 Ang^3
#
#
#
# Elastic Constant Matrix: (Units=GPa)
#
#
# Indices 1 2 3 4 5 6 
#
# 1 158.8816 27.1152 39.8746 -2.5933 -19.8176 -28.7963
# 2 27.1152 131.6550 17.7552 -3.7899 -2.7581 0.1689
# 3 39.8746 17.7552 87.5443 -4.0641 -3.8566 7.7875
# 4 -2.5933 -3.7899 -4.0641 53.4177 9.9229 -8.3963
# 5 -19.8176 -2.7581 -3.8566 9.9229 43.2176 4.5648
# 6 -28.7963 0.1689 7.7875 -8.3963 4.5648 40.8297
#
#
#
# Elastic Compliance Matrix: (Units=1/GPa)
#
#
# Indices 1 2 3 4 5 6 
#
# 1 0.009310 -0.001245 -0.004475 0.000624 0.002883 0.007231
# 2 -0.001245 0.007993 -0.000989 0.000363 -0.000166 -0.000629
# 3 -0.004475 -0.000989 0.014168 -0.000089 -0.000213 -0.005849
# 4 0.000624 0.000363 -0.000089 0.020513 -0.004961 0.005229
# 5 0.002883 -0.000166 -0.000213 -0.004961 0.025763 -0.001826
# 6 0.007231 -0.000629 -0.005849 0.005229 -0.001826 0.031989
#
#
# Mechanical properties :
#
#
# Convention : Reuss Voigt Hill
#
# Bulk Modulus (GPa) = 55.38876 60.84124 58.11500
# Shear Modulus (GPa) = 38.70795 47.04872 42.87833
#
# Velocity S-wave (km/s) = 3.86415 4.26018 4.06699
# Velocity P-wave (km/s) = 6.42458 6.90423 6.66872
#
# Compressibility (1/GPa) = 0.01805420
#
# Stress axis : x y z
#
# Youngs Moduli (GPa) = 107.41179 125.10791 70.57920
#
# Poissons Ratio (x) = 0.15574 0.31586
# Poissons Ratio (y) = 0.13371 0.06977
# Poissons Ratio (z) = 0.48070 0.12368
#
# Static dielectric constant tensor:
#      x y z
#    x 2.138920 0.081350 -0.042920 
#    y 0.081350 2.140680 -0.116450 
#    z -0.042920 -0.116450 1.980500 
# 
# From -- ./inp_files/243761.got.cif
#   From: 2010.05.17/outbox.cif.g08.bks.cpg/sg2_122_cif.got.tgz:243761.got - 2010.06.03 11:33:40.
