data_PCOD9032935
_publ_section_title
;
Structure prediction by ZEFSAII (Michael W. Deem and Ramdas Pophale) SiO2 
 PCOD9032935
Probable space group: P -1
;
_chemical_formula_sum "Si O2"
_cell_formula_units_Z 14
_cell_length_a 12.237736
_cell_length_b 11.877546
_cell_length_c 9.233149
_cell_angle_alpha 36.144933
_cell_angle_beta 128.972655
_cell_angle_gamma 123.711054
_cell_volume 612.167980
_symmetry_space_group_name_H-M "P -1"
_symmetry_group_IT_number 2
_symmetry_cell_setting 'triclinic'
loop_
_space_group_symop_operation_xyz
x,y,z
-x,-y,-z
loop_
_atom_site_type_symbol
_atom_site_label
_atom_site_fract_x
_atom_site_fract_y
_atom_site_fract_z
Si Si1 0.091473 0.908227 0.294491
Si Si2 0.058136 0.491705 0.388185
Si Si3 0.992471 0.125319 0.215351
Si Si4 0.454602 0.717218 0.104842
Si Si5 0.607212 0.397387 0.430347
Si Si6 0.324002 0.943129 0.994909
Si Si7 0.602805 0.191713 0.368515
O O1 0.238190 0.851231 0.418204
O O2 0.006055 0.720240 0.487135
O O3 0.115837 0.061706 0.283063
O O4 0.000000 0.000000 0.000000
O O5 0.228954 0.514726 0.509623
O O6 0.000000 0.500000 0.500000
O O7 0.010487 0.648495 0.068858
O O8 0.000000 0.000000 0.500000
O O9 0.836934 0.045516 0.111842
O O10 0.509458 0.508931 0.338863
O O11 0.330907 0.797329 0.015277
O O12 0.411142 0.758826 0.861988
O O13 0.588558 0.850633 0.145436
O O14 0.598879 0.176515 0.699924
O O15 0.571993 0.365400 0.266750
O O16 0.500000 0.000000 0.500000
#
# Coordination Sequence:
#
# PCOD9032935 Si02
#       7
#     2   2   2   2   2   2   2
#     4  12  24  44  72  97 136 187 225 283 349 406
#     4  11  22  42  70 102 131 176 237 276 334 426
#     4  11  24  43  69  99 137 179 227 285 343 398
#     4  11  23  40  66  91 134 177 218 276 349 396
#     4  11  22  42  67  95 133 176 222 280 347 400
#     4  10  22  44  63  95 131 175 230 272 331 425
#     4  12  25  41  64 104 137 169 230 288 334 412
#
# _framework density 22.869539
#
# number of rings (size 3 to 8) (size 9 to 14) (size 15 to 20)
#    0.000    0.857    4.286    3.429    2.000    0.571 
#    2.571    1.429    0.000    0.000    0.000    0.000 
#    0.000    0.000    0.000    0.000    0.000    0.000 
#
# Total GULP energy -77951.858951 kJ/mol
# GULP energy per Si atom -5567.989925 kJ/mol
# Density = 2.281749 g / cm^3
# Si number density = 22.869539 Si / 1000 Ang^3
#
#
#
# Elastic Constant Matrix: (Units=GPa)
#
#
# Indices 1 2 3 4 5 6 
#
# 1 77.7862 31.2829 26.1567 -7.5209 -7.9390 -26.4731
# 2 31.2829 84.8532 35.2029 -15.0329 9.4067 -8.0997
# 3 26.1567 35.2029 149.0548 -13.4266 -14.3206 -7.1915
# 4 -7.5209 -15.0329 -13.4266 31.7665 -9.8102 -10.8722
# 5 -7.9390 9.4067 -14.3206 -9.8102 26.5768 -2.4097
# 6 -26.4731 -8.0997 -7.1915 -10.8722 -2.4097 53.0836
#
#
#
# Elastic Compliance Matrix: (Units=1/GPa)
#
#
# Indices 1 2 3 4 5 6 
#
# 1 0.022663 -0.007047 0.000856 0.011704 0.015263 0.013433
# 2 -0.007047 0.017081 -0.003704 0.001270 -0.009822 -0.001595
# 3 0.000856 -0.003704 0.008933 0.005851 0.008782 0.002669
# 4 0.011704 0.001270 0.005851 0.052114 0.027134 0.018729
# 5 0.015263 -0.009822 0.008782 0.027134 0.061832 0.015667
# 6 0.013433 -0.001595 0.002669 0.018729 0.015667 0.030203
#
#
# Mechanical properties :
#
#
# Convention : Reuss Voigt Hill
#
# Bulk Modulus (GPa) = 34.61608 55.21991 44.91799
# Shear Modulus (GPa) = 22.49782 36.88883 29.69333
#
# Velocity S-wave (km/s) = 3.13988 4.02059 3.60721
# Velocity P-wave (km/s) = 5.32112 6.76399 6.08547
#
# Compressibility (1/GPa) = 0.02888831
#
# Stress axis : x y z
#
# Youngs Moduli (GPa) = 44.12510 58.54398 111.94398
#
# Poissons Ratio (x) = 0.41254 -0.09584
# Poissons Ratio (y) = 0.31093 0.41462
# Poissons Ratio (z) = -0.03778 0.21684
#
# Static dielectric constant tensor:
#      x y z
#    x 1.898630 -0.076400 -0.025130 
#    y -0.076400 1.856880 -0.029440 
#    z -0.025130 -0.029440 1.950020 
# 
# From -- ./inp_files/258677.got.cif
#   From: 2010.05.17/outbox.cif.g08.bks.cpg/sg2_130_cif.got.tgz:258677.got - 2010.06.03 11:33:40.
