data_PCOD9032781
_publ_section_title
;
Structure prediction by ZEFSAII (Michael W. Deem and Ramdas Pophale) SiO2 
 PCOD9032781
Probable space group: P -1
;
_chemical_formula_sum "Si O2"
_cell_formula_units_Z 16
_cell_length_a 9.131624
_cell_length_b 12.427808
_cell_length_c 9.274494
_cell_angle_alpha 105.170478
_cell_angle_beta 123.913664
_cell_angle_gamma 54.905844
_cell_volume 711.969422
_symmetry_space_group_name_H-M "P -1"
_symmetry_group_IT_number 2
_symmetry_cell_setting 'triclinic'
loop_
_space_group_symop_operation_xyz
x,y,z
-x,-y,-z
loop_
_atom_site_type_symbol
_atom_site_label
_atom_site_fract_x
_atom_site_fract_y
_atom_site_fract_z
Si Si1 0.331673 0.775514 0.255107
Si Si2 0.261154 0.556293 0.829693
Si Si3 0.489692 0.940345 0.322742
Si Si4 0.011022 0.142514 0.136478
Si Si5 0.498293 0.515506 0.677374
Si Si6 0.287280 0.119688 0.860505
Si Si7 0.211290 0.402945 0.992578
Si Si8 0.968287 0.035615 0.659347
O O1 0.504202 0.801115 0.300131
O O2 0.366707 0.634907 0.245535
O O3 0.142583 0.854535 0.067314
O O4 0.268611 0.849570 0.398398
O O5 0.085129 0.703408 0.833346
O O6 0.288841 0.562385 0.673745
O O7 0.205466 0.462058 0.851080
O O8 0.500000 0.500000 0.000000
O O9 0.667728 0.906784 0.294991
O O10 0.500000 0.000000 0.500000
O O11 0.251490 0.053915 0.186856
O O12 0.984162 0.082069 0.248631
O O13 0.500000 0.500000 0.500000
O O14 0.603938 0.594878 0.816976
O O15 0.248616 0.258860 0.940519
O O16 0.101858 0.099923 0.791449
O O17 0.500000 0.000000 0.000000
O O18 0.000000 0.500000 0.000000
O O19 0.000000 0.000000 0.500000
#
# Coordination Sequence:
#
# PCOD9032781 Si02
#       8
#     2   2   2   2   2   2   2   2
#     4  11  21  44  68  93 131 183 238 271 339 434
#     4  10  22  43  74  96 135 186 240 275 344 433
#     4  11  25  43  65 103 140 176 225 299 357 410
#     4  11  22  44  73  94 130 188 233 273 343 429
#     4  11  25  44  70 101 137 184 238 294 348 416
#     4  12  25  39  70 101 137 177 228 286 357 413
#     4  11  25  46  70 102 144 184 238 295 351 428
#     4  11  25  40  66 101 134 172 224 290 345 413
#
# _framework density 22.472875999999999
#
# number of rings (size 3 to 8) (size 9 to 14) (size 15 to 20)
#    0.000    1.000    2.500    6.000    8.750    1.000 
#    2.250    0.625    0.000    0.000    0.000    0.000 
#    0.000    0.000    0.000    0.000    0.000    0.000 
#
# Total GULP energy -89292.774016 kJ/mol
# GULP energy per Si atom -5580.798376 kJ/mol
# Density = 2.242173 g / cm^3
# Si number density = 22.472876 Si / 1000 Ang^3
#
#
#
# Elastic Constant Matrix: (Units=GPa)
#
#
# Indices 1 2 3 4 5 6 
#
# 1 115.4359 23.1705 17.0666 0.8104 -21.3973 6.8897
# 2 23.1705 146.4669 17.7647 16.1281 0.5885 10.3664
# 3 17.0666 17.7647 82.5066 17.0023 -23.6327 7.1774
# 4 0.8104 16.1281 17.0023 22.5863 -2.8707 -4.7864
# 5 -21.3973 0.5885 -23.6327 -2.8707 41.0196 11.5499
# 6 6.8897 10.3664 7.1774 -4.7864 11.5499 33.1595
#
#
#
# Elastic Compliance Matrix: (Units=1/GPa)
#
#
# Indices 1 2 3 4 5 6 
#
# 1 0.010418 -0.001473 0.000423 0.000357 0.006891 -0.004144
# 2 -0.001473 0.007965 0.000003 -0.006320 -0.000500 -0.002923
# 3 0.000423 0.000003 0.020435 -0.016093 0.014183 -0.011775
# 4 0.000357 -0.006320 -0.016093 0.063461 -0.009589 0.017885
# 5 0.006891 -0.000500 0.014183 -0.009589 0.041128 -0.020055
# 6 -0.004144 -0.002923 -0.011775 0.017885 -0.020055 0.044048
#
#
# Mechanical properties :
#
#
# Convention : Reuss Voigt Hill
#
# Bulk Modulus (GPa) = 27.22999 51.15700 39.19350
# Shear Modulus (GPa) = 24.77820 38.44693 31.61256
#
# Velocity S-wave (km/s) = 3.32412 4.14069 3.75467
# Velocity P-wave (km/s) = 5.18422 6.75823 6.02287
#
# Compressibility (1/GPa) = 0.03672421
#
# Stress axis : x y z
#
# Youngs Moduli (GPa) = 95.98595 125.55051 48.93466
#
# Poissons Ratio (x) = 0.18495 -0.02070
# Poissons Ratio (y) = 0.14140 -0.00015
# Poissons Ratio (z) = -0.04060 -0.00038
#
# Static dielectric constant tensor:
#      x y z
#    x 1.770880 -0.001820 0.024880 
#    y -0.001820 1.851580 0.020080 
#    z 0.024880 0.020080 1.881190 
# 
# From -- ./inp_files/189539.got.cif
#   From: 2010.05.17/outbox.cif.g08.bks.cpg/sg2_95_cif.got.tgz:189539.got - 2010.06.03 11:33:40.
