data_PCOD9032636
_publ_section_title
;
Structure prediction by ZEFSAII (Michael W. Deem and Ramdas Pophale) SiO2 
 PCOD9032636
Probable space group: P -1
;
_chemical_formula_sum "Si O2"
_cell_formula_units_Z 14
_cell_length_a 14.975742
_cell_length_b 5.727121
_cell_length_c 15.109453
_cell_angle_alpha 72.658167
_cell_angle_beta 29.304858
_cell_angle_gamma 74.822667
_cell_volume 605.451873
_symmetry_space_group_name_H-M "P -1"
_symmetry_group_IT_number 2
_symmetry_cell_setting 'triclinic'
loop_
_space_group_symop_operation_xyz
x,y,z
-x,-y,-z
loop_
_atom_site_type_symbol
_atom_site_label
_atom_site_fract_x
_atom_site_fract_y
_atom_site_fract_z
Si Si1 0.903208 0.764112 0.566456
Si Si2 0.863521 0.807364 0.392133
Si Si3 0.375568 0.210837 0.045111
Si Si4 0.686505 0.587074 0.212643
Si Si5 0.237766 0.982080 0.011857
Si Si6 0.634197 0.166475 0.427114
Si Si7 0.517236 0.604802 0.756350
O O1 0.854945 0.856753 0.499119
O O2 0.744445 0.701809 0.779583
O O3 0.000000 0.500000 0.500000
O O4 0.000000 0.000000 0.500000
O O5 0.716227 0.590705 0.541644
O O6 0.769340 0.005955 0.387625
O O7 0.073347 0.788347 0.183972
O O8 0.255905 0.108666 0.077898
O O9 0.500397 0.418408 0.871712
O O10 0.500000 0.000000 0.000000
O O11 0.744598 0.367463 0.251782
O O12 0.507240 0.695812 0.402500
O O13 0.623731 0.463304 0.190387
O O14 0.802119 0.818711 0.052999
O O15 0.434056 0.860897 0.834454
O O16 0.500000 0.000000 0.500000
#
# Coordination Sequence:
#
# PCOD9032636 Si02
#       7
#     2   2   2   2   2   2   2
#     4  12  28  50  72 112 157 195 254 320 372 454
#     4  12  25  43  79 101 143 195 244 300 377 435
#     4  11  26  45  73 101 150 197 249 305 382 441
#     4  10  22  43  72  97 149 181 236 304 367 444
#     4  11  23  46  67 109 139 188 245 302 362 453
#     4  11  22  45  71 105 139 188 238 300 370 441
#     4  11  24  46  70 104 145 189 240 309 371 447
#
# _framework density 23.123225000000001
#
# number of rings (size 3 to 8) (size 9 to 14) (size 15 to 20)
#    0.000    0.857    4.286    1.714    4.000    1.714 
#    5.143    2.857    0.000    0.000    0.000    0.000 
#    0.000    0.000    0.000    0.000    0.000    0.000 
#
# Total GULP energy -78160.730546 kJ/mol
# GULP energy per Si atom -5582.909325 kJ/mol
# Density = 2.307060 g / cm^3
# Si number density = 23.123225 Si / 1000 Ang^3
#
#
#
# Elastic Constant Matrix: (Units=GPa)
#
#
# Indices 1 2 3 4 5 6 
#
# 1 95.0777 45.7292 18.7062 2.3836 24.1069 -29.6439
# 2 45.7292 102.2904 45.4712 -13.7302 15.1324 -22.8407
# 3 18.7062 45.4712 143.1430 -23.5810 14.4183 -16.7758
# 4 2.3836 -13.7302 -23.5810 48.6475 -2.9400 20.4117
# 5 24.1069 15.1324 14.4183 -2.9400 38.7607 -8.2237
# 6 -29.6439 -22.8407 -16.7758 20.4117 -8.2237 39.1964
#
#
#
# Elastic Compliance Matrix: (Units=1/GPa)
#
#
# Indices 1 2 3 4 5 6 
#
# 1 0.020294 -0.005865 0.000246 -0.009421 -0.007895 0.015285
# 2 -0.005865 0.014516 -0.003287 0.002179 -0.000332 0.001412
# 3 0.000246 -0.003287 0.008706 0.003192 -0.001879 -0.000060
# 4 -0.009421 0.002179 0.003192 0.032006 0.001843 -0.020770
# 5 -0.007895 -0.000332 -0.001879 0.001843 0.031393 -0.001341
# 6 0.015285 0.001412 -0.000060 -0.020770 -0.001341 0.048405
#
#
# Mechanical properties :
#
#
# Convention : Reuss Voigt Hill
#
# Bulk Modulus (GPa) = 38.90569 62.25823 50.58196
# Shear Modulus (GPa) = 27.51775 40.69454 34.10615
#
# Velocity S-wave (km/s) = 3.45345 4.19967 3.84470
# Velocity P-wave (km/s) = 5.72395 7.10628 6.45224
#
# Compressibility (1/GPa) = 0.02570318
#
# Stress axis : x y z
#
# Youngs Moduli (GPa) = 49.27557 68.88870 114.86172
#
# Poissons Ratio (x) = 0.40405 -0.02822
# Poissons Ratio (y) = 0.28902 0.37755
# Poissons Ratio (z) = -0.01211 0.22643
#
# Static dielectric constant tensor:
#      x y z
#    x 1.883140 0.032120 -0.049550 
#    y 0.032120 1.977970 -0.053570 
#    z -0.049550 -0.053570 1.892000 
# 
# From -- ./inp_files/47797.got.cif
#   From: 2010.05.17/outbox.cif.g08.bks.cpg/sg2_24_cif.got.tgz:47797.got - 2010.06.03 11:33:40.
