data_PCOD9032337
_publ_section_title
;
Structure prediction by ZEFSAII (Michael W. Deem and Ramdas Pophale) SiO2 
 PCOD9032337
Probable space group: P -1
;
_chemical_formula_sum "Si O2"
_cell_formula_units_Z 16
_cell_length_a 16.344357
_cell_length_b 8.190539
_cell_length_c 19.112542
_cell_angle_alpha 121.916489
_cell_angle_beta 157.413244
_cell_angle_gamma 68.790478
_cell_volume 768.943771
_symmetry_space_group_name_H-M "P -1"
_symmetry_group_IT_number 2
_symmetry_cell_setting 'triclinic'
loop_
_space_group_symop_operation_xyz
x,y,z
-x,-y,-z
loop_
_atom_site_type_symbol
_atom_site_label
_atom_site_fract_x
_atom_site_fract_y
_atom_site_fract_z
Si Si1 0.920058 0.689517 0.495900
Si Si2 0.674853 0.914784 0.082526
Si Si3 0.474762 0.499996 0.197488
Si Si4 0.902658 0.399650 0.161371
Si Si5 0.795807 0.955354 0.926380
Si Si6 0.678107 0.934768 0.670642
Si Si7 0.243065 0.356845 0.790506
Si Si8 0.424424 0.500797 0.566984
O O1 0.687987 0.613433 0.339875
O O2 0.882141 0.759812 0.404026
O O3 0.000000 0.500000 0.500000
O O4 0.111680 0.884418 0.728201
O O5 0.743408 0.790647 0.170035
O O6 0.570635 0.744601 0.901512
O O7 0.500000 0.000000 0.000000
O O8 0.529146 0.569490 0.335299
O O9 0.256700 0.538393 0.004367
O O10 0.874245 0.495406 0.235005
O O11 0.167320 0.498533 0.368093
O O12 0.814106 0.149344 0.033742
O O13 0.709587 0.996845 0.791100
O O14 0.619323 0.727015 0.757352
O O15 0.059474 0.970531 0.130877
O O16 0.588987 0.682852 0.538108
O O17 0.500000 0.000000 0.500000
O O18 0.500000 0.500000 0.000000
#
# Coordination Sequence:
#
# PCOD9032337 Si02
#       8
#     2   2   2   2   2   2   2   2
#     4  12  22  40  60  82 122 166 216 275 320 372
#     4  11  23  38  58  85 114 160 218 268 324 376
#     4  11  24  42  58  89 126 166 215 263 317 377
#     4  10  23  41  60  91 129 164 213 263 314 375
#     4  10  23  42  66  98 129 162 204 256 310 382
#     4  10  22  43  70  98 128 163 201 248 316 382
#     4  11  21  41  62  87 122 169 221 272 319 369
#     4  11  24  40  66  96 129 166 206 257 315 376
#
# _framework density 20.807763999999999
#
# number of rings (size 3 to 8) (size 9 to 14) (size 15 to 20)
#    0.000    1.250    3.750    2.250    0.000    7.500 
#    0.000    0.000    0.000    0.000    0.000    0.000 
#    0.000    0.000    0.000    0.000    0.000    0.000 
#
# Total GULP energy -89425.629804 kJ/mol
# GULP energy per Si atom -5589.101863 kJ/mol
# Density = 2.076041 g / cm^3
# Si number density = 20.807764 Si / 1000 Ang^3
#
#
#
# Elastic Constant Matrix: (Units=GPa)
#
#
# Indices 1 2 3 4 5 6 
#
# 1 56.4956 25.6860 23.8767 3.7410 -5.3314 -0.3153
# 2 25.6860 76.0728 41.6964 10.1967 22.2213 -0.4958
# 3 23.8767 41.6964 115.6944 9.0138 17.4806 2.0709
# 4 3.7410 10.1967 9.0138 50.5938 4.2814 -9.2112
# 5 -5.3314 22.2213 17.4806 4.2814 33.7687 2.3494
# 6 -0.3153 -0.4958 2.0709 -9.2112 2.3494 23.1767
#
#
#
# Elastic Compliance Matrix: (Units=1/GPa)
#
#
# Indices 1 2 3 4 5 6 
#
# 1 0.024939 -0.010206 -0.003303 -0.000442 0.012491 -0.001026
# 2 -0.010206 0.023323 -0.003957 -0.001709 -0.014801 0.001535
# 3 -0.003303 -0.003957 0.011388 -0.000887 -0.003621 -0.001132
# 4 -0.000442 -0.001709 -0.000887 0.022104 -0.001916 0.009016
# 5 0.012491 -0.014801 -0.003621 -0.001916 0.043792 -0.005024
# 6 -0.001026 0.001535 -0.001132 0.009016 -0.005024 0.047359
#
#
# Mechanical properties :
#
#
# Convention : Reuss Voigt Hill
#
# Bulk Modulus (GPa) = 40.45867 47.86456 44.16161
# Shear Modulus (GPa) = 23.13992 31.97474 27.55733
#
# Velocity S-wave (km/s) = 3.33841 3.92430 3.64315
# Velocity P-wave (km/s) = 5.86056 6.60202 6.24231
#
# Compressibility (1/GPa) = 0.02471658
#
# Stress axis : x y z
#
# Youngs Moduli (GPa) = 40.09768 42.87629 87.81310
#
# Poissons Ratio (x) = 0.43761 0.29004
# Poissons Ratio (y) = 0.40925 0.34750
# Poissons Ratio (z) = 0.13244 0.16967
#
# Static dielectric constant tensor:
#      x y z
#    x 1.740220 0.011320 0.003610 
#    y 0.011320 1.737670 -0.023910 
#    z 0.003610 -0.023910 1.755470 
# 
# From -- ./inp_files/599583.got.cif
#   From: 2010.05.17/outbox.cif.g08.bks.cpg/sg2_300_cif.got.tgz:599583.got - 2010.06.03 11:33:40.
