data_PCOD9032119
_publ_section_title
;
Structure prediction by ZEFSAII (Michael W. Deem and Ramdas Pophale) SiO2 
 PCOD9032119
Probable space group: P -1
;
_chemical_formula_sum "Si O2"
_cell_formula_units_Z 16
_cell_length_a 7.663883
_cell_length_b 16.194966
_cell_length_c 15.975111
_cell_angle_alpha 28.672134
_cell_angle_beta 66.586401
_cell_angle_gamma 83.559940
_cell_volume 736.392177
_symmetry_space_group_name_H-M "P -1"
_symmetry_group_IT_number 2
_symmetry_cell_setting 'triclinic'
loop_
_space_group_symop_operation_xyz
x,y,z
-x,-y,-z
loop_
_atom_site_type_symbol
_atom_site_label
_atom_site_fract_x
_atom_site_fract_y
_atom_site_fract_z
Si Si1 0.149827 0.529649 0.113832
Si Si2 0.337313 0.601540 0.513617
Si Si3 0.817310 0.829901 0.123679
Si Si4 0.480355 0.213868 0.057403
Si Si5 0.645227 0.230612 0.299029
Si Si6 0.672196 0.475494 0.228108
Si Si7 0.907573 0.120465 0.456678
Si Si8 0.653677 0.028729 0.865009
O O1 0.934920 0.548546 0.122348
O O2 0.069706 0.293451 0.337417
O O3 0.282645 0.643955 0.069425
O O4 0.310161 0.632263 0.911814
O O5 0.568497 0.712557 0.317614
O O6 0.170529 0.364783 0.731071
O O7 0.414434 0.612512 0.584740
O O8 0.234139 0.739813 0.393665
O O9 0.811812 0.951714 0.935572
O O10 0.000000 0.000000 0.000000
O O11 0.319496 0.034929 0.312280
O O12 0.489134 0.113767 0.058473
O O13 0.369757 0.346509 0.942951
O O14 0.566106 0.307748 0.323575
O O15 0.864328 0.242579 0.285068
O O16 0.500000 0.000000 0.500000
O O17 0.000000 0.000000 0.500000
O O18 0.500000 0.000000 0.000000
#
# Coordination Sequence:
#
# PCOD9032119 Si02
#       8
#     2   2   2   2   2   2   2   2
#     4  11  25  43  66  96 132 183 228 274 357 398
#     4  10  22  44  66  95 142 169 218 293 328 401
#     4  10  22  44  69 101 131 176 221 272 354 411
#     4  12  24  45  68  97 139 176 230 289 339 413
#     4  11  22  41  63  93 136 179 220 284 341 394
#     4  11  24  44  66  98 139 176 232 284 334 414
#     4  11  23  41  65  98 133 174 233 281 336 416
#     4  10  22  43  69  97 136 176 220 285 342 404
#
# _framework density 21.727554000000001
#
# number of rings (size 3 to 8) (size 9 to 14) (size 15 to 20)
#    0.000    1.250    2.500    4.500    1.750    3.500 
#    4.500    0.000    0.000    0.000    0.000    0.000 
#    0.000    0.000    0.000    0.000    0.000    0.000 
#
# Total GULP energy -89353.769424 kJ/mol
# GULP energy per Si atom -5584.610589 kJ/mol
# Density = 2.167810 g / cm^3
# Si number density = 21.727554 Si / 1000 Ang^3
#
#
#
# Elastic Constant Matrix: (Units=GPa)
#
#
# Indices 1 2 3 4 5 6 
#
# 1 58.3970 37.9094 43.1781 -19.3752 13.6866 17.5635
# 2 37.9094 148.8623 48.3224 -34.9688 4.1229 16.0732
# 3 43.1781 48.3224 117.9313 -40.7102 19.6142 10.9431
# 4 -19.3752 -34.9688 -40.7102 45.0712 3.4404 -2.8323
# 5 13.6866 4.1229 19.6142 3.4404 37.0381 -3.3286
# 6 17.5635 16.0732 10.9431 -2.8323 -3.3286 35.8922
#
#
#
# Elastic Compliance Matrix: (Units=1/GPa)
#
#
# Indices 1 2 3 4 5 6 
#
# 1 0.031304 -0.003154 -0.005048 0.006430 -0.010292 -0.012814
# 2 -0.003154 0.009128 -0.000637 0.005039 -0.000158 -0.001967
# 3 -0.005048 -0.000637 0.016558 0.012789 -0.008204 -0.002044
# 4 0.006430 0.005039 0.012789 0.041032 -0.014185 -0.007380
# 5 -0.010292 -0.000158 -0.008204 -0.014185 0.037377 0.009955
# 6 -0.012814 -0.001967 -0.002044 -0.007380 0.009955 0.035977
#
#
# Mechanical properties :
#
#
# Convention : Reuss Voigt Hill
#
# Bulk Modulus (GPa) = 25.43817 64.89006 45.16411
# Shear Modulus (GPa) = 24.73319 36.65234 30.69276
#
# Velocity S-wave (km/s) = 3.37758 4.11165 3.76256
# Velocity P-wave (km/s) = 5.19075 7.24369 6.30139
#
# Compressibility (1/GPa) = 0.03931101
#
# Stress axis : x y z
#
# Youngs Moduli (GPa) = 31.94497 109.55083 60.39432
#
# Poissons Ratio (x) = 0.34552 0.30489
# Poissons Ratio (y) = 0.10075 0.03848
# Poissons Ratio (z) = 0.16127 0.06979
#
# Static dielectric constant tensor:
#      x y z
#    x 1.832200 -0.018210 0.022240 
#    y -0.018210 1.856160 -0.017300 
#    z 0.022240 -0.017300 1.816100 
# 
# From -- ./inp_files/504979.got.cif
#   From: 2010.05.17/outbox.cif.g08.bks.cpg/sg2_253_cif.got.tgz:504979.got - 2010.06.03 11:33:40.
