data_PCOD9032641
_publ_section_title
;
Structure prediction by ZEFSAII (Michael W. Deem and Ramdas Pophale) SiO2 
 PCOD9032641
Probable space group: P -1
;
_chemical_formula_sum "Si O2"
_cell_formula_units_Z 16
_cell_length_a 9.530351
_cell_length_b 16.304915
_cell_length_c 6.455852
_cell_angle_alpha 70.449391
_cell_angle_beta 126.154691
_cell_angle_gamma 121.903109
_cell_volume 687.260539
_symmetry_space_group_name_H-M "P -1"
_symmetry_group_IT_number 2
_symmetry_cell_setting 'triclinic'
loop_
_space_group_symop_operation_xyz
x,y,z
-x,-y,-z
loop_
_atom_site_type_symbol
_atom_site_label
_atom_site_fract_x
_atom_site_fract_y
_atom_site_fract_z
Si Si1 0.396886 0.526496 0.580856
Si Si2 0.690462 0.082714 0.866162
Si Si3 0.033136 0.717238 0.869126
Si Si4 0.707520 0.944437 0.333641
Si Si5 0.964590 0.079551 0.774008
Si Si6 0.714737 0.385687 0.945372
Si Si7 0.775442 0.575915 0.089584
Si Si8 0.725197 0.761630 0.321240
O O1 0.500000 0.500000 0.500000
O O2 0.291031 0.581354 0.325998
O O3 0.249768 0.443189 0.671709
O O4 0.580251 0.583754 0.839580
O O5 0.814008 0.173839 0.042293
O O6 0.677535 0.987159 0.053085
O O7 0.477699 0.074225 0.672041
O O8 0.801754 0.097178 0.737220
O O9 0.852299 0.717515 0.587421
O O10 0.140965 0.663815 0.885094
O O11 0.952021 0.663133 0.062644
O O12 0.716656 0.844167 0.392780
O O13 0.887206 0.028168 0.531325
O O14 0.152428 0.178834 0.819178
O O15 0.000000 0.000000 0.000000
O O16 0.492491 0.312096 0.858054
O O17 0.770979 0.478507 0.062944
#
# Coordination Sequence:
#
# PCOD9032641 Si02
#       8
#     2   2   2   2   2   2   2   2
#     4   9  20  42  70  98 131 177 226 280 344 401
#     4  11  24  43  70 102 136 182 232 286 348 416
#     4  12  24  44  70 103 136 183 237 280 346 415
#     4  11  23  47  69  94 146 178 225 294 350 409
#     4  12  24  42  69 102 135 186 230 281 355 417
#     4  11  24  46  67 101 141 181 228 287 345 403
#     4  10  22  43  72  98 139 184 225 282 348 411
#     4  12  24  45  71  98 142 182 227 291 340 413
#
# _framework density 23.280837999999999
#
# number of rings (size 3 to 8) (size 9 to 14) (size 15 to 20)
#    0.000    1.000    5.000    1.875    0.000    3.500 
#    6.750    0.000    0.000    0.000    0.000    0.000 
#    0.000    0.000    0.000    0.000    0.000    0.000 
#
# Total GULP energy -89539.771530 kJ/mol
# GULP energy per Si atom -5596.235721 kJ/mol
# Density = 2.322785 g / cm^3
# Si number density = 23.280838 Si / 1000 Ang^3
#
#
#
# Elastic Constant Matrix: (Units=GPa)
#
#
# Indices 1 2 3 4 5 6 
#
# 1 130.4459 37.8724 48.1631 -23.9923 6.6413 2.1270
# 2 37.8724 100.4283 34.0246 -11.0258 4.8137 6.6332
# 3 48.1631 34.0246 59.7907 -15.1765 4.3461 -4.1868
# 4 -23.9923 -11.0258 -15.1765 33.3072 3.1043 -6.6584
# 5 6.6413 4.8137 4.3461 3.1043 38.8389 -10.2196
# 6 2.1270 6.6332 -4.1868 -6.6584 -10.2196 53.9563
#
#
#
# Elastic Compliance Matrix: (Units=1/GPa)
#
#
# Indices 1 2 3 4 5 6 
#
# 1 0.011742 -0.001267 -0.007488 0.004650 -0.001544 -0.000607
# 2 -0.001267 0.012788 -0.006289 0.000126 -0.001262 -0.002234
# 3 -0.007488 -0.006289 0.028231 0.006224 -0.000565 0.003920
# 4 0.004650 0.000126 0.006224 0.037417 -0.003376 0.004262
# 5 -0.001544 -0.001262 -0.000565 -0.003376 0.027823 0.005025
# 6 -0.000607 -0.002234 0.003920 0.004262 0.005025 0.020614
#
#
# Mechanical properties :
#
#
# Convention : Reuss Voigt Hill
#
# Bulk Modulus (GPa) = 44.10457 58.97612 51.54034
# Shear Modulus (GPa) = 28.36700 36.59414 32.48057
#
# Velocity S-wave (km/s) = 3.49445 3.96897 3.73924
# Velocity P-wave (km/s) = 5.93862 6.81110 6.38977
#
# Compressibility (1/GPa) = 0.02267339
#
# Stress axis : x y z
#
# Youngs Moduli (GPa) = 85.16345 78.20026 35.42182
#
# Poissons Ratio (x) = 0.09905 0.26523
# Poissons Ratio (y) = 0.10787 0.22278
# Poissons Ratio (z) = 0.63769 0.49183
#
# Static dielectric constant tensor:
#      x y z
#    x 1.891880 -0.008690 -0.009010 
#    y -0.008690 1.862010 -0.017780 
#    z -0.009010 -0.017780 1.898070 
# 
# From -- ./inp_files/47184.got.cif
#   From: 2010.05.17/outbox.cif.g08.bks.cpg/sg2_24_cif.got.tgz:47184.got - 2010.06.03 11:33:40.
