data_PCOD9032064
_publ_section_title
;
Structure prediction by ZEFSAII (Michael W. Deem and Ramdas Pophale) SiO2 
 PCOD9032064
Probable space group: P -1
;
_chemical_formula_sum "Si O2"
_cell_formula_units_Z 13
_cell_length_a 19.574885
_cell_length_b 9.764954
_cell_length_c 6.906455
_cell_angle_alpha 69.657724
_cell_angle_beta 116.901313
_cell_angle_gamma 147.937913
_cell_volume 623.162351
_symmetry_space_group_name_H-M "P -1"
_symmetry_group_IT_number 2
_symmetry_cell_setting 'triclinic'
loop_
_space_group_symop_operation_xyz
x,y,z
-x,-y,-z
loop_
_atom_site_type_symbol
_atom_site_label
_atom_site_fract_x
_atom_site_fract_y
_atom_site_fract_z
Si Si1 0.089598 0.158821 0.229321
Si Si2 0.004236 0.775829 0.608084
Si Si3 0.351790 0.145591 0.356097
Si Si4 0.618933 0.472373 0.719715
Si Si5 0.500000 0.000000 0.000000
Si Si6 0.853775 0.253882 0.036294
Si Si7 0.227482 0.737469 0.685240
O O1 0.058332 0.256440 0.259832
O O2 0.245812 0.384179 0.265154
O O3 0.046987 0.966854 0.419646
O O4 0.000000 0.000000 0.000000
O O5 0.892504 0.504274 0.488202
O O6 0.132751 0.881825 0.777681
O O7 0.505227 0.328776 0.481342
O O8 0.349312 0.317068 0.256332
O O9 0.281424 0.974196 0.546038
O O10 0.268392 0.942559 0.174885
O O11 0.558251 0.257538 0.893968
O O12 0.349789 0.814671 0.814318
O O13 0.827541 0.326363 0.137672
O O14 0.000000 0.500000 0.000000
#
# Coordination Sequence:
#
# PCOD9032064 Si02
#       7
#     2   2   2   2   1   2   2
#     4  11  24  42  68  97 139 176 219 283 336 397
#     4  11  25  40  65 104 130 176 228 268 340 403
#     4  10  23  44  66  98 131 179 223 274 340 396
#     4  10  22  43  69  93 137 175 222 282 333 402
#     4  10  24  42  68  96 128 182 222 276 338 400
#     4  12  25  39  68  99 133 178 221 276 334 393
#     4  11  24  43  65  98 135 172 229 274 330 407
#
# _framework density 20.861336999999999
#
# number of rings (size 3 to 8) (size 9 to 14) (size 15 to 20)
#    0.000    1.231    1.538    3.231    6.462    2.462 
#    0.000   15.385    0.000    0.000    0.000    0.000 
#    0.000    0.000    0.000    0.000    0.000    0.000 
#
# Total GULP energy -72383.115627 kJ/mol
# GULP energy per Si atom -5567.931971 kJ/mol
# Density = 2.081386 g / cm^3
# Si number density = 20.861337 Si / 1000 Ang^3
#
#
#
# Elastic Constant Matrix: (Units=GPa)
#
#
# Indices 1 2 3 4 5 6 
#
# 1 24.3752 -3.0610 16.1690 7.7279 -8.3351 -9.1305
# 2 -3.0610 78.3684 16.8518 -0.6906 -10.9610 -11.1617
# 3 16.1690 16.8518 98.9427 12.6174 -14.7747 -9.9350
# 4 7.7279 -0.6906 12.6174 47.6440 -12.5296 14.6480
# 5 -8.3351 -10.9610 -14.7747 -12.5296 28.7806 -5.6286
# 6 -9.1305 -11.1617 -9.9350 14.6480 -5.6286 30.6611
#
#
#
# Elastic Compliance Matrix: (Units=1/GPa)
#
#
# Indices 1 2 3 4 5 6 
#
# 1 0.071868 0.012064 -0.004804 -0.015042 0.023378 0.035714
# 2 0.012064 0.016765 -0.001782 -0.002235 0.010355 0.012086
# 3 -0.004804 -0.001782 0.012544 -0.002769 0.003953 0.004034
# 4 -0.015042 -0.002235 -0.002769 0.031228 0.002943 -0.020568
# 5 0.023378 0.010355 0.003953 0.002943 0.052738 0.020287
# 6 0.035714 0.012086 0.004034 -0.020568 0.020287 0.062507
#
#
# Mechanical properties :
#
#
# Convention : Reuss Voigt Hill
#
# Bulk Modulus (GPa) = 8.91807 29.06733 18.99270
# Shear Modulus (GPa) = 18.24352 32.86558 25.55455
#
# Velocity S-wave (km/s) = 2.96043 3.97347 3.50376
# Velocity P-wave (km/s) = 3.99621 5.91736 5.04900
#
# Compressibility (1/GPa) = 0.11213191
#
# Stress axis : x y z
#
# Youngs Moduli (GPa) = 13.91447 59.64960 79.72026
#
# Poissons Ratio (x) = -0.71960 0.38297
# Poissons Ratio (y) = -0.16786 0.14206
# Poissons Ratio (z) = 0.06684 0.10629
#
# Static dielectric constant tensor:
#      x y z
#    x 1.745100 -0.018650 0.004420 
#    y -0.018650 1.773380 -0.039310 
#    z 0.004420 -0.039310 1.747240 
# 
# From -- ./inp_files/24070.got.cif
#   From: 2010.05.17/outbox.cif.g08.bks.cpg/sg2_13_cif.got.tgz:24070.got - 2010.06.03 11:33:40.
