data_PCOD9032948
_publ_section_title
;
Structure prediction by ZEFSAII (Michael W. Deem and Ramdas Pophale) SiO2 
 PCOD9032948
Probable space group: P -1
;
_chemical_formula_sum "Si O2"
_cell_formula_units_Z 16
_cell_length_a 8.840592
_cell_length_b 15.184981
_cell_length_c 24.122408
_cell_angle_alpha 27.668911
_cell_angle_beta 31.945907
_cell_angle_gamma 47.737366
_cell_volume 753.425732
_symmetry_space_group_name_H-M "P -1"
_symmetry_group_IT_number 2
_symmetry_cell_setting 'triclinic'
loop_
_space_group_symop_operation_xyz
x,y,z
-x,-y,-z
loop_
_atom_site_type_symbol
_atom_site_label
_atom_site_fract_x
_atom_site_fract_y
_atom_site_fract_z
Si Si1 0.763360 0.392666 0.370441
Si Si2 0.616454 0.065067 0.270102
Si Si3 0.070323 0.313765 0.432202
Si Si4 0.794236 0.005561 0.871375
Si Si5 0.221237 0.117853 0.180658
Si Si6 0.643778 0.351748 0.007328
Si Si7 0.150677 0.451800 0.535800
Si Si8 0.377310 0.796897 0.687926
O O1 0.511450 0.501736 0.398198
O O2 0.945497 0.358541 0.387003
O O3 0.005348 0.524819 0.178348
O O4 0.574554 0.169018 0.533528
O O5 0.547116 0.161635 0.293941
O O6 0.540848 0.157682 0.186500
O O7 0.981277 0.123571 0.118839
O O8 0.429929 0.347141 0.307632
O O9 0.968680 0.448669 0.432568
O O10 0.916667 0.081279 0.627764
O O11 0.018911 0.214276 0.707601
O O12 0.728417 0.971109 0.845284
O O13 0.500000 0.000000 0.000000
O O14 0.980203 0.240524 0.184159
O O15 0.513142 0.268769 0.034184
O O16 0.500000 0.500000 0.000000
O O17 0.000000 0.500000 0.500000
O O18 0.500000 0.000000 0.500000
#
# Coordination Sequence:
#
# PCOD9032948 Si02
#       8
#     2   2   2   2   2   2   2   2
#     4  11  26  43  68  97 136 178 216 276 335 398
#     4  10  23  47  66  98 134 173 222 276 338 391
#     4  11  21  42  67  95 134 175 215 278 332 396
#     4  10  23  44  68  93 134 177 222 279 333 393
#     4  10  22  44  64 100 133 171 226 272 336 394
#     4  12  27  42  68 103 136 175 224 273 333 404
#     4  11  24  42  67  99 126 173 233 269 328 399
#     4   9  21  39  72  94 125 180 215 270 341 389
#
# _framework density 21.236333999999999
#
# number of rings (size 3 to 8) (size 9 to 14) (size 15 to 20)
#    0.000    1.500    2.500    1.125    8.750    1.000 
#    0.000    3.125    0.000    0.000    0.000    0.000 
#    0.000    0.000    0.000    0.000    0.000    0.000 
#
# Total GULP energy -89141.799162 kJ/mol
# GULP energy per Si atom -5571.362448 kJ/mol
# Density = 2.118800 g / cm^3
# Si number density = 21.236334 Si / 1000 Ang^3
#
#
#
# Elastic Constant Matrix: (Units=GPa)
#
#
# Indices 1 2 3 4 5 6 
#
# 1 62.1154 18.1943 12.9643 8.1913 1.5263 -2.1938
# 2 18.1943 121.0612 34.5902 29.3948 -5.5046 -4.8630
# 3 12.9643 34.5902 85.0873 20.5196 -11.9290 4.6023
# 4 8.1913 29.3948 20.5196 30.5992 1.8839 -3.7612
# 5 1.5263 -5.5046 -11.9290 1.8839 19.6263 1.8066
# 6 -2.1938 -4.8630 4.6023 -3.7612 1.8066 22.6012
#
#
#
# Elastic Compliance Matrix: (Units=1/GPa)
#
#
# Indices 1 2 3 4 5 6 
#
# 1 0.017372 -0.001808 -0.002237 -0.000983 -0.003294 0.001852
# 2 -0.001808 0.011508 -0.001705 -0.009523 0.003171 0.000810
# 3 -0.002237 -0.001705 0.017538 -0.011123 0.012064 -0.006971
# 4 -0.000983 -0.009523 -0.011123 0.051711 -0.015234 0.009944
# 5 -0.003294 0.003171 0.012064 -0.015234 0.061773 -0.009567
# 6 0.001852 0.000810 -0.006971 0.009944 -0.009567 0.048438
#
#
# Mechanical properties :
#
#
# Convention : Reuss Voigt Hill
#
# Bulk Modulus (GPa) = 28.63972 44.41795 36.52884
# Shear Modulus (GPa) = 21.60008 28.06635 24.83322
#
# Velocity S-wave (km/s) = 3.19271 3.63935 3.42332
# Velocity P-wave (km/s) = 5.20640 6.21460 5.73271
#
# Compressibility (1/GPa) = 0.03491654
#
# Stress axis : x y z
#
# Youngs Moduli (GPa) = 57.56545 86.89250 57.02043
#
# Poissons Ratio (x) = 0.15714 0.12753
# Poissons Ratio (y) = 0.10411 0.09725
# Poissons Ratio (z) = 0.12875 0.14819
#
# Static dielectric constant tensor:
#      x y z
#    x 1.805230 -0.083190 0.006290 
#    y -0.083190 1.812630 0.012350 
#    z 0.006290 0.012350 1.785890 
# 
# From -- ./inp_files/608171.got.cif
#   From: 2010.05.17/outbox.cif.g08.bks.cpg/sg2_305_cif.got.tgz:608171.got - 2010.06.03 11:33:40.
