data_PCOD9032426
_publ_section_title
;
Structure prediction by ZEFSAII (Michael W. Deem and Ramdas Pophale) SiO2 
 PCOD9032426
Probable space group: P -1
;
_chemical_formula_sum "Si O2"
_cell_formula_units_Z 15
_cell_length_a 11.782905
_cell_length_b 11.596857
_cell_length_c 8.383057
_cell_angle_alpha 43.109097
_cell_angle_beta 84.695281
_cell_angle_gamma 110.237352
_cell_volume 619.127300
_symmetry_space_group_name_H-M "P -1"
_symmetry_group_IT_number 2
_symmetry_cell_setting 'triclinic'
loop_
_space_group_symop_operation_xyz
x,y,z
-x,-y,-z
loop_
_atom_site_type_symbol
_atom_site_label
_atom_site_fract_x
_atom_site_fract_y
_atom_site_fract_z
Si Si1 0.835972 0.056919 0.620554
Si Si2 0.542524 0.684485 0.432983
Si Si3 0.307340 0.434039 0.261936
Si Si4 0.028323 0.675788 0.943011
Si Si5 0.500000 0.000000 0.000000
Si Si6 0.752276 0.610456 0.059877
Si Si7 0.530949 0.916919 0.734942
Si Si8 0.073818 0.464785 0.383276
O O1 0.912259 0.117845 0.375577
O O2 0.945251 0.242589 0.540717
O O3 0.786765 0.826502 0.904665
O O4 0.699934 0.051206 0.607005
O O5 0.500000 0.500000 0.500000
O O6 0.660386 0.714959 0.507864
O O7 0.398823 0.588535 0.652723
O O8 0.573134 0.875145 0.131056
O O9 0.246542 0.379323 0.144460
O O10 0.205025 0.450822 0.376950
O O11 0.458296 0.667505 0.984012
O O12 0.877482 0.597900 0.112837
O O13 0.127125 0.670513 0.060501
O O14 0.000000 0.500000 0.000000
O O15 0.467013 0.942174 0.874771
O O16 0.500000 0.000000 0.500000
O O17 0.000000 0.500000 0.500000
#
# Coordination Sequence:
#
# PCOD9032426 Si02
#       8
#     2   2   2   2   1   2   2   2
#     4  11  24  47  71 110 148 203 260 318 396 461
#     4  12  27  49  73 115 155 201 256 334 396 464
#     4  12  25  49  73 113 154 201 265 328 388 475
#     4  10  22  43  71 103 146 196 252 312 378 468
#     4  12  28  48  78 112 158 212 256 330 406 468
#     4  12  24  46  78 107 152 198 260 323 392 468
#     4  12  27  45  77 117 152 206 268 319 398 474
#     4  11  27  47  74 107 157 207 258 319 402 474
#
# _framework density 24.227651999999999
#
# number of rings (size 3 to 8) (size 9 to 14) (size 15 to 20)
#    0.000    0.533    5.333    2.400   11.200    0.000 
#    0.000    0.667    0.000    0.000    0.000    0.000 
#    0.000    0.000    0.000    0.000    0.000    0.000 
#
# Total GULP energy -83637.885769 kJ/mol
# GULP energy per Si atom -5575.859051 kJ/mol
# Density = 2.417251 g / cm^3
# Si number density = 24.227652 Si / 1000 Ang^3
#
#
#
# Elastic Constant Matrix: (Units=GPa)
#
#
# Indices 1 2 3 4 5 6 
#
# 1 144.9715 -3.4216 22.3250 -5.8299 5.6065 -4.3697
# 2 -3.4216 67.0133 9.6828 8.4825 0.3939 -4.9636
# 3 22.3250 9.6828 71.9891 2.9562 16.4991 8.9716
# 4 -5.8299 8.4825 2.9562 34.3650 -0.6325 -2.5996
# 5 5.6065 0.3939 16.4991 -0.6325 46.4971 -0.3290
# 6 -4.3697 -4.9636 8.9716 -2.5996 -0.3290 29.6273
#
#
#
# Elastic Compliance Matrix: (Units=1/GPa)
#
#
# Indices 1 2 3 4 5 6 
#
# 1 0.007465 0.000757 -0.002779 0.001487 0.000115 0.002201
# 2 0.000757 0.016039 -0.002852 -0.003315 0.000764 0.003380
# 3 -0.002779 -0.002852 0.017351 -0.001850 -0.005868 -0.006369
# 4 0.001487 -0.003315 -0.001850 0.030567 0.000942 0.002917
# 5 0.000115 0.000764 -0.005868 0.000942 0.023597 0.002266
# 6 0.002201 0.003380 -0.006369 0.002917 0.002266 0.036853
#
#
# Mechanical properties :
#
#
# Convention : Reuss Voigt Hill
#
# Bulk Modulus (GPa) = 32.14718 37.90515 35.02617
# Shear Modulus (GPa) = 32.89695 39.12372 36.01033
#
# Velocity S-wave (km/s) = 3.68887 4.02286 3.85948
# Velocity P-wave (km/s) = 5.60725 6.10387 5.86082
#
# Compressibility (1/GPa) = 0.03110693
#
# Stress axis : x y z
#
# Youngs Moduli (GPa) = 133.95171 62.34936 57.63388
#
# Poissons Ratio (x) = -0.04718 0.16015
# Poissons Ratio (y) = -0.10137 0.16437
# Poissons Ratio (z) = 0.37221 0.17782
#
# Static dielectric constant tensor:
#      x y z
#    x 1.924740 0.006650 -0.020660 
#    y 0.006650 1.922210 0.028680 
#    z -0.020660 0.028680 2.001570 
# 
# From -- ./inp_files/255862.got.cif
#   From: 2010.05.17/outbox.cif.g08.bks.cpg/sg2_128_cif.got.tgz:255862.got - 2010.06.03 11:33:40.
