data_PCOD9032554
_publ_section_title
;
Structure prediction by ZEFSAII (Michael W. Deem and Ramdas Pophale) SiO2 
 PCOD9032554
Probable space group: P -1
;
_chemical_formula_sum "Si O2"
_cell_formula_units_Z 16
_cell_length_a 9.347861
_cell_length_b 14.875441
_cell_length_c 20.891674
_cell_angle_alpha 21.930297
_cell_angle_beta 49.328976
_cell_angle_gamma 38.425563
_cell_volume 638.128230
_symmetry_space_group_name_H-M "P -1"
_symmetry_group_IT_number 2
_symmetry_cell_setting 'triclinic'
loop_
_space_group_symop_operation_xyz
x,y,z
-x,-y,-z
loop_
_atom_site_type_symbol
_atom_site_label
_atom_site_fract_x
_atom_site_fract_y
_atom_site_fract_z
Si Si1 0.388861 0.179665 0.848101
Si Si2 0.480990 0.769218 0.471529
Si Si3 0.395960 0.659653 0.161712
Si Si4 0.105678 0.258781 0.340403
Si Si5 0.706889 0.402989 0.897358
Si Si6 0.212602 0.840426 0.695592
Si Si7 0.157071 0.126634 0.704050
Si Si8 0.774189 0.221472 0.659366
O O1 0.601512 0.133559 0.777319
O O2 0.176481 0.530930 0.698352
O O3 0.500000 0.000000 0.000000
O O4 0.290800 0.011303 0.958712
O O5 0.587767 0.490340 0.676634
O O6 0.588972 0.947577 0.336550
O O7 0.586555 0.590440 0.490633
O O8 0.201754 0.039858 0.394907
O O9 0.257169 0.615920 0.177543
O O10 0.673131 0.459299 0.185151
O O11 0.165268 0.492799 0.168746
O O12 0.243790 0.041855 0.505883
O O13 0.412100 0.675046 0.803762
O O14 0.789096 0.078035 0.114299
O O15 0.936841 0.067920 0.649697
O O16 0.000000 0.500000 0.500000
O O17 0.994563 0.083894 0.735840
#
# Coordination Sequence:
#
# PCOD9032554 Si02
#       8
#     2   2   2   2   2   2   2   2
#     4  12  25  43  67 100 135 183 235 272 332 416
#     4  10  22  44  69 102 133 171 233 285 337 398
#     4   9  23  45  68 100 133 178 229 277 341 404
#     4  11  24  42  73  99 137 183 225 281 340 407
#     4  10  22  43  72 102 139 175 229 283 347 399
#     4   9  23  44  69 101 136 176 224 289 343 397
#     4  10  23  40  68 108 138 174 221 287 346 393
#     4  11  23  42  69  97 145 177 224 279 337 403
#
# _framework density 25.073332000000001
#
# number of rings (size 3 to 8) (size 9 to 14) (size 15 to 20)
#    0.750    1.000    1.250    1.875    3.500    7.000 
#    0.000    0.000    0.000    0.000    0.000    0.000 
#    0.000    0.000    0.000    0.000    0.000    0.000 
#
# Total GULP energy -89120.153637 kJ/mol
# GULP energy per Si atom -5570.009602 kJ/mol
# Density = 2.501626 g / cm^3
# Si number density = 25.073332 Si / 1000 Ang^3
#
#
#
# Elastic Constant Matrix: (Units=GPa)
#
#
# Indices 1 2 3 4 5 6 
#
# 1 31.3406 0.0408 25.6735 -1.6255 3.3693 -2.5839
# 2 0.0408 179.5040 33.9565 -23.1667 -5.4980 0.2639
# 3 25.6735 33.9565 119.4781 -4.0513 2.5973 5.3803
# 4 -1.6255 -23.1667 -4.0513 33.3401 -1.9119 -5.3435
# 5 3.3693 -5.4980 2.5973 -1.9119 41.8152 -6.0613
# 6 -2.5839 0.2639 5.3803 -5.3435 -6.0613 28.0089
#
#
#
# Elastic Compliance Matrix: (Units=1/GPa)
#
#
# Indices 1 2 3 4 5 6 
#
# 1 0.040409 0.002127 -0.009412 0.003156 -0.001405 0.005814
# 2 0.002127 0.006665 -0.002297 0.004817 0.001326 0.001781
# 3 -0.009412 -0.002297 0.011172 -0.001289 -0.000791 -0.003410
# 4 0.003156 0.004817 -0.001289 0.034773 0.003182 0.007816
# 5 -0.001405 0.001326 -0.000791 0.003182 0.025279 0.006087
# 6 0.005814 0.001781 -0.003410 0.007816 0.006087 0.039686
#
#
# Mechanical properties :
#
#
# Convention : Reuss Voigt Hill
#
# Bulk Modulus (GPa) = 25.58739 49.96271 37.77505
# Shear Modulus (GPa) = 26.29166 38.67629 32.48398
#
# Velocity S-wave (km/s) = 3.24171 3.93176 3.60329
# Velocity P-wave (km/s) = 4.92329 6.37037 5.69299
#
# Compressibility (1/GPa) = 0.03908176
#
# Stress axis : x y z
#
# Youngs Moduli (GPa) = 24.74719 150.04699 89.50993
#
# Poissons Ratio (x) = -0.31914 0.84245
# Poissons Ratio (y) = -0.05264 0.20559
# Poissons Ratio (z) = 0.23292 0.34463
#
# Static dielectric constant tensor:
#      x y z
#    x 2.060080 0.027530 -0.046520 
#    y 0.027530 2.147420 -0.084250 
#    z -0.046520 -0.084250 1.994180 
# 
# From -- ./inp_files/610756.got.cif
#   From: 2010.05.17/outbox.cif.g08.bks.cpg/sg2_306_cif.got.tgz:610756.got - 2010.06.03 11:33:40.
