data_PCOD9032803
_publ_section_title
;
Structure prediction by ZEFSAII (Michael W. Deem and Ramdas Pophale) SiO2 
 PCOD9032803
Probable space group: P -1
;
_chemical_formula_sum "Si O2"
_cell_formula_units_Z 12
_cell_length_a 9.601323
_cell_length_b 11.455949
_cell_length_c 8.963750
_cell_angle_alpha 139.538488
_cell_angle_beta 58.000361
_cell_angle_gamma 131.480616
_cell_volume 478.652885
_symmetry_space_group_name_H-M "P -1"
_symmetry_group_IT_number 2
_symmetry_cell_setting 'triclinic'
loop_
_space_group_symop_operation_xyz
x,y,z
-x,-y,-z
loop_
_atom_site_type_symbol
_atom_site_label
_atom_site_fract_x
_atom_site_fract_y
_atom_site_fract_z
Si Si1 0.224338 0.133860 0.207639
Si Si2 0.112155 0.704740 0.996118
Si Si3 0.179338 0.222151 0.637484
Si Si4 0.451609 0.830888 0.147559
Si Si5 0.467235 0.731773 0.368058
Si Si6 0.868742 0.557368 0.532121
O O1 0.278815 0.253044 0.451391
O O2 0.084921 0.208762 0.288417
O O3 0.403298 0.196497 0.065597
O O4 0.142049 0.895220 0.057686
O O5 0.129344 0.540694 0.723286
O O6 0.274354 0.791907 0.111346
O O7 0.915354 0.641075 0.125828
O O8 0.323077 0.227132 0.683548
O O9 0.000000 0.000000 0.500000
O O10 0.414302 0.703847 0.197436
O O11 0.542067 0.066296 0.376467
O O12 0.327736 0.552030 0.377814
O O13 0.000000 0.500000 0.500000
#
# Coordination Sequence:
#
# PCOD9032803 Si02
#       6
#     2   2   2   2   2   2
#     4  11  24  46  73 102 141 193 237 287 365 415
#     4  11  24  49  75 103 146 188 243 293 358 425
#     4  10  22  43  75 107 138 189 241 285 360 427
#     4  11  23  44  79 104 142 194 231 302 357 420
#     4  11  24  45  72 110 146 183 245 293 354 428
#     4  12  30  47  71 109 146 188 246 296 356 431
#
# _framework density 25.070360000000001
#
# number of rings (size 3 to 8) (size 9 to 14) (size 15 to 20)
#    0.000    1.000    5.000    1.500    4.667    6.000 
#    0.000    0.000    0.000    0.000    0.000    0.000 
#    0.000    0.000    0.000    0.000    0.000    0.000 
#
# Total GULP energy -67246.193019 kJ/mol
# GULP energy per Si atom -5603.849418 kJ/mol
# Density = 2.501330 g / cm^3
# Si number density = 25.070360 Si / 1000 Ang^3
#
#
#
# Elastic Constant Matrix: (Units=GPa)
#
#
# Indices 1 2 3 4 5 6 
#
# 1 150.3726 31.6052 49.0237 -8.9343 -10.1619 -16.4170
# 2 31.6052 96.2108 70.0951 -7.5875 -7.0865 -18.5777
# 3 49.0237 70.0951 149.3318 -30.0043 -18.3242 -10.6702
# 4 -8.9343 -7.5875 -30.0043 54.5962 -6.3375 -3.8447
# 5 -10.1619 -7.0865 -18.3242 -6.3375 43.4094 -0.7946
# 6 -16.4170 -18.5777 -10.6702 -3.8447 -0.7946 32.2102
#
#
#
# Elastic Compliance Matrix: (Units=1/GPa)
#
#
# Indices 1 2 3 4 5 6 
#
# 1 0.007813 -0.000459 -0.001880 0.000533 0.001097 0.003185
# 2 -0.000459 0.017548 -0.007999 -0.001622 -0.000728 0.007025
# 3 -0.001880 -0.007999 0.012823 0.006122 0.004552 -0.000481
# 4 0.000533 -0.001622 0.006122 0.022512 0.005808 0.004194
# 5 0.001097 -0.000728 0.004552 0.005808 0.025998 0.002982
# 6 0.003185 0.007025 -0.000481 0.004194 0.002982 0.037136
#
#
# Mechanical properties :
#
#
# Convention : Reuss Voigt Hill
#
# Bulk Modulus (GPa) = 57.12143 77.48481 67.30312
# Shear Modulus (GPa) = 33.25734 42.38924 37.82329
#
# Velocity S-wave (km/s) = 3.64615 4.11641 3.88839
# Velocity P-wave (km/s) = 6.36866 7.31896 6.86028
#
# Compressibility (1/GPa) = 0.01750657
#
# Stress axis : x y z
#
# Youngs Moduli (GPa) = 127.98966 56.98803 77.98584
#
# Poissons Ratio (x) = 0.02615 0.14664
# Poissons Ratio (y) = 0.05872 0.62384
# Poissons Ratio (z) = 0.24066 0.45587
#
# Static dielectric constant tensor:
#      x y z
#    x 1.959500 -0.047870 -0.007760 
#    y -0.047870 2.024480 -0.002250 
#    z -0.007760 -0.002250 1.963490 
# 
# From -- ./inp_files/191034.got.cif
#   From: 2010.05.17/outbox.cif.g08.bks.cpg/sg2_96_cif.got.tgz:191034.got - 2010.06.03 11:33:40.
