data_PCOD9032023
_publ_section_title
;
Structure prediction by ZEFSAII (Michael W. Deem and Ramdas Pophale) SiO2 
 PCOD9032023
Probable space group: P -1
;
_chemical_formula_sum "Si O2"
_cell_formula_units_Z 15
_cell_length_a 12.542612
_cell_length_b 6.717267
_cell_length_c 10.899145
_cell_angle_alpha 86.520935
_cell_angle_beta 124.389545
_cell_angle_gamma 62.711518
_cell_volume 606.114679
_symmetry_space_group_name_H-M "P -1"
_symmetry_group_IT_number 2
_symmetry_cell_setting 'triclinic'
loop_
_space_group_symop_operation_xyz
x,y,z
-x,-y,-z
loop_
_atom_site_type_symbol
_atom_site_label
_atom_site_fract_x
_atom_site_fract_y
_atom_site_fract_z
Si Si1 0.971459 0.869822 0.370868
Si Si2 0.613951 0.157521 0.214292
Si Si3 0.503596 0.521915 0.352961
Si Si4 0.911286 0.831103 0.667271
Si Si5 0.158882 0.985009 0.125437
Si Si6 0.840568 0.715757 0.084509
Si Si7 0.500000 0.000000 0.000000
Si Si8 0.735219 0.655293 0.402580
O O1 0.944330 0.779915 0.228538
O O2 0.106253 0.604970 0.534367
O O3 0.792621 0.055313 0.300207
O O4 0.041644 0.020608 0.385733
O O5 0.559928 0.295146 0.303573
O O6 0.633288 0.886923 0.231884
O O7 0.495224 0.261007 0.019722
O O8 0.500000 0.500000 0.500000
O O9 0.319142 0.734312 0.188246
O O10 0.620509 0.601013 0.393863
O O11 0.805431 0.762929 0.532017
O O12 0.070769 0.575024 0.829342
O O13 0.818031 0.002298 0.716324
O O14 0.150754 0.208580 0.049186
O O15 0.000000 0.000000 0.000000
O O16 0.664079 0.878584 0.018513
#
# Coordination Sequence:
#
# PCOD9032023 Si02
#       8
#     2   2   2   2   2   2   1   2
#     4  10  22  43  69 106 141 184 240 299 365 434
#     4  11  25  45  73 104 148 191 238 304 370 435
#     4  12  29  47  72 107 149 191 246 305 362 433
#     4  11  24  43  73 101 143 194 244 299 355 438
#     4  12  25  45  72 104 145 194 249 299 364 431
#     4  10  23  42  68 103 141 186 242 297 365 434
#     4  10  24  44  70 104 142 186 240 294 372 434
#     4  11  24  45  70 104 143 189 242 296 370 439
#
# _framework density 24.747793000000001
#
# number of rings (size 3 to 8) (size 9 to 14) (size 15 to 20)
#    0.000    1.067    1.333    4.000    3.733    9.600 
#    0.000    4.667    0.000    0.000    0.000    0.000 
#    0.000    0.000    0.000    0.000    0.000    0.000 
#
# Total GULP energy -83763.027910 kJ/mol
# GULP energy per Si atom -5584.201861 kJ/mol
# Density = 2.469147 g / cm^3
# Si number density = 24.747793 Si / 1000 Ang^3
#
#
#
# Elastic Constant Matrix: (Units=GPa)
#
#
# Indices 1 2 3 4 5 6 
#
# 1 160.7231 69.2512 49.5419 7.5213 13.9707 8.6281
# 2 69.2512 157.1934 44.0185 14.5018 8.9271 -9.0171
# 3 49.5419 44.0185 83.9902 5.9013 19.8675 -1.7254
# 4 7.5213 14.5018 5.9013 45.3680 -4.4227 0.1377
# 5 13.9707 8.9271 19.8675 -4.4227 38.3544 2.0061
# 6 8.6281 -9.0171 -1.7254 0.1377 2.0061 46.9312
#
#
#
# Elastic Compliance Matrix: (Units=1/GPa)
#
#
# Indices 1 2 3 4 5 6 
#
# 1 0.008760 -0.002964 -0.003520 -0.000096 -0.000570 -0.002285
# 2 -0.002964 0.008707 -0.002657 -0.001943 0.000094 0.002122
# 3 -0.003520 -0.002657 0.017219 -0.001517 -0.007250 0.001084
# 4 -0.000096 -0.001943 -0.001517 0.023267 0.003990 -0.000650
# 5 -0.000570 0.000094 -0.007250 0.003990 0.030550 -0.001461
# 6 -0.002285 0.002122 0.001084 -0.000650 -0.001461 0.022240
#
#
# Mechanical properties :
#
#
# Convention : Reuss Voigt Hill
#
# Bulk Modulus (GPa) = 60.95697 80.83665 70.89681
# Shear Modulus (GPa) = 37.17669 42.07041 39.62355
#
# Velocity S-wave (km/s) = 3.88006 4.12754 4.00571
# Velocity P-wave (km/s) = 6.69013 7.44651 7.07843
#
# Compressibility (1/GPa) = 0.01640502
#
# Stress axis : x y z
#
# Youngs Moduli (GPa) = 114.15034 114.85033 58.07621
#
# Poissons Ratio (x) = 0.34038 0.20440
# Poissons Ratio (y) = 0.33830 0.15433
# Poissons Ratio (z) = 0.40176 0.30519
#
# Static dielectric constant tensor:
#      x y z
#    x 1.897630 0.011950 -0.010510 
#    y 0.011950 2.050630 -0.012260 
#    z -0.010510 -0.012260 2.134250 
# 
# From -- ./inp_files/410335.got.cif
#   From: 2010.05.17/outbox.cif.g08.bks.cpg/sg2_206_cif.got.tgz:410335.got - 2010.06.03 11:33:40.
