data_PCOD9032024
_publ_section_title
;
Structure prediction by ZEFSAII (Michael W. Deem and Ramdas Pophale) SiO2 
 PCOD9032024
Probable space group: P -1
;
_chemical_formula_sum "Si O2"
_cell_formula_units_Z 12
_cell_length_a 12.101959
_cell_length_b 9.614187
_cell_length_c 9.749536
_cell_angle_alpha 47.902519
_cell_angle_beta 130.636485
_cell_angle_gamma 143.979415
_cell_volume 479.282337
_symmetry_space_group_name_H-M "P -1"
_symmetry_group_IT_number 2
_symmetry_cell_setting 'triclinic'
loop_
_space_group_symop_operation_xyz
x,y,z
-x,-y,-z
loop_
_atom_site_type_symbol
_atom_site_label
_atom_site_fract_x
_atom_site_fract_y
_atom_site_fract_z
Si Si1 0.246302 0.088800 0.053733
Si Si2 0.712154 0.468402 0.135588
Si Si3 0.041457 0.905293 0.724390
Si Si4 0.293577 0.740430 0.455684
Si Si5 0.368650 0.571195 0.358318
Si Si6 0.214905 0.693016 0.970584
O O1 0.224776 0.261231 0.008830
O O2 0.129705 0.031143 0.858411
O O3 0.476427 0.271225 0.084557
O O4 0.193403 0.842595 0.242875
O O5 0.786064 0.433015 0.359518
O O6 0.773830 0.398864 0.103289
O O7 0.203317 0.904066 0.796074
O O8 0.821751 0.648652 0.737002
O O9 0.000000 0.000000 0.500000
O O10 0.324050 0.605644 0.453072
O O11 0.500000 0.000000 0.500000
O O12 0.500000 0.500000 0.500000
O O13 0.389051 0.785376 0.152821
O O14 0.000000 0.500000 0.000000
#
# Coordination Sequence:
#
# PCOD9032024 Si02
#       6
#     2   2   2   2   2   2
#     4  10  22  43  72 109 143 188 241 298 361 430
#     4  10  23  43  75 103 147 188 238 298 364 433
#     4  11  24  44  69 104 145 184 246 295 360 431
#     4  10  22  43  69 106 143 184 243 290 364 433
#     4  11  25  44  73  99 146 192 237 300 362 427
#     4  10  24  47  67 100 145 185 232 301 359 419
#
# _framework density 25.037434000000001
#
# number of rings (size 3 to 8) (size 9 to 14) (size 15 to 20)
#    0.000    1.667    1.667    1.000    9.333    3.333 
#    3.000   14.167    0.000    0.000    0.000    0.000 
#    0.000    0.000    0.000    0.000    0.000    0.000 
#
# Total GULP energy -66951.738339 kJ/mol
# GULP energy per Si atom -5579.311528 kJ/mol
# Density = 2.498045 g / cm^3
# Si number density = 25.037434 Si / 1000 Ang^3
#
#
#
# Elastic Constant Matrix: (Units=GPa)
#
#
# Indices 1 2 3 4 5 6 
#
# 1 136.1820 27.8841 75.7725 -8.2549 -7.0474 -39.6242
# 2 27.8841 60.1947 16.6481 14.5308 -2.6476 -12.8527
# 3 75.7725 16.6481 194.7634 1.8955 3.3769 -14.6869
# 4 -8.2549 14.5308 1.8955 41.9743 -5.1791 1.0444
# 5 -7.0474 -2.6476 3.3769 -5.1791 55.6646 11.0379
# 6 -39.6242 -12.8527 -14.6869 1.0444 11.0379 51.4012
#
#
#
# Elastic Compliance Matrix: (Units=1/GPa)
#
#
# Indices 1 2 3 4 5 6 
#
# 1 0.013016 -0.004217 -0.004182 0.004092 0.000579 0.007577
# 2 -0.004217 0.020999 0.000118 -0.008259 -0.000781 0.002369
# 3 -0.004182 0.000118 0.006697 -0.001242 -0.000832 -0.001077
# 4 0.004092 -0.008259 -0.001242 0.027912 0.002887 -0.000453
# 5 0.000579 -0.000781 -0.000832 0.002887 0.019144 -0.004156
# 6 0.007577 0.002369 -0.001077 -0.000453 -0.004156 0.026482
#
#
# Mechanical properties :
#
#
# Convention : Reuss Voigt Hill
#
# Bulk Modulus (GPa) = 41.40809 70.19439 55.80124
# Shear Modulus (GPa) = 36.00722 47.86371 41.93546
#
# Velocity S-wave (km/s) = 3.79639 4.37703 4.09701
# Velocity P-wave (km/s) = 5.98257 7.32401 6.68701
#
# Compressibility (1/GPa) = 0.02414987
#
# Stress axis : x y z
#
# Youngs Moduli (GPa) = 76.82813 47.62158 149.32968
#
# Poissons Ratio (x) = 0.20083 0.62448
# Poissons Ratio (y) = 0.32400 -0.01767
# Poissons Ratio (z) = 0.32129 -0.00563
#
# Static dielectric constant tensor:
#      x y z
#    x 1.991970 -0.029910 0.113140 
#    y -0.029910 1.467970 0.306370 
#    z 0.113140 0.306370 1.659860 
# 
# From -- ./inp_files/199299.got.cif
#   From: 2010.05.17/outbox.cif.g08.bks.cpg/sg2_100_cif.got.tgz:199299.got - 2010.06.03 11:33:40.
