data_PCOD9032363
_publ_section_title
;
Structure prediction by ZEFSAII (Michael W. Deem and Ramdas Pophale) SiO2 
 PCOD9032363
Probable space group: P -1
;
_chemical_formula_sum "Si O2"
_cell_formula_units_Z 16
_cell_length_a 18.972244
_cell_length_b 11.744502
_cell_length_c 10.484521
_cell_angle_alpha 142.792575
_cell_angle_beta 45.457421
_cell_angle_gamma 151.967726
_cell_volume 663.905001
_symmetry_space_group_name_H-M "P -1"
_symmetry_group_IT_number 2
_symmetry_cell_setting 'triclinic'
loop_
_space_group_symop_operation_xyz
x,y,z
-x,-y,-z
loop_
_atom_site_type_symbol
_atom_site_label
_atom_site_fract_x
_atom_site_fract_y
_atom_site_fract_z
Si Si1 0.709831 0.781473 0.530047
Si Si2 0.786204 0.027932 0.394108
Si Si3 0.532521 0.987524 0.156866
Si Si4 0.386606 0.679717 0.410299
Si Si5 0.509414 0.546634 0.826854
Si Si6 0.121087 0.491187 0.460901
Si Si7 0.961090 0.416095 0.829094
Si Si8 0.726147 0.382923 0.034334
O O1 0.584794 0.624898 0.658590
O O2 0.725881 0.596960 0.281471
O O3 0.703465 0.915027 0.535897
O O4 0.862582 0.082634 0.662427
O O5 0.806643 0.255618 0.501517
O O6 0.956001 0.199744 0.357682
O O7 0.669878 0.735028 0.203484
O O8 0.601426 0.247191 0.389461
O O9 0.628835 0.125891 0.029936
O O10 0.550887 0.816282 0.051121
O O11 0.363141 0.749588 0.104250
O O12 0.430473 0.526456 0.221660
O O13 0.234047 0.490772 0.358145
O O14 0.500000 0.000000 0.500000
O O15 0.091926 0.558303 0.690867
O O16 0.880404 0.487780 0.937814
O O17 0.000000 0.500000 0.000000
#
# Coordination Sequence:
#
# PCOD9032363 Si02
#       8
#     2   2   2   2   2   2   2   2
#     4  11  23  41  73 105 137 180 241 293 347 404
#     4  10  22  43  70  99 137 181 234 282 348 417
#     4  11  25  39  70 107 137 173 245 290 341 411
#     4  12  26  46  71 100 142 187 227 286 362 417
#     4  12  23  43  73 104 138 178 238 297 340 412
#     4  10  24  45  69  99 142 185 228 284 355 424
#     4  11  25  44  67 100 148 190 228 291 355 415
#     4  11  23  40  67 106 132 180 239 295 340 407
#
# _framework density 24.099834999999999
#
# number of rings (size 3 to 8) (size 9 to 14) (size 15 to 20)
#    0.000    1.000    5.000    1.125    3.500    1.000 
#    2.250    0.625    0.000    0.000    0.000    0.000 
#    0.000    0.000    0.000    0.000    0.000    0.000 
#
# Total GULP energy -89371.360447 kJ/mol
# GULP energy per Si atom -5585.710028 kJ/mol
# Density = 2.404498 g / cm^3
# Si number density = 24.099835 Si / 1000 Ang^3
#
#
#
# Elastic Constant Matrix: (Units=GPa)
#
#
# Indices 1 2 3 4 5 6 
#
# 1 155.9775 39.7327 47.5427 8.9339 -14.8577 1.8303
# 2 39.7327 82.1231 32.6443 2.6407 -3.8866 -23.6169
# 3 47.5427 32.6443 104.2576 14.8738 -22.6329 11.4922
# 4 8.9339 2.6407 14.8738 28.9907 -4.9529 3.4390
# 5 -14.8577 -3.8866 -22.6329 -4.9529 34.5409 6.4156
# 6 1.8303 -23.6169 11.4922 3.4390 6.4156 33.6584
#
#
#
# Elastic Compliance Matrix: (Units=1/GPa)
#
#
# Indices 1 2 3 4 5 6 
#
# 1 0.008256 -0.004304 -0.001358 -0.000576 0.002739 -0.003468
# 2 -0.004304 0.024551 -0.010477 -0.000008 -0.010225 0.022987
# 3 -0.001358 -0.010477 0.018560 -0.004126 0.012707 -0.015615
# 4 -0.000576 -0.000008 -0.004126 0.037656 0.003002 -0.002985
# 5 0.002739 -0.010225 0.012707 0.003002 0.041425 -0.019864
# 6 -0.003468 0.022987 -0.015615 -0.002985 -0.019864 0.055451
#
#
# Mechanical properties :
#
#
# Convention : Reuss Voigt Hill
#
# Bulk Modulus (GPa) = 52.38689 64.68863 58.53776
# Shear Modulus (GPa) = 22.26781 34.26722 28.26751
#
# Velocity S-wave (km/s) = 3.04300 3.77488 3.42853
# Velocity P-wave (km/s) = 5.84219 6.77494 6.32578
#
# Compressibility (1/GPa) = 0.01908874
#
# Stress axis : x y z
#
# Youngs Moduli (GPa) = 121.12307 40.73200 53.87992
#
# Poissons Ratio (x) = 0.17530 0.07319
# Poissons Ratio (y) = 0.52128 0.56449
# Poissons Ratio (z) = 0.16453 0.42674
#
# Static dielectric constant tensor:
#      x y z
#    x 1.991860 0.032540 0.065400 
#    y 0.032540 1.961900 -0.025750 
#    z 0.065400 -0.025750 1.967240 
# 
# From -- ./inp_files/464117.got.cif
#   From: 2010.05.17/outbox.cif.g08.bks.cpg/sg2_233_cif.got.tgz:464117.got - 2010.06.03 11:33:40.
