data_PCOD9032034
_publ_section_title
;
Structure prediction by ZEFSAII (Michael W. Deem and Ramdas Pophale) SiO2 
 PCOD9032034
Probable space group: P -1
;
_chemical_formula_sum "Si O2"
_cell_formula_units_Z 15
_cell_length_a 11.398871
_cell_length_b 11.955875
_cell_length_c 11.505134
_cell_angle_alpha 149.311322
_cell_angle_beta 111.772947
_cell_angle_gamma 59.436900
_cell_volume 681.168416
_symmetry_space_group_name_H-M "P -1"
_symmetry_group_IT_number 2
_symmetry_cell_setting 'triclinic'
loop_
_space_group_symop_operation_xyz
x,y,z
-x,-y,-z
loop_
_atom_site_type_symbol
_atom_site_label
_atom_site_fract_x
_atom_site_fract_y
_atom_site_fract_z
Si Si1 0.856020 0.951271 0.717105
Si Si2 0.496626 0.043735 0.880989
Si Si3 0.746884 0.593833 0.632551
Si Si4 0.000000 0.500000 0.500000
Si Si5 0.190167 0.365984 0.056209
Si Si6 0.660440 0.344131 0.170230
Si Si7 0.397015 0.171498 0.523475
Si Si8 0.946544 0.197366 0.759710
O O1 0.753308 0.833645 0.524545
O O2 0.983696 0.729847 0.618179
O O3 0.894664 0.088625 0.750730
O O4 0.778111 0.138554 0.957233
O O5 0.599698 0.824778 0.801055
O O6 0.546918 0.939970 0.679420
O O7 0.333402 0.135758 0.900378
O O8 0.541410 0.265945 0.100214
O O9 0.805131 0.514081 0.710786
O O10 0.715986 0.422808 0.376866
O O11 0.857284 0.663892 0.665334
O O12 0.168818 0.561529 0.122802
O O13 0.066749 0.277725 0.919666
O O14 0.610955 0.562474 0.255185
O O15 0.500000 0.000000 0.500000
O O16 0.000000 0.000000 0.500000
#
# Coordination Sequence:
#
# PCOD9032034 Si02
#       8
#     2   2   2   1   2   2   2   2
#     4  11  25  44  71 103 140 181 236 296 351 417
#     4  10  23  44  67 108 138 181 235 287 355 415
#     4  11  24  44  70 106 142 181 235 294 351 414
#     4  12  22  46  68 102 144 170 238 300 344 412
#     4  11  27  47  72 101 148 183 241 287 337 440
#     4  10  22  43  69 109 136 181 231 287 368 408
#     4  10  23  40  68 103 141 177 234 291 344 422
#     4  11  28  48  68 104 137 198 235 279 361 415
#
# _framework density 22.020985
#
# number of rings (size 3 to 8) (size 9 to 14) (size 15 to 20)
#    0.000    1.333    4.000    1.200    7.467    6.400 
#    0.000    0.000    0.000    0.000    0.000    0.000 
#    0.000    0.000    0.000    0.000    0.000    0.000 
#
# Total GULP energy -83524.983880 kJ/mol
# GULP energy per Si atom -5568.332259 kJ/mol
# Density = 2.197086 g / cm^3
# Si number density = 22.020985 Si / 1000 Ang^3
#
#
#
# Elastic Constant Matrix: (Units=GPa)
#
#
# Indices 1 2 3 4 5 6 
#
# 1 68.4515 32.1207 4.9314 9.0046 -9.1230 2.7131
# 2 32.1207 147.2278 44.7782 16.4719 15.3696 -5.2390
# 3 4.9314 44.7782 58.8386 13.4213 5.5333 -1.5201
# 4 9.0046 16.4719 13.4213 23.7560 2.9236 0.7675
# 5 -9.1230 15.3696 5.5333 2.9236 24.0016 9.2208
# 6 2.7131 -5.2390 -1.5201 0.7675 9.2208 31.9239
#
#
#
# Elastic Compliance Matrix: (Units=1/GPa)
#
#
# Indices 1 2 3 4 5 6 
#
# 1 0.020490 -0.006447 0.003165 -0.006661 0.014571 -0.006697
# 2 -0.006447 0.011669 -0.007132 -0.000531 -0.010162 0.005071
# 3 0.003165 -0.007132 0.024316 -0.010172 0.001595 -0.000498
# 4 -0.006661 -0.000531 -0.010172 0.051497 -0.006346 0.000590
# 5 0.014571 -0.010162 0.001595 -0.006346 0.062026 -0.020593
# 6 -0.006697 0.005071 -0.000498 0.000590 -0.020593 0.038636
#
#
# Mechanical properties :
#
#
# Convention : Reuss Voigt Hill
#
# Bulk Modulus (GPa) = 28.05337 48.68648 38.36992
# Shear Modulus (GPa) = 20.71738 28.78213 24.74975
#
# Velocity S-wave (km/s) = 3.07058 3.61921 3.35612
# Velocity P-wave (km/s) = 5.03372 6.29460 5.69914
#
# Compressibility (1/GPa) = 0.03564634
#
# Stress axis : x y z
#
# Youngs Moduli (GPa) = 48.80444 85.69968 41.12581
#
# Poissons Ratio (x) = 0.55252 -0.13018
# Poissons Ratio (y) = 0.31465 0.29331
# Poissons Ratio (z) = -0.15449 0.61122
#
# Static dielectric constant tensor:
#      x y z
#    x 1.841220 -0.018390 0.010370 
#    y -0.018390 1.886320 0.010000 
#    z 0.010370 0.010000 1.871070 
# 
# From -- ./inp_files/369983.got.cif
#   From: 2010.05.17/outbox.cif.g08.bks.cpg/sg2_185_cif.got.tgz:369983.got - 2010.06.03 11:33:40.
