data_PCOD9032765
_publ_section_title
;
Structure prediction by ZEFSAII (Michael W. Deem and Ramdas Pophale) SiO2 
 PCOD9032765
Probable space group: P -1
;
_chemical_formula_sum "Si O2"
_cell_formula_units_Z 10
_cell_length_a 7.297892
_cell_length_b 7.430308
_cell_length_c 11.356447
_cell_angle_alpha 136.009406
_cell_angle_beta 121.316888
_cell_angle_gamma 73.685233
_cell_volume 360.870928
_symmetry_space_group_name_H-M "P -1"
_symmetry_group_IT_number 2
_symmetry_cell_setting 'triclinic'
loop_
_space_group_symop_operation_xyz
x,y,z
-x,-y,-z
loop_
_atom_site_type_symbol
_atom_site_label
_atom_site_fract_x
_atom_site_fract_y
_atom_site_fract_z
Si Si1 0.853201 0.983299 0.296503
Si Si2 0.785272 0.612443 0.435062
Si Si3 0.812213 0.873903 0.965698
Si Si4 0.463646 0.104562 0.331201
Si Si5 0.640810 0.478830 0.885293
O O1 0.718728 0.136709 0.412150
O O2 0.101439 0.110864 0.454137
O O3 0.818227 0.020587 0.160782
O O4 0.742883 0.676188 0.115938
O O5 0.643709 0.686710 0.533180
O O6 0.599961 0.480248 0.220184
O O7 0.000000 0.500000 0.500000
O O8 0.608906 0.894001 0.827306
O O9 0.797140 0.577593 0.872151
O O10 0.000000 0.000000 0.000000
O O11 0.625538 0.178104 0.773698
#
# Coordination Sequence:
#
# PCOD9032765 Si02
#       5
#     2   2   2   2   2
#     4  10  25  47  71 110 142 189 242 292 367 424
#     4  12  27  46  72 111 146 193 244 290 364 434
#     4  10  22  43  74 107 141 187 237 293 362 428
#     4  12  23  48  78 103 151 189 237 307 354 428
#     4  10  26  47  75 109 146 186 245 299 361 427
#
# _framework density 27.710737000000002
#
# number of rings (size 3 to 8) (size 9 to 14) (size 15 to 20)
#    1.200    0.000    2.000    3.000    2.800    7.200 
#    0.000    2.000    0.000    0.000    0.000    0.000 
#    0.000    0.000    0.000    0.000    0.000    0.000 
#
# Total GULP energy -55829.204553 kJ/mol
# GULP energy per Si atom -5582.920455 kJ/mol
# Density = 2.764767 g / cm^3
# Si number density = 27.710737 Si / 1000 Ang^3
#
#
#
# Elastic Constant Matrix: (Units=GPa)
#
#
# Indices 1 2 3 4 5 6 
#
# 1 177.8950 27.6457 55.2215 2.4927 -27.5342 28.6562
# 2 27.6457 152.2311 31.0734 -13.3477 -13.1373 27.5923
# 3 55.2215 31.0734 97.4532 14.0347 14.0753 -3.3467
# 4 2.4927 -13.3477 14.0347 42.6748 5.4004 3.5373
# 5 -27.5342 -13.1373 14.0753 5.4004 50.0873 2.8935
# 6 28.6562 27.5923 -3.3467 3.5373 2.8935 49.4061
#
#
#
# Elastic Compliance Matrix: (Units=1/GPa)
#
#
# Indices 1 2 3 4 5 6 
#
# 1 0.010958 0.002592 -0.009116 0.002727 0.009502 -0.009173
# 2 0.002592 0.009809 -0.006420 0.004975 0.005734 -0.008109
# 3 -0.009116 -0.006420 0.020766 -0.007697 -0.012368 0.011555
# 4 0.002727 0.004975 -0.007697 0.027639 0.002391 -0.007000
# 5 0.009502 0.005734 -0.012368 0.002391 0.030575 -0.011513
# 6 -0.009173 -0.008109 0.011555 -0.007000 -0.011513 0.032048
#
#
# Mechanical properties :
#
#
# Convention : Reuss Voigt Hill
#
# Bulk Modulus (GPa) = 63.91311 72.82897 68.37104
# Shear Modulus (GPa) = 30.69419 49.34287 40.01853
#
# Velocity S-wave (km/s) = 3.33177 4.22434 3.80432
# Velocity P-wave (km/s) = 6.15755 7.08042 6.63505
#
# Compressibility (1/GPa) = 0.01564624
#
# Stress axis : x y z
#
# Youngs Moduli (GPa) = 91.25540 101.94382 48.15655
#
# Poissons Ratio (x) = -0.26428 0.43900
# Poissons Ratio (y) = -0.23657 0.30915
# Poissons Ratio (z) = 0.83189 0.65446
#
# Static dielectric constant tensor:
#      x y z
#    x 2.178980 0.017150 0.049760 
#    y 0.017150 2.391530 0.095770 
#    z 0.049760 0.095770 2.196370 
# 
# From -- ./inp_files/386357.got.cif
#   From: 2010.05.17/outbox.cif.g08.bks.cpg/sg2_194_cif.got.tgz:386357.got - 2010.06.03 11:33:40.
