data_PCOD9032992
_publ_section_title
;
Structure prediction by ZEFSAII (Michael W. Deem and Ramdas Pophale) SiO2 
 PCOD9032992
Probable space group: P -1
;
_chemical_formula_sum "Si O2"
_cell_formula_units_Z 13
_cell_length_a 6.421210
_cell_length_b 11.598785
_cell_length_c 9.735930
_cell_angle_alpha 66.825635
_cell_angle_beta 60.644319
_cell_angle_gamma 91.316010
_cell_volume 559.523519
_symmetry_space_group_name_H-M "P -1"
_symmetry_group_IT_number 2
_symmetry_cell_setting 'triclinic'
loop_
_space_group_symop_operation_xyz
x,y,z
-x,-y,-z
loop_
_atom_site_type_symbol
_atom_site_label
_atom_site_fract_x
_atom_site_fract_y
_atom_site_fract_z
Si Si1 0.283017 0.657764 0.453801
Si Si2 0.872988 0.088428 0.190105
Si Si3 0.783497 0.701032 0.724882
Si Si4 0.608400 0.919501 0.112921
Si Si5 0.481834 0.462947 0.343596
Si Si6 0.000000 0.000000 0.500000
Si Si7 0.077546 0.370186 0.000705
O O1 0.403370 0.784820 0.266975
O O2 0.271452 0.528315 0.430862
O O3 0.473627 0.645368 0.518249
O O4 0.035835 0.672682 0.597742
O O5 0.860064 0.238289 0.114138
O O6 0.666625 0.993661 0.205887
O O7 0.896093 0.042150 0.360232
O O8 0.135389 0.095496 0.025756
O O9 0.570611 0.602698 0.755436
O O10 0.769969 0.667544 0.904546
O O11 0.817232 0.852427 0.616412
O O12 0.500000 0.000000 0.000000
O O13 0.731770 0.581965 0.207002
O O14 0.000000 0.500000 0.000000
#
# Coordination Sequence:
#
# PCOD9032992 Si02
#       7
#     2   2   2   2   2   1   2
#     4  11  23  41  65  95 126 163 221 264 318 382
#     4  10  23  44  66  93 135 169 213 280 311 391
#     4  11  23  41  66  92 130 168 211 268 318 388
#     4  11  23  42  68  97 128 171 221 264 330 381
#     4  11  23  42  65  93 126 170 214 266 319 382
#     4  10  22  44  64  94 134 170 216 262 332 380
#     4  11  22  44  63  93 131 168 213 262 330 384
#
# _framework density 23.234052999999999
#
# number of rings (size 3 to 8) (size 9 to 14) (size 15 to 20)
#    0.000    1.231    3.077    2.769    0.000    2.462 
#    8.308    4.615    0.000    0.000    0.000    0.000 
#    0.000    0.000    0.000    0.000    0.000    0.000 
#
# Total GULP energy -72407.401421 kJ/mol
# GULP energy per Si atom -5569.800109 kJ/mol
# Density = 2.318117 g / cm^3
# Si number density = 23.234053 Si / 1000 Ang^3
#
#
#
# Elastic Constant Matrix: (Units=GPa)
#
#
# Indices 1 2 3 4 5 6 
#
# 1 45.7371 17.4908 12.9692 -3.6471 5.4345 5.4116
# 2 17.4908 86.8057 26.9900 -23.4329 10.1168 4.8811
# 3 12.9692 26.9900 105.6327 -28.3024 16.6880 -12.0667
# 4 -3.6471 -23.4329 -28.3024 46.1985 -5.0593 5.3829
# 5 5.4345 10.1168 16.6880 -5.0593 30.2868 13.5337
# 6 5.4116 4.8811 -12.0667 5.3829 13.5337 33.4856
#
#
#
# Elastic Compliance Matrix: (Units=1/GPa)
#
#
# Indices 1 2 3 4 5 6 
#
# 1 0.024661 -0.004260 -0.002845 -0.001437 0.000224 -0.004250
# 2 -0.004260 0.014906 -0.001739 0.006373 -0.000965 -0.002746
# 3 -0.002845 -0.001739 0.014337 0.005545 -0.009898 0.008989
# 4 -0.001437 0.006373 0.005545 0.028813 0.001678 -0.004009
# 5 0.000224 -0.000965 -0.009898 0.001678 0.049673 -0.023808
# 6 -0.004250 -0.002746 0.008989 -0.004009 -0.023808 0.044457
#
#
# Mechanical properties :
#
#
# Convention : Reuss Voigt Hill
#
# Bulk Modulus (GPa) = 27.61221 39.23063 33.42142
# Shear Modulus (GPa) = 24.20047 34.04254 29.12151
#
# Velocity S-wave (km/s) = 3.23088 3.83195 3.54418
# Velocity P-wave (km/s) = 5.08215 6.04153 5.58249
#
# Compressibility (1/GPa) = 0.03621586
#
# Stress axis : x y z
#
# Youngs Moduli (GPa) = 40.54914 67.08551 69.75063
#
# Poissons Ratio (x) = 0.28575 0.19847
# Poissons Ratio (y) = 0.17272 0.12132
# Poissons Ratio (z) = 0.11538 0.11668
#
# Static dielectric constant tensor:
#      x y z
#    x 1.903630 -0.020190 -0.030230 
#    y -0.020190 1.936610 0.063350 
#    z -0.030230 0.063350 1.841330 
# 
# From -- ./inp_files/25596.got.cif
#   From: 2010.05.17/outbox.cif.g08.bks.cpg/sg2_13_cif.got.tgz:25596.got - 2010.06.03 11:33:40.
