data_PCOD9032307
_publ_section_title
;
Structure prediction by ZEFSAII (Michael W. Deem and Ramdas Pophale) SiO2 
 PCOD9032307
Probable space group: P -1
;
_chemical_formula_sum "Si O2"
_cell_formula_units_Z 14
_cell_length_a 10.027814
_cell_length_b 9.382531
_cell_length_c 10.975858
_cell_angle_alpha 80.576986
_cell_angle_beta 118.427503
_cell_angle_gamma 133.267875
_cell_volume 639.617374
_symmetry_space_group_name_H-M "P -1"
_symmetry_group_IT_number 2
_symmetry_cell_setting 'triclinic'
loop_
_space_group_symop_operation_xyz
x,y,z
-x,-y,-z
loop_
_atom_site_type_symbol
_atom_site_label
_atom_site_fract_x
_atom_site_fract_y
_atom_site_fract_z
Si Si1 0.807344 0.739926 0.182532
Si Si2 0.667443 0.494975 0.923956
Si Si3 0.713978 0.222010 0.099597
Si Si4 0.144216 0.112867 0.427451
Si Si5 0.787824 0.423463 0.355757
Si Si6 0.829358 0.582168 0.720036
Si Si7 0.543341 0.196984 0.514430
O O1 0.581072 0.655776 0.132712
O O2 0.832891 0.609833 0.290819
O O3 0.789911 0.684201 0.041850
O O4 0.995824 0.970551 0.268971
O O5 0.710487 0.548464 0.794802
O O6 0.737194 0.380437 0.005904
O O7 0.714051 0.273507 0.232940
O O8 0.921707 0.263910 0.168637
O O9 0.500000 0.000000 0.000000
O O10 0.211418 0.323358 0.412163
O O11 0.345024 0.141634 0.501184
O O12 0.000000 0.000000 0.500000
O O13 0.605069 0.304213 0.394986
O O14 0.000000 0.500000 0.500000
O O15 0.742787 0.371183 0.662620
O O16 0.500000 0.000000 0.500000
#
# Coordination Sequence:
#
# PCOD9032307 Si02
#       7
#     2   2   2   2   2   2   2
#     4  10  22  43  70  95 138 184 226 292 353 421
#     4  10  23  43  67  98 138 182 236 282 351 422
#     4  11  25  41  70  98 138 186 229 288 351 420
#     4  12  26  43  70 102 142 183 236 291 359 419
#     4  11  22  44  68  98 140 181 237 289 350 418
#     4  12  25  44  68 100 144 179 236 297 350 417
#     4  12  27  41  71 103 138 187 235 288 357 420
#
# _framework density 21.888086000000001
#
# number of rings (size 3 to 8) (size 9 to 14) (size 15 to 20)
#    0.000    0.857    1.429    5.143    6.000    1.714 
#    0.000    0.000    0.000    0.000    0.000    0.000 
#    0.000    0.000    0.000    0.000    0.000    0.000 
#
# Total GULP energy -78373.445852 kJ/mol
# GULP energy per Si atom -5598.103275 kJ/mol
# Density = 2.183827 g / cm^3
# Si number density = 21.888086 Si / 1000 Ang^3
#
#
#
# Elastic Constant Matrix: (Units=GPa)
#
#
# Indices 1 2 3 4 5 6 
#
# 1 96.2377 37.8239 16.4233 -11.1566 3.0736 1.6369
# 2 37.8239 84.0319 32.0696 15.5656 -12.9473 -10.7958
# 3 16.4233 32.0696 76.2763 9.3056 -3.9012 -2.3658
# 4 -11.1566 15.5656 9.3056 49.1277 3.5568 -4.4361
# 5 3.0736 -12.9473 -3.9012 3.5568 46.1560 -9.1070
# 6 1.6369 -10.7958 -2.3658 -4.4361 -9.1070 30.7962
#
#
#
# Elastic Compliance Matrix: (Units=1/GPa)
#
#
# Indices 1 2 3 4 5 6 
#
# 1 0.015032 -0.009074 -0.000594 0.006348 -0.004991 -0.004587
# 2 -0.009074 0.022132 -0.005665 -0.007797 0.008765 0.009275
# 3 -0.000594 -0.005665 0.015741 -0.001393 -0.000317 -0.001039
# 4 0.006348 -0.007797 -0.001393 0.024788 -0.004843 -0.001039
# 5 -0.004991 0.008765 -0.000317 -0.004843 0.026888 0.010567
# 6 -0.004587 0.009275 -0.001039 -0.001039 0.010567 0.038862
#
#
# Mechanical properties :
#
#
# Convention : Reuss Voigt Hill
#
# Bulk Modulus (GPa) = 44.96024 47.68661 46.32343
# Shear Modulus (GPa) = 27.54514 36.56457 32.05485
#
# Velocity S-wave (km/s) = 3.55132 4.09164 3.83102
# Velocity P-wave (km/s) = 6.11567 6.64499 6.38581
#
# Compressibility (1/GPa) = 0.02224187
#
# Stress axis : x y z
#
# Youngs Moduli (GPa) = 66.52618 45.18261 63.52798
#
# Poissons Ratio (x) = 0.40996 0.03771
# Poissons Ratio (y) = 0.60363 0.35986
# Poissons Ratio (z) = 0.03949 0.25594
#
# Static dielectric constant tensor:
#      x y z
#    x 1.790150 -0.012790 0.004860 
#    y -0.012790 1.783850 0.007510 
#    z 0.004860 0.007510 1.797110 
# 
# From -- ./inp_files/343369.got.cif
#   From: 2010.05.17/outbox.cif.g08.bks.cpg/sg2_172_cif.got.tgz:343369.got - 2010.06.03 11:33:40.
