data_PCOD9032810
_publ_section_title
;
Structure prediction by ZEFSAII (Michael W. Deem and Ramdas Pophale) SiO2 
 PCOD9032810
Probable space group: P -1
;
_chemical_formula_sum "Si O2"
_cell_formula_units_Z 16
_cell_length_a 7.003957
_cell_length_b 15.937101
_cell_length_c 8.429139
_cell_angle_alpha 47.864771
_cell_angle_beta 97.360961
_cell_angle_gamma 103.552128
_cell_volume 677.746063
_symmetry_space_group_name_H-M "P -1"
_symmetry_group_IT_number 2
_symmetry_cell_setting 'triclinic'
loop_
_space_group_symop_operation_xyz
x,y,z
-x,-y,-z
loop_
_atom_site_type_symbol
_atom_site_label
_atom_site_fract_x
_atom_site_fract_y
_atom_site_fract_z
Si Si1 0.599524 0.043779 0.119186
Si Si2 0.633299 0.791233 0.469044
Si Si3 0.694677 0.984832 0.635903
Si Si4 0.310338 0.591553 0.807412
Si Si5 0.049834 0.758016 0.654131
Si Si6 0.352880 0.309977 0.725157
Si Si7 0.019716 0.186619 0.076603
Si Si8 0.437647 0.520510 0.238643
O O1 0.637704 0.922073 0.346571
O O2 0.422418 0.081844 0.144253
O O3 0.809157 0.127997 0.053319
O O4 0.500000 0.000000 0.000000
O O5 0.492255 0.702055 0.679195
O O6 0.574257 0.763733 0.314358
O O7 0.848584 0.768347 0.539332
O O8 0.806538 0.116470 0.511514
O O9 0.500000 0.000000 0.500000
O O10 0.860776 0.909200 0.718370
O O11 0.128258 0.653812 0.713463
O O12 0.361181 0.514894 0.763675
O O13 0.319229 0.527050 0.056354
O O14 0.019251 0.742535 0.860734
O O15 0.337849 0.425098 0.474929
O O16 0.508781 0.358880 0.817088
O O17 0.154346 0.254037 0.866710
#
# Coordination Sequence:
#
# PCOD9032810 Si02
#       8
#     2   2   2   2   2   2   2   2
#     4  12  26  41  65  99 144 188 222 270 339 411
#     4  11  23  42  65 102 134 177 224 280 331 408
#     4  12  24  42  66  99 140 186 227 273 330 407
#     4  10  22  43  75  96 128 174 230 286 342 394
#     4  12  24  40  69  99 135 176 229 276 334 400
#     4  10  23  42  69  94 136 177 215 281 351 397
#     4  12  26  43  66 104 144 182 226 278 336 411
#     4   9  21  47  71  98 128 175 231 291 344 400
#
# _framework density 23.607662000000001
#
# number of rings (size 3 to 8) (size 9 to 14) (size 15 to 20)
#    0.000    1.000    3.750    2.625    3.500    2.000 
#    0.000   13.750    0.000    0.000    0.000    0.000 
#    0.000    0.000    0.000    0.000    0.000    0.000 
#
# Total GULP energy -89332.083190 kJ/mol
# GULP energy per Si atom -5583.255199 kJ/mol
# Density = 2.355393 g / cm^3
# Si number density = 23.607662 Si / 1000 Ang^3
#
#
#
# Elastic Constant Matrix: (Units=GPa)
#
#
# Indices 1 2 3 4 5 6 
#
# 1 111.0085 23.2360 15.0637 5.0145 4.0251 -11.8605
# 2 23.2360 82.3374 4.7275 5.5562 -3.5712 -8.7722
# 3 15.0637 4.7275 98.9226 5.4069 -18.1075 1.7150
# 4 5.0145 5.5562 5.4069 32.8030 7.6653 6.8948
# 5 4.0251 -3.5712 -18.1075 7.6653 35.5125 -7.5752
# 6 -11.8605 -8.7722 1.7150 6.8948 -7.5752 35.7014
#
#
#
# Elastic Compliance Matrix: (Units=1/GPa)
#
#
# Indices 1 2 3 4 5 6 
#
# 1 0.010147 -0.002461 -0.001676 -0.001105 -0.001425 0.002758
# 2 -0.002461 0.013636 0.000505 -0.003681 0.003550 0.003973
# 3 -0.001676 0.000505 0.011877 -0.003787 0.007391 0.001296
# 4 -0.001105 -0.003681 -0.003787 0.037120 -0.012516 -0.010914
# 5 -0.001425 0.003550 0.007391 -0.012516 0.037364 0.010389
# 6 0.002758 0.003973 0.001296 -0.010914 0.010389 0.034152
#
#
# Mechanical properties :
#
#
# Convention : Reuss Voigt Hill
#
# Bulk Modulus (GPa) = 35.21424 42.03588 38.62506
# Shear Modulus (GPa) = 31.05088 37.41946 34.23517
#
# Velocity S-wave (km/s) = 3.63062 3.98559 3.81224
# Velocity P-wave (km/s) = 5.70299 6.24697 5.98117
#
# Compressibility (1/GPa) = 0.02839760
#
# Stress axis : x y z
#
# Youngs Moduli (GPa) = 98.55077 73.33385 84.19410
#
# Poissons Ratio (x) = 0.18046 0.14110
# Poissons Ratio (y) = 0.24251 -0.04253
# Poissons Ratio (z) = 0.16516 -0.03705
#
# Static dielectric constant tensor:
#      x y z
#    x 1.853980 -0.025270 0.023940 
#    y -0.025270 1.926100 0.010480 
#    z 0.023940 0.010480 1.979360 
# 
# From -- ./inp_files/138561.got.cif
#   From: 2010.05.17/outbox.cif.g08.bks.cpg/sg2_70_cif.got.tgz:138561.got - 2010.06.03 11:33:40.
