data_PCOD9032226
_publ_section_title
;
Structure prediction by ZEFSAII (Michael W. Deem and Ramdas Pophale) SiO2 
 PCOD9032226
Probable space group: P -1
;
_chemical_formula_sum "Si O2"
_cell_formula_units_Z 16
_cell_length_a 14.934731
_cell_length_b 5.453478
_cell_length_c 13.580635
_cell_angle_alpha 70.703700
_cell_angle_beta 139.253530
_cell_angle_gamma 92.727543
_cell_volume 643.434748
_symmetry_space_group_name_H-M "P -1"
_symmetry_group_IT_number 2
_symmetry_cell_setting 'triclinic'
loop_
_space_group_symop_operation_xyz
x,y,z
-x,-y,-z
loop_
_atom_site_type_symbol
_atom_site_label
_atom_site_fract_x
_atom_site_fract_y
_atom_site_fract_z
Si Si1 0.326450 0.898980 0.510933
Si Si2 0.306188 0.867235 0.725849
Si Si3 0.093491 0.199119 0.656186
Si Si4 0.655567 0.675046 0.853683
Si Si5 0.882782 0.552567 0.807934
Si Si6 0.382468 0.276653 0.954533
Si Si7 0.070133 0.745087 0.289154
Si Si8 0.806232 0.148211 0.918104
O O1 0.243118 0.157864 0.339959
O O2 0.297218 0.965070 0.593849
O O3 0.497516 0.791044 0.656673
O O4 0.241097 0.685188 0.448947
O O5 0.351680 0.538203 0.821741
O O6 0.156124 0.001717 0.641486
O O7 0.449803 0.919694 0.882974
O O8 0.247368 0.172994 0.838929
O O9 0.000000 0.500000 0.500000
O O10 0.994746 0.171384 0.667924
O O11 0.734924 0.385274 0.906773
O O12 0.731977 0.911507 0.879296
O O13 0.635512 0.624283 0.959335
O O14 0.951042 0.500392 0.761663
O O15 0.808902 0.319041 0.799585
O O16 0.000000 0.500000 0.000000
O O17 0.971484 0.000265 0.109304
#
# Coordination Sequence:
#
# PCOD9032226 Si02
#       8
#     2   2   2   2   2   2   2   2
#     4  11  27  47  72 108 151 191 249 314 373 445
#     4  10  23  44  68 104 145 193 241 297 373 441
#     4  12  24  39  69 106 145 188 245 298 366 447
#     4  11  27  48  76 115 148 197 249 317 372 447
#     4  12  27  47  76 106 148 198 252 314 381 441
#     4  10  22  43  70 101 145 195 240 297 368 445
#     4  12  26  45  73 107 146 196 249 308 374 451
#     4  12  26  48  78 105 146 197 256 304 377 443
#
# _framework density 24.866546
#
# number of rings (size 3 to 8) (size 9 to 14) (size 15 to 20)
#    0.000    0.750    2.500    3.750    3.500    5.000 
#    4.500    0.000    0.000    0.000    0.000    0.000 
#    0.000    0.000    0.000    0.000    0.000    0.000 
#
# Total GULP energy -89420.142339 kJ/mol
# GULP energy per Si atom -5588.758896 kJ/mol
# Density = 2.480995 g / cm^3
# Si number density = 24.866546 Si / 1000 Ang^3
#
#
#
# Elastic Constant Matrix: (Units=GPa)
#
#
# Indices 1 2 3 4 5 6 
#
# 1 75.4612 21.4727 13.0983 3.0516 5.2556 -5.2273
# 2 21.4727 83.3974 33.8354 3.9361 12.1577 -1.7136
# 3 13.0983 33.8354 134.1813 4.5962 11.7430 6.2946
# 4 3.0516 3.9361 4.5962 42.6373 4.9272 5.8379
# 5 5.2556 12.1577 11.7430 4.9272 46.2727 -0.8195
# 6 -5.2273 -1.7136 6.2946 5.8379 -0.8195 44.6174
#
#
#
# Elastic Compliance Matrix: (Units=1/GPa)
#
#
# Indices 1 2 3 4 5 6 
#
# 1 0.014496 -0.003348 -0.000580 -0.000848 -0.000498 0.001753
# 2 -0.003348 0.014535 -0.003124 -0.000554 -0.002576 0.000632
# 3 -0.000580 -0.003124 0.008481 -0.000250 -0.001263 -0.001375
# 4 -0.000848 -0.000554 -0.000250 0.024316 -0.002342 -0.003310
# 5 -0.000498 -0.002576 -0.001263 -0.002342 0.022928 0.000749
# 6 0.001753 0.000632 -0.001375 -0.003310 0.000749 0.023283
#
#
# Mechanical properties :
#
#
# Convention : Reuss Voigt Hill
#
# Bulk Modulus (GPa) = 42.72235 47.76141 45.24188
# Shear Modulus (GPa) = 38.47793 41.68105 40.07949
#
# Velocity S-wave (km/s) = 3.93794 4.09857 4.01906
# Velocity P-wave (km/s) = 6.15585 6.45341 6.30638
#
# Compressibility (1/GPa) = 0.02340695
#
# Stress axis : x y z
#
# Youngs Moduli (GPa) = 68.98569 68.80076 117.91750
#
# Poissons Ratio (x) = 0.23036 0.06843
# Poissons Ratio (y) = 0.23097 0.36832
# Poissons Ratio (z) = 0.04004 0.21490
#
# Static dielectric constant tensor:
#      x y z
#    x 2.128450 -0.032840 -0.017600 
#    y -0.032840 2.107950 0.059110 
#    z -0.017600 0.059110 1.917430 
# 
# From -- ./inp_files/116883.got.cif
#   From: 2010.05.17/outbox.cif.g08.bks.cpg/sg2_59_cif.got.tgz:116883.got - 2010.06.03 11:33:40.
