data_PCOD9032863
_publ_section_title
;
Structure prediction by ZEFSAII (Michael W. Deem and Ramdas Pophale) SiO2 
 PCOD9032863
Probable space group: P -1
;
_chemical_formula_sum "Si O2"
_cell_formula_units_Z 12
_cell_length_a 6.785004
_cell_length_b 19.673554
_cell_length_c 17.896931
_cell_angle_alpha 21.422435
_cell_angle_beta 132.311708
_cell_angle_gamma 127.667006
_cell_volume 644.171567
_symmetry_space_group_name_H-M "P -1"
_symmetry_group_IT_number 2
_symmetry_cell_setting 'triclinic'
loop_
_space_group_symop_operation_xyz
x,y,z
-x,-y,-z
loop_
_atom_site_type_symbol
_atom_site_label
_atom_site_fract_x
_atom_site_fract_y
_atom_site_fract_z
Si Si1 0.468295 0.360212 0.738446
Si Si2 0.069093 0.952832 0.844599
Si Si3 0.129619 0.359843 0.507852
Si Si4 0.900372 0.298502 0.162844
Si Si5 0.674596 0.662413 0.101766
Si Si6 0.183542 0.007912 0.423430
O O1 0.227098 0.369273 0.608818
O O2 0.647490 0.536083 0.588718
O O3 0.379025 0.353033 0.808182
O O4 0.660298 0.178383 0.954381
O O5 0.108720 0.149984 0.690842
O O6 0.964910 0.982713 0.703082
O O7 0.849663 0.837931 0.949256
O O8 0.852173 0.481088 0.305467
O O9 0.893558 0.170593 0.365676
O O10 0.088757 0.187759 0.264216
O O11 0.604178 0.315983 0.034732
O O12 0.000000 0.500000 0.000000
O O13 0.500000 0.000000 0.500000
#
# Coordination Sequence:
#
# PCOD9032863 Si02
#       6
#     2   2   2   2   2   2
#     4  10  22  44  60  91 127 155 207 251 293 362
#     4  11  23  40  64  91 124 161 199 250 304 355
#     4  10  24  39  66  90 120 165 200 248 307 355
#     4  11  26  41  64  91 121 162 202 249 304 357
#     4  11  23  40  61  93 124 155 206 251 295 365
#     4  11  24  43  61  90 125 155 205 252 296 367
#
# _framework density 18.628578000000001
#
# number of rings (size 3 to 8) (size 9 to 14) (size 15 to 20)
#    0.000    1.333    3.333    1.000    4.667    2.667 
#    0.000    0.000    0.000    0.000    0.000    0.000 
#    0.000    0.000    0.000    0.000    0.000    0.000 
#
# Total GULP energy -67095.528195 kJ/mol
# GULP energy per Si atom -5591.294016 kJ/mol
# Density = 1.858618 g / cm^3
# Si number density = 18.628578 Si / 1000 Ang^3
#
#
#
# Elastic Constant Matrix: (Units=GPa)
#
#
# Indices 1 2 3 4 5 6 
#
# 1 63.7161 26.4975 21.1526 -8.6970 -11.8233 4.2651
# 2 26.4975 42.4746 43.9610 -19.3277 0.4421 1.8614
# 3 21.1526 43.9610 91.9109 -15.3725 -2.0875 1.2336
# 4 -8.6970 -19.3277 -15.3725 50.6985 -7.5001 4.5388
# 5 -11.8233 0.4421 -2.0875 -7.5001 37.1882 20.8510
# 6 4.2651 1.8614 1.2336 4.5388 20.8510 18.1882
#
#
#
# Elastic Compliance Matrix: (Units=1/GPa)
#
#
# Indices 1 2 3 4 5 6 
#
# 1 0.049580 -0.023165 0.007214 0.024524 0.084778 -0.113054
# 2 -0.023165 0.070298 -0.027168 0.010470 -0.017339 0.017345
# 3 0.007214 -0.027168 0.022883 0.001055 0.012657 -0.015236
# 4 0.024524 0.010470 0.001055 0.050125 0.080397 -0.111569
# 5 0.084778 -0.017339 0.012657 0.080397 0.259939 -0.337022
# 6 -0.113054 0.017345 -0.015236 -0.111569 -0.337022 0.494954
#
#
# Mechanical properties :
#
#
# Convention : Reuss Voigt Hill
#
# Bulk Modulus (GPa) = 17.69184 42.36929 30.03057
# Shear Modulus (GPa) = 4.74899 28.31436 16.53167
#
# Velocity S-wave (km/s) = 1.59839 3.90287 2.98222
# Velocity P-wave (km/s) = 3.59503 6.56533 5.29281
#
# Compressibility (1/GPa) = 0.05652322
#
# Stress axis : x y z
#
# Youngs Moduli (GPa) = 20.16946 14.22521 43.70145
#
# Poissons Ratio (x) = 0.32953 -0.31526
# Poissons Ratio (y) = 0.46722 1.18726
# Poissons Ratio (z) = -0.14550 0.38646
#
# Static dielectric constant tensor:
#      x y z
#    x 1.623560 0.008760 0.001860 
#    y 0.008760 1.596380 0.016450 
#    z 0.001860 0.016450 1.632870 
# 
# From -- ./inp_files/4716.got.cif
#   From: 2010.05.17/outbox.cif.g08.bks.cpg/sg2_3_cif.got.tgz:4716.got - 2010.06.03 11:33:40.
