data_PCOD9032704
_publ_section_title
;
Structure prediction by ZEFSAII (Michael W. Deem and Ramdas Pophale) SiO2 
 PCOD9032704
Probable space group: P -1
;
_chemical_formula_sum "Si O2"
_cell_formula_units_Z 14
_cell_length_a 9.693081
_cell_length_b 12.994930
_cell_length_c 19.275306
_cell_angle_alpha 28.532253
_cell_angle_beta 149.519933
_cell_angle_gamma 138.358135
_cell_volume 587.766478
_symmetry_space_group_name_H-M "P -1"
_symmetry_group_IT_number 2
_symmetry_cell_setting 'triclinic'
loop_
_space_group_symop_operation_xyz
x,y,z
-x,-y,-z
loop_
_atom_site_type_symbol
_atom_site_label
_atom_site_fract_x
_atom_site_fract_y
_atom_site_fract_z
Si Si1 0.918371 0.308298 0.129328
Si Si2 0.413121 0.048609 0.011895
Si Si3 0.859937 0.291122 0.592727
Si Si4 0.740849 0.525427 0.534268
Si Si5 0.952004 0.189680 0.920912
Si Si6 0.363066 0.383831 0.073241
Si Si7 0.811049 0.147242 0.505144
O O1 0.635250 0.202378 0.047603
O O2 0.848547 0.437374 0.092368
O O3 0.131295 0.103456 0.341935
O O4 0.000000 0.500000 0.000000
O O5 0.337650 0.840752 0.147712
O O6 0.117811 0.164520 0.812257
O O7 0.500000 0.000000 0.000000
O O8 0.675295 0.384046 0.520697
O O9 0.757207 0.171060 0.550583
O O10 0.000000 0.500000 0.500000
O O11 0.500000 0.500000 0.500000
O O12 0.968475 0.397551 0.756208
O O13 0.903278 0.735089 0.456706
O O14 0.185324 0.198039 0.074186
O O15 0.000000 0.000000 0.000000
O O16 0.573533 0.275911 0.283640
O O17 0.500000 0.500000 0.000000
#
# Coordination Sequence:
#
# PCOD9032704 Si02
#       7
#     2   2   2   2   2   2   2
#     4  12  27  49  76 115 153 202 258 316 394 463
#     4  12  23  45  75 106 150 195 251 314 371 461
#     4  10  22  43  73 108 149 198 250 314 384 453
#     4  11  23  44  75 116 148 196 260 315 382 461
#     4  12  25  48  77 108 148 205 254 313 389 453
#     4  12  27  52  76 107 161 202 255 325 390 462
#     4  11  25  52  74 109 159 203 252 320 393 459
#
# _framework density 23.818982999999999
#
# number of rings (size 3 to 8) (size 9 to 14) (size 15 to 20)
#    0.000    0.571    4.286    4.286    2.000    1.143 
#    7.714    0.000    0.000    0.000    0.000    0.000 
#    0.000    0.000    0.000    0.000    0.000    0.000 
#
# Total GULP energy -78226.358878 kJ/mol
# GULP energy per Si atom -5587.597063 kJ/mol
# Density = 2.376477 g / cm^3
# Si number density = 23.818983 Si / 1000 Ang^3
#
#
#
# Elastic Constant Matrix: (Units=GPa)
#
#
# Indices 1 2 3 4 5 6 
#
# 1 205.6934 49.8392 33.5024 -15.6570 0.9438 -14.6951
# 2 49.8392 114.2727 33.5460 9.2296 10.4934 -0.0165
# 3 33.5024 33.5460 94.0654 -14.1285 -8.6303 -3.4453
# 4 -15.6570 9.2296 -14.1285 44.7397 -0.7446 -4.0204
# 5 0.9438 10.4934 -8.6303 -0.7446 42.3668 -12.5564
# 6 -14.6951 -0.0165 -3.4453 -4.0204 -12.5564 53.4387
#
#
#
# Elastic Compliance Matrix: (Units=1/GPa)
#
#
# Indices 1 2 3 4 5 6 
#
# 1 0.005967 -0.002753 -0.000565 0.002681 0.001092 0.002062
# 2 -0.002753 0.012192 -0.004691 -0.005271 -0.004769 -0.002573
# 3 -0.000565 -0.004691 0.013839 0.005423 0.004759 0.002262
# 4 0.002681 -0.005271 0.005423 0.026518 0.004008 0.004022
# 5 0.001092 -0.004769 0.004759 0.004008 0.028020 0.007491
# 6 0.002062 -0.002573 0.002262 0.004022 0.007491 0.021488
#
#
# Mechanical properties :
#
#
# Convention : Reuss Voigt Hill
#
# Bulk Modulus (GPa) = 62.57766 71.97851 67.27808
# Shear Modulus (GPa) = 38.64921 47.91864 43.28393
#
# Velocity S-wave (km/s) = 4.03255 4.49016 4.26749
# Velocity P-wave (km/s) = 6.92901 7.56086 7.25182
#
# Compressibility (1/GPa) = 0.01598014
#
# Stress axis : x y z
#
# Youngs Moduli (GPa) = 167.58524 82.02031 72.25994
#
# Poissons Ratio (x) = 0.22582 0.04082
# Poissons Ratio (y) = 0.46140 0.33896
# Poissons Ratio (z) = 0.09467 0.38474
#
# Static dielectric constant tensor:
#      x y z
#    x 2.073030 0.133670 -0.455360 
#    y 0.133670 2.007340 -0.378280 
#    z -0.455360 -0.378280 3.519530 
# 
# From -- ./inp_files/559618.got.cif
#   From: 2010.05.17/outbox.cif.g08.bks.cpg/sg2_280_cif.got.tgz:559618.got - 2010.06.03 11:33:40.
