data_PCOD9032534
_publ_section_title
;
Structure prediction by ZEFSAII (Michael W. Deem and Ramdas Pophale) SiO2 
 PCOD9032534
Probable space group: P -1
;
_chemical_formula_sum "Si O2"
_cell_formula_units_Z 14
_cell_length_a 25.286344
_cell_length_b 5.578896
_cell_length_c 15.235665
_cell_angle_alpha 120.082844
_cell_angle_beta 18.529359
_cell_angle_gamma 122.496823
_cell_volume 575.811509
_symmetry_space_group_name_H-M "P -1"
_symmetry_group_IT_number 2
_symmetry_cell_setting 'triclinic'
loop_
_space_group_symop_operation_xyz
x,y,z
-x,-y,-z
loop_
_atom_site_type_symbol
_atom_site_label
_atom_site_fract_x
_atom_site_fract_y
_atom_site_fract_z
Si Si1 0.543909 0.705292 0.604044
Si Si2 0.915412 0.925502 0.777204
Si Si3 0.785738 0.097748 0.587761
Si Si4 0.689214 0.616683 0.935175
Si Si5 0.405692 0.496512 0.239958
Si Si6 0.743412 0.425366 0.095320
Si Si7 0.847103 0.128699 0.303245
O O1 0.654949 0.551682 0.337442
O O2 0.406363 0.776628 0.764217
O O3 0.680338 0.911843 0.487512
O O4 0.424462 0.505250 0.824562
O O5 0.861428 0.794532 0.741624
O O6 0.111757 0.002050 0.511462
O O7 0.833592 0.681948 0.934239
O O8 0.850874 0.215534 0.928892
O O9 0.735524 0.371238 0.757151
O O10 0.888654 0.164187 0.347567
O O11 0.638987 0.840696 0.735092
O O12 0.547156 0.706322 0.114045
O O13 0.222805 0.584031 0.553209
O O14 0.500000 0.500000 0.000000
O O15 0.000000 0.000000 0.000000
#
# Coordination Sequence:
#
# PCOD9032534 Si02
#       7
#     2   2   2   2   2   2   2
#     4  10  22  43  72 100 144 189 253 292 369 436
#     4  11  26  45  75 105 150 187 248 301 382 420
#     4  12  26  45  68 106 148 182 245 311 366 435
#     4  11  23  47  71 103 137 199 245 299 362 451
#     4  12  25  45  77 100 145 193 243 301 368 442
#     4  10  24  46  72 105 144 194 242 309 357 449
#     4  12  26  43  70 107 145 189 243 304 375 432
#
# _framework density 24.313511999999999
#
# number of rings (size 3 to 8) (size 9 to 14) (size 15 to 20)
#    0.000    0.857    2.857    3.429    4.000    9.143 
#    0.000    4.286    0.000    0.000    0.000    0.000 
#    0.000    0.000    0.000    0.000    0.000    0.000 
#
# Total GULP energy -78011.358548 kJ/mol
# GULP energy per Si atom -5572.239896 kJ/mol
# Density = 2.425817 g / cm^3
# Si number density = 24.313512 Si / 1000 Ang^3
#
#
#
# Elastic Constant Matrix: (Units=GPa)
#
#
# Indices 1 2 3 4 5 6 
#
# 1 147.6661 25.5807 40.4156 1.8508 -17.6477 26.3189
# 2 25.5807 81.8506 30.4547 3.9053 6.7230 13.4280
# 3 40.4156 30.4547 77.5225 8.8529 -14.7088 -24.7408
# 4 1.8508 3.9053 8.8529 21.3531 -3.3175 -23.2374
# 5 -17.6477 6.7230 -14.7088 -3.3175 56.7944 2.1426
# 6 26.3189 13.4280 -24.7408 -23.2374 2.1426 34.0255
#
#
#
# Elastic Compliance Matrix: (Units=1/GPa)
#
#
# Indices 1 2 3 4 5 6 
#
# 1 0.002588 -0.008509 0.007172 0.022868 0.004177 0.021926
# 2 -0.008509 0.006397 0.007520 0.026214 -0.000959 0.027488
# 3 0.007172 0.007520 -0.001820 -0.046630 -0.000285 -0.041666
# 4 0.022868 0.026214 -0.046630 -0.033539 -0.006848 -0.084414
# 5 0.004177 -0.000959 -0.000285 -0.006848 0.018882 -0.008926
# 6 0.021926 0.027488 -0.041666 -0.084414 -0.008926 -0.085802
#
#
# Mechanical properties :
#
#
# Convention : Reuss Voigt Hill
#
# Bulk Modulus (GPa) = 51.20084 55.54904 53.37494
# Shear Modulus (GPa) = -50.42821 36.47381 -6.97720
#
# Velocity S-wave (km/s) = -4.55915 3.87737 -1.69585
# Velocity P-wave (km/s) = 2.57102 6.55301 4.26215
#
# Compressibility (1/GPa) = 0.01953093
#
# Stress axis : x y z
#
# Youngs Moduli (GPa) = 386.45546 156.31446 -549.31797
#
# Poissons Ratio (x) = 1.33004 3.93989
# Poissons Ratio (y) = 3.28824 4.13064
# Poissons Ratio (z) = -2.77179 -1.17542
#
# Static dielectric constant tensor:
#      x y z
#    x 1.922940 -0.058710 -0.017920 
#    y -0.058710 2.058750 -0.049260 
#    z -0.017920 -0.049260 2.021040 
# 
# From -- ./inp_files/68898.got.cif
#   From: 2010.05.17/outbox.cif.g08.bks.cpg/sg2_35_cif.got.tgz:68898.got - 2010.06.03 11:33:40.
