data_PCOD9032304
_publ_section_title
;
Structure prediction by ZEFSAII (Michael W. Deem and Ramdas Pophale) SiO2 
 PCOD9032304
Probable space group: P -1
;
_chemical_formula_sum "Si O2"
_cell_formula_units_Z 16
_cell_length_a 11.797295
_cell_length_b 15.120419
_cell_length_c 9.606568
_cell_angle_alpha 36.338685
_cell_angle_beta 138.351966
_cell_angle_gamma 120.436356
_cell_volume 654.721259
_symmetry_space_group_name_H-M "P -1"
_symmetry_group_IT_number 2
_symmetry_cell_setting 'triclinic'
loop_
_space_group_symop_operation_xyz
x,y,z
-x,-y,-z
loop_
_atom_site_type_symbol
_atom_site_label
_atom_site_fract_x
_atom_site_fract_y
_atom_site_fract_z
Si Si1 0.666811 0.396422 0.714317
Si Si2 0.728927 0.091320 0.298568
Si Si3 0.844916 0.815634 0.571329
Si Si4 0.095346 0.604710 0.268352
Si Si5 0.175037 0.599658 0.658873
Si Si6 0.440567 0.326187 0.363152
Si Si7 0.036268 0.122579 0.698601
Si Si8 0.434720 0.973481 0.320542
O O1 0.500000 0.500000 0.500000
O O2 0.786088 0.491921 0.623780
O O3 0.605580 0.315555 0.626792
O O4 0.734680 0.265527 0.054987
O O5 0.539624 0.073439 0.196833
O O6 0.889004 0.032891 0.628301
O O7 0.770649 0.991737 0.323496
O O8 0.701127 0.724330 0.600848
O O9 0.902001 0.805813 0.477178
O O10 0.004725 0.751847 0.905934
O O11 0.182536 0.628438 0.464719
O O12 0.944691 0.521529 0.277024
O O13 0.071430 0.750726 0.453590
O O14 0.360053 0.500709 0.015452
O O15 0.488019 0.201144 0.441984
O O16 0.223262 0.023858 0.052945
O O17 0.500000 0.000000 0.500000
#
# Coordination Sequence:
#
# PCOD9032304 Si02
#       8
#     2   2   2   2   2   2   2   2
#     4  12  25  40  70 106 137 180 234 296 346 415
#     4  11  25  45  67 104 141 176 237 291 350 416
#     4  10  22  43  70  95 135 180 229 287 345 414
#     4  10  24  42  68  92 140 176 228 282 348 410
#     4  10  25  44  67  98 137 189 228 279 352 426
#     4  10  24  44  66  98 144 184 227 287 365 406
#     4  12  24  42  76 101 132 189 237 283 352 419
#     4  11  28  45  70 103 144 184 231 295 351 419
#
# _framework density 24.437882999999999
#
# number of rings (size 3 to 8) (size 9 to 14) (size 15 to 20)
#    0.000    1.250    1.250    2.625   12.250    5.000 
#    0.000    0.000    0.000    0.000    0.000    0.000 
#    0.000    0.000    0.000    0.000    0.000    0.000 
#
# Total GULP energy -89392.527064 kJ/mol
# GULP energy per Si atom -5587.032941 kJ/mol
# Density = 2.438226 g / cm^3
# Si number density = 24.437883 Si / 1000 Ang^3
#
#
#
# Elastic Constant Matrix: (Units=GPa)
#
#
# Indices 1 2 3 4 5 6 
#
# 1 112.7939 10.0958 51.4490 -9.2056 -1.4707 -26.0752
# 2 10.0958 44.7821 11.2720 5.1067 2.6731 -18.1386
# 3 51.4490 11.2720 91.8488 10.3209 11.6268 -8.8858
# 4 -9.2056 5.1067 10.3209 25.9180 2.0218 9.3746
# 5 -1.4707 2.6731 11.6268 2.0218 34.2363 4.4797
# 6 -26.0752 -18.1386 -8.8858 9.3746 4.4797 43.8383
#
#
#
# Elastic Compliance Matrix: (Units=1/GPa)
#
#
# Indices 1 2 3 4 5 6 
#
# 1 0.014649 0.000181 -0.008759 0.006520 0.002503 0.005363
# 2 0.000181 0.029973 -0.000687 -0.010731 -0.003430 0.015016
# 3 -0.008759 -0.000687 0.017820 -0.009916 -0.005899 0.000841
# 4 0.006520 -0.010731 -0.009916 0.051763 0.003257 -0.013974
# 5 0.002503 -0.003430 -0.005899 0.003257 0.032062 -0.005099
# 6 0.005363 0.015016 0.000841 -0.013974 -0.005099 0.035894
#
#
# Mechanical properties :
#
#
# Convention : Reuss Voigt Hill
#
# Bulk Modulus (GPa) = 22.77214 43.89536 33.33375
# Shear Modulus (GPa) = 23.22043 32.57237 27.89640
#
# Velocity S-wave (km/s) = 3.08585 3.65480 3.38231
# Velocity P-wave (km/s) = 4.69417 5.98424 5.37803
#
# Compressibility (1/GPa) = 0.04391331
#
# Stress axis : x y z
#
# Youngs Moduli (GPa) = 68.26334 33.36355 56.11582
#
# Poissons Ratio (x) = -0.00605 0.49150
# Poissons Ratio (y) = -0.01238 0.03857
# Poissons Ratio (z) = 0.59789 0.02293
#
# Static dielectric constant tensor:
#      x y z
#    x 2.094160 0.056450 0.087240 
#    y 0.056450 1.929110 0.032370 
#    z 0.087240 0.032370 2.025350 
# 
# From -- ./inp_files/271641.got.cif
#   From: 2010.05.17/outbox.cif.g08.bks.cpg/sg2_136_cif.got.tgz:271641.got - 2010.06.03 11:33:40.
