data_PCOD9032362
_publ_section_title
;
Structure prediction by ZEFSAII (Michael W. Deem and Ramdas Pophale) SiO2 
 PCOD9032362
Probable space group: P -1
;
_chemical_formula_sum "Si O2"
_cell_formula_units_Z 15
_cell_length_a 9.858918
_cell_length_b 9.769491
_cell_length_c 9.766485
_cell_angle_alpha 135.634805
_cell_angle_beta 88.987823
_cell_angle_gamma 92.828904
_cell_volume 656.736613
_symmetry_space_group_name_H-M "P -1"
_symmetry_group_IT_number 2
_symmetry_cell_setting 'triclinic'
loop_
_space_group_symop_operation_xyz
x,y,z
-x,-y,-z
loop_
_atom_site_type_symbol
_atom_site_label
_atom_site_fract_x
_atom_site_fract_y
_atom_site_fract_z
Si Si1 0.784069 0.644373 0.361401
Si Si2 0.677321 0.476773 0.536084
Si Si3 0.366575 0.971137 0.388240
Si Si4 0.663959 0.465196 0.973812
Si Si5 0.254750 0.231392 0.031184
Si Si6 0.044381 0.685050 0.537999
Si Si7 0.465745 0.924834 0.796668
Si Si8 0.000000 0.000000 0.000000
O O1 0.725739 0.575069 0.461789
O O2 0.945802 0.669080 0.397618
O O3 0.730954 0.852508 0.463255
O O4 0.724278 0.487039 0.140850
O O5 0.656574 0.642243 0.767384
O O6 0.798477 0.353251 0.510911
O O7 0.562395 0.306632 0.388964
O O8 0.313537 0.747826 0.240582
O O9 0.416772 0.997819 0.250556
O O10 0.500000 0.000000 0.500000
O O11 0.744537 0.628690 0.999110
O O12 0.500000 0.500000 0.000000
O O13 0.331395 0.040215 0.849107
O O14 0.115243 0.166159 0.061316
O O15 0.000000 0.500000 0.500000
O O16 0.018473 0.875104 0.765707
O O17 0.500000 0.000000 0.000000
#
# Coordination Sequence:
#
# PCOD9032362 Si02
#       8
#     2   2   2   2   2   2   2   1
#     4  11  24  43  69 104 139 183 236 287 347 419
#     4  11  24  43  72 102 139 181 238 294 350 405
#     4  12  24  43  68  96 142 189 224 276 352 423
#     4  12  25  46  68  98 149 186 228 282 352 424
#     4  12  25  44  71 101 136 187 231 294 350 410
#     4  10  22  43  70  99 137 179 234 295 343 405
#     4  12  25  38  67 108 136 178 232 289 356 414
#     4  12  22  44  74 100 136 178 242 290 356 394
#
# _framework density 22.840206999999999
#
# number of rings (size 3 to 8) (size 9 to 14) (size 15 to 20)
#    0.000    0.533    6.667    2.400    0.000    3.200 
#    0.000    1.333    0.000    0.000    0.000    0.000 
#    0.000    0.000    0.000    0.000    0.000    0.000 
#
# Total GULP energy -83612.891103 kJ/mol
# GULP energy per Si atom -5574.192740 kJ/mol
# Density = 2.278822 g / cm^3
# Si number density = 22.840207 Si / 1000 Ang^3
#
#
#
# Elastic Constant Matrix: (Units=GPa)
#
#
# Indices 1 2 3 4 5 6 
#
# 1 78.2022 20.6803 8.5649 5.5294 14.0420 -10.7765
# 2 20.6803 88.5912 21.7803 19.6173 5.7308 -3.5875
# 3 8.5649 21.7803 135.4619 16.0086 17.1025 -17.3326
# 4 5.5294 19.6173 16.0086 48.3170 -2.6722 1.4501
# 5 14.0420 5.7308 17.1025 -2.6722 29.3437 -9.6547
# 6 -10.7765 -3.5875 -17.3326 1.4501 -9.6547 41.3141
#
#
#
# Elastic Compliance Matrix: (Units=1/GPa)
#
#
# Indices 1 2 3 4 5 6 
#
# 1 0.015056 -0.002922 0.000795 -0.001229 -0.006366 0.002562
# 2 -0.002922 0.013390 -0.001319 -0.004711 -0.000946 -0.000208
# 3 0.000795 -0.001319 0.008817 -0.002815 -0.004591 0.002818
# 4 -0.001229 -0.004711 -0.002815 0.023997 0.004797 -0.001632
# 5 -0.006366 -0.000946 -0.004591 0.004797 0.042422 0.006077
# 6 0.002562 -0.000208 0.002818 -0.001632 0.006077 0.027515
#
#
# Mechanical properties :
#
#
# Convention : Reuss Voigt Hill
#
# Bulk Modulus (GPa) = 32.92655 44.92291 38.92473
# Shear Modulus (GPa) = 33.73528 40.54362 37.13945
#
# Velocity S-wave (km/s) = 3.84736 4.21776 4.03681
# Velocity P-wave (km/s) = 5.84667 6.59017 6.22953
#
# Compressibility (1/GPa) = 0.03037063
#
# Stress axis : x y z
#
# Youngs Moduli (GPa) = 66.41766 74.68170 113.42059
#
# Poissons Ratio (x) = 0.21825 -0.09014
# Poissons Ratio (y) = 0.19409 0.14956
# Poissons Ratio (z) = -0.05279 0.09848
#
# Static dielectric constant tensor:
#      x y z
#    x 1.941970 -0.040920 0.029550 
#    y -0.040920 1.889360 0.002030 
#    z 0.029550 0.002030 1.842630 
# 
# From -- ./inp_files/246096.got.cif
#   From: 2010.05.17/outbox.cif.g08.bks.cpg/sg2_124_cif.got.tgz:246096.got - 2010.06.03 11:33:40.
