data_PCOD9032766
_publ_section_title
;
Structure prediction by ZEFSAII (Michael W. Deem and Ramdas Pophale) SiO2 
 PCOD9032766
Probable space group: P -1
;
_chemical_formula_sum "Si O2"
_cell_formula_units_Z 16
_cell_length_a 11.423516
_cell_length_b 12.141803
_cell_length_c 5.775009
_cell_angle_alpha 89.356459
_cell_angle_beta 58.244419
_cell_angle_gamma 108.704574
_cell_volume 628.803858
_symmetry_space_group_name_H-M "P -1"
_symmetry_group_IT_number 2
_symmetry_cell_setting 'triclinic'
loop_
_space_group_symop_operation_xyz
x,y,z
-x,-y,-z
loop_
_atom_site_type_symbol
_atom_site_label
_atom_site_fract_x
_atom_site_fract_y
_atom_site_fract_z
Si Si1 0.472331 0.777522 0.456987
Si Si2 0.687030 0.683474 0.448627
Si Si3 0.642440 0.988297 0.978819
Si Si4 0.855291 0.461201 0.931403
Si Si5 0.135111 0.118555 0.432953
Si Si6 0.306879 0.554734 0.388987
Si Si7 0.169290 0.784142 0.967879
Si Si8 0.931252 0.715012 0.855919
O O1 0.541971 0.711954 0.563267
O O2 0.583729 0.909749 0.272981
O O3 0.434899 0.686598 0.281286
O O4 0.323834 0.789872 0.697999
O O5 0.815856 0.810271 0.382101
O O6 0.656672 0.564607 0.631051
O O7 0.763752 0.662116 0.137118
O O8 0.771873 0.115599 0.900316
O O9 0.720689 0.911668 0.769262
O O10 0.500000 0.000000 0.000000
O O11 0.760624 0.445500 0.794291
O O12 0.968301 0.597921 0.785358
O O13 0.783103 0.452186 0.268368
O O14 0.912024 0.352617 0.861151
O O15 0.094345 0.216271 0.334246
O O16 0.000000 0.000000 0.500000
O O17 0.063138 0.800590 0.880928
#
# Coordination Sequence:
#
# PCOD9032766 Si02
#       8
#     2   2   2   2   2   2   2   2
#     4  11  24  44  69 103 141 190 237 296 361 433
#     4  11  23  46  69 105 139 186 236 302 361 427
#     4  12  26  45  68 103 145 188 239 297 361 436
#     4  10  22  47  71 110 145 190 242 301 365 432
#     4  12  27  44  73 105 138 186 241 299 362 435
#     4  10  22  43  74 107 146 189 242 302 364 430
#     4  11  25  44  71 101 145 191 237 296 360 433
#     4  11  24  47  71 104 140 186 237 301 362 429
#
# _framework density 25.445132999999998
#
# number of rings (size 3 to 8) (size 9 to 14) (size 15 to 20)
#    0.000    1.000    2.500    3.375    3.500    2.000 
#    4.500    8.125    0.000    0.000    0.000    0.000 
#    0.000    0.000    0.000    0.000    0.000    0.000 
#
# Total GULP energy -89280.525607 kJ/mol
# GULP energy per Si atom -5580.032850 kJ/mol
# Density = 2.538722 g / cm^3
# Si number density = 25.445133 Si / 1000 Ang^3
#
#
#
# Elastic Constant Matrix: (Units=GPa)
#
#
# Indices 1 2 3 4 5 6 
#
# 1 142.0890 16.4374 36.5633 21.4241 14.6258 -10.7689
# 2 16.4374 137.7916 18.1560 13.4311 3.2487 3.4635
# 3 36.5633 18.1560 58.4166 7.1818 -2.6884 -10.4020
# 4 21.4241 13.4311 7.1818 26.3545 0.7429 3.7177
# 5 14.6258 3.2487 -2.6884 0.7429 37.9042 11.2505
# 6 -10.7689 3.4635 -10.4020 3.7177 11.2505 44.7018
#
#
#
# Elastic Compliance Matrix: (Units=1/GPa)
#
#
# Indices 1 2 3 4 5 6 
#
# 1 0.010227 0.000226 -0.005255 -0.007292 -0.005121 0.003119
# 2 0.000226 0.007906 -0.002316 -0.003472 -0.000671 -0.000640
# 3 -0.005255 -0.002316 0.022001 -0.001105 0.002793 0.003422
# 4 -0.007292 -0.003472 -0.001105 0.046768 0.004095 -0.006665
# 5 -0.005121 -0.000671 0.002793 0.004095 0.031117 -0.008704
# 6 0.003119 -0.000640 0.003422 -0.006665 -0.008704 0.026713
#
#
# Mechanical properties :
#
#
# Convention : Reuss Voigt Hill
#
# Bulk Modulus (GPa) = 39.30404 53.40116 46.35260
# Shear Modulus (GPa) = 29.77893 39.60147 34.69020
#
# Velocity S-wave (km/s) = 3.42470 3.94934 3.69634
# Velocity P-wave (km/s) = 5.57837 6.46751 6.03933
#
# Compressibility (1/GPa) = 0.02544267
#
# Stress axis : x y z
#
# Youngs Moduli (GPa) = 97.77980 126.48665 45.45205
#
# Poissons Ratio (x) = -0.02853 0.23886
# Poissons Ratio (y) = -0.02206 0.10528
# Poissons Ratio (z) = 0.51384 0.29298
#
# Static dielectric constant tensor:
#      x y z
#    x 2.146010 0.040430 -0.131250 
#    y 0.040430 2.059380 0.007520 
#    z -0.131250 0.007520 2.113130 
# 
# From -- ./inp_files/70397.got.cif
#   From: 2010.05.17/outbox.cif.g08.bks.cpg/sg2_36_cif.got.tgz:70397.got - 2010.06.03 11:33:40.
