data_PCOD9032377
_publ_section_title
;
Structure prediction by ZEFSAII (Michael W. Deem and Ramdas Pophale) SiO2 
 PCOD9032377
Probable space group: P -1
;
_chemical_formula_sum "Si O2"
_cell_formula_units_Z 14
_cell_length_a 5.168828
_cell_length_b 16.364214
_cell_length_c 7.133813
_cell_angle_alpha 102.052028
_cell_angle_beta 84.514083
_cell_angle_gamma 101.338913
_cell_volume 577.650007
_symmetry_space_group_name_H-M "P -1"
_symmetry_group_IT_number 2
_symmetry_cell_setting 'triclinic'
loop_
_space_group_symop_operation_xyz
x,y,z
-x,-y,-z
loop_
_atom_site_type_symbol
_atom_site_label
_atom_site_fract_x
_atom_site_fract_y
_atom_site_fract_z
Si Si1 0.358160 0.220762 0.169525
Si Si2 0.458074 0.362219 0.524107
Si Si3 0.914732 0.262268 0.942662
Si Si4 0.799557 0.481224 0.296528
Si Si5 0.263568 0.582893 0.115061
Si Si6 0.351835 0.070251 0.344141
Si Si7 0.161074 0.891310 0.401259
O O1 0.339854 0.276042 0.386032
O O2 0.321034 0.122531 0.184600
O O3 0.647175 0.246698 0.074839
O O4 0.148986 0.242927 0.046698
O O5 0.718162 0.403970 0.406642
O O6 0.281048 0.435246 0.568010
O O7 0.535479 0.358202 0.733784
O O8 0.940781 0.357499 0.910322
O O9 0.872153 0.197673 0.741913
O O10 0.096853 0.508403 0.216004
O O11 0.639949 0.453064 0.101224
O O12 0.638710 0.101458 0.432779
O O13 0.124943 0.092138 0.509041
O O14 0.292998 0.968234 0.291499
#
# Coordination Sequence:
#
# PCOD9032377 Si02
#       7
#     2   2   2   2   2   2   2
#     4  12  27  43  66 100 140 176 226 278 334 403
#     4  11  24  42  68  94 134 176 227 282 341 399
#     4  12  27  43  66 100 140 176 226 278 334 403
#     4  10  24  42  66  98 128 172 234 280 344 398
#     4  11  24  42  68  94 134 176 227 282 341 399
#     4  10  22  43  71 100 133 177 227 274 334 402
#     4  10  22  43  71 100 133 177 227 274 334 402
#
# _framework density 24.236131
#
# number of rings (size 3 to 8) (size 9 to 14) (size 15 to 20)
#    0.000    1.143    1.429    3.429    6.000    5.714 
#    0.000    0.000    0.000    0.000    0.000    0.000 
#    0.000    0.000    0.000    0.000    0.000    0.000 
#
# Total GULP energy -78387.847146 kJ/mol
# GULP energy per Si atom -5599.131939 kJ/mol
# Density = 2.418097 g / cm^3
# Si number density = 24.236131 Si / 1000 Ang^3
#
#
#
# Elastic Constant Matrix: (Units=GPa)
#
#
# Indices 1 2 3 4 5 6 
#
# 1 87.6661 8.1890 8.2980 -11.8246 3.9914 -7.7007
# 2 8.1890 67.1537 -4.9342 -5.2272 -0.6765 -0.2637
# 3 8.2980 -4.9342 54.8271 -4.5828 1.1481 12.6586
# 4 -11.8246 -5.2272 -4.5828 38.9887 -12.6287 -0.7181
# 5 3.9914 -0.6765 1.1481 -12.6287 38.7402 -4.1448
# 6 -7.7007 -0.2637 12.6586 -0.7181 -4.1448 21.4328
#
#
#
# Elastic Compliance Matrix: (Units=1/GPa)
#
#
# Indices 1 2 3 4 5 6 
#
# 1 0.012938 -0.001507 -0.003391 0.003668 0.000674 0.006886
# 2 -0.001507 0.015397 0.002080 0.002122 0.000912 -0.001333
# 3 -0.003391 0.002080 0.022462 0.001140 -0.001482 -0.014707
# 4 0.003668 0.002122 0.001140 0.030467 0.009944 0.003615
# 5 0.000674 0.000912 -0.001482 0.009944 0.029818 0.007228
# 6 0.006886 -0.001333 -0.014707 0.003615 0.007228 0.059321
#
#
# Mechanical properties :
#
#
# Convention : Reuss Voigt Hill
#
# Bulk Modulus (GPa) = 22.14402 25.86140 24.00271
# Shear Modulus (GPa) = 26.16536 33.03860 29.60198
#
# Velocity S-wave (km/s) = 3.28929 3.69615 3.49864
# Velocity P-wave (km/s) = 4.85619 5.37673 5.12307
#
# Compressibility (1/GPa) = 0.04515892
#
# Stress axis : x y z
#
# Youngs Moduli (GPa) = 77.29371 64.94760 44.52050
#
# Poissons Ratio (x) = 0.09791 0.15097
# Poissons Ratio (y) = 0.11652 -0.09260
# Poissons Ratio (z) = 0.26211 -0.13509
#
# Static dielectric constant tensor:
#      x y z
#    x 1.957540 0.035020 0.006030 
#    y 0.035020 1.950250 -0.044070 
#    z 0.006030 -0.044070 1.937810 
# 
# From -- ./inp_files/7628.got.cif
#   From: 2010.05.17/outbox.cif.g08.bks.cpg/sg2_4_cif.got.tgz:7628.got - 2010.06.03 11:33:40.
