data_PCOD9032590
_publ_section_title
;
Structure prediction by ZEFSAII (Michael W. Deem and Ramdas Pophale) SiO2 
 PCOD9032590
Probable space group: P -1
;
_chemical_formula_sum "Si O2"
_cell_formula_units_Z 16
_cell_length_a 11.940121
_cell_length_b 22.603397
_cell_length_c 11.963757
_cell_angle_alpha 143.928126
_cell_angle_beta 24.623470
_cell_angle_gamma 151.769314
_cell_volume 635.923384
_symmetry_space_group_name_H-M "P -1"
_symmetry_group_IT_number 2
_symmetry_cell_setting 'triclinic'
loop_
_space_group_symop_operation_xyz
x,y,z
-x,-y,-z
loop_
_atom_site_type_symbol
_atom_site_label
_atom_site_fract_x
_atom_site_fract_y
_atom_site_fract_z
Si Si1 0.537401 0.707576 0.465258
Si Si2 0.558253 0.893986 0.315663
Si Si3 0.791705 0.324590 0.519253
Si Si4 0.243465 0.475123 0.790846
Si Si5 0.557584 0.474737 0.064754
Si Si6 0.645466 0.120001 0.977903
Si Si7 0.794147 0.738135 0.462439
Si Si8 0.719141 0.899845 0.939588
O O1 0.431320 0.724582 0.464840
O O2 0.639176 0.610694 0.180712
O O3 0.440219 0.635466 0.571587
O O4 0.435218 0.797254 0.758240
O O5 0.335224 0.784270 0.439091
O O6 0.500000 0.000000 0.500000
O O7 0.538527 0.840350 0.129356
O O8 0.933331 0.970983 0.143173
O O9 0.172064 0.379788 0.233969
O O10 0.774021 0.436576 0.749621
O O11 0.500000 0.500000 0.500000
O O12 0.408114 0.542323 0.860220
O O13 0.028615 0.326031 0.778217
O O14 0.000000 0.500000 0.000000
O O15 0.044284 0.187290 0.692543
O O16 0.478709 0.081371 0.946615
O O17 0.500000 0.000000 0.000000
O O18 0.807942 0.816831 0.668579
#
# Coordination Sequence:
#
# PCOD9032590 Si02
#       8
#     2   2   2   2   2   2   2   2
#     4   9  23  48  70 112 145 187 243 316 364 442
#     4  11  28  47  69 105 148 195 249 308 377 449
#     4  12  26  48  77 106 149 198 254 298 376 451
#     4  11  25  43  71 107 152 196 245 298 362 445
#     4  11  26  45  73 112 145 199 247 304 372 436
#     4  10  22  43  72 106 143 187 242 299 384 433
#     4   9  24  43  68 108 143 183 244 308 366 432
#     4  11  24  45  74  98 150 189 245 307 376 439
#
# _framework density 25.160264000000002
#
# number of rings (size 3 to 8) (size 9 to 14) (size 15 to 20)
#    0.750    0.750    0.000    3.000    7.000    5.500 
#    4.500    0.000    0.000    0.000    0.000    0.000 
#    0.000    0.000    0.000    0.000    0.000    0.000 
#
# Total GULP energy -89130.030609 kJ/mol
# GULP energy per Si atom -5570.626913 kJ/mol
# Density = 2.510300 g / cm^3
# Si number density = 25.160264 Si / 1000 Ang^3
#
#
#
# Elastic Constant Matrix: (Units=GPa)
#
#
# Indices 1 2 3 4 5 6 
#
# 1 217.0885 51.9498 65.2087 -0.5279 18.6853 -8.4107
# 2 51.9498 62.3287 27.8409 0.0862 -4.0057 -12.6459
# 3 65.2087 27.8409 147.3734 10.8002 3.8075 -2.6282
# 4 -0.5279 0.0862 10.8002 38.1882 9.9288 -7.3214
# 5 18.6853 -4.0057 3.8075 9.9288 53.2402 10.8174
# 6 -8.4107 -12.6459 -2.6282 -7.3214 10.8174 35.1789
#
#
#
# Elastic Compliance Matrix: (Units=1/GPa)
#
#
# Indices 1 2 3 4 5 6 
#
# 1 0.006642 -0.004578 -0.002100 0.001699 -0.003062 0.001081
# 2 -0.004578 0.022269 -0.002207 0.001247 0.001903 0.006420
# 3 -0.002100 -0.002207 0.008294 -0.002877 0.000825 -0.001529
# 4 0.001699 0.001247 -0.002877 0.030930 -0.008003 0.009537
# 5 -0.003062 0.001903 0.000825 -0.008003 0.023220 -0.008792
# 6 0.001081 0.006420 -0.001529 0.009537 -0.008792 0.035567
#
#
# Mechanical properties :
#
#
# Convention : Reuss Voigt Hill
#
# Bulk Modulus (GPa) = 51.45645 79.64326 65.54985
# Shear Modulus (GPa) = 33.07506 44.10754 38.59130
#
# Velocity S-wave (km/s) = 3.62964 4.19150 3.92065
# Velocity P-wave (km/s) = 6.16941 7.42617 6.82677
#
# Compressibility (1/GPa) = 0.01943391
#
# Stress axis : x y z
#
# Youngs Moduli (GPa) = 150.54770 44.90606 120.56724
#
# Poissons Ratio (x) = 0.20558 0.25324
# Poissons Ratio (y) = 0.68921 0.26613
# Poissons Ratio (z) = 0.31621 0.09912
#
# Static dielectric constant tensor:
#      x y z
#    x 2.090500 -0.088920 -0.064820 
#    y -0.088920 2.181880 -0.099410 
#    z -0.064820 -0.099410 2.169330 
# 
# From -- ./inp_files/438669.got.cif
#   From: 2010.05.17/outbox.cif.g08.bks.cpg/sg2_220_cif.got.tgz:438669.got - 2010.06.03 11:33:40.
