data_PCOD9032710
_publ_section_title
;
Structure prediction by ZEFSAII (Michael W. Deem and Ramdas Pophale) SiO2 
 PCOD9032710
Probable space group: P -1
;
_chemical_formula_sum "Si O2"
_cell_formula_units_Z 14
_cell_length_a 19.022116
_cell_length_b 4.969840
_cell_length_c 5.426970
_cell_angle_alpha 90.068429
_cell_angle_beta 84.764338
_cell_angle_gamma 86.308248
_cell_volume 509.835139
_symmetry_space_group_name_H-M "P -1"
_symmetry_group_IT_number 2
_symmetry_cell_setting 'triclinic'
loop_
_space_group_symop_operation_xyz
x,y,z
-x,-y,-z
loop_
_atom_site_type_symbol
_atom_site_label
_atom_site_fract_x
_atom_site_fract_y
_atom_site_fract_z
Si Si1 0.667907 0.345385 0.692280
Si Si2 0.509591 0.163113 0.745667
Si Si3 0.949346 0.298398 0.787504
Si Si4 0.643527 0.647980 0.206947
Si Si5 0.165913 0.509112 0.836426
Si Si6 0.749704 0.003790 0.012055
Si Si7 0.910863 0.814579 0.497531
O O1 0.588629 0.249635 0.712680
O O2 0.675496 0.513618 0.442854
O O3 0.667318 0.527710 0.937263
O O4 0.726152 0.110661 0.749460
O O5 0.440926 0.371112 0.760928
O O6 0.500000 0.000000 0.500000
O O7 0.500000 0.000000 0.000000
O O8 0.945582 0.596988 0.675527
O O9 0.028788 0.170014 0.734380
O O10 0.902966 0.100029 0.637524
O O11 0.910091 0.356510 0.055581
O O12 0.676162 0.940145 0.175702
O O13 0.199342 0.268532 0.000749
O O14 0.153964 0.336302 0.595497
O O15 0.212511 0.764275 0.853517
#
# Coordination Sequence:
#
# PCOD9032710 Si02
#       7
#     2   2   2   2   2   2   2
#     4  12  27  52  78 112 158 209 269 336 404 479
#     4  12  24  44  82 115 153 199 269 341 409 470
#     4  10  22  43  73 110 148 196 259 328 393 463
#     4  12  27  52  78 112 158 209 269 336 404 479
#     4  12  25  48  72 109 156 210 264 316 404 467
#     4  12  28  49  73 112 156 218 262 324 394 494
#     4  10  22  43  73 110 148 196 259 328 393 463
#
# _framework density 27.459855000000001
#
# number of rings (size 3 to 8) (size 9 to 14) (size 15 to 20)
#    0.000    0.571    2.857    4.714    0.000    1.143 
#   10.286    5.714    0.000    0.000    0.000    0.000 
#    0.000    0.000    0.000    0.000    0.000    0.000 
#
# Total GULP energy -78439.170487 kJ/mol
# GULP energy per Si atom -5602.797892 kJ/mol
# Density = 2.739735 g / cm^3
# Si number density = 27.459855 Si / 1000 Ang^3
#
#
#
# Elastic Constant Matrix: (Units=GPa)
#
#
# Indices 1 2 3 4 5 6 
#
# 1 106.5481 42.9086 25.3636 3.2563 17.8656 -0.4228
# 2 42.9086 170.4591 56.0462 11.1099 22.2941 14.8438
# 3 25.3636 56.0462 148.1011 7.9952 22.5040 -1.7088
# 4 3.2563 11.1099 7.9952 52.5001 -8.9339 11.9032
# 5 17.8656 22.2941 22.5040 -8.9339 44.4502 5.7387
# 6 -0.4228 14.8438 -1.7088 11.9032 5.7387 68.5563
#
#
#
# Elastic Compliance Matrix: (Units=1/GPa)
#
#
# Indices 1 2 3 4 5 6 
#
# 1 0.010981 -0.002188 -0.000475 -0.000945 -0.003392 0.000978
# 2 -0.002188 0.007564 -0.002156 -0.001151 -0.001881 -0.001348
# 3 -0.000475 -0.002156 0.008269 -0.001633 -0.003402 0.001238
# 4 -0.000945 -0.001151 -0.001633 0.021667 0.006670 -0.004118
# 5 -0.003392 -0.001881 -0.003402 0.006670 0.028283 -0.003224
# 6 0.000978 -0.001348 0.001238 -0.004118 -0.003224 0.015900
#
#
# Mechanical properties :
#
#
# Convention : Reuss Voigt Hill
#
# Bulk Modulus (GPa) = 58.21680 74.86054 66.53867
# Shear Modulus (GPa) = 46.28469 53.15398 49.71933
#
# Velocity S-wave (km/s) = 4.10999 4.40443 4.25975
# Velocity P-wave (km/s) = 6.61584 7.29290 6.96260
#
# Compressibility (1/GPa) = 0.01717717
#
# Stress axis : x y z
#
# Youngs Moduli (GPa) = 91.06554 132.19873 120.93862
#
# Poissons Ratio (x) = 0.28925 0.05744
# Poissons Ratio (y) = 0.19925 0.26069
# Poissons Ratio (z) = 0.04325 0.28496
#
# Static dielectric constant tensor:
#      x y z
#    x 2.275210 0.029000 -0.044010 
#    y 0.029000 2.181160 -0.015010 
#    z -0.044010 -0.015010 2.114430 
# 
# From -- ./inp_files/114195.got.cif
#   From: 2010.05.17/outbox.cif.g08.bks.cpg/sg2_58_cif.got.tgz:114195.got - 2010.06.03 11:33:40.
