data_PCOD9032638
_publ_section_title
;
Structure prediction by ZEFSAII (Michael W. Deem and Ramdas Pophale) SiO2 
 PCOD9032638
Probable space group: P -1
;
_chemical_formula_sum "Si O2"
_cell_formula_units_Z 12
_cell_length_a 11.047518
_cell_length_b 10.968121
_cell_length_c 5.274829
_cell_angle_alpha 130.229324
_cell_angle_beta 110.513872
_cell_angle_gamma 73.432684
_cell_volume 455.479704
_symmetry_space_group_name_H-M "P -1"
_symmetry_group_IT_number 2
_symmetry_cell_setting 'triclinic'
loop_
_space_group_symop_operation_xyz
x,y,z
-x,-y,-z
loop_
_atom_site_type_symbol
_atom_site_label
_atom_site_fract_x
_atom_site_fract_y
_atom_site_fract_z
Si Si1 0.968532 0.186777 0.634192
Si Si2 0.236590 0.352596 0.119859
Si Si3 0.648796 0.976652 0.242455
Si Si4 0.369182 0.920732 0.125252
Si Si5 0.471594 0.407109 0.100016
Si Si6 0.894420 0.370194 0.310393
O O1 0.929512 0.238924 0.384888
O O2 0.879504 0.277591 0.911201
O O3 0.000000 0.000000 0.500000
O O4 0.101431 0.277971 0.877478
O O5 0.318445 0.383028 0.969690
O O6 0.218041 0.509971 0.487522
O O7 0.325392 0.201174 0.089244
O O8 0.497716 0.008256 0.252503
O O9 0.709697 0.994274 0.589533
O O10 0.432769 0.752208 0.035804
O O11 0.301652 0.912982 0.792582
O O12 0.500000 0.500000 0.500000
O O13 0.500000 0.500000 0.000000
O O14 0.000000 0.500000 0.500000
#
# Coordination Sequence:
#
# PCOD9032638 Si02
#       6
#     2   2   2   2   2   2
#     4  11  24  45  70 104 135 167 225 287 342 405
#     4  10  23  43  70  96 133 182 218 272 341 394
#     4   9  18  33  59  85 114 163 206 256 316 373
#     4   9  18  35  54  82 123 158 208 263 303 359
#     4  11  24  41  62  93 136 178 226 265 319 399
#     4  10  22  43  72  98 135 175 221 280 344 407
#
# _framework density 26.345851
#
# number of rings (size 3 to 8) (size 9 to 14) (size 15 to 20)
#    0.000    2.000    0.000    3.500    0.000   12.000 
#    9.000    0.000    0.000    0.000    0.000    0.000 
#    0.000    0.000    0.000    0.000    0.000    0.000 
#
# Total GULP energy -67014.341935 kJ/mol
# GULP energy per Si atom -5584.528495 kJ/mol
# Density = 2.628589 g / cm^3
# Si number density = 26.345851 Si / 1000 Ang^3
#
#
#
# Elastic Constant Matrix: (Units=GPa)
#
#
# Indices 1 2 3 4 5 6 
#
# 1 83.2042 46.9268 26.1566 8.4319 -24.0721 18.6297
# 2 46.9268 226.2690 82.6705 -25.6595 -27.5287 21.7689
# 3 26.1566 82.6705 146.4088 -3.2543 -30.3795 3.4433
# 4 8.4319 -25.6595 -3.2543 45.4855 4.2496 -3.2213
# 5 -24.0721 -27.5287 -30.3795 4.2496 48.0535 14.7439
# 6 18.6297 21.7689 3.4433 -3.2213 14.7439 48.7562
#
#
#
# Elastic Compliance Matrix: (Units=1/GPa)
#
#
# Indices 1 2 3 4 5 6 
#
# 1 0.020285 -0.002605 0.000672 -0.007193 0.013131 -0.011082
# 2 -0.002605 0.006803 -0.003066 0.003890 0.000873 -0.001833
# 3 0.000672 -0.003066 0.009491 -0.001738 0.005108 -0.001218
# 4 -0.007193 0.003890 -0.001738 0.026311 -0.006263 0.004767
# 5 0.013131 0.000873 0.005108 -0.006263 0.037001 -0.017371
# 6 -0.011082 -0.001833 -0.001218 0.004767 -0.017371 0.031217
#
#
# Mechanical properties :
#
#
# Convention : Reuss Voigt Hill
#
# Bulk Modulus (GPa) = 37.61723 85.26554 61.44139
# Shear Modulus (GPa) = 33.34069 48.46757 40.90413
#
# Velocity S-wave (km/s) = 3.56125 4.29379 3.94456
# Velocity P-wave (km/s) = 5.58742 7.55092 6.64212
#
# Compressibility (1/GPa) = 0.02658356
#
# Stress axis : x y z
#
# Youngs Moduli (GPa) = 49.29631 146.98407 105.36260
#
# Poissons Ratio (x) = 0.38284 -0.07080
# Poissons Ratio (y) = 0.12840 0.32299
# Poissons Ratio (z) = -0.03313 0.45059
#
# Static dielectric constant tensor:
#      x y z
#    x 2.166800 -0.050930 0.166460 
#    y -0.050930 2.209760 -0.133890 
#    z 0.166460 -0.133890 2.217690 
# 
# From -- ./inp_files/72567.got.cif
#   From: 2010.05.17/outbox.cif.g08.bks.cpg/sg2_37_cif.got.tgz:72567.got - 2010.06.03 11:33:40.
