data_PCOD9032647
_publ_section_title
;
Structure prediction by ZEFSAII (Michael W. Deem and Ramdas Pophale) SiO2 
 PCOD9032647
Probable space group: P -1
;
_chemical_formula_sum "Si O2"
_cell_formula_units_Z 16
_cell_length_a 13.847688
_cell_length_b 8.694363
_cell_length_c 9.120538
_cell_angle_alpha 68.679954
_cell_angle_beta 81.963867
_cell_angle_gamma 127.886036
_cell_volume 702.029451
_symmetry_space_group_name_H-M "P -1"
_symmetry_group_IT_number 2
_symmetry_cell_setting 'triclinic'
loop_
_space_group_symop_operation_xyz
x,y,z
-x,-y,-z
loop_
_atom_site_type_symbol
_atom_site_label
_atom_site_fract_x
_atom_site_fract_y
_atom_site_fract_z
Si Si1 0.563473 0.302377 0.545009
Si Si2 0.364450 0.287229 0.441611
Si Si3 0.915657 0.051353 0.219055
Si Si4 0.462946 0.883171 0.888136
Si Si5 0.869831 0.614708 0.430730
Si Si6 0.121271 0.842824 0.116143
Si Si7 0.638869 0.778126 0.853179
Si Si8 0.832434 0.477199 0.825727
O O1 0.490746 0.311448 0.425335
O O2 0.579724 0.463510 0.612374
O O3 0.721158 0.430820 0.440809
O O4 0.471698 0.040717 0.714872
O O5 0.300670 0.200418 0.324199
O O6 0.243009 0.095240 0.649019
O O7 0.029325 0.288502 0.205788
O O8 0.925519 0.870080 0.316883
O O9 0.930414 0.112883 0.024798
O O10 0.580390 0.892848 0.821397
O O11 0.306424 0.621541 0.031340
O O12 0.500000 0.000000 0.000000
O O13 0.837731 0.531013 0.634538
O O14 0.990483 0.652938 0.318946
O O15 0.174377 0.729505 0.090788
O O16 0.245874 0.086840 0.091487
O O17 0.500000 0.500000 0.000000
#
# Coordination Sequence:
#
# PCOD9032647 Si02
#       8
#     2   2   2   2   2   2   2   2
#     4  10  22  43  72  99 136 185 220 285 339 406
#     4  10  24  44  71 100 139 177 231 275 343 408
#     4  11  26  44  71 100 137 183 225 279 342 405
#     4  12  23  44  69 101 138 176 230 280 346 397
#     4  11  24  42  71  99 139 175 229 277 340 404
#     4  12  26  46  68 101 139 177 230 285 339 401
#     4  12  28  41  70 101 134 179 230 281 336 408
#     4  12  25  44  72  98 138 183 222 280 342 410
#
# _framework density 22.791066000000001
#
# number of rings (size 3 to 8) (size 9 to 14) (size 15 to 20)
#    0.000    0.750    2.500    3.750    8.750    2.500 
#    0.000    0.000    0.000    0.000    0.000    0.000 
#    0.000    0.000    0.000    0.000    0.000    0.000 
#
# Total GULP energy -89605.022822 kJ/mol
# GULP energy per Si atom -5600.313926 kJ/mol
# Density = 2.273919 g / cm^3
# Si number density = 22.791066 Si / 1000 Ang^3
#
#
#
# Elastic Constant Matrix: (Units=GPa)
#
#
# Indices 1 2 3 4 5 6 
#
# 1 56.3568 -0.5251 -2.7133 -8.8468 -2.3012 14.5208
# 2 -0.5251 55.3855 5.1629 -5.1580 3.1385 16.1698
# 3 -2.7133 5.1629 68.4874 -14.9082 -1.8894 2.4528
# 4 -8.8468 -5.1580 -14.9082 24.5997 -1.2325 -2.3931
# 5 -2.3012 3.1385 -1.8894 -1.2325 40.0687 -9.0924
# 6 14.5208 16.1698 2.4528 -2.3931 -9.0924 27.1105
#
#
#
# Elastic Compliance Matrix: (Units=1/GPa)
#
#
# Indices 1 2 3 4 5 6 
#
# 1 0.023599 0.005726 0.003180 0.009917 -0.002325 -0.016247
# 2 0.005726 0.024506 0.000005 0.005045 -0.005788 -0.019180
# 3 0.003180 0.000005 0.017325 0.011500 0.000910 -0.001953
# 4 0.009917 0.005045 0.011500 0.051889 0.001329 -0.004335
# 5 -0.002325 -0.005788 0.000910 0.001329 0.028612 0.014328
# 6 -0.016247 -0.019180 -0.001953 -0.004335 0.014328 0.061627
#
#
# Mechanical properties :
#
#
# Convention : Reuss Voigt Hill
#
# Bulk Modulus (GPa) = 12.01184 20.45317 16.23251
# Shear Modulus (GPa) = 22.98981 30.24280 26.61631
#
# Velocity S-wave (km/s) = 3.17948 3.64670 3.42107
# Velocity P-wave (km/s) = 4.33136 5.16961 4.76894
#
# Compressibility (1/GPa) = 0.08325120
#
# Stress axis : x y z
#
# Youngs Moduli (GPa) = 42.37543 40.80571 57.71965
#
# Poissons Ratio (x) = -0.23365 -0.18354
# Poissons Ratio (y) = -0.24264 -0.00028
# Poissons Ratio (z) = -0.13475 -0.00020
#
# Static dielectric constant tensor:
#      x y z
#    x 1.863560 -0.017210 -0.035600 
#    y -0.017210 1.813390 -0.007470 
#    z -0.035600 -0.007470 1.832700 
# 
# From -- ./inp_files/297885.got.cif
#   From: 2010.05.17/outbox.cif.g08.bks.cpg/sg2_149_cif.got.tgz:297885.got - 2010.06.03 11:33:40.
