data_PCOD9032083
_publ_section_title
;
Structure prediction by ZEFSAII (Michael W. Deem and Ramdas Pophale) SiO2 
 PCOD9032083
Probable space group: P -1
;
_chemical_formula_sum "Si O2"
_cell_formula_units_Z 16
_cell_length_a 10.201565
_cell_length_b 8.090344
_cell_length_c 13.320078
_cell_angle_alpha 85.532230
_cell_angle_beta 103.256375
_cell_angle_gamma 142.346320
_cell_volume 643.682595
_symmetry_space_group_name_H-M "P -1"
_symmetry_group_IT_number 2
_symmetry_cell_setting 'triclinic'
loop_
_space_group_symop_operation_xyz
x,y,z
-x,-y,-z
loop_
_atom_site_type_symbol
_atom_site_label
_atom_site_fract_x
_atom_site_fract_y
_atom_site_fract_z
Si Si1 0.941559 0.158664 0.252226
Si Si2 0.174922 0.175313 0.115463
Si Si3 0.196584 0.416265 0.576453
Si Si4 0.738362 0.878970 0.442011
Si Si5 0.251795 0.798004 0.050208
Si Si6 0.586301 0.900419 0.740768
Si Si7 0.322202 0.723241 0.393416
Si Si8 0.537581 0.777438 0.070146
O O1 0.053913 0.162005 0.183486
O O2 0.121431 0.469334 0.299018
O O3 0.867596 0.004547 0.351120
O O4 0.709272 0.994957 0.176276
O O5 0.257310 0.096754 0.197389
O O6 0.398799 0.482639 0.094162
O O7 0.000000 0.000000 0.000000
O O8 0.317396 0.371902 0.550122
O O9 0.331142 0.588511 0.693818
O O10 0.231508 0.599722 0.494885
O O11 0.932843 0.118828 0.543668
O O12 0.535763 0.811162 0.408232
O O13 0.362305 0.748521 0.019527
O O14 0.359660 0.911882 0.173317
O O15 0.000000 0.500000 0.000000
O O16 0.306141 0.036519 0.007545
O O17 0.636290 0.046498 0.639658
#
# Coordination Sequence:
#
# PCOD9032083 Si02
#       8
#     2   2   2   2   2   2   2   2
#     4  11  22  41  68  92 126 177 228 272 332 409
#     4  12  27  44  65  98 139 178 228 287 341 405
#     4  10  23  41  65 100 134 172 223 277 338 410
#     4  10  22  43  69  95 130 178 226 275 336 408
#     4  11  24  44  69  97 132 174 226 284 342 406
#     4  12  24  41  66  98 136 177 221 278 346 399
#     4  11  23  43  68  97 136 175 222 281 338 409
#     4  11  23  43  68  94 128 177 229 277 337 405
#
# _framework density 24.856971999999999
#
# number of rings (size 3 to 8) (size 9 to 14) (size 15 to 20)
#    0.000    1.000    0.000    7.500    0.000    6.500 
#    0.000    8.750    0.000    0.000    0.000    0.000 
#    0.000    0.000    0.000    0.000    0.000    0.000 
#
# Total GULP energy -89263.544199 kJ/mol
# GULP energy per Si atom -5578.971512 kJ/mol
# Density = 2.480040 g / cm^3
# Si number density = 24.856972 Si / 1000 Ang^3
#
#
#
# Elastic Constant Matrix: (Units=GPa)
#
#
# Indices 1 2 3 4 5 6 
#
# 1 64.8128 43.0790 13.0111 -2.9394 28.2660 0.8236
# 2 43.0790 128.0808 56.5101 13.5416 21.4781 -5.5029
# 3 13.0111 56.5101 116.2970 36.0500 12.5126 1.2063
# 4 -2.9394 13.5416 36.0500 66.4866 0.3973 16.9709
# 5 28.2660 21.4781 12.5126 0.3973 46.4478 -3.1084
# 6 0.8236 -5.5029 1.2063 16.9709 -3.1084 26.0619
#
#
#
# Elastic Compliance Matrix: (Units=1/GPa)
#
#
# Indices 1 2 3 4 5 6 
#
# 1 0.026500 -0.007901 0.001146 0.003953 -0.013265 -0.006715
# 2 -0.007901 0.012949 -0.005110 -0.001266 0.000482 0.004102
# 3 0.001146 -0.005110 0.013171 -0.006655 -0.001664 0.002410
# 4 0.003953 -0.001266 -0.006655 0.022966 -0.001240 -0.015187
# 5 -0.013265 0.000482 -0.001664 -0.001240 0.030173 0.005004
# 6 -0.006715 0.004102 0.002410 -0.015187 0.005004 0.049823
#
#
# Mechanical properties :
#
#
# Convention : Reuss Voigt Hill
#
# Bulk Modulus (GPa) = 34.61448 59.37679 46.99564
# Shear Modulus (GPa) = 26.46339 40.90529 33.68434
#
# Velocity S-wave (km/s) = 3.26640 4.06103 3.68520
# Velocity P-wave (km/s) = 5.30863 6.77706 6.08729
#
# Compressibility (1/GPa) = 0.02888964
#
# Stress axis : x y z
#
# Youngs Moduli (GPa) = 37.73571 77.22800 75.92702
#
# Poissons Ratio (x) = 0.61015 -0.08700
# Poissons Ratio (y) = 0.29813 0.38799
# Poissons Ratio (z) = -0.04324 0.39464
#
# Static dielectric constant tensor:
#      x y z
#    x 2.101360 0.077590 -0.129530 
#    y 0.077590 2.193280 -0.098310 
#    z -0.129530 -0.098310 2.070570 
# 
# From -- ./inp_files/515533.got.cif
#   From: 2010.05.17/outbox.cif.g08.bks.cpg/sg2_258_cif.got.tgz:515533.got - 2010.06.03 11:33:40.
