data_PCOD9032205
_publ_section_title
;
Structure prediction by ZEFSAII (Michael W. Deem and Ramdas Pophale) SiO2 
 PCOD9032205
Probable space group: P -1
;
_chemical_formula_sum "Si O2"
_cell_formula_units_Z 14
_cell_length_a 8.526371
_cell_length_b 23.852815
_cell_length_c 9.410529
_cell_angle_alpha 150.938369
_cell_angle_beta 132.947124
_cell_angle_gamma 39.458338
_cell_volume 590.695082
_symmetry_space_group_name_H-M "P -1"
_symmetry_group_IT_number 2
_symmetry_cell_setting 'triclinic'
loop_
_space_group_symop_operation_xyz
x,y,z
-x,-y,-z
loop_
_atom_site_type_symbol
_atom_site_label
_atom_site_fract_x
_atom_site_fract_y
_atom_site_fract_z
Si Si1 0.005867 0.096898 0.597250
Si Si2 0.242427 0.972141 0.173194
Si Si3 0.438191 0.293757 0.625979
Si Si4 0.737569 0.728484 0.833531
Si Si5 0.708098 0.591622 0.758139
Si Si6 0.734410 0.442463 0.710287
Si Si7 0.258657 0.214531 0.594786
O O1 0.164297 0.005833 0.362252
O O2 0.732779 0.199764 0.599064
O O3 0.119352 0.189758 0.920660
O O4 0.000000 0.000000 0.500000
O O5 0.314776 0.078004 0.393220
O O6 0.471686 0.830581 0.964088
O O7 0.000000 0.000000 0.000000
O O8 0.320582 0.318050 0.452471
O O9 0.344508 0.211074 0.480120
O O10 0.361873 0.431124 0.965482
O O11 0.857872 0.615503 0.779118
O O12 0.828735 0.474285 0.689723
O O13 0.491014 0.578332 0.519838
O O14 0.618353 0.717280 0.085758
O O15 0.964182 0.315736 0.640377
#
# Coordination Sequence:
#
# PCOD9032205 Si02
#       7
#     2   2   2   2   2   2   2
#     4  12  28  45  68 106 141 180 231 285 343 409
#     4  12  25  46  73 100 140 184 227 282 349 414
#     4  11  26  45  66 108 137 180 231 286 339 401
#     4  12  26  45  71 104 142 183 223 286 348 408
#     4  10  22  43  70 101 131 181 233 271 345 402
#     4  10  24  46  73  99 137 185 231 285 339 406
#     4  11  24  47  72  98 140 185 233 276 348 409
#
# _framework density 23.700890000000001
#
# number of rings (size 3 to 8) (size 9 to 14) (size 15 to 20)
#    0.000    0.857    2.857    3.857    6.000    6.286 
#    0.000    3.571    0.000    0.000    0.000    0.000 
#    0.000    0.000    0.000    0.000    0.000    0.000 
#
# Total GULP energy -78416.097874 kJ/mol
# GULP energy per Si atom -5601.149848 kJ/mol
# Density = 2.364695 g / cm^3
# Si number density = 23.700890 Si / 1000 Ang^3
#
#
#
# Elastic Constant Matrix: (Units=GPa)
#
#
# Indices 1 2 3 4 5 6 
#
# 1 79.3662 44.4734 44.4670 3.0369 -1.8435 19.0980
# 2 44.4734 102.6508 56.0529 -7.6168 -14.4719 15.6286
# 3 44.4670 56.0529 117.4618 -22.9920 -2.0534 9.8889
# 4 3.0369 -7.6168 -22.9920 37.7729 -3.9699 -2.1233
# 5 -1.8435 -14.4719 -2.0534 -3.9699 42.7641 1.4886
# 6 19.0980 15.6286 9.8889 -2.1233 1.4886 51.7863
#
#
#
# Elastic Compliance Matrix: (Units=1/GPa)
#
#
# Indices 1 2 3 4 5 6 
#
# 1 0.020567 -0.005595 -0.006090 -0.006954 -0.001772 -0.004968
# 2 -0.005595 0.016024 -0.005080 0.001018 0.005099 -0.001908
# 3 -0.006090 -0.005080 0.014783 0.008482 -0.000530 0.001319
# 4 -0.006954 0.001018 0.008482 0.032869 0.003437 0.001887
# 5 -0.001772 0.005099 -0.000530 0.003437 0.025375 -0.001372
# 6 -0.004968 -0.001908 0.001319 0.001887 -0.001372 0.021583
#
#
# Mechanical properties :
#
#
# Convention : Reuss Voigt Hill
#
# Bulk Modulus (GPa) = 56.03829 65.49615 60.76722
# Shear Modulus (GPa) = 29.29475 36.76371 33.02923
#
# Velocity S-wave (km/s) = 3.51952 3.94274 3.73713
# Velocity P-wave (km/s) = 6.34124 6.95855 6.65705
#
# Compressibility (1/GPa) = 0.01784494
#
# Stress axis : x y z
#
# Youngs Moduli (GPa) = 48.62058 62.40510 67.64467
#
# Poissons Ratio (x) = 0.34913 0.41198
# Poissons Ratio (y) = 0.27201 0.34364
# Poissons Ratio (z) = 0.29612 0.31702
#
# Static dielectric constant tensor:
#      x y z
#    x 1.925740 0.005250 0.021900 
#    y 0.005250 1.893210 0.007340 
#    z 0.021900 0.007340 1.863020 
# 
# From -- ./inp_files/225923.got.cif
#   From: 2010.05.17/outbox.cif.g08.bks.cpg/sg2_113_cif.got.tgz:225923.got - 2010.06.03 11:33:40.
