data_PCOD9032684
_publ_section_title
;
Structure prediction by ZEFSAII (Michael W. Deem and Ramdas Pophale) SiO2 
 PCOD9032684
Probable space group: P -1
;
_chemical_formula_sum "Si O2"
_cell_formula_units_Z 12
_cell_length_a 8.918519
_cell_length_b 13.003636
_cell_length_c 8.114102
_cell_angle_alpha 58.505588
_cell_angle_beta 100.704716
_cell_angle_gamma 141.202424
_cell_volume 457.557406
_symmetry_space_group_name_H-M "P -1"
_symmetry_group_IT_number 2
_symmetry_cell_setting 'triclinic'
loop_
_space_group_symop_operation_xyz
x,y,z
-x,-y,-z
loop_
_atom_site_type_symbol
_atom_site_label
_atom_site_fract_x
_atom_site_fract_y
_atom_site_fract_z
Si Si1 0.737253 0.050241 0.305076
Si Si2 0.680352 0.294435 0.997886
Si Si3 0.347458 0.211739 0.735791
Si Si4 0.856768 0.671707 0.299034
Si Si5 0.865544 0.339886 0.455079
Si Si6 0.263013 0.441064 0.008467
O O1 0.041341 0.257938 0.250634
O O2 0.775065 0.954305 0.284264
O O3 0.442540 0.840013 0.490328
O O4 0.693717 0.160339 0.140105
O O5 0.461142 0.190669 0.908117
O O6 0.639131 0.366097 0.073068
O O7 0.956991 0.509711 0.788487
O O8 0.595462 0.439516 0.512948
O O9 0.175748 0.207071 0.783038
O O10 0.088409 0.765793 0.379037
O O11 0.861636 0.640689 0.132699
O O12 0.000000 0.500000 0.500000
O O13 0.500000 0.500000 0.000000
#
# Coordination Sequence:
#
# PCOD9032684 Si02
#       6
#     2   2   2   2   2   2
#     4  12  26  43  76 106 136 188 237 284 354 413
#     4  11  24  47  70 105 146 180 232 291 350 413
#     4  10  22  43  73 104 129 186 238 282 340 411
#     4  10  22  43  73  97 144 175 232 290 344 400
#     4  11  23  44  75 105 137 180 238 295 338 412
#     4  12  27  46  67 103 150 184 227 292 354 417
#
# _framework density 26.226217999999999
#
# number of rings (size 3 to 8) (size 9 to 14) (size 15 to 20)
#    0.000    1.000    5.000    2.000    2.333    2.667 
#    3.000    0.833    0.000    0.000    0.000    0.000 
#    0.000    0.000    0.000    0.000    0.000    0.000 
#
# Total GULP energy -67078.656004 kJ/mol
# GULP energy per Si atom -5589.888000 kJ/mol
# Density = 2.616653 g / cm^3
# Si number density = 26.226218 Si / 1000 Ang^3
#
#
#
# Elastic Constant Matrix: (Units=GPa)
#
#
# Indices 1 2 3 4 5 6 
#
# 1 151.2020 15.8063 23.8410 -8.4357 4.0697 -24.8475
# 2 15.8063 41.4616 15.8065 -22.5822 -8.2800 -6.8105
# 3 23.8410 15.8065 106.2075 -28.0029 -7.7676 -5.9098
# 4 -8.4357 -22.5822 -28.0029 36.8860 -3.4459 -4.4772
# 5 4.0697 -8.2800 -7.7676 -3.4459 36.9369 -7.7341
# 6 -24.8475 -6.8105 -5.9098 -4.4772 -7.7341 65.2640
#
#
#
# Elastic Compliance Matrix: (Units=1/GPa)
#
#
# Indices 1 2 3 4 5 6 
#
# 1 0.007480 -0.002710 -0.001505 -0.000953 -0.001376 0.002200
# 2 -0.002710 0.046591 0.004244 0.033703 0.016557 0.008489
# 3 -0.001505 0.004244 0.013125 0.013064 0.005645 0.002624
# 4 -0.000953 0.033703 0.013064 0.060444 0.018276 0.010650
# 5 -0.001376 0.016557 0.005645 0.018276 0.035327 0.007155
# 6 0.002200 0.008489 0.002624 0.010650 0.007155 0.018862
#
#
# Mechanical properties :
#
#
# Convention : Reuss Voigt Hill
#
# Bulk Modulus (GPa) = 14.86914 45.53095 30.20004
# Shear Modulus (GPa) = 24.48707 44.04522 34.26614
#
# Velocity S-wave (km/s) = 3.05894 4.10254 3.61856
# Velocity P-wave (km/s) = 4.26123 6.31186 5.38506
#
# Compressibility (1/GPa) = 0.06725339
#
# Stress axis : x y z
#
# Youngs Moduli (GPa) = 133.69452 21.46328 76.18954
#
# Poissons Ratio (x) = 0.05817 0.11467
# Poissons Ratio (y) = 0.36231 -0.32333
# Poissons Ratio (z) = 0.20123 -0.09109
#
# Static dielectric constant tensor:
#      x y z
#    x 2.052030 0.012910 -0.043160 
#    y 0.012910 2.086640 0.018880 
#    z -0.043160 0.018880 2.143320 
# 
# From -- ./inp_files/199829.got.cif
#   From: 2010.05.17/outbox.cif.g08.bks.cpg/sg2_100_cif.got.tgz:199829.got - 2010.06.03 11:33:40.
