data_PCOD9032827
_publ_section_title
;
Structure prediction by ZEFSAII (Michael W. Deem and Ramdas Pophale) SiO2 
 PCOD9032827
Probable space group: P -1
;
_chemical_formula_sum "Si O2"
_cell_formula_units_Z 16
_cell_length_a 5.805975
_cell_length_b 24.608972
_cell_length_c 5.073278
_cell_angle_alpha 101.172630
_cell_angle_beta 88.879553
_cell_angle_gamma 119.486996
_cell_volume 616.568570
_symmetry_space_group_name_H-M "P -1"
_symmetry_group_IT_number 2
_symmetry_cell_setting 'triclinic'
loop_
_space_group_symop_operation_xyz
x,y,z
-x,-y,-z
loop_
_atom_site_type_symbol
_atom_site_label
_atom_site_fract_x
_atom_site_fract_y
_atom_site_fract_z
Si Si1 0.350852 0.926607 0.527610
Si Si2 0.051425 0.808735 0.083721
Si Si3 0.568476 0.360125 0.857738
Si Si4 0.097652 0.046434 0.289816
Si Si5 0.294956 0.238671 0.458579
Si Si6 0.243382 0.718100 0.858244
Si Si7 0.771039 0.483381 0.700380
Si Si8 0.741932 0.602408 0.713062
O O1 0.258482 0.880025 0.233134
O O2 0.578497 0.917677 0.666078
O O3 0.079196 0.918045 0.664089
O O4 0.500000 0.000000 0.500000
O O5 0.166966 0.761455 0.076474
O O6 0.810126 0.789196 0.277116
O O7 0.944021 0.792222 0.773648
O O8 0.428924 0.315270 0.566862
O O9 0.679248 0.322371 0.986458
O O10 0.774231 0.434299 0.864439
O O11 0.351356 0.363417 0.045580
O O12 0.000000 0.000000 0.500000
O O13 0.000000 0.000000 0.000000
O O14 0.529618 0.234715 0.302777
O O15 0.009052 0.660144 0.644001
O O16 0.776462 0.548926 0.819435
O O17 0.484847 0.437948 0.528964
O O18 0.000000 0.500000 0.500000
#
# Coordination Sequence:
#
# PCOD9032827 Si02
#       8
#     2   2   2   2   2   2   2   2
#     4  10  25  50  80 121 163 212 265 335 405 488
#     4  12  29  50  78 113 158 204 265 322 398 473
#     4  12  24  45  73 104 149 197 258 315 391 459
#     4  10  22  43  76 111 158 205 256 311 393 472
#     4  12  27  51  73 113 151 204 263 320 388 469
#     4  12  26  48  76 105 152 204 259 326 389 468
#     4  11  25  44  68 109 148 198 252 318 391 471
#     4  11  24  45  70 104 151 198 252 321 393 468
#
# _framework density 25.950071000000001
#
# number of rings (size 3 to 8) (size 9 to 14) (size 15 to 20)
#    0.000    0.750    2.500    3.750    3.500    9.000 
#    4.500    0.000    0.000    0.000    0.000    0.000 
#    0.000    0.000    0.000    0.000    0.000    0.000 
#
# Total GULP energy -89547.688347 kJ/mol
# GULP energy per Si atom -5596.730522 kJ/mol
# Density = 2.589101 g / cm^3
# Si number density = 25.950071 Si / 1000 Ang^3
#
#
#
# Elastic Constant Matrix: (Units=GPa)
#
#
# Indices 1 2 3 4 5 6 
#
# 1 163.2162 30.6658 40.5731 17.9760 4.5993 -5.4899
# 2 30.6658 105.0827 11.4188 19.4773 -12.5911 -13.8988
# 3 40.5731 11.4188 114.8940 18.6351 1.5136 -11.8537
# 4 17.9760 19.4773 18.6351 56.3680 -0.6670 -1.1344
# 5 4.5993 -12.5911 1.5136 -0.6670 38.1408 3.3543
# 6 -5.4899 -13.8988 -11.8537 -1.1344 3.3543 29.6987
#
#
#
# Elastic Compliance Matrix: (Units=1/GPa)
#
#
# Indices 1 2 3 4 5 6 
#
# 1 0.007160 -0.001887 -0.002205 -0.000925 -0.001387 -0.000318
# 2 -0.001887 0.011722 0.000514 -0.003479 0.003593 0.004803
# 3 -0.002205 0.000514 0.010290 -0.002803 -0.000363 0.003874
# 4 -0.000925 -0.003479 -0.002803 0.020117 -0.000389 -0.002106
# 5 -0.001387 0.003593 -0.000363 -0.000389 0.027744 -0.001868
# 6 -0.000318 0.004803 0.003874 -0.002106 -0.001868 0.037537
#
#
# Mechanical properties :
#
#
# Convention : Reuss Voigt Hill
#
# Bulk Modulus (GPa) = 45.42212 60.94538 53.18375
# Shear Modulus (GPa) = 38.73996 44.87718 41.80857
#
# Velocity S-wave (km/s) = 3.86795 4.16308 4.01823
# Velocity P-wave (km/s) = 6.12289 6.82971 6.48593
#
# Compressibility (1/GPa) = 0.02201571
#
# Stress axis : x y z
#
# Youngs Moduli (GPa) = 139.66890 85.31087 97.17771
#
# Poissons Ratio (x) = 0.16094 0.21432
# Poissons Ratio (y) = 0.26350 -0.04993
# Poissons Ratio (z) = 0.30803 -0.04383
#
# Static dielectric constant tensor:
#      x y z
#    x 2.178290 0.043520 0.061240 
#    y 0.043520 2.125430 -0.031860 
#    z 0.061240 -0.031860 1.973880 
# 
# From -- ./inp_files/14703.got.cif
#   From: 2010.05.17/outbox.cif.g08.bks.cpg/sg2_8_cif.got.tgz:14703.got - 2010.06.03 11:33:40.
