data_PCOD9032190
_publ_section_title
;
Structure prediction by ZEFSAII (Michael W. Deem and Ramdas Pophale) SiO2 
 PCOD9032190
Probable space group: P -1
;
_chemical_formula_sum "Si O2"
_cell_formula_units_Z 14
_cell_length_a 5.647750
_cell_length_b 8.320252
_cell_length_c 17.884011
_cell_angle_alpha 103.087509
_cell_angle_beta 64.430660
_cell_angle_gamma 124.230108
_cell_volume 626.617255
_symmetry_space_group_name_H-M "P -1"
_symmetry_group_IT_number 2
_symmetry_cell_setting 'triclinic'
loop_
_space_group_symop_operation_xyz
x,y,z
-x,-y,-z
loop_
_atom_site_type_symbol
_atom_site_label
_atom_site_fract_x
_atom_site_fract_y
_atom_site_fract_z
Si Si1 0.360221 0.720514 0.684813
Si Si2 0.223163 0.345258 0.468880
Si Si3 0.192186 0.607072 0.371170
Si Si4 0.639983 0.393721 0.016600
Si Si5 0.548125 0.789002 0.826404
Si Si6 0.751546 0.926843 0.239664
Si Si7 0.690721 0.943821 0.079258
O O1 0.655331 0.782036 0.597934
O O2 0.427818 0.674304 0.753690
O O3 0.063995 0.532120 0.669428
O O4 0.306038 0.897193 0.719484
O O5 0.500000 0.500000 0.500000
O O6 0.196463 0.462434 0.415806
O O7 0.924111 0.270444 0.553564
O O8 0.519880 0.749060 0.304167
O O9 0.449961 0.324735 0.113256
O O10 0.500000 0.500000 0.000000
O O11 0.575032 0.214290 0.954152
O O12 0.000000 0.500000 0.000000
O O13 0.331583 0.868642 0.887719
O O14 0.886144 0.977005 0.784976
O O15 0.686243 0.869114 0.155312
O O16 0.000000 0.000000 0.000000
#
# Coordination Sequence:
#
# PCOD9032190 Si02
#       7
#     2   2   2   2   2   2   2
#     4  10  23  43  66 100 138 178 225 292 341 423
#     4   9  20  42  69  96 139 176 226 284 343 419
#     4  10  22  43  70 100 134 183 226 282 350 421
#     4  12  28  44  71 103 134 187 243 295 362 424
#     4  11  25  45  66  96 140 181 229 294 352 422
#     4  11  25  41  69 100 138 180 231 287 355 414
#     4  11  24  47  68  93 140 185 231 294 353 423
#
# _framework density 22.342188
#
# number of rings (size 3 to 8) (size 9 to 14) (size 15 to 20)
#    0.000    1.429    1.429    2.143    6.000    6.286 
#    0.000   10.000    0.000    0.000    0.000    0.000 
#    0.000    0.000    0.000    0.000    0.000    0.000 
#
# Total GULP energy -78274.250023 kJ/mol
# GULP energy per Si atom -5591.017859 kJ/mol
# Density = 2.229134 g / cm^3
# Si number density = 22.342188 Si / 1000 Ang^3
#
#
#
# Elastic Constant Matrix: (Units=GPa)
#
#
# Indices 1 2 3 4 5 6 
#
# 1 96.3872 29.4274 53.0176 -2.2189 13.8832 26.1217
# 2 29.4274 63.4279 55.1455 -10.3060 5.4501 18.8794
# 3 53.0176 55.1455 152.1081 4.9316 15.0056 27.2151
# 4 -2.2189 -10.3060 4.9316 43.6044 -2.3298 -7.2451
# 5 13.8832 5.4501 15.0056 -2.3298 45.1555 -3.4133
# 6 26.1217 18.8794 27.2151 -7.2451 -3.4133 26.4152
#
#
#
# Elastic Compliance Matrix: (Units=1/GPa)
#
#
# Indices 1 2 3 4 5 6 
#
# 1 0.016631 -0.001440 -0.002075 -0.001963 -0.005449 -0.014521
# 2 -0.001440 0.026621 -0.007862 0.005756 -0.000464 -0.007984
# 3 -0.002075 -0.007862 0.011642 -0.004422 -0.002957 -0.005918
# 4 -0.001963 0.005756 -0.004422 0.026564 0.003514 0.010123
# 5 -0.005449 -0.000464 -0.002957 0.003514 0.026031 0.013094
# 6 -0.014521 -0.007984 -0.005918 0.010123 0.013094 0.068489
#
#
# Mechanical properties :
#
#
# Convention : Reuss Voigt Hill
#
# Bulk Modulus (GPa) = 31.11452 65.23380 48.17416
# Shear Modulus (GPa) = 23.87272 34.65720 29.26496
#
# Velocity S-wave (km/s) = 3.27234 3.94280 3.62311
# Velocity P-wave (km/s) = 5.31359 7.07026 6.25391
#
# Compressibility (1/GPa) = 0.03213933
#
# Stress axis : x y z
#
# Youngs Moduli (GPa) = 60.12850 37.56490 85.89798
#
# Poissons Ratio (x) = 0.05410 0.17827
# Poissons Ratio (y) = 0.08660 0.67529
# Poissons Ratio (z) = 0.12479 0.29532
#
# Static dielectric constant tensor:
#      x y z
#    x 1.858970 -0.024590 -0.023420 
#    y -0.024590 1.834440 0.000250 
#    z -0.023420 0.000250 1.839310 
# 
# From -- ./inp_files/106264.got.cif
#   From: 2010.05.17/outbox.cif.g08.bks.cpg/sg2_54_cif.got.tgz:106264.got - 2010.06.03 11:33:40.
