data_PCOD9032017
_publ_section_title
;
Structure prediction by ZEFSAII (Michael W. Deem and Ramdas Pophale) SiO2 
 PCOD9032017
Probable space group: P -1
;
_chemical_formula_sum "Si O2"
_cell_formula_units_Z 16
_cell_length_a 11.259976
_cell_length_b 8.278771
_cell_length_c 16.315445
_cell_angle_alpha 76.071373
_cell_angle_beta 46.999259
_cell_angle_gamma 42.557184
_cell_volume 638.404474
_symmetry_space_group_name_H-M "P -1"
_symmetry_group_IT_number 2
_symmetry_cell_setting 'triclinic'
loop_
_space_group_symop_operation_xyz
x,y,z
-x,-y,-z
loop_
_atom_site_type_symbol
_atom_site_label
_atom_site_fract_x
_atom_site_fract_y
_atom_site_fract_z
Si Si1 0.834067 0.887485 0.060582
Si Si2 0.690562 0.588578 0.689323
Si Si3 0.788314 0.154250 0.652425
Si Si4 0.742016 0.744969 0.481415
Si Si5 0.135880 0.683880 0.103947
Si Si6 0.717351 0.608062 0.200988
Si Si7 0.228899 0.904513 0.156003
Si Si8 0.975722 0.439363 0.256557
O O1 0.801181 0.722561 0.121484
O O2 0.961137 0.866911 0.083033
O O3 0.521518 0.207391 0.160715
O O4 0.049099 0.706455 0.907844
O O5 0.630656 0.458198 0.698014
O O6 0.644780 0.751267 0.613790
O O7 0.006951 0.340625 0.599918
O O8 0.570184 0.195337 0.727130
O O9 0.908144 0.026202 0.701082
O O10 0.000000 0.000000 0.500000
O O11 0.905582 0.475684 0.380466
O O12 0.500000 0.000000 0.500000
O O13 0.117351 0.856154 0.152034
O O14 0.043064 0.579871 0.195572
O O15 0.447284 0.399650 0.962219
O O16 0.717799 0.605418 0.299276
O O17 0.198227 0.131678 0.148787
#
# Coordination Sequence:
#
# PCOD9032017 Si02
#       8
#     2   2   2   2   2   2   2   2
#     4  10  22  45  74  98 141 188 240 294 355 431
#     4  11  27  44  76 105 138 197 237 296 366 425
#     4  12  27  45  66 103 147 183 237 299 356 433
#     4  11  25  48  73 106 145 189 248 295 357 440
#     4  10  22  43  69 105 142 183 241 303 357 429
#     4  10  24  44  69 104 139 188 235 294 361 429
#     4  11  24  43  69 103 144 186 238 299 364 426
#     4  11  24  42  72  99 138 191 237 296 361 430
#
# _framework density 25.062479
#
# number of rings (size 3 to 8) (size 9 to 14) (size 15 to 20)
#    0.000    1.250    1.250    3.375    8.750    3.500 
#    0.000    1.250    0.000    0.000    0.000    0.000 
#    0.000    0.000    0.000    0.000    0.000    0.000 
#
# Total GULP energy -89402.765296 kJ/mol
# GULP energy per Si atom -5587.672831 kJ/mol
# Density = 2.500544 g / cm^3
# Si number density = 25.062479 Si / 1000 Ang^3
#
#
#
# Elastic Constant Matrix: (Units=GPa)
#
#
# Indices 1 2 3 4 5 6 
#
# 1 144.0994 32.0098 46.8398 -0.0034 5.1579 -5.3669
# 2 32.0098 79.6643 13.1048 7.8766 -1.6024 7.1659
# 3 46.8398 13.1048 87.8650 7.4510 23.9311 -2.0949
# 4 -0.0034 7.8766 7.4510 28.4158 -4.0588 7.8565
# 5 5.1579 -1.6024 23.9311 -4.0588 31.1944 9.7132
# 6 -5.3669 7.1659 -2.0949 7.8565 9.7132 32.0380
#
#
#
# Elastic Compliance Matrix: (Units=1/GPa)
#
#
# Indices 1 2 3 4 5 6 
#
# 1 0.009313 -0.003088 -0.005428 0.002528 0.002647 0.000474
# 2 -0.003088 0.014699 -0.001445 -0.001953 0.003518 -0.004487
# 3 -0.005428 -0.001445 0.020880 -0.010397 -0.019418 0.009216
# 4 0.002528 -0.001953 -0.010397 0.045725 0.018598 -0.016671
# 5 0.002647 0.003518 -0.019418 0.018598 0.056359 -0.023260
# 6 0.000474 -0.004487 0.009216 -0.016671 -0.023260 0.044039
#
#
# Mechanical properties :
#
#
# Convention : Reuss Voigt Hill
#
# Bulk Modulus (GPa) = 40.05052 55.05973 47.55512
# Shear Modulus (GPa) = 22.80381 32.97459 27.88920
#
# Velocity S-wave (km/s) = 3.01969 3.63119 3.33946
# Velocity P-wave (km/s) = 5.30783 6.29264 5.82110
#
# Compressibility (1/GPa) = 0.02496847
#
# Stress axis : x y z
#
# Youngs Moduli (GPa) = 107.37600 68.03256 47.89200
#
# Poissons Ratio (x) = 0.21011 0.25996
# Poissons Ratio (y) = 0.33162 0.06922
# Poissons Ratio (z) = 0.58285 0.09833
#
# Static dielectric constant tensor:
#      x y z
#    x 1.965650 -0.016330 0.002690 
#    y -0.016330 2.141210 -0.003650 
#    z 0.002690 -0.003650 1.974520 
# 
# From -- ./inp_files/566717.got.cif
#   From: 2010.05.17/outbox.cif.g08.bks.cpg/sg2_284_cif.got.tgz:566717.got - 2010.06.03 11:33:40.
