data_PCOD9032720
_publ_section_title
;
Structure prediction by ZEFSAII (Michael W. Deem and Ramdas Pophale) SiO2 
 PCOD9032720
Probable space group: P -1
;
_chemical_formula_sum "Si O2"
_cell_formula_units_Z 16
_cell_length_a 23.927789
_cell_length_b 5.349785
_cell_length_c 18.040794
_cell_angle_alpha 72.579236
_cell_angle_beta 160.514190
_cell_angle_gamma 115.271948
_cell_volume 654.684541
_symmetry_space_group_name_H-M "P -1"
_symmetry_group_IT_number 2
_symmetry_cell_setting 'triclinic'
loop_
_space_group_symop_operation_xyz
x,y,z
-x,-y,-z
loop_
_atom_site_type_symbol
_atom_site_label
_atom_site_fract_x
_atom_site_fract_y
_atom_site_fract_z
Si Si1 0.511384 0.999189 0.753212
Si Si2 0.921651 0.248556 0.545481
Si Si3 0.902446 0.716959 0.850835
Si Si4 0.169943 0.549593 0.452519
Si Si5 0.502461 0.180077 0.413670
Si Si6 0.312391 0.457942 0.967774
Si Si7 0.428715 0.305333 0.855677
Si Si8 0.927082 0.037544 0.113589
O O1 0.310362 0.846094 0.559311
O O2 0.479708 0.972233 0.627485
O O3 0.630111 0.809618 0.930725
O O4 0.618575 0.321026 0.895001
O O5 0.880633 0.475113 0.521593
O O6 0.723469 0.018587 0.287169
O O7 0.995622 0.123350 0.719016
O O8 0.090655 0.341708 0.693186
O O9 0.681024 0.504025 0.606988
O O10 0.952841 0.858416 0.819857
O O11 0.000000 0.500000 0.000000
O O12 0.000000 0.000000 0.000000
O O13 0.309061 0.402071 0.641390
O O14 0.978142 0.353109 0.187607
O O15 0.500000 0.000000 0.500000
O O16 0.293774 0.155265 0.155785
O O17 0.405400 0.651567 0.995089
O O18 0.500000 0.500000 0.000000
#
# Coordination Sequence:
#
# PCOD9032720 Si02
#       8
#     2   2   2   2   2   2   2   2
#     4  11  23  45  70 101 137 184 240 289 345 424
#     4  11  23  41  73 100 135 185 237 283 349 419
#     4  12  29  48  67  98 141 186 234 298 370 423
#     4  10  22  43  73  97 136 186 234 289 350 418
#     4  12  25  46  72 103 142 188 238 303 363 416
#     4  11  24  44  72 102 138 186 236 286 346 422
#     4  10  24  45  67 105 145 181 227 288 354 421
#     4  11  24  44  67  99 134 181 238 294 348 425
#
# _framework density 24.439250999999999
#
# number of rings (size 3 to 8) (size 9 to 14) (size 15 to 20)
#    0.000    1.000    5.000    0.750    3.500    3.500 
#    2.250    0.625    0.000    0.000    0.000    0.000 
#    0.000    0.000    0.000    0.000    0.000    0.000 
#
# Total GULP energy -89380.128730 kJ/mol
# GULP energy per Si atom -5586.258046 kJ/mol
# Density = 2.438363 g / cm^3
# Si number density = 24.439251 Si / 1000 Ang^3
#
#
#
# Elastic Constant Matrix: (Units=GPa)
#
#
# Indices 1 2 3 4 5 6 
#
# 1 -693.8153 195.6810 1031.4380 1.1527 67.1395 -406.4572
# 2 195.6810 54.9078 -135.4222 14.6819 -6.1336 77.6640
# 3 1031.4380 -135.4222-1000.1910 63.2650 -44.4151 498.9601
# 4 1.1527 14.6819 63.2650 50.5802 1.2414 -21.5127
# 5 67.1395 -6.1336 -44.4151 1.2414 47.2012 39.4517
# 6 -406.4572 77.6640 498.9601 -21.5127 39.4517 -166.5846
#
#
#
# Elastic Compliance Matrix: (Units=1/GPa)
#
#
# Indices 1 2 3 4 5 6 
#
# 1 0.006469 -0.003438 0.003166 -0.006169 -0.000473 -0.007219
# 2 -0.003438 0.015818 -0.004525 0.002039 0.000840 0.002147
# 3 0.003166 -0.004525 0.004641 -0.002950 -0.003642 0.003583
# 4 -0.006169 0.002039 -0.002950 0.024839 0.001921 0.004413
# 5 -0.000473 0.000840 -0.003642 0.001921 0.022141 -0.004368
# 6 -0.007219 0.002147 0.003583 0.004413 -0.004368 0.021740
#
#
# Mechanical properties :
#
#
# Convention : Reuss Voigt Hill
#
# Bulk Modulus (GPa) = 57.68796 60.47724 59.08260
# Shear Modulus (GPa) = 45.03730 -195.81364 -75.38817
#
# Velocity S-wave (km/s) = 4.29747 -8.96083 -5.56005
# Velocity P-wave (km/s) = 6.94840 9.06986 4.12202
#
# Compressibility (1/GPa) = 0.01733464
#
# Stress axis : x y z
#
# Youngs Moduli (GPa) = 154.57706 63.21884 215.49158
#
# Poissons Ratio (x) = 0.21736 -0.68231
# Poissons Ratio (y) = 0.53147 0.97503
# Poissons Ratio (z) = -0.48943 0.28605
#
# Static dielectric constant tensor:
#      x y z
#    x 2.143740 -0.104310 0.042070 
#    y -0.104310 2.107430 -0.019620 
#    z 0.042070 -0.019620 1.951460 
# 
# From -- ./inp_files/578715.got.cif
#   From: 2010.05.17/outbox.cif.g08.bks.cpg/sg2_290_cif.got.tgz:578715.got - 2010.06.03 11:33:40.
