data_PCOD9032373
_publ_section_title
;
Structure prediction by ZEFSAII (Michael W. Deem and Ramdas Pophale) SiO2 
 PCOD9032373
Probable space group: P -1
;
_chemical_formula_sum "Si O2"
_cell_formula_units_Z 14
_cell_length_a 6.388981
_cell_length_b 16.198680
_cell_length_c 8.652561
_cell_angle_alpha 138.597748
_cell_angle_beta 77.657199
_cell_angle_gamma 100.334336
_cell_volume 578.277873
_symmetry_space_group_name_H-M "P -1"
_symmetry_group_IT_number 2
_symmetry_cell_setting 'triclinic'
loop_
_space_group_symop_operation_xyz
x,y,z
-x,-y,-z
loop_
_atom_site_type_symbol
_atom_site_label
_atom_site_fract_x
_atom_site_fract_y
_atom_site_fract_z
Si Si1 0.213558 0.087654 0.093533
Si Si2 0.573518 0.435214 0.130358
Si Si3 0.408713 0.007475 0.277229
Si Si4 0.844253 0.238910 0.001706
Si Si5 0.819897 0.420834 0.513623
Si Si6 0.740223 0.747833 0.225313
Si Si7 0.097203 0.337824 0.608821
O O1 0.333466 0.054931 0.187813
O O2 0.171561 0.234650 0.327597
O O3 0.362256 0.052041 0.875643
O O4 0.000000 0.000000 0.000000
O O5 0.392115 0.501650 0.351813
O O6 0.740602 0.546624 0.226567
O O7 0.707657 0.332174 0.051939
O O8 0.436636 0.362742 0.919372
O O9 0.388752 0.125887 0.556977
O O10 0.242045 0.900140 0.205196
O O11 0.095564 0.251536 0.942162
O O12 0.794541 0.286304 0.248324
O O13 0.000000 0.500000 0.500000
O O14 0.890515 0.396727 0.645142
O O15 0.898989 0.731162 0.324092
#
# Coordination Sequence:
#
# PCOD9032373 Si02
#       7
#     2   2   2   2   2   2   2
#     4  10  22  43  71 100 131 173 226 278 337 392
#     4  12  25  42  68  99 138 177 228 273 338 399
#     4  10  24  43  67 100 134 177 225 276 330 402
#     4  12  25  44  71  99 141 176 226 278 337 398
#     4  12  24  43  67  99 130 173 227 277 337 392
#     4  11  26  45  66 101 139 182 223 274 337 401
#     4  11  25  44  71  97 136 175 227 278 337 397
#
# _framework density 24.209814000000001
#
# number of rings (size 3 to 8) (size 9 to 14) (size 15 to 20)
#    0.000    0.857    2.857    3.000    2.000    9.714 
#    0.000    0.000    0.000    0.000    0.000    0.000 
#    0.000    0.000    0.000    0.000    0.000    0.000 
#
# Total GULP energy -78355.754153 kJ/mol
# GULP energy per Si atom -5596.839582 kJ/mol
# Density = 2.415471 g / cm^3
# Si number density = 24.209814 Si / 1000 Ang^3
#
#
#
# Elastic Constant Matrix: (Units=GPa)
#
#
# Indices 1 2 3 4 5 6 
#
# 1 81.0097 9.6077 43.7831 2.2334 -3.8715 -7.4687
# 2 9.6077 49.9031 23.2456 23.4611 -3.2494 -7.3224
# 3 43.7831 23.2456 159.5207 26.5361 -2.1288 1.2648
# 4 2.2334 23.4611 26.5361 35.8334 1.1580 3.3591
# 5 -3.8715 -3.2494 -2.1288 1.1580 37.5842 2.2114
# 6 -7.4687 -7.3224 1.2648 3.3591 2.2114 28.9431
#
#
#
# Elastic Compliance Matrix: (Units=1/GPa)
#
#
# Indices 1 2 3 4 5 6 
#
# 1 0.015223 -0.001844 -0.004461 0.003233 0.000867 0.003215
# 2 -0.001844 0.032598 -0.000667 -0.021769 0.002666 0.010123
# 3 -0.004461 -0.000667 0.008516 -0.005498 0.000197 -0.001069
# 4 0.003233 -0.021769 -0.005498 0.047025 -0.002740 -0.009681
# 5 0.000867 0.002666 0.000197 -0.002740 0.027073 -0.000861
# 6 0.003215 0.010123 -0.001069 -0.009681 -0.000861 0.039177
#
#
# Mechanical properties :
#
#
# Convention : Reuss Voigt Hill
#
# Bulk Modulus (GPa) = 23.59014 49.30071 36.44542
# Shear Modulus (GPa) = 25.29233 34.72528 30.00881
#
# Velocity S-wave (km/s) = 3.23571 3.79139 3.52452
# Velocity P-wave (km/s) = 4.87083 6.29081 5.62580
#
# Compressibility (1/GPa) = 0.04239060
#
# Stress axis : x y z
#
# Youngs Moduli (GPa) = 65.69121 30.67683 117.42476
#
# Poissons Ratio (x) = 0.05658 0.52384
# Poissons Ratio (y) = 0.12117 0.07838
# Poissons Ratio (z) = 0.29305 0.02048
#
# Static dielectric constant tensor:
#      x y z
#    x 1.874000 -0.029600 -0.020630 
#    y -0.029600 1.925540 -0.029390 
#    z -0.020630 -0.029390 1.904980 
# 
# From -- ./inp_files/101632.got.cif
#   From: 2010.05.17/outbox.cif.g08.bks.cpg/sg2_51_cif.got.tgz:101632.got - 2010.06.03 11:33:40.
