data_PCOD9032312
_publ_section_title
;
Structure prediction by ZEFSAII (Michael W. Deem and Ramdas Pophale) SiO2 
 PCOD9032312
Probable space group: P -1
;
_chemical_formula_sum "Si O2"
_cell_formula_units_Z 14
_cell_length_a 14.006645
_cell_length_b 6.265006
_cell_length_c 9.570134
_cell_angle_alpha 55.152059
_cell_angle_beta 62.788582
_cell_angle_gamma 59.511897
_cell_volume 577.032180
_symmetry_space_group_name_H-M "P -1"
_symmetry_group_IT_number 2
_symmetry_cell_setting 'triclinic'
loop_
_space_group_symop_operation_xyz
x,y,z
-x,-y,-z
loop_
_atom_site_type_symbol
_atom_site_label
_atom_site_fract_x
_atom_site_fract_y
_atom_site_fract_z
Si Si1 0.029950 0.096481 0.791674
Si Si2 0.810763 0.556574 0.756809
Si Si3 0.401301 0.767262 0.626523
Si Si4 0.303262 0.836855 0.378056
Si Si5 0.776457 0.687911 0.335570
Si Si6 0.795104 0.479811 0.120621
Si Si7 0.587184 0.459135 0.828351
O O1 0.110326 0.281944 0.687427
O O2 0.914789 0.300175 0.724753
O O3 0.106910 0.802467 0.787282
O O4 0.000000 0.000000 0.000000
O O5 0.693655 0.527010 0.793443
O O6 0.793554 0.876330 0.624162
O O7 0.821426 0.532191 0.926224
O O8 0.325258 0.572279 0.778916
O O9 0.516192 0.656372 0.678256
O O10 0.599910 0.209213 0.549288
O O11 0.325953 0.056954 0.633817
O O12 0.250937 0.590251 0.512773
O O13 0.358490 0.824700 0.191584
O O14 0.787996 0.710776 0.152353
O O15 0.500000 0.500000 0.000000
#
# Coordination Sequence:
#
# PCOD9032312 Si02
#       7
#     2   2   2   2   2   2   2
#     4   9  21  41  68 100 137 174 225 276 328 401
#     4  11  24  40  64 105 135 170 230 279 327 400
#     4  10  22  46  67  95 134 179 223 270 334 401
#     4  11  26  42  66 100 140 176 219 273 344 402
#     4  10  22  43  70  96 134 186 214 269 345 399
#     4   9  20  40  69  98 131 175 225 273 330 395
#     4  12  26  44  70  99 133 178 227 284 331 385
#
# _framework density 24.262079
#
# number of rings (size 3 to 8) (size 9 to 14) (size 15 to 20)
#    0.000    1.714    1.429    1.286    2.000    9.143 
#    0.000   10.000    0.000    0.000    0.000    0.000 
#    0.000    0.000    0.000    0.000    0.000    0.000 
#
# Total GULP energy -78274.554160 kJ/mol
# GULP energy per Si atom -5591.039583 kJ/mol
# Density = 2.420686 g / cm^3
# Si number density = 24.262079 Si / 1000 Ang^3
#
#
#
# Elastic Constant Matrix: (Units=GPa)
#
#
# Indices 1 2 3 4 5 6 
#
# 1 106.4249 65.5620 30.2966 -10.4779 -6.4962 -25.0833
# 2 65.5620 95.7113 28.4776 9.7873 6.1955 9.1402
# 3 30.2966 28.4776 54.8033 14.3821 16.7003 0.1328
# 4 -10.4779 9.7873 14.3821 38.8147 6.2871 11.9051
# 5 -6.4962 6.1955 16.7003 6.2871 38.9003 12.2578
# 6 -25.0833 9.1402 0.1328 11.9051 12.2578 37.6938
#
#
#
# Elastic Compliance Matrix: (Units=1/GPa)
#
#
# Indices 1 2 3 4 5 6 
#
# 1 0.034116 -0.023783 -0.011084 0.011353 0.005075 0.023272
# 2 -0.023783 0.029447 0.000234 -0.007545 -0.001177 -0.020202
# 3 -0.011084 0.000234 0.031848 -0.012932 -0.013794 0.001025
# 4 0.011353 -0.007545 -0.012932 0.035865 0.003845 -0.003148
# 5 0.005075 -0.001177 -0.013794 0.003845 0.034824 -0.008827
# 6 0.023272 -0.020202 0.001025 -0.003148 -0.008827 0.050776
#
#
# Mechanical properties :
#
#
# Convention : Reuss Voigt Hill
#
# Bulk Modulus (GPa) = 38.24993 56.17908 47.21451
# Shear Modulus (GPa) = 16.95750 31.92198 24.43974
#
# Velocity S-wave (km/s) = 2.64660 3.63121 3.17728
# Velocity P-wave (km/s) = 5.01386 6.38642 5.74130
#
# Compressibility (1/GPa) = 0.02614384
#
# Stress axis : x y z
#
# Youngs Moduli (GPa) = 29.31219 33.95952 31.39964
#
# Poissons Ratio (x) = 0.80766 0.34803
# Poissons Ratio (y) = 0.69714 -0.00735
# Poissons Ratio (z) = 0.32489 -0.00795
#
# Static dielectric constant tensor:
#      x y z
#    x 1.915200 -0.033030 0.029230 
#    y -0.033030 1.973860 0.015560 
#    z 0.029230 0.015560 2.002220 
# 
# From -- ./inp_files/98622.got.cif
#   From: 2010.05.17/outbox.cif.g08.bks.cpg/sg2_50_cif.got.tgz:98622.got - 2010.06.03 11:33:40.
