data_PCOD9032191
_publ_section_title
;
Structure prediction by ZEFSAII (Michael W. Deem and Ramdas Pophale) SiO2 
 PCOD9032191
Probable space group: P -1
;
_chemical_formula_sum "Si O2"
_cell_formula_units_Z 14
_cell_length_a 4.974235
_cell_length_b 17.329841
_cell_length_c 8.085901
_cell_angle_alpha 121.690641
_cell_angle_beta 92.616198
_cell_angle_gamma 114.461808
_cell_volume 507.737573
_symmetry_space_group_name_H-M "P -1"
_symmetry_group_IT_number 2
_symmetry_cell_setting 'triclinic'
loop_
_space_group_symop_operation_xyz
x,y,z
-x,-y,-z
loop_
_atom_site_type_symbol
_atom_site_label
_atom_site_fract_x
_atom_site_fract_y
_atom_site_fract_z
Si Si1 0.907501 0.713953 0.605185
Si Si2 0.173494 0.566356 0.415641
Si Si3 0.376261 0.568180 0.982125
Si Si4 0.652935 0.956123 0.734065
Si Si5 0.221970 0.248081 0.005817
Si Si6 0.401218 0.100957 0.957148
Si Si7 0.264820 0.207360 0.619994
O O1 0.545229 0.614157 0.483352
O O2 0.955337 0.767259 0.845650
O O3 0.913981 0.787757 0.540905
O O4 0.123681 0.665996 0.525353
O O5 0.392025 0.371012 0.099147
O O6 0.970496 0.495505 0.174579
O O7 0.000000 0.500000 0.500000
O O8 0.500000 0.500000 0.000000
O O9 0.451269 0.672324 0.205257
O O10 0.620215 0.873177 0.502696
O O11 0.508228 0.029438 0.786301
O O12 0.534085 0.899205 0.845705
O O13 0.023911 0.034591 0.854889
O O14 0.475803 0.212897 0.011352
O O15 0.071267 0.187948 0.761952
#
# Coordination Sequence:
#
# PCOD9032191 Si02
#       7
#     2   2   2   2   2   2   2
#     4  12  25  45  70  99 143 181 236 290 342 410
#     4  12  24  43  70  98 136 192 236 284 347 409
#     4  10  22  46  66 106 141 183 238 288 341 415
#     4  10  22  43  70 100 136 174 223 287 347 407
#     4  10  23  44  71 105 137 185 234 281 348 422
#     4  10  22  43  70 101 133 176 228 280 344 421
#     4  10  23  44  70 104 139 184 226 291 347 412
#
# _framework density 27.573298999999999
#
# number of rings (size 3 to 8) (size 9 to 14) (size 15 to 20)
#    0.857    0.571    4.286    0.429    0.000    4.000 
#    0.000   10.000    0.000    0.000    0.000    0.000 
#    0.000    0.000    0.000    0.000    0.000    0.000 
#
# Total GULP energy -78518.929234 kJ/mol
# GULP energy per Si atom -5608.494945 kJ/mol
# Density = 2.751054 g / cm^3
# Si number density = 27.573299 Si / 1000 Ang^3
#
#
#
# Elastic Constant Matrix: (Units=GPa)
#
#
# Indices 1 2 3 4 5 6 
#
# 1 102.6801 34.4703 35.0414 5.2725 -1.7459 -13.0562
# 2 34.4703 155.4825 45.1697 -10.5211 -6.1638 -17.8888
# 3 35.0414 45.1697 196.0312 -2.0930 -15.5306 -11.5587
# 4 5.2725 -10.5211 -2.0930 60.4650 -2.7439 -9.8888
# 5 -1.7459 -6.1638 -15.5306 -2.7439 38.8323 4.1744
# 6 -13.0562 -17.8888 -11.5587 -9.8888 4.1744 44.0416
#
#
#
# Elastic Compliance Matrix: (Units=1/GPa)
#
#
# Indices 1 2 3 4 5 6 
#
# 1 0.011191 -0.001916 -0.001509 -0.001071 -0.000692 0.001968
# 2 -0.001916 0.007656 -0.001208 0.001906 0.000501 0.002605
# 3 -0.001509 -0.001208 0.005842 0.000293 0.002047 0.000467
# 4 -0.001071 0.001906 0.000293 0.017747 0.001152 0.004409
# 5 -0.000692 0.000501 0.002047 0.001152 0.026889 -0.001754
# 6 0.001968 0.002605 0.000467 0.004409 -0.001754 0.025626
#
#
# Mechanical properties :
#
#
# Convention : Reuss Voigt Hill
#
# Bulk Modulus (GPa) = 64.83952 75.95074 70.39513
# Shear Modulus (GPa) = 45.72136 51.30195 48.51166
#
# Velocity S-wave (km/s) = 4.07649 4.31811 4.19904
# Velocity P-wave (km/s) = 6.76191 7.24336 7.00677
#
# Compressibility (1/GPa) = 0.01542269
#
# Stress axis : x y z
#
# Youngs Moduli (GPa) = 89.35994 130.61888 171.16859
#
# Poissons Ratio (x) = 0.25026 0.25831
# Poissons Ratio (y) = 0.17121 0.20676
# Poissons Ratio (z) = 0.13485 0.15778
#
# Static dielectric constant tensor:
#      x y z
#    x 2.167480 0.110650 0.042770 
#    y 0.110650 2.201200 -0.040040 
#    z 0.042770 -0.040040 2.162160 
# 
# From -- ./inp_files/139575.got.cif
#   From: 2010.05.17/outbox.cif.g08.bks.cpg/sg2_70_cif.got.tgz:139575.got - 2010.06.03 11:33:40.
