data_PCOD9032179
_publ_section_title
;
Structure prediction by ZEFSAII (Michael W. Deem and Ramdas Pophale) SiO2 
 PCOD9032179
Probable space group: P -1
;
_chemical_formula_sum "Si O2"
_cell_formula_units_Z 13
_cell_length_a 14.688400
_cell_length_b 9.433194
_cell_length_c 9.153673
_cell_angle_alpha 126.177310
_cell_angle_beta 132.211092
_cell_angle_gamma 38.476304
_cell_volume 578.774934
_symmetry_space_group_name_H-M "P -1"
_symmetry_group_IT_number 2
_symmetry_cell_setting 'triclinic'
loop_
_space_group_symop_operation_xyz
x,y,z
-x,-y,-z
loop_
_atom_site_type_symbol
_atom_site_label
_atom_site_fract_x
_atom_site_fract_y
_atom_site_fract_z
Si Si1 0.500000 0.500000 0.500000
Si Si2 0.957157 0.858870 0.282637
Si Si3 0.082316 0.283724 0.560066
Si Si4 0.607212 0.137698 0.933086
Si Si5 0.104368 0.886179 0.191441
Si Si6 0.544135 0.040668 0.227715
Si Si7 0.565249 0.424244 0.801693
O O1 0.518306 0.270209 0.348560
O O2 0.419471 0.531099 0.599411
O O3 0.980681 0.684103 0.322225
O O4 0.051873 0.783478 0.184926
O O5 0.771281 0.017581 0.125897
O O6 0.000000 0.000000 0.500000
O O7 0.000000 0.500000 0.500000
O O8 0.075176 0.098076 0.366861
O O9 0.267451 0.165410 0.683551
O O10 0.467750 0.379688 0.012523
O O11 0.616964 0.217433 0.833677
O O12 0.556457 0.983152 0.781640
O O13 0.295331 0.686373 0.240523
O O14 0.000000 0.000000 0.000000
O O15 0.500000 0.000000 0.000000
#
# Coordination Sequence:
#
# PCOD9032179 Si02
#       7
#     1   2   2   2   2   2   2
#     4  12  24  46  72 102 140 192 242 308 360 432
#     4  10  22  43  69  99 141 194 240 291 369 447
#     4  11  25  44  69 103 143 192 241 302 376 442
#     4  11  24  44  73 105 144 196 243 300 380 438
#     4  11  23  44  71  99 143 185 240 301 364 442
#     4  12  24  45  75 104 147 190 249 303 370 439
#     4  11  24  42  70 108 141 184 246 301 367 434
#
# _framework density 22.461234999999999
#
# number of rings (size 3 to 8) (size 9 to 14) (size 15 to 20)
#    0.000    0.923    6.154    0.000    4.308    1.846 
#    0.000    0.769    0.000    0.000    0.000    0.000 
#    0.000    0.000    0.000    0.000    0.000    0.000 
#
# Total GULP energy -72409.528819 kJ/mol
# GULP energy per Si atom -5569.963755 kJ/mol
# Density = 2.241011 g / cm^3
# Si number density = 22.461235 Si / 1000 Ang^3
#
#
#
# Elastic Constant Matrix: (Units=GPa)
#
#
# Indices 1 2 3 4 5 6 
#
# 1 164.4236 74.9436 42.9833 -9.0314 -9.9935 29.3312
# 2 74.9436 128.1880 37.0838 -3.8083 4.4889 36.8853
# 3 42.9833 37.0838 91.1364 -16.5971 6.3570 11.4475
# 4 -9.0314 -3.8083 -16.5971 26.2654 6.5825 -16.7684
# 5 -9.9935 4.4889 6.3570 6.5825 42.4607 -3.2562
# 6 29.3312 36.8853 11.4475 -16.7684 -3.2562 37.4484
#
#
#
# Elastic Compliance Matrix: (Units=1/GPa)
#
#
# Indices 1 2 3 4 5 6 
#
# 1 0.009244 -0.003739 -0.003035 -0.002194 0.003109 -0.003342
# 2 -0.003739 0.015950 -0.004793 -0.012591 -0.001205 -0.017060
# 3 -0.003035 -0.004793 0.016340 0.015091 -0.004343 0.008483
# 4 -0.002194 -0.012591 0.015091 0.074213 -0.009737 0.041891
# 5 0.003109 -0.001205 -0.004343 -0.009737 0.026418 -0.001984
# 6 -0.003342 -0.017060 0.008483 0.041891 -0.001984 0.062117
#
#
# Mechanical properties :
#
#
# Convention : Reuss Voigt Hill
#
# Bulk Modulus (GPa) = 54.34641 77.08549 65.71595
# Shear Modulus (GPa) = 21.40875 36.48406 28.94640
#
# Velocity S-wave (km/s) = 3.09065 4.03465 3.59378
# Velocity P-wave (km/s) = 6.08147 7.48988 6.82212
#
# Compressibility (1/GPa) = 0.01840048
#
# Stress axis : x y z
#
# Youngs Moduli (GPa) = 108.17744 62.69439 61.19946
#
# Poissons Ratio (x) = 0.23440 0.18576
# Poissons Ratio (y) = 0.40444 0.29333
# Poissons Ratio (z) = 0.32835 0.30050
#
# Static dielectric constant tensor:
#      x y z
#    x 1.920100 0.022860 -0.073030 
#    y 0.022860 1.656650 0.219910 
#    z -0.073030 0.219910 1.646470 
# 
# From -- ./inp_files/297000.got.cif
#   From: 2010.05.17/outbox.cif.g08.bks.cpg/sg2_149_cif.got.tgz:297000.got - 2010.06.03 11:33:40.
