data_PCOD9032164
_publ_section_title
;
Structure prediction by ZEFSAII (Michael W. Deem and Ramdas Pophale) SiO2 
 PCOD9032164
Probable space group: P -1
;
_chemical_formula_sum "Si O2"
_cell_formula_units_Z 16
_cell_length_a 12.144152
_cell_length_b 9.474744
_cell_length_c 11.296290
_cell_angle_alpha 61.638505
_cell_angle_beta 89.150430
_cell_angle_gamma 43.433364
_cell_volume 658.957477
_symmetry_space_group_name_H-M "P -1"
_symmetry_group_IT_number 2
_symmetry_cell_setting 'triclinic'
loop_
_space_group_symop_operation_xyz
x,y,z
-x,-y,-z
loop_
_atom_site_type_symbol
_atom_site_label
_atom_site_fract_x
_atom_site_fract_y
_atom_site_fract_z
Si Si1 0.807107 0.459094 0.071413
Si Si2 0.418693 0.824664 0.040201
Si Si3 0.077969 0.470340 0.768958
Si Si4 0.522374 0.789339 0.545772
Si Si5 0.608169 0.386291 0.417492
Si Si6 0.140035 0.562002 0.176546
Si Si7 0.174172 0.587147 0.512007
Si Si8 0.852377 0.043796 0.149094
O O1 0.958714 0.353332 0.200933
O O2 0.836592 0.243471 0.111692
O O3 0.606061 0.697123 0.046832
O O4 0.820979 0.536132 0.918083
O O5 0.344106 0.813098 0.931559
O O6 0.248563 0.151432 0.941635
O O7 0.482586 0.632537 0.223376
O O8 0.149275 0.476924 0.650134
O O9 0.906686 0.551728 0.714064
O O10 0.370338 0.825720 0.536670
O O11 0.684218 0.545780 0.734760
O O12 0.633888 0.663019 0.469164
O O13 0.500000 0.000000 0.500000
O O14 0.500000 0.500000 0.500000
O O15 0.792139 0.280421 0.477899
O O16 0.958997 0.885460 0.085348
O O17 0.992747 0.802648 0.341914
#
# Coordination Sequence:
#
# PCOD9032164 Si02
#       8
#     2   2   2   2   2   2   2   2
#     4  12  23  41  70 101 134 179 241 278 341 407
#     4  11  24  44  70 103 138 184 229 284 341 409
#     4  11  25  44  69 101 144 183 229 282 345 406
#     4  10  23  41  69 100 136 176 227 285 341 409
#     4  10  22  43  69  99 137 176 227 277 347 404
#     4  10  24  43  62  99 135 181 227 283 343 400
#     4  10  23  46  68 100 140 188 223 281 348 402
#     4  10  24  44  70  95 140 181 231 287 340 413
#
# _framework density 24.280778999999999
#
# number of rings (size 3 to 8) (size 9 to 14) (size 15 to 20)
#    0.000    1.500    1.250    2.250    1.750   12.000 
#    4.500    0.000    0.000    0.000    0.000    0.000 
#    0.000    0.000    0.000    0.000    0.000    0.000 
#
# Total GULP energy -89331.659220 kJ/mol
# GULP energy per Si atom -5583.228701 kJ/mol
# Density = 2.422551 g / cm^3
# Si number density = 24.280779 Si / 1000 Ang^3
#
#
#
# Elastic Constant Matrix: (Units=GPa)
#
#
# Indices 1 2 3 4 5 6 
#
# 1 156.2884 32.6407 61.8676 10.8207 9.5926 43.0384
# 2 32.6407 60.6990 19.0499 3.6318 -7.2231 21.5033
# 3 61.8676 19.0499 94.1639 18.1141 -15.0612 -1.6595
# 4 10.8207 3.6318 18.1141 29.2714 3.6553 -3.0893
# 5 9.5926 -7.2231 -15.0612 3.6553 37.2396 2.0591
# 6 43.0384 21.5033 -1.6595 -3.0893 2.0591 36.0526
#
#
#
# Elastic Compliance Matrix: (Units=1/GPa)
#
#
# Indices 1 2 3 4 5 6 
#
# 1 0.019020 0.001743 -0.014876 0.000606 -0.009319 -0.023846
# 2 0.001743 0.023680 -0.005235 -0.002521 0.003205 -0.016845
# 3 -0.014876 -0.005235 0.025652 -0.009176 0.012957 0.020536
# 4 0.000606 -0.002521 -0.009176 0.041479 -0.008671 0.004408
# 5 -0.009319 0.003205 0.012957 -0.008671 0.035578 0.007034
# 6 -0.023846 -0.016845 0.020536 0.004408 0.007034 0.067172
#
#
# Mechanical properties :
#
#
# Convention : Reuss Voigt Hill
#
# Bulk Modulus (GPa) = 31.62955 59.80751 45.71853
# Shear Modulus (GPa) = 19.24145 33.68559 26.46352
#
# Velocity S-wave (km/s) = 2.81811 3.72874 3.30494
# Velocity P-wave (km/s) = 4.86250 6.57443 5.78217
#
# Compressibility (1/GPa) = 0.03161600
#
# Stress axis : x y z
#
# Youngs Moduli (GPa) = 52.57679 42.22945 38.98257
#
# Poissons Ratio (x) = -0.07362 0.57992
# Poissons Ratio (y) = -0.09166 0.20409
# Poissons Ratio (z) = 0.78215 0.22108
#
# Static dielectric constant tensor:
#      x y z
#    x 2.028060 -0.043760 0.079490 
#    y -0.043760 1.993260 -0.079580 
#    z 0.079490 -0.079580 2.047430 
# 
# From -- ./inp_files/419166.got.cif
#   From: 2010.05.17/outbox.cif.g08.bks.cpg/sg2_210_cif.got.tgz:419166.got - 2010.06.03 11:33:40.
