data_PCOD9032671
_publ_section_title
;
Structure prediction by ZEFSAII (Michael W. Deem and Ramdas Pophale) SiO2 
 PCOD9032671
Probable space group: P -1
;
_chemical_formula_sum "Si O2"
_cell_formula_units_Z 16
_cell_length_a 12.981935
_cell_length_b 10.642552
_cell_length_c 6.887463
_cell_angle_alpha 47.343662
_cell_angle_beta 99.653644
_cell_angle_gamma 79.354738
_cell_volume 628.786328
_symmetry_space_group_name_H-M "P -1"
_symmetry_group_IT_number 2
_symmetry_cell_setting 'triclinic'
loop_
_space_group_symop_operation_xyz
x,y,z
-x,-y,-z
loop_
_atom_site_type_symbol
_atom_site_label
_atom_site_fract_x
_atom_site_fract_y
_atom_site_fract_z
Si Si1 0.808071 0.626313 0.752164
Si Si2 0.385479 0.239870 0.250432
Si Si3 0.621551 0.387207 0.053444
Si Si4 0.236023 0.872726 0.328025
Si Si5 0.985693 0.509629 0.253823
Si Si6 0.420076 0.013343 0.145380
Si Si7 0.261601 0.644340 0.240401
Si Si8 0.992856 0.099721 0.190048
O O1 0.707537 0.812294 0.611579
O O2 0.764956 0.527189 0.667594
O O3 0.905865 0.658847 0.627888
O O4 0.878570 0.518228 0.083091
O O5 0.501118 0.142525 0.510151
O O6 0.396500 0.198054 0.072449
O O7 0.328377 0.457869 0.054457
O O8 0.702416 0.193212 0.376527
O O9 0.500000 0.500000 0.000000
O O10 0.633369 0.359666 0.854739
O O11 0.301491 0.986720 0.122140
O O12 0.280440 0.673063 0.438788
O O13 0.100025 0.971888 0.221087
O O14 0.000000 0.500000 0.500000
O O15 0.991627 0.706422 0.996727
O O16 0.500000 0.000000 0.000000
O O17 0.141287 0.827362 0.985132
O O18 0.000000 0.000000 0.500000
#
# Coordination Sequence:
#
# PCOD9032671 Si02
#       8
#     2   2   2   2   2   2   2   2
#     4   9  21  43  65 101 136 181 228 293 344 423
#     4  10  23  43  66  92 133 177 225 292 352 403
#     4  11  23  43  71  96 136 182 235 291 345 416
#     4  12  25  44  73 103 141 190 234 287 366 426
#     4  10  22  43  73 101 140 185 241 286 357 421
#     4  11  26  44  66  99 136 180 237 293 350 420
#     4  10  24  42  69 106 139 184 232 286 357 430
#     4  11  23  46  72 105 145 188 236 298 357 428
#
# _framework density 25.445844999999998
#
# number of rings (size 3 to 8) (size 9 to 14) (size 15 to 20)
#    0.000    1.500    2.500    1.125    1.750    8.500 
#   13.500    0.000    0.000    0.000    0.000    0.000 
#    0.000    0.000    0.000    0.000    0.000    0.000 
#
# Total GULP energy -89094.170222 kJ/mol
# GULP energy per Si atom -5568.385639 kJ/mol
# Density = 2.538793 g / cm^3
# Si number density = 25.445845 Si / 1000 Ang^3
#
#
#
# Elastic Constant Matrix: (Units=GPa)
#
#
# Indices 1 2 3 4 5 6 
#
# 1 88.7504 38.2632 7.1223 12.1142 6.4749 -30.9393
# 2 38.2632 129.8504 20.1115 32.1776 -20.7906 -25.6316
# 3 7.1223 20.1115 57.0892 16.3240 -10.0832 12.6334
# 4 12.1142 32.1776 16.3240 43.1982 -3.7985 -3.5116
# 5 6.4749 -20.7906 -10.0832 -3.7985 29.9906 -3.7333
# 6 -30.9393 -25.6316 12.6334 -3.5116 -3.7333 49.2537
#
#
#
# Elastic Compliance Matrix: (Units=1/GPa)
#
#
# Indices 1 2 3 4 5 6 
#
# 1 0.016797 -0.003374 -0.003911 -0.000508 -0.006188 0.009293
# 2 -0.003374 0.013235 -0.001846 -0.006975 0.009076 0.005432
# 3 -0.003911 -0.001846 0.023672 -0.006769 0.005476 -0.009557
# 4 -0.000508 -0.006975 -0.006769 0.030748 -0.003139 -0.000258
# 5 -0.006188 0.009076 0.005476 -0.003139 0.042719 0.002446
# 6 0.009293 0.005432 -0.009557 -0.000258 0.002446 0.031586
#
#
# Mechanical properties :
#
#
# Convention : Reuss Voigt Hill
#
# Bulk Modulus (GPa) = 28.21589 45.18711 36.70150
# Shear Modulus (GPa) = 26.47826 38.50137 32.48982
#
# Velocity S-wave (km/s) = 3.22929 3.89404 3.57714
# Velocity P-wave (km/s) = 5.00171 6.16561 5.61391
#
# Compressibility (1/GPa) = 0.03544102
#
# Stress axis : x y z
#
# Youngs Moduli (GPa) = 59.53615 75.55513 42.24340
#
# Poissons Ratio (x) = 0.25495 0.16521
# Poissons Ratio (y) = 0.20089 0.07799
# Poissons Ratio (z) = 0.23285 0.13950
#
# Static dielectric constant tensor:
#      x y z
#    x -1.228670 0.245390 0.337300 
#    y 0.245390 2.042340 -0.007690 
#    z 0.337300 -0.007690 2.068400 
# 
# From -- ./inp_files/94425.got.cif
#   From: 2010.05.17/outbox.cif.g08.bks.cpg/sg2_48_cif.got.tgz:94425.got - 2010.06.03 11:33:40.
