data_PCOD9032511
_publ_section_title
;
Structure prediction by ZEFSAII (Michael W. Deem and Ramdas Pophale) SiO2 
 PCOD9032511
Probable space group: P -1
;
_chemical_formula_sum "Si O2"
_cell_formula_units_Z 12
_cell_length_a 16.273599
_cell_length_b 25.207907
_cell_length_c 6.383868
_cell_angle_alpha 46.183713
_cell_angle_beta 124.202507
_cell_angle_gamma 161.933835
_cell_volume 529.218231
_symmetry_space_group_name_H-M "P -1"
_symmetry_group_IT_number 2
_symmetry_cell_setting 'triclinic'
loop_
_space_group_symop_operation_xyz
x,y,z
-x,-y,-z
loop_
_atom_site_type_symbol
_atom_site_label
_atom_site_fract_x
_atom_site_fract_y
_atom_site_fract_z
Si Si1 0.294528 0.149629 0.920631
Si Si2 0.550952 0.185522 0.198363
Si Si3 0.201517 0.836896 0.939673
Si Si4 0.236180 0.174122 0.175711
Si Si5 0.988728 0.431590 0.850391
Si Si6 0.370414 0.493415 0.834241
O O1 0.460238 0.336697 0.556042
O O2 0.432172 0.174642 0.942113
O O3 0.312724 0.160101 0.170787
O O4 0.952706 0.909238 0.028410
O O5 0.779436 0.380157 0.158581
O O6 0.314388 0.977645 0.560271
O O7 0.691964 0.229630 0.112418
O O8 0.013457 0.646103 0.062995
O O9 0.973422 0.721353 0.083821
O O10 0.500000 0.000000 0.000000
O O11 0.517360 0.402908 0.059783
O O12 0.000000 0.000000 0.500000
O O13 0.000000 0.500000 0.500000
O O14 0.500000 0.500000 0.000000
#
# Coordination Sequence:
#
# PCOD9032511 Si02
#       6
#     2   2   2   2   2   2
#     4  10  22  43  71  98 133 181 235 282 347 410
#     4  11  25  42  74 100 136 186 233 286 348 410
#     4  12  26  46  70 105 143 182 234 286 346 415
#     4   9  21  42  68  93 135 178 231 276 345 404
#     4  11  23  46  69  97 142 185 230 285 348 412
#     4  11  26  45  68 102 144 181 227 287 346 411
#
# _framework density 22.674955000000001
#
# number of rings (size 3 to 8) (size 9 to 14) (size 15 to 20)
#    0.000    1.333    1.667    2.500    9.333    3.333 
#    6.000    0.000    0.000    0.000    0.000    0.000 
#    0.000    0.000    0.000    0.000    0.000    0.000 
#
# Total GULP energy -66823.266736 kJ/mol
# GULP energy per Si atom -5568.605561 kJ/mol
# Density = 2.262335 g / cm^3
# Si number density = 22.674955 Si / 1000 Ang^3
#
#
#
# Elastic Constant Matrix: (Units=GPa)
#
#
# Indices 1 2 3 4 5 6 
#
# 1 123.1754 33.9463 35.2668 1.3946 6.9702 20.7485
# 2 33.9463 74.4197 6.8461 -2.1089 -5.9913 13.7991
# 3 35.2668 6.8461 104.8299 -17.9582 4.4600 19.9970
# 4 1.3946 -2.1089 -17.9582 21.7021 -2.6007 -5.4760
# 5 6.9702 -5.9913 4.4600 -2.6007 40.5514 0.7074
# 6 20.7485 13.7991 19.9970 -5.4760 0.7074 40.5001
#
#
#
# Elastic Compliance Matrix: (Units=1/GPa)
#
#
# Indices 1 2 3 4 5 6 
#
# 1 0.011120 -0.004523 -0.003664 -0.005241 -0.002460 -0.003012
# 2 -0.004523 0.016387 0.001454 0.002545 0.003266 -0.003697
# 3 -0.003664 0.001454 0.013151 0.010337 0.000126 -0.003716
# 4 -0.005241 0.002545 0.010337 0.056751 0.003704 0.004323
# 5 -0.002460 0.003266 0.000126 0.003704 0.025787 0.000136
# 6 -0.003012 -0.003697 -0.003716 0.004323 0.000136 0.029911
#
#
# Mechanical properties :
#
#
# Convention : Reuss Voigt Hill
#
# Bulk Modulus (GPa) = 36.77668 50.50482 43.64075
# Shear Modulus (GPa) = 28.46745 35.64177 32.05461
#
# Velocity S-wave (km/s) = 3.54709 3.96897 3.76394
# Velocity P-wave (km/s) = 5.74718 6.58220 6.17881
#
# Compressibility (1/GPa) = 0.02719114
#
# Stress axis : x y z
#
# Youngs Moduli (GPa) = 89.92645 61.02218 76.03800
#
# Poissons Ratio (x) = 0.27603 0.27862
# Poissons Ratio (y) = 0.40677 -0.11054
# Poissons Ratio (z) = 0.32951 -0.08871
#
# Static dielectric constant tensor:
#      x y z
#    x 2.001460 0.100270 -0.038420 
#    y 0.100270 1.956670 -0.007390 
#    z -0.038420 -0.007390 1.831800 
# 
# From -- ./inp_files/35613.got.cif
#   From: 2010.05.17/outbox.cif.g08.bks.cpg/sg2_18_cif.got.tgz:35613.got - 2010.06.03 11:33:40.
