data_PCOD9032472
_publ_section_title
;
Structure prediction by ZEFSAII (Michael W. Deem and Ramdas Pophale) SiO2 
 PCOD9032472
Probable space group: P -1
;
_chemical_formula_sum "Si O2"
_cell_formula_units_Z 14
_cell_length_a 12.397569
_cell_length_b 17.110950
_cell_length_c 8.180936
_cell_angle_alpha 125.968581
_cell_angle_beta 134.567809
_cell_angle_gamma 29.196556
_cell_volume 601.517720
_symmetry_space_group_name_H-M "P -1"
_symmetry_group_IT_number 2
_symmetry_cell_setting 'triclinic'
loop_
_space_group_symop_operation_xyz
x,y,z
-x,-y,-z
loop_
_atom_site_type_symbol
_atom_site_label
_atom_site_fract_x
_atom_site_fract_y
_atom_site_fract_z
Si Si1 0.138664 0.109585 0.738021
Si Si2 0.642895 0.827152 0.739309
Si Si3 0.583420 0.799890 0.293445
Si Si4 0.069836 0.034339 0.876694
Si Si5 0.691774 0.251332 0.027406
Si Si6 0.680240 0.427971 0.451501
Si Si7 0.079423 0.500309 0.261707
O O1 0.953018 0.253456 0.589054
O O2 0.381528 0.943861 0.700744
O O3 0.224775 0.152860 0.001826
O O4 0.016799 0.092094 0.706900
O O5 0.589913 0.863928 0.536555
O O6 0.818392 0.644229 0.713415
O O7 0.340154 0.943689 0.099651
O O8 0.838087 0.669119 0.301477
O O9 0.524521 0.718698 0.187692
O O10 0.854585 0.178756 0.948465
O O11 0.127404 0.894516 0.822658
O O12 0.603220 0.397587 0.184260
O O13 0.500000 0.500000 0.500000
O O14 0.709018 0.525293 0.560636
O O15 0.000000 0.500000 0.000000
#
# Coordination Sequence:
#
# PCOD9032472 Si02
#       7
#     2   2   2   2   2   2   2
#     4  11  25  41  71 100 133 175 229 278 322 408
#     4  11  25  43  67 106 132 173 231 273 337 389
#     4  10  22  43  71  93 139 175 220 278 331 399
#     4   9  21  42  68  99 136 174 216 283 328 393
#     4   9  22  44  64  98 133 175 223 266 339 390
#     4  12  27  45  67  99 136 177 222 276 336 401
#     4  12  24  45  68  96 138 179 219 277 336 393
#
# _framework density 23.274459
#
# number of rings (size 3 to 8) (size 9 to 14) (size 15 to 20)
#    0.857    0.571    1.429    3.000    6.000    2.286 
#    0.000    1.429    0.000    0.000    0.000    0.000 
#    0.000    0.000    0.000    0.000    0.000    0.000 
#
# Total GULP energy -78296.276088 kJ/mol
# GULP energy per Si atom -5592.591149 kJ/mol
# Density = 2.322149 g / cm^3
# Si number density = 23.274459 Si / 1000 Ang^3
#
#
#
# Elastic Constant Matrix: (Units=GPa)
#
#
# Indices 1 2 3 4 5 6 
#
# 1 97.2980 29.4187 8.2929 19.0937 0.0007 -15.4874
# 2 29.4187 25.0968 11.2573 3.7843 1.8190 -16.8978
# 3 8.2929 11.2573 90.9685 25.8845 6.1467 -2.8742
# 4 19.0937 3.7843 25.8845 33.0902 0.2903 -13.4877
# 5 0.0007 1.8190 6.1467 0.2903 31.6319 -4.5619
# 6 -15.4874 -16.8978 -2.8742 -13.4877 -4.5619 42.2774
#
#
#
# Elastic Compliance Matrix: (Units=1/GPa)
#
#
# Indices 1 2 3 4 5 6 
#
# 1 0.021535 -0.032826 0.007118 -0.018629 -0.000881 -0.010785
# 2 -0.032826 0.111419 -0.021307 0.040989 0.003782 0.044544
# 3 0.007118 -0.021307 0.018925 -0.021263 -0.003964 -0.011833
# 4 -0.018629 0.040989 -0.021263 0.064845 0.005418 0.029385
# 5 -0.000881 0.003782 -0.003964 0.005418 0.033012 0.006210
# 6 -0.010785 0.044544 -0.011833 0.029385 0.006210 0.046746
#
#
# Mechanical properties :
#
#
# Convention : Reuss Voigt Hill
#
# Bulk Modulus (GPa) = 17.28602 34.58902 25.93752
# Shear Modulus (GPa) = 12.20127 32.35953 22.28040
#
# Velocity S-wave (km/s) = 2.29210 3.73278 3.09737
# Velocity P-wave (km/s) = 3.80107 5.78548 4.89489
#
# Compressibility (1/GPa) = 0.05785022
#
# Stress axis : x y z
#
# Youngs Moduli (GPa) = 46.43606 8.97517 52.84071
#
# Poissons Ratio (x) = 0.29461 -0.37614
# Poissons Ratio (y) = 1.52429 1.12587
# Poissons Ratio (z) = -0.33055 0.19123
#
# Static dielectric constant tensor:
#      x y z
#    x 1.846380 0.031910 0.017690 
#    y 0.031910 1.850890 -0.037240 
#    z 0.017690 -0.037240 1.891900 
# 
# From -- ./inp_files/279967.got.cif
#   From: 2010.05.17/outbox.cif.g08.bks.cpg/sg2_140_cif.got.tgz:279967.got - 2010.06.03 11:33:40.
