data_PCOD9032069
_publ_section_title
;
Structure prediction by ZEFSAII (Michael W. Deem and Ramdas Pophale) SiO2 
 PCOD9032069
Probable space group: P -1
;
_chemical_formula_sum "Si O2"
_cell_formula_units_Z 16
_cell_length_a 7.906900
_cell_length_b 9.498107
_cell_length_c 14.315004
_cell_angle_alpha 109.009357
_cell_angle_beta 43.717723
_cell_angle_gamma 98.100159
_cell_volume 695.078295
_symmetry_space_group_name_H-M "P -1"
_symmetry_group_IT_number 2
_symmetry_cell_setting 'triclinic'
loop_
_space_group_symop_operation_xyz
x,y,z
-x,-y,-z
loop_
_atom_site_type_symbol
_atom_site_label
_atom_site_fract_x
_atom_site_fract_y
_atom_site_fract_z
Si Si1 0.214514 0.361531 0.402220
Si Si2 0.879864 0.169696 0.599107
Si Si3 0.441586 0.144824 0.620858
Si Si4 0.376166 0.474819 0.641216
Si Si5 0.563995 0.119785 0.108762
Si Si6 0.441970 0.806041 0.090031
Si Si7 0.984627 0.258698 0.932313
Si Si8 0.164097 0.452061 0.058933
O O1 0.456099 0.441266 0.338706
O O2 0.313084 0.228882 0.260452
O O3 0.000000 0.500000 0.500000
O O4 0.088012 0.273510 0.514513
O O5 0.651914 0.178173 0.618301
O O6 0.778954 0.201065 0.750558
O O7 0.000000 0.000000 0.500000
O O8 0.400320 0.298087 0.611691
O O9 0.181715 0.138685 0.775408
O O10 0.500000 0.000000 0.500000
O O11 0.500000 0.500000 0.500000
O O12 0.089816 0.539723 0.780640
O O13 0.563758 0.951776 0.109055
O O14 0.606935 0.135193 0.983389
O O15 0.806213 0.187509 0.058380
O O16 0.619561 0.647317 0.991898
O O17 0.836314 0.379237 0.944380
O O18 0.145565 0.358109 0.951087
#
# Coordination Sequence:
#
# PCOD9032069 Si02
#       8
#     2   2   2   2   2   2   2   2
#     4  12  26  46  72  99 144 186 228 286 342 410
#     4  12  26  46  70 102 142 185 230 278 349 413
#     4  11  26  45  71 101 138 181 227 285 346 409
#     4  11  26  45  69 104 137 179 230 284 344 410
#     4  11  26  45  67 102 138 178 230 285 339 406
#     4  11  26  45  69 101 138 180 228 284 343 407
#     4  10  22  43  69  95 129 172 225 278 336 401
#     4  10  22  43  69  94 130 172 226 275 338 405
#
# _framework density 23.018989999999999
#
# number of rings (size 3 to 8) (size 9 to 14) (size 15 to 20)
#    0.000    1.000    5.000    0.000    7.000    3.000 
#    0.000    0.000    0.000    0.000    0.000    0.000 
#    0.000    0.000    0.000    0.000    0.000    0.000 
#
# Total GULP energy -89336.765009 kJ/mol
# GULP energy per Si atom -5583.547813 kJ/mol
# Density = 2.296660 g / cm^3
# Si number density = 23.018990 Si / 1000 Ang^3
#
#
#
# Elastic Constant Matrix: (Units=GPa)
#
#
# Indices 1 2 3 4 5 6 
#
# 1 37.3915 -9.4385 1.8225 9.8292 -1.9925 -5.8880
# 2 -9.4385 113.5983 45.1367 -3.2890 -12.6667 8.7725
# 3 1.8225 45.1367 168.1931 3.1915 -9.7424 -4.6011
# 4 9.8292 -3.2890 3.1915 46.4975 -0.4949 -4.6298
# 5 -1.9925 -12.6667 -9.7424 -0.4949 36.1941 1.0131
# 6 -5.8880 8.7725 -4.6011 -4.6298 1.0131 30.2102
#
#
#
# Elastic Compliance Matrix: (Units=1/GPa)
#
#
# Indices 1 2 3 4 5 6 
#
# 1 0.029627 0.002484 -0.000647 -0.005620 0.002137 0.004022
# 2 0.002484 0.010732 -0.002809 0.000148 0.003227 -0.003146
# 3 -0.000647 -0.002809 0.006802 -0.000357 0.000761 0.001645
# 4 -0.005620 0.000148 -0.000357 0.022960 -0.000105 0.002330
# 5 0.002137 0.003227 0.000761 -0.000105 0.029118 -0.001397
# 6 0.004022 -0.003146 0.001645 0.002330 -0.001397 0.035453
#
#
# Mechanical properties :
#
#
# Convention : Reuss Voigt Hill
#
# Bulk Modulus (GPa) = 22.11576 43.80271 32.95923
# Shear Modulus (GPa) = 32.95747 41.35783 37.15765
#
# Velocity S-wave (km/s) = 3.78795 4.24333 4.02209
# Velocity P-wave (km/s) = 5.36283 6.56339 5.99324
#
# Compressibility (1/GPa) = 0.04521663
#
# Stress axis : x y z
#
# Youngs Moduli (GPa) = 33.75308 93.17529 147.00938
#
# Poissons Ratio (x) = -0.23142 0.09514
# Poissons Ratio (y) = -0.08383 0.41296
# Poissons Ratio (z) = 0.02184 0.26174
#
# Static dielectric constant tensor:
#      x y z
#    x 2.022820 0.026820 0.068840 
#    y 0.026820 1.788090 0.030440 
#    z 0.068840 0.030440 1.844420 
# 
# From -- ./inp_files/308516.got.cif
#   From: 2010.05.17/outbox.cif.g08.bks.cpg/sg2_155_cif.got.tgz:308516.got - 2010.06.03 11:33:40.
