data_PCOD9032061
_publ_section_title
;
Structure prediction by ZEFSAII (Michael W. Deem and Ramdas Pophale) SiO2 
 PCOD9032061
Probable space group: P -1
;
_chemical_formula_sum "Si O2"
_cell_formula_units_Z 12
_cell_length_a 7.746922
_cell_length_b 8.046712
_cell_length_c 9.275357
_cell_angle_alpha 82.138112
_cell_angle_beta 121.728959
_cell_angle_gamma 92.389811
_cell_volume 486.849286
_symmetry_space_group_name_H-M "P -1"
_symmetry_group_IT_number 2
_symmetry_cell_setting 'triclinic'
loop_
_space_group_symop_operation_xyz
x,y,z
-x,-y,-z
loop_
_atom_site_type_symbol
_atom_site_label
_atom_site_fract_x
_atom_site_fract_y
_atom_site_fract_z
Si Si1 0.401494 0.680434 0.406568
Si Si2 0.713379 0.001269 0.188606
Si Si3 0.549824 0.856345 0.705225
Si Si4 0.196982 0.856231 0.077148
Si Si5 0.957308 0.646950 0.348679
Si Si6 0.852134 0.624899 0.007481
O O1 0.500000 0.500000 0.500000
O O2 0.529644 0.816220 0.532951
O O3 0.362783 0.711145 0.215920
O O4 0.183074 0.687584 0.388160
O O5 0.826495 0.822295 0.295996
O O6 0.652379 0.092468 0.299452
O O7 0.500000 0.000000 0.000000
O O8 0.833041 0.105467 0.108870
O O9 0.704873 0.999040 0.800886
O O10 0.645188 0.684734 0.836552
O O11 0.986219 0.792652 0.051656
O O12 0.000000 0.500000 0.500000
O O13 0.838016 0.566541 0.171226
O O14 0.000000 0.500000 0.000000
#
# Coordination Sequence:
#
# PCOD9032061 Si02
#       6
#     2   2   2   2   2   2
#     4  11  26  42  65 104 139 173 221 284 339 394
#     4  10  22  43  70  96 131 179 229 274 331 403
#     4  11  22  42  70  98 130 180 228 269 339 398
#     4  10  22  43  69  93 134 174 230 272 327 397
#     4  11  25  45  66  97 142 175 220 282 340 396
#     4  11  23  43  67 100 133 179 223 276 338 399
#
# _framework density 24.648285999999999
#
# number of rings (size 3 to 8) (size 9 to 14) (size 15 to 20)
#    0.000    1.333    3.333    3.000    7.000    2.000 
#    3.000    2.500    0.000    0.000    0.000    0.000 
#    0.000    0.000    0.000    0.000    0.000    0.000 
#
# Total GULP energy -66901.680620 kJ/mol
# GULP energy per Si atom -5575.140052 kJ/mol
# Density = 2.459219 g / cm^3
# Si number density = 24.648286 Si / 1000 Ang^3
#
#
#
# Elastic Constant Matrix: (Units=GPa)
#
#
# Indices 1 2 3 4 5 6 
#
# 1 62.4804 25.6316 19.2777 -18.1205 0.4593 -19.8395
# 2 25.6316 121.7464 53.5818 -25.5586 5.5716 -38.4064
# 3 19.2777 53.5818 157.0873 -47.9440 -15.2582 -25.4663
# 4 -18.1205 -25.5586 -47.9440 55.1907 -5.1675 12.3598
# 5 0.4593 5.5716 -15.2582 -5.1675 35.8410 -9.5181
# 6 -19.8395 -38.4064 -25.4663 12.3598 -9.5181 52.6180
#
#
#
# Elastic Compliance Matrix: (Units=1/GPa)
#
#
# Indices 1 2 3 4 5 6 
#
# 1 0.019881 -0.001749 0.001121 0.005627 0.002889 0.005963
# 2 -0.001749 0.012045 -0.002588 0.001222 -0.001077 0.006398
# 3 0.001121 -0.002588 0.010942 0.008650 0.007112 0.003084
# 4 0.005627 0.001222 0.008650 0.028353 0.008038 0.001994
# 5 0.002889 -0.001077 0.007112 0.008038 0.034362 0.008073
# 6 0.005963 0.006398 0.003084 0.001994 0.008073 0.028408
#
#
# Mechanical properties :
#
#
# Convention : Reuss Voigt Hill
#
# Bulk Modulus (GPa) = 27.44541 59.81072 43.62807
# Shear Modulus (GPa) = 32.77232 44.91813 38.84523
#
# Velocity S-wave (km/s) = 3.65032 4.27355 3.97417
# Velocity P-wave (km/s) = 5.37824 6.97634 6.22875
#
# Compressibility (1/GPa) = 0.03643596
#
# Stress axis : x y z
#
# Youngs Moduli (GPa) = 50.30039 83.01993 91.39058
#
# Poissons Ratio (x) = 0.14520 -0.10249
# Poissons Ratio (y) = 0.08797 0.23656
# Poissons Ratio (z) = -0.05641 0.21490
#
# Static dielectric constant tensor:
#      x y z
#    x 2.035630 0.042830 -0.019120 
#    y 0.042830 2.132140 -0.111000 
#    z -0.019120 -0.111000 2.118790 
# 
# From -- ./inp_files/154425.got.cif
#   From: 2010.05.17/outbox.cif.g08.bks.cpg/sg2_78_cif.got.tgz:154425.got - 2010.06.03 11:33:40.
