data_PCOD9032630
_publ_section_title
;
Structure prediction by ZEFSAII (Michael W. Deem and Ramdas Pophale) SiO2 
 PCOD9032630
Probable space group: P -1
;
_chemical_formula_sum "Si O2"
_cell_formula_units_Z 14
_cell_length_a 14.074185
_cell_length_b 15.109862
_cell_length_c 8.851391
_cell_angle_alpha 137.699865
_cell_angle_beta 33.335921
_cell_angle_gamma 136.047372
_cell_volume 669.195990
_symmetry_space_group_name_H-M "P -1"
_symmetry_group_IT_number 2
_symmetry_cell_setting 'triclinic'
loop_
_space_group_symop_operation_xyz
x,y,z
-x,-y,-z
loop_
_atom_site_type_symbol
_atom_site_label
_atom_site_fract_x
_atom_site_fract_y
_atom_site_fract_z
Si Si1 0.847884 0.397412 0.167599
Si Si2 0.479832 0.935072 0.112279
Si Si3 0.767444 0.622588 0.757374
Si Si4 0.253738 0.824227 0.755440
Si Si5 0.402587 0.607393 0.101253
Si Si6 0.905032 0.120735 0.276724
Si Si7 0.426244 0.634153 0.776334
O O1 0.824996 0.496599 0.455271
O O2 0.863747 0.261150 0.058241
O O3 0.682542 0.360033 0.224047
O O4 0.000000 0.500000 0.000000
O O5 0.274689 0.904127 0.411503
O O6 0.605425 0.044247 0.195837
O O7 0.537796 0.793269 0.849069
O O8 0.500000 0.000000 0.000000
O O9 0.661069 0.550190 0.956123
O O10 0.939571 0.746208 0.711331
O O11 0.619508 0.649509 0.873251
O O12 0.354240 0.720834 0.413844
O O13 0.146656 0.862190 0.806613
O O14 0.322780 0.610780 0.045213
O O15 0.000000 0.000000 0.000000
O O16 0.500000 0.500000 0.500000
#
# Coordination Sequence:
#
# PCOD9032630 Si02
#       7
#     2   2   2   2   2   2   2
#     4  11  24  41  65 100 141 174 228 287 357 411
#     4  12  26  49  72 100 148 188 236 292 365 424
#     4  10  23  41  65 100 135 177 228 289 345 417
#     4  11  25  45  71  99 135 192 232 287 356 430
#     4  10  22  43  72  97 138 178 234 283 353 428
#     4  12  27  44  71 103 139 187 244 294 348 424
#     4  12  24  42  71 105 134 187 233 289 348 424
#
# _framework density 20.920627
#
# number of rings (size 3 to 8) (size 9 to 14) (size 15 to 20)
#    0.000    0.857    4.286    2.143    4.000    2.286 
#    0.000    0.714    0.000    0.000    0.000    0.000 
#    0.000    0.000    0.000    0.000    0.000    0.000 
#
# Total GULP energy -78042.614224 kJ/mol
# GULP energy per Si atom -5574.472445 kJ/mol
# Density = 2.087301 g / cm^3
# Si number density = 20.920627 Si / 1000 Ang^3
#
#
#
# Elastic Constant Matrix: (Units=GPa)
#
#
# Indices 1 2 3 4 5 6 
#
# 1 109.8426 87.5463 25.7372 -6.5808 4.2484 -0.1849
# 2 87.5463 159.3278 66.0618 11.3160 0.2964 4.3164
# 3 25.7372 66.0618 54.2690 9.7463 -0.8632 7.4645
# 4 -6.5808 11.3160 9.7463 41.6250 -0.3665 5.4060
# 5 4.2484 0.2964 -0.8632 -0.3665 30.4541 6.2999
# 6 -0.1849 4.3164 7.4645 5.4060 6.2999 45.0793
#
#
#
# Elastic Compliance Matrix: (Units=1/GPa)
#
#
# Indices 1 2 3 4 5 6 
#
# 1 0.018444 -0.013067 0.006227 0.004990 -0.002210 0.000006
# 2 -0.013067 0.022036 -0.020192 -0.003518 0.000682 0.001507
# 3 0.006227 -0.020192 0.041188 -0.002539 0.001449 -0.004759
# 4 0.004990 -0.003518 -0.002539 0.026681 0.000091 -0.002435
# 5 -0.002210 0.000682 0.001449 0.000091 0.034237 -0.005110
# 6 0.000006 0.001507 -0.004759 -0.002435 -0.005110 0.023833
#
#
# Mechanical properties :
#
#
# Convention : Reuss Voigt Hill
#
# Bulk Modulus (GPa) = 36.22774 75.79221 56.00997
# Shear Modulus (GPa) = 21.76905 33.03795 27.40350
#
# Velocity S-wave (km/s) = 3.22926 3.97823 3.62315
# Velocity P-wave (km/s) = 5.59093 7.57686 6.65836
#
# Compressibility (1/GPa) = 0.02760316
#
# Stress axis : x y z
#
# Youngs Moduli (GPa) = 54.21922 45.37981 24.27917
#
# Poissons Ratio (x) = 0.59296 -0.15118
# Poissons Ratio (y) = 0.70846 0.49026
# Poissons Ratio (z) = -0.33762 0.91633
#
# Static dielectric constant tensor:
#      x y z
#    x 1.829460 -0.155120 0.073990 
#    y -0.155120 2.007890 -0.156700 
#    z 0.073990 -0.156700 1.859580 
# 
# From -- ./inp_files/221525.got.cif
#   From: 2010.05.17/outbox.cif.g08.bks.cpg/sg2_111_cif.got.tgz:221525.got - 2010.06.03 11:33:40.
