data_PCOD9032893
_publ_section_title
;
Structure prediction by ZEFSAII (Michael W. Deem and Ramdas Pophale) SiO2 
 PCOD9032893
Probable space group: P -1
;
_chemical_formula_sum "Si O2"
_cell_formula_units_Z 13
_cell_length_a 15.944322
_cell_length_b 5.023590
_cell_length_c 10.158457
_cell_angle_alpha 60.484140
_cell_angle_beta 132.797082
_cell_angle_gamma 127.474432
_cell_volume 469.412166
_symmetry_space_group_name_H-M "P -1"
_symmetry_group_IT_number 2
_symmetry_cell_setting 'triclinic'
loop_
_space_group_symop_operation_xyz
x,y,z
-x,-y,-z
loop_
_atom_site_type_symbol
_atom_site_label
_atom_site_fract_x
_atom_site_fract_y
_atom_site_fract_z
Si Si1 0.849274 0.243720 0.707164
Si Si2 0.718997 0.489766 0.991276
Si Si3 0.253849 0.415203 0.707070
Si Si4 0.653962 0.251904 0.702499
Si Si5 0.000000 0.000000 0.500000
Si Si6 0.455575 0.543698 0.680637
Si Si7 0.993761 0.046675 0.195252
O O1 0.817287 0.416937 0.502445
O O2 0.731953 0.148101 0.702718
O O3 0.963704 0.564001 0.817446
O O4 0.902896 0.982278 0.784640
O O5 0.722868 0.311126 0.901645
O O6 0.579706 0.481598 0.824837
O O7 0.710740 0.402573 0.159727
O O8 0.852310 0.825456 0.051741
O O9 0.368929 0.410388 0.748391
O O10 0.142266 0.038064 0.688497
O O11 0.626407 0.535291 0.522591
O O12 0.517443 0.950721 0.659301
O O13 0.016739 0.891932 0.394205
#
# Coordination Sequence:
#
# PCOD9032893 Si02
#       7
#     2   2   2   2   1   2   2
#     4  10  23  45  67 101 132 186 216 275 331 403
#     4  11  23  39  66  98 129 175 218 286 325 401
#     4   9  20  42  66  98 131 166 227 271 340 390
#     4  10  24  42  65  91 132 176 229 268 336 395
#     4   8  18  40  64  98 126 170 206 270 326 396
#     4  10  22  44  62  92 131 177 223 274 335 404
#     4  10  23  40  70  99 140 170 227 271 339 388
#
# _framework density 27.694213000000001
#
# number of rings (size 3 to 8) (size 9 to 14) (size 15 to 20)
#    0.000    2.154    0.000    0.923    4.308    7.385 
#   22.154    0.000    0.000    0.000    0.000    0.000 
#    0.000    0.000    0.000    0.000    0.000    0.000 
#
# Total GULP energy -72439.460599 kJ/mol
# GULP energy per Si atom -5572.266200 kJ/mol
# Density = 2.763118 g / cm^3
# Si number density = 27.694213 Si / 1000 Ang^3
#
#
#
# Elastic Constant Matrix: (Units=GPa)
#
#
# Indices 1 2 3 4 5 6 
#
# 1 189.3943 18.7062 52.3439 19.2756 -6.1619 2.8611
# 2 18.7062 36.1433 22.1766 23.6860 -3.8897 2.9793
# 3 52.3439 22.1766 233.6515 20.2870 -20.2924 -15.4470
# 4 19.2756 23.6860 20.2870 31.6261 -0.9135 11.1348
# 5 -6.1619 -3.8897 -20.2924 -0.9135 49.6538 8.2377
# 6 2.8611 2.9793 -15.4470 11.1348 8.2377 36.6680
#
#
#
# Elastic Compliance Matrix: (Units=1/GPa)
#
#
# Indices 1 2 3 4 5 6 
#
# 1 0.005889 -0.001001 -0.001039 -0.002084 0.000228 -0.000234
# 2 -0.001001 0.057575 -0.000612 -0.045013 0.001918 0.008380
# 3 -0.001039 -0.000612 0.005168 -0.003233 0.001382 0.002979
# 4 -0.002084 -0.045013 -0.003233 0.075891 -0.000306 -0.020519
# 5 0.000228 0.001918 0.001382 -0.000306 0.021599 -0.004351
# 6 -0.000234 0.008380 0.002979 -0.020519 -0.004351 0.035073
#
#
# Mechanical properties :
#
#
# Convention : Reuss Voigt Hill
#
# Bulk Modulus (GPa) = 15.79027 71.73806 43.76417
# Shear Modulus (GPa) = 21.96767 47.98709 34.97738
#
# Velocity S-wave (km/s) = 2.81948 4.16714 3.55771
# Velocity P-wave (km/s) = 4.03897 7.00809 5.71955
#
# Compressibility (1/GPa) = 0.06333012
#
# Stress axis : x y z
#
# Youngs Moduli (GPa) = 169.80589 17.36865 193.48463
#
# Poissons Ratio (x) = 0.01738 0.20103
# Poissons Ratio (y) = 0.16990 0.11833
# Poissons Ratio (z) = 0.17643 0.01062
#
# Static dielectric constant tensor:
#      x y z
#    x 1.692810 -0.980030 0.074250 
#    y -0.980030 0.028180 0.228690 
#    z 0.074250 0.228690 2.173080 
# 
# From -- ./inp_files/288942.got.cif
#   From: 2010.05.17/outbox.cif.g08.bks.cpg/sg2_145_cif.got.tgz:288942.got - 2010.06.03 11:33:40.
