data_PCOD9032395
_publ_section_title
;
Structure prediction by ZEFSAII (Michael W. Deem and Ramdas Pophale) SiO2 
 PCOD9032395
Probable space group: P -1
;
_chemical_formula_sum "Si O2"
_cell_formula_units_Z 13
_cell_length_a 11.478940
_cell_length_b 15.193979
_cell_length_c 7.768377
_cell_angle_alpha 92.046517
_cell_angle_beta 115.770707
_cell_angle_gamma 144.344733
_cell_volume 477.583720
_symmetry_space_group_name_H-M "P -1"
_symmetry_group_IT_number 2
_symmetry_cell_setting 'triclinic'
loop_
_space_group_symop_operation_xyz
x,y,z
-x,-y,-z
loop_
_atom_site_type_symbol
_atom_site_label
_atom_site_fract_x
_atom_site_fract_y
_atom_site_fract_z
Si Si1 0.042172 0.476386 0.205285
Si Si2 0.113754 0.766018 0.467924
Si Si3 0.268588 0.289214 0.231164
Si Si4 0.121075 0.796431 0.081361
Si Si5 0.690578 0.935771 0.251004
Si Si6 0.000000 0.500000 0.500000
Si Si7 0.999858 0.032574 0.752924
O O1 0.253990 0.650534 0.501705
O O2 0.073225 0.395223 0.173968
O O3 0.684936 0.275914 0.062290
O O4 0.000000 0.500000 0.000000
O O5 0.990993 0.703181 0.187881
O O6 0.975342 0.593408 0.456570
O O7 0.506544 0.001491 0.697306
O O8 0.101787 0.843867 0.591174
O O9 0.500000 0.500000 0.500000
O O10 0.279581 0.269095 0.035763
O O11 0.217405 0.163561 0.275953
O O12 0.938914 0.142583 0.010665
O O13 0.824233 0.934931 0.238474
O O14 0.740882 0.932017 0.477996
#
# Coordination Sequence:
#
# PCOD9032395 Si02
#       7
#     2   2   2   2   2   1   2
#     4  11  25  42  69 103 141 182 236 310 360 426
#     4  10  22  43  71 101 138 188 232 305 363 431
#     4  11  25  43  70 105 141 192 244 297 354 437
#     4  10  22  44  67  95 144 187 230 295 372 414
#     4  10  23  47  68  95 144 193 234 293 376 426
#     4  12  26  38  68 116 136 180 244 292 374 440
#     4  10  24  46  69 101 142 195 241 290 359 442
#
# _framework density 27.220359999999999
#
# number of rings (size 3 to 8) (size 9 to 14) (size 15 to 20)
#    0.000    1.538    3.077    0.000    6.462    2.462 
#    0.000    1.538    0.000    0.000    0.000    0.000 
#    0.000    0.000    0.000    0.000    0.000    0.000 
#
# Total GULP energy -72462.989228 kJ/mol
# GULP energy per Si atom -5574.076094 kJ/mol
# Density = 2.715841 g / cm^3
# Si number density = 27.220360 Si / 1000 Ang^3
#
#
#
# Elastic Constant Matrix: (Units=GPa)
#
#
# Indices 1 2 3 4 5 6 
#
# 1 163.5068 15.7895 49.1787 10.1932 -31.5350 -32.8906
# 2 15.7895 78.4464 36.0773 -13.6003 -5.9449 -33.4447
# 3 49.1787 36.0773 109.7940 17.1605 -13.8497 -9.5447
# 4 10.1932 -13.6003 17.1605 35.8801 -12.7075 -6.6466
# 5 -31.5350 -5.9449 -13.8497 -12.7075 56.7846 -1.3979
# 6 -32.8906 -33.4447 -9.5447 -6.6466 -1.3979 58.5848
#
#
#
# Elastic Compliance Matrix: (Units=1/GPa)
#
#
# Indices 1 2 3 4 5 6 
#
# 1 0.009898 0.005989 -0.005789 0.006100 0.006295 0.008875
# 2 0.005989 0.033002 -0.014278 0.025262 0.009517 0.022969
# 3 -0.005789 -0.014278 0.017379 -0.015497 -0.004196 -0.010428
# 4 0.006100 0.025262 -0.015497 0.052253 0.014478 0.021596
# 5 0.006295 0.009517 -0.004196 0.014478 0.024578 0.010513
# 6 0.008875 0.022969 -0.010428 0.021596 0.010513 0.036166
#
#
# Mechanical properties :
#
#
# Convention : Reuss Voigt Hill
#
# Bulk Modulus (GPa) = 31.13087 61.53758 46.33422
# Shear Modulus (GPa) = 23.56925 46.96334 35.26629
#
# Velocity S-wave (km/s) = 2.94576 4.15818 3.60333
# Velocity P-wave (km/s) = 4.79911 6.76093 5.86266
#
# Compressibility (1/GPa) = 0.03212246
#
# Stress axis : x y z
#
# Youngs Moduli (GPa) = 101.03084 30.30103 57.54113
#
# Poissons Ratio (x) = -0.18146 0.33311
# Poissons Ratio (y) = -0.60503 0.82156
# Poissons Ratio (z) = 0.58488 0.43263
#
# Static dielectric constant tensor:
#      x y z
#    x 2.031620 0.146570 0.218820 
#    y 0.146570 2.167030 -0.010090 
#    z 0.218820 -0.010090 1.706870 
# 
# From -- ./inp_files/267933.got.cif
#   From: 2010.05.17/outbox.cif.g08.bks.cpg/sg2_134_cif.got.tgz:267933.got - 2010.06.03 11:33:40.
