data_PCOD9032462
_publ_section_title
;
Structure prediction by ZEFSAII (Michael W. Deem and Ramdas Pophale) SiO2 
 PCOD9032462
Probable space group: P -1
;
_chemical_formula_sum "Si O2"
_cell_formula_units_Z 12
_cell_length_a 9.019804
_cell_length_b 12.897380
_cell_length_c 5.683985
_cell_angle_alpha 108.063527
_cell_angle_beta 74.708506
_cell_angle_gamma 133.700012
_cell_volume 453.304554
_symmetry_space_group_name_H-M "P -1"
_symmetry_group_IT_number 2
_symmetry_cell_setting 'triclinic'
loop_
_space_group_symop_operation_xyz
x,y,z
-x,-y,-z
loop_
_atom_site_type_symbol
_atom_site_label
_atom_site_fract_x
_atom_site_fract_y
_atom_site_fract_z
Si Si1 0.166505 0.858591 0.131590
Si Si2 0.861829 0.366638 0.685646
Si Si3 0.148953 0.174412 0.057083
Si Si4 0.756209 0.574613 0.564820
Si Si5 0.388428 0.569972 0.978492
Si Si6 0.541706 0.109193 0.361148
O O1 0.145103 0.747899 0.237165
O O2 0.318345 0.023691 0.283899
O O3 0.299874 0.872074 0.871240
O O4 0.950769 0.801469 0.094344
O O5 0.804621 0.437710 0.931723
O O6 0.661773 0.265906 0.529113
O O7 0.067878 0.436060 0.505173
O O8 0.143652 0.257204 0.336776
O O9 0.390721 0.265027 0.993076
O O10 0.000000 0.000000 0.000000
O O11 0.636526 0.506238 0.816529
O O12 0.640178 0.498217 0.314908
O O13 0.500000 0.000000 0.500000
#
# Coordination Sequence:
#
# PCOD9032462 Si02
#       6
#     2   2   2   2   2   2
#     4  10  22  43  71 108 162 197 253 332 391 457
#     4  11  24  44  82 113 146 209 270 318 387 476
#     4  12  29  51  80 117 156 213 266 323 398 470
#     4  12  27  55  78 116 163 211 257 329 393 471
#     4  12  30  51  83 118 162 205 263 325 402 469
#     4   9  20  38  71 105 154 194 257 316 398 438
#
# _framework density 26.472269000000001
#
# number of rings (size 3 to 8) (size 9 to 14) (size 15 to 20)
#    0.000    1.000    1.667    3.000    9.333    1.333 
#    0.000    6.667    0.000    0.000    0.000    0.000 
#    0.000    0.000    0.000    0.000    0.000    0.000 
#
# Total GULP energy -67150.102067 kJ/mol
# GULP energy per Si atom -5595.841839 kJ/mol
# Density = 2.641202 g / cm^3
# Si number density = 26.472269 Si / 1000 Ang^3
#
#
#
# Elastic Constant Matrix: (Units=GPa)
#
#
# Indices 1 2 3 4 5 6 
#
# 1 124.0725 30.7153 54.6503 18.9892 3.4458 35.6821
# 2 30.7153 165.2120 79.8211 30.2927 0.1181 28.3399
# 3 54.6503 79.8211 182.0323 9.2345 -17.0881 21.7938
# 4 18.9892 30.2927 9.2345 39.5114 16.0027 -1.5618
# 5 3.4458 0.1181 -17.0881 16.0027 45.8797 7.9941
# 6 35.6821 28.3399 21.7938 -1.5618 7.9941 43.6106
#
#
#
# Elastic Compliance Matrix: (Units=1/GPa)
#
#
# Indices 1 2 3 4 5 6 
#
# 1 0.013765 0.002937 -0.003062 -0.010086 0.003540 -0.012651
# 2 0.002937 0.010666 -0.003675 -0.010496 0.003529 -0.008520
# 3 -0.003062 -0.003675 0.008181 0.001261 0.002788 0.000339
# 4 -0.010086 -0.010496 0.001261 0.046044 -0.018191 0.019426
# 5 0.003540 0.003529 0.002788 -0.018191 0.031160 -0.012946
# 6 -0.012651 -0.008520 0.000339 0.019426 -0.012946 0.041718
#
#
# Mechanical properties :
#
#
# Convention : Reuss Voigt Hill
#
# Bulk Modulus (GPa) = 39.97948 89.07669 64.52809
# Shear Modulus (GPa) = 29.85595 46.20900 38.03248
#
# Velocity S-wave (km/s) = 3.36195 4.18253 3.79448
# Velocity P-wave (km/s) = 5.49595 7.55293 6.60501
#
# Compressibility (1/GPa) = 0.02501283
#
# Stress axis : x y z
#
# Youngs Moduli (GPa) = 72.64813 93.75724 122.22962
#
# Poissons Ratio (x) = -0.27537 0.37424
# Poissons Ratio (y) = -0.21337 0.44918
# Poissons Ratio (z) = 0.22243 0.34455
#
# Static dielectric constant tensor:
#      x y z
#    x 2.103300 -0.009230 -0.002110 
#    y -0.009230 2.156280 -0.006980 
#    z -0.002110 -0.006980 2.126570 
# 
# From -- ./inp_files/73444.got.cif
#   From: 2010.05.17/outbox.cif.g08.bks.cpg/sg2_37_cif.got.tgz:73444.got - 2010.06.03 11:33:40.
