data_PCOD9032886
_publ_section_title
;
Structure prediction by ZEFSAII (Michael W. Deem and Ramdas Pophale) SiO2 
 PCOD9032886
Probable space group: P -1
;
_chemical_formula_sum "Si O2"
_cell_formula_units_Z 16
_cell_length_a 9.389496
_cell_length_b 6.699305
_cell_length_c 18.222239
_cell_angle_alpha 78.150196
_cell_angle_beta 89.871667
_cell_angle_gamma 133.170150
_cell_volume 801.638548
_symmetry_space_group_name_H-M "P -1"
_symmetry_group_IT_number 2
_symmetry_cell_setting 'triclinic'
loop_
_space_group_symop_operation_xyz
x,y,z
-x,-y,-z
loop_
_atom_site_type_symbol
_atom_site_label
_atom_site_fract_x
_atom_site_fract_y
_atom_site_fract_z
Si Si1 0.549431 0.751942 0.075912
Si Si2 0.530237 0.216791 0.672003
Si Si3 0.200151 0.226058 0.669460
Si Si4 0.522107 0.870131 0.577405
Si Si5 0.210266 0.338125 0.830473
Si Si6 0.517848 0.973361 0.834344
Si Si7 0.857795 0.872588 0.580347
Si Si8 0.767653 0.886736 0.914966
O O1 0.648540 0.703911 0.139936
O O2 0.340390 0.436905 0.077450
O O3 0.527060 0.949503 0.096956
O O4 0.689287 0.878411 0.995044
O O5 0.325691 0.141432 0.677262
O O6 0.700933 0.530678 0.613562
O O7 0.512898 0.996604 0.640703
O O8 0.581509 0.198771 0.755641
O O9 0.342210 0.529222 0.604868
O O10 0.174086 0.277759 0.748587
O O11 0.996016 0.006701 0.642014
O O12 0.725297 0.944096 0.569787
O O13 0.500000 0.000000 0.500000
O O14 0.324911 0.659615 0.828134
O O15 0.002546 0.112803 0.890101
O O16 0.682406 0.967580 0.851654
O O17 0.000000 0.000000 0.500000
#
# Coordination Sequence:
#
# PCOD9032886 Si02
#       8
#     2   2   2   2   2   2   2   2
#     4  10  22  44  62  90 130 167 203 260 314 364
#     4  11  24  42  64  92 128 167 201 259 312 363
#     4  11  24  41  63  92 128 163 208 255 310 369
#     4  11  24  44  67  89 128 162 200 258 314 367
#     4  11  23  39  63  94 125 165 211 257 306 371
#     4  11  23  40  63  93 129 163 211 256 310 367
#     4  11  26  43  66  97 123 162 213 254 307 378
#     4  10  24  39  66  93 125 166 212 255 310 369
#
# _framework density 19.959119000000001
#
# number of rings (size 3 to 8) (size 9 to 14) (size 15 to 20)
#    0.000    1.250    2.500    2.250    3.500    7.500 
#    0.000    0.000    0.000    0.000    0.000    0.000 
#    0.000    0.000    0.000    0.000    0.000    0.000 
#
# Total GULP energy -89464.439280 kJ/mol
# GULP energy per Si atom -5591.527455 kJ/mol
# Density = 1.991369 g / cm^3
# Si number density = 19.959119 Si / 1000 Ang^3
#
#
#
# Elastic Constant Matrix: (Units=GPa)
#
#
# Indices 1 2 3 4 5 6 
#
# 1 56.5351 33.5776 -3.8025 0.8439 -7.1176 -10.7341
# 2 33.5776 58.3335 1.8779 6.5635 -18.6596 -1.9080
# 3 -3.8025 1.8779 56.7236 -0.2753 0.4192 -2.4795
# 4 0.8439 6.5635 -0.2753 32.7791 -3.0082 -0.1920
# 5 -7.1176 -18.6596 0.4192 -3.0082 35.5996 3.7359
# 6 -10.7341 -1.9080 -2.4795 -0.1920 3.7359 24.1741
#
#
#
# Elastic Compliance Matrix: (Units=1/GPa)
#
#
# Indices 1 2 3 4 5 6 
#
# 1 0.031604 -0.019876 0.003427 0.002785 -0.005338 0.013663
# 2 -0.019876 0.033461 -0.002949 -0.004971 0.014093 -0.008705
# 3 0.003427 -0.002949 0.018117 0.000547 -0.001381 0.003365
# 4 0.002785 -0.004971 0.000547 0.031487 0.000493 0.001075
# 5 -0.005338 0.014093 -0.001381 0.000493 0.035185 -0.006833
# 6 0.013663 -0.008705 0.003365 0.001075 -0.006833 0.048156
#
#
# Mechanical properties :
#
#
# Convention : Reuss Voigt Hill
#
# Bulk Modulus (GPa) = 22.52984 26.09980 24.31482
# Shear Modulus (GPa) = 19.87267 27.83982 23.85624
#
# Velocity S-wave (km/s) = 3.15884 3.73881 3.46100
# Velocity P-wave (km/s) = 4.96154 5.63412 5.30849
#
# Compressibility (1/GPa) = 0.04438557
#
# Stress axis : x y z
#
# Youngs Moduli (GPa) = 31.64147 29.88518 55.19786
#
# Poissons Ratio (x) = 0.59400 -0.18915
# Poissons Ratio (y) = 0.62891 0.16278
# Poissons Ratio (z) = -0.10843 0.08813
#
# Static dielectric constant tensor:
#      x y z
#    x 1.669510 -0.012270 0.014510 
#    y -0.012270 1.683850 0.007700 
#    z 0.014510 0.007700 1.727060 
# 
# From -- ./inp_files/11386.got.cif
#   From: 2010.05.17/outbox.cif.g08.bks.cpg/sg2_6_cif.got.tgz:11386.got - 2010.06.03 11:33:40.
