data_PCOD9032084
_publ_section_title
;
Structure prediction by ZEFSAII (Michael W. Deem and Ramdas Pophale) SiO2 
 PCOD9032084
Probable space group: P -1
;
_chemical_formula_sum "Si O2"
_cell_formula_units_Z 16
_cell_length_a 8.251410
_cell_length_b 14.238676
_cell_length_c 6.415940
_cell_angle_alpha 92.871885
_cell_angle_beta 110.627643
_cell_angle_gamma 81.944720
_cell_volume 698.515856
_symmetry_space_group_name_H-M "P -1"
_symmetry_group_IT_number 2
_symmetry_cell_setting 'triclinic'
loop_
_space_group_symop_operation_xyz
x,y,z
-x,-y,-z
loop_
_atom_site_type_symbol
_atom_site_label
_atom_site_fract_x
_atom_site_fract_y
_atom_site_fract_z
Si Si1 0.423550 0.103966 0.404916
Si Si2 0.064861 0.787718 0.381423
Si Si3 0.146573 0.058657 0.983843
Si Si4 0.599745 0.438953 0.222755
Si Si5 0.589951 0.244577 0.753338
Si Si6 0.645305 0.601781 0.561765
Si Si7 0.699575 0.128841 0.185046
Si Si8 0.013838 0.607783 0.595465
O O1 0.456736 0.172386 0.613141
O O2 0.541706 0.132982 0.273892
O O3 0.500000 0.000000 0.500000
O O4 0.234662 0.101867 0.225839
O O5 0.238233 0.762881 0.314717
O O6 0.131061 0.848127 0.609344
O O7 0.002990 0.690667 0.425554
O O8 0.927676 0.857941 0.195494
O O9 0.273734 0.975599 0.916826
O O10 0.000000 0.000000 0.000000
O O11 0.655523 0.495832 0.460872
O O12 0.458360 0.381732 0.265658
O O13 0.790569 0.393346 0.223069
O O14 0.500000 0.500000 0.000000
O O15 0.473433 0.342705 0.665267
O O16 0.654475 0.209612 0.002719
O O17 0.840548 0.629470 0.661712
O O18 0.000000 0.500000 0.500000
#
# Coordination Sequence:
#
# PCOD9032084 Si02
#       8
#     2   2   2   2   2   2   2   2
#     4  11  24  42  64  92 136 177 222 280 328 406
#     4  11  24  43  66  97 139 173 228 288 334 409
#     4  12  23  43  65  98 133 180 224 279 339 397
#     4  10  22  43  69  95 131 172 221 283 341 403
#     4  11  23  43  65  95 135 177 227 271 340 409
#     4  10  23  41  67  95 131 176 218 278 342 401
#     4  11  24  42  67  94 134 184 221 275 346 398
#     4  10  23  45  66  99 138 173 224 285 337 409
#
# _framework density 22.905707
#
# number of rings (size 3 to 8) (size 9 to 14) (size 15 to 20)
#    0.000    1.250    3.750    1.500    3.500    1.500 
#    2.250    0.000    0.000    0.000    0.000    0.000 
#    0.000    0.000    0.000    0.000    0.000    0.000 
#
# Total GULP energy -89370.904389 kJ/mol
# GULP energy per Si atom -5585.681524 kJ/mol
# Density = 2.285357 g / cm^3
# Si number density = 22.905707 Si / 1000 Ang^3
#
#
#
# Elastic Constant Matrix: (Units=GPa)
#
#
# Indices 1 2 3 4 5 6 
#
# 1 144.2019 20.9681 53.6277 -25.5614 11.1272 15.6646
# 2 20.9681 93.3898 22.1972 -18.9120 3.7631 21.5880
# 3 53.6277 22.1972 107.7471 -26.9040 16.9161 15.9864
# 4 -25.5614 -18.9120 -26.9040 46.4967 -0.2555 1.7105
# 5 11.1272 3.7631 16.9161 -0.2555 30.3453 -4.9164
# 6 15.6646 21.5880 15.9864 1.7105 -4.9164 33.2708
#
#
#
# Elastic Compliance Matrix: (Units=1/GPa)
#
#
# Indices 1 2 3 4 5 6 
#
# 1 0.009166 0.000307 -0.002770 0.003685 -0.002429 -0.003732
# 2 0.000307 0.014544 0.000862 0.006964 -0.004114 -0.010962
# 3 -0.002770 0.000862 0.014993 0.007755 -0.008703 -0.008144
# 4 0.003685 0.006964 0.007755 0.031278 -0.008352 -0.012822
# 5 -0.002429 -0.004114 -0.008703 -0.008352 0.041494 0.014556
# 6 -0.003732 -0.010962 -0.008144 -0.012822 0.014556 0.045649
#
#
# Mechanical properties :
#
#
# Convention : Reuss Voigt Hill
#
# Bulk Modulus (GPa) = 28.16787 59.88053 44.02420
# Shear Modulus (GPa) = 29.04248 38.59227 33.81737
#
# Velocity S-wave (km/s) = 3.56464 4.10912 3.84653
# Velocity P-wave (km/s) = 5.40983 6.97941 6.24413
#
# Compressibility (1/GPa) = 0.03550145
#
# Stress axis : x y z
#
# Youngs Moduli (GPa) = 109.09411 68.75762 66.69626
#
# Poissons Ratio (x) = -0.02113 0.18477
# Poissons Ratio (y) = -0.03353 -0.05749
# Poissons Ratio (z) = 0.30223 -0.05927
#
# Static dielectric constant tensor:
#      x y z
#    x 1.919220 -0.014620 -0.013770 
#    y -0.014620 1.814040 0.054580 
#    z -0.013770 0.054580 1.812890 
# 
# From -- ./inp_files/38212.got.cif
#   From: 2010.05.17/outbox.cif.g08.bks.cpg/sg2_20_cif.got.tgz:38212.got - 2010.06.03 11:33:40.
