data_PCOD9032831
_publ_section_title
;
Structure prediction by ZEFSAII (Michael W. Deem and Ramdas Pophale) SiO2 
 PCOD9032831
Probable space group: P -1
;
_chemical_formula_sum "Si O2"
_cell_formula_units_Z 16
_cell_length_a 8.730796
_cell_length_b 8.646960
_cell_length_c 11.498487
_cell_angle_alpha 62.720498
_cell_angle_beta 67.096892
_cell_angle_gamma 60.261744
_cell_volume 655.026292
_symmetry_space_group_name_H-M "P -1"
_symmetry_group_IT_number 2
_symmetry_cell_setting 'triclinic'
loop_
_space_group_symop_operation_xyz
x,y,z
-x,-y,-z
loop_
_atom_site_type_symbol
_atom_site_label
_atom_site_fract_x
_atom_site_fract_y
_atom_site_fract_z
Si Si1 0.892575 0.542965 0.894731
Si Si2 0.366006 0.925851 0.499685
Si Si3 0.068580 0.525447 0.342168
Si Si4 0.657667 0.116985 0.737238
Si Si5 0.531224 0.754914 0.029429
Si Si6 0.949789 0.951733 0.293611
Si Si7 0.180472 0.832762 0.958370
Si Si8 0.542061 0.529524 0.696646
O O1 0.981987 0.549585 0.739496
O O2 0.710452 0.721693 0.916809
O O3 0.840099 0.363438 0.953193
O O4 0.000000 0.500000 0.000000
O O5 0.384521 0.945809 0.351176
O O6 0.423019 0.708092 0.595804
O O7 0.500000 0.000000 0.500000
O O8 0.160817 0.041476 0.559749
O O9 0.286197 0.437820 0.313653
O O10 0.000000 0.500000 0.500000
O O11 0.998736 0.752962 0.282944
O O12 0.627408 0.339759 0.658786
O O13 0.865407 0.020956 0.747830
O O14 0.517402 0.126778 0.876930
O O15 0.354500 0.824614 0.978851
O O16 0.549213 0.547961 0.147341
O O17 0.816780 0.113869 0.194942
O O18 0.000000 0.000000 0.000000
#
# Coordination Sequence:
#
# PCOD9032831 Si02
#       8
#     2   2   2   2   2   2   2   2
#     4  12  26  44  68 107 136 177 229 288 349 400
#     4  12  24  38  62  99 137 173 218 277 342 396
#     4  11  23  45  67  96 143 180 219 278 348 409
#     4   9  21  44  62  94 128 173 227 268 329 399
#     4  10  22  43  76  93 129 178 236 277 322 413
#     4  11  23  42  70  96 131 182 227 278 328 410
#     4  12  20  46  74  96 129 177 234 277 338 395
#     4   9  20  43  67  92 122 184 226 269 326 404
#
# _framework density 24.426500000000001
#
# number of rings (size 3 to 8) (size 9 to 14) (size 15 to 20)
#    0.750    0.500    3.750    2.625    1.750    2.000 
#   11.250    0.625    0.000    0.000    0.000    0.000 
#    0.000    0.000    0.000    0.000    0.000    0.000 
#
# Total GULP energy -89464.536263 kJ/mol
# GULP energy per Si atom -5591.533516 kJ/mol
# Density = 2.437090 g / cm^3
# Si number density = 24.426500 Si / 1000 Ang^3
#
#
#
# Elastic Constant Matrix: (Units=GPa)
#
#
# Indices 1 2 3 4 5 6 
#
# 1 86.3284 41.1250 49.5993 23.6155 22.3699 4.8157
# 2 41.1250 92.4534 47.3338 23.0466 14.5550 -11.6917
# 3 49.5993 47.3338 170.2155 30.6672 22.7576 4.2980
# 4 23.6155 23.0466 30.6672 43.4694 4.7129 6.5382
# 5 22.3699 14.5550 22.7576 4.7129 44.5707 3.4631
# 6 4.8157 -11.6917 4.2980 6.5382 3.4631 34.4321
#
#
#
# Elastic Compliance Matrix: (Units=1/GPa)
#
#
# Indices 1 2 3 4 5 6 
#
# 1 0.018209 -0.005298 -0.002202 -0.004525 -0.005601 -0.002648
# 2 -0.005298 0.016961 -0.002117 -0.005629 -0.001827 0.008017
# 3 -0.002202 -0.002117 0.007905 -0.002958 -0.001877 -0.000647
# 4 -0.004525 -0.005629 -0.002958 0.031297 0.002865 -0.007140
# 5 -0.005601 -0.001827 -0.001877 0.002865 0.026719 -0.002834
# 6 -0.002648 0.008017 -0.000647 -0.007140 -0.002834 0.033857
#
#
# Mechanical properties :
#
#
# Convention : Reuss Voigt Hill
#
# Bulk Modulus (GPa) = 41.94194 69.45707 55.69951
# Shear Modulus (GPa) = 30.83944 38.55706 34.69825
#
# Velocity S-wave (km/s) = 3.55708 3.97734 3.77306
# Velocity P-wave (km/s) = 5.83767 7.04195 6.46790
#
# Compressibility (1/GPa) = 0.02384248
#
# Stress axis : x y z
#
# Youngs Moduli (GPa) = 54.91703 58.95825 126.49599
#
# Poissons Ratio (x) = 0.31235 0.27854
# Poissons Ratio (y) = 0.29094 0.26779
# Poissons Ratio (z) = 0.12092 0.12481
#
# Static dielectric constant tensor:
#      x y z
#    x 1.893660 0.018980 -0.035180 
#    y 0.018980 2.003340 -0.014590 
#    z -0.035180 -0.014590 2.153100 
# 
# From -- ./inp_files/381307.got.cif
#   From: 2010.05.17/outbox.cif.g08.bks.cpg/sg2_191_cif.got.tgz:381307.got - 2010.06.03 11:33:40.
