data_PCOD9032533
_publ_section_title
;
Structure prediction by ZEFSAII (Michael W. Deem and Ramdas Pophale) SiO2 
 PCOD9032533
Probable space group: P -1
;
_chemical_formula_sum "Si O2"
_cell_formula_units_Z 16
_cell_length_a 9.790272
_cell_length_b 9.365521
_cell_length_c 7.109822
_cell_angle_alpha 62.992864
_cell_angle_beta 95.152966
_cell_angle_gamma 105.320551
_cell_volume 559.830281
_symmetry_space_group_name_H-M "P -1"
_symmetry_group_IT_number 2
_symmetry_cell_setting 'triclinic'
loop_
_space_group_symop_operation_xyz
x,y,z
-x,-y,-z
loop_
_atom_site_type_symbol
_atom_site_label
_atom_site_fract_x
_atom_site_fract_y
_atom_site_fract_z
Si Si1 0.559335 0.819435 0.098386
Si Si2 0.156128 0.188192 0.439081
Si Si3 0.950566 0.633334 0.038939
Si Si4 0.462793 0.161099 0.479061
Si Si5 0.876255 0.488152 0.549947
Si Si6 0.622197 0.503937 0.157776
Si Si7 0.965731 0.037036 0.192028
Si Si8 0.732442 0.168817 0.902900
O O1 0.813929 0.946029 0.312636
O O2 0.611163 0.653964 0.201825
O O3 0.397274 0.793864 0.014493
O O4 0.674933 0.980479 0.940579
O O5 0.317059 0.198036 0.364365
O O6 0.170412 0.372722 0.429022
O O7 0.984479 0.101810 0.581603
O O8 0.968449 0.547842 0.331108
O O9 0.893500 0.213947 0.992852
O O10 0.000000 0.500000 0.000000
O O11 0.924334 0.797222 0.795497
O O12 0.583741 0.324708 0.346291
O O13 0.469741 0.147923 0.710888
O O14 0.500000 0.000000 0.500000
O O15 0.782501 0.555508 0.084309
O O16 0.773352 0.313812 0.666019
O O17 0.500000 0.500000 0.000000
O O18 0.000000 0.000000 0.000000
#
# Coordination Sequence:
#
# PCOD9032533 Si02
#       8
#     2   2   2   2   2   2   2   2
#     4  11  26  50  77 109 153 199 257 314 374 457
#     4  11  23  44  73 106 148 191 252 311 370 444
#     4  11  25  45  71 103 144 194 247 302 374 448
#     4  12  29  48  79 111 155 199 255 313 389 449
#     4  11  26  42  71 107 147 195 246 306 376 444
#     4  12  30  46  81 111 152 200 257 313 386 452
#     4  10  22  43  72 100 143 194 241 307 366 438
#     4  10  24  46  77  98 153 196 247 308 380 440
#
# _framework density 28.580090999999999
#
# number of rings (size 3 to 8) (size 9 to 14) (size 15 to 20)
#    0.000    1.000    2.500    1.875   12.250    1.000 
#    0.000    2.500    0.000    0.000    0.000    0.000 
#    0.000    0.000    0.000    0.000    0.000    0.000 
#
# Total GULP energy -89095.655282 kJ/mol
# GULP energy per Si atom -5568.478455 kJ/mol
# Density = 2.851504 g / cm^3
# Si number density = 28.580091 Si / 1000 Ang^3
#
#
#
# Elastic Constant Matrix: (Units=GPa)
#
#
# Indices 1 2 3 4 5 6 
#
# 1 263.2838 96.9973 102.6933 -10.2610 8.5504 12.2708
# 2 96.9973 237.7977 101.0519 -32.2667 -24.4348 -24.7374
# 3 102.6933 101.0519 219.9646 -34.9583 -24.6569 43.4685
# 4 -10.2610 -32.2667 -34.9583 76.8868 24.4956 -2.7930
# 5 8.5504 -24.4348 -24.6569 24.4956 69.7573 5.3528
# 6 12.2708 -24.7374 43.4685 -2.7930 5.3528 52.4907
#
#
#
# Elastic Compliance Matrix: (Units=1/GPa)
#
#
# Indices 1 2 3 4 5 6 
#
# 1 0.005160 -0.001528 -0.001908 -0.000275 -0.001731 -0.000184
# 2 -0.001528 0.007406 -0.003828 0.001280 0.000439 0.007041
# 3 -0.001908 -0.003828 0.009562 0.001337 0.002530 -0.009463
# 4 -0.000275 0.001280 0.001337 0.015609 -0.004592 0.000859
# 5 -0.001731 0.000439 0.002530 -0.004592 0.017477 -0.003510
# 6 -0.000184 0.007041 -0.009463 0.000859 -0.003510 0.030652
#
#
# Mechanical properties :
#
#
# Convention : Reuss Voigt Hill
#
# Bulk Modulus (GPa) = 131.59542 146.94792 139.27167
# Shear Modulus (GPa) = 48.57788 67.84719 58.21254
#
# Velocity S-wave (km/s) = 4.12723 4.87759 4.51801
# Velocity P-wave (km/s) = 8.29798 9.12409 8.72082
#
# Compressibility (1/GPa) = 0.00759905
#
# Stress axis : x y z
#
# Youngs Moduli (GPa) = 193.81585 135.01743 104.58471
#
# Poissons Ratio (x) = 0.20632 0.19957
# Poissons Ratio (y) = 0.29617 0.40034
# Poissons Ratio (z) = 0.36985 0.51684
#
# Static dielectric constant tensor:
#      x y z
#    x 2.356600 0.162940 0.137960 
#    y 0.162940 2.381920 0.100400 
#    z 0.137960 0.100400 2.568770 
# 
# From -- ./inp_files/291875.got.cif
#   From: 2010.05.17/outbox.cif.g08.bks.cpg/sg2_146_cif.got.tgz:291875.got - 2010.06.03 11:33:40.
