data_PCOD9032928
_publ_section_title
;
Structure prediction by ZEFSAII (Michael W. Deem and Ramdas Pophale) SiO2 
 PCOD9032928
Probable space group: P -1
;
_chemical_formula_sum "Si O2"
_cell_formula_units_Z 16
_cell_length_a 5.889349
_cell_length_b 18.847699
_cell_length_c 9.977928
_cell_angle_alpha 35.962245
_cell_angle_beta 99.625217
_cell_angle_gamma 103.103737
_cell_volume 633.221580
_symmetry_space_group_name_H-M "P -1"
_symmetry_group_IT_number 2
_symmetry_cell_setting 'triclinic'
loop_
_space_group_symop_operation_xyz
x,y,z
-x,-y,-z
loop_
_atom_site_type_symbol
_atom_site_label
_atom_site_fract_x
_atom_site_fract_y
_atom_site_fract_z
Si Si1 0.983266 0.616543 0.727686
Si Si2 0.098172 0.225907 0.289907
Si Si3 0.276927 0.627195 0.304705
Si Si4 0.279084 0.990766 0.395199
Si Si5 0.895430 0.540124 0.229884
Si Si6 0.977370 0.147477 0.985655
Si Si7 0.432210 0.084611 0.692585
Si Si8 0.338144 0.249031 0.664080
O O1 0.140042 0.584637 0.669233
O O2 0.741007 0.643455 0.598330
O O3 0.035354 0.726764 0.667102
O O4 0.000000 0.500000 0.000000
O O5 0.321278 0.174253 0.444540
O O6 0.911185 0.112661 0.398511
O O7 0.176721 0.343688 0.026530
O O8 0.174796 0.582068 0.219341
O O9 0.523067 0.694980 0.277127
O O10 0.226568 0.503872 0.576968
O O11 0.113840 0.728913 0.169199
O O12 0.500000 0.000000 0.500000
O O13 0.357524 0.956797 0.304904
O O14 0.161059 0.109449 0.170378
O O15 0.102160 0.171766 0.817528
O O16 0.768328 0.033537 0.131790
O O17 0.465005 0.160035 0.719419
#
# Coordination Sequence:
#
# PCOD9032928 Si02
#       8
#     2   2   2   2   2   2   2   2
#     4   9  19  43  65  91 129 172 213 270 318 371
#     4   9  22  42  69  90 136 168 213 275 326 379
#     4  11  25  40  66  99 132 174 217 265 328 388
#     4  11  26  42  67 101 128 175 219 265 332 398
#     4  10  22  44  63  93 137 172 213 274 324 377
#     4  11  24  43  67  95 139 168 214 278 325 380
#     4  10  24  43  66 101 127 171 219 269 330 386
#     4  11  23  42  70  98 130 173 222 263 328 398
#
# _framework density 25.267613999999998
#
# number of rings (size 3 to 8) (size 9 to 14) (size 15 to 20)
#    0.000    1.750    1.250    1.125    7.000    4.500 
#    4.500    1.875    0.000    0.000    0.000    0.000 
#    0.000    0.000    0.000    0.000    0.000    0.000 
#
# Total GULP energy -89396.770872 kJ/mol
# GULP energy per Si atom -5587.298179 kJ/mol
# Density = 2.521010 g / cm^3
# Si number density = 25.267614 Si / 1000 Ang^3
#
#
#
# Elastic Constant Matrix: (Units=GPa)
#
#
# Indices 1 2 3 4 5 6 
#
# 1 51.6465 15.6554 46.9567 -2.0062 5.2121 -4.9182
# 2 15.6554 73.8382 34.7780 -14.2582 2.0386 -14.9028
# 3 46.9567 34.7780 154.5571 -3.6381 25.4285 5.6918
# 4 -2.0062 -14.2582 -3.6381 32.7945 5.8439 4.0571
# 5 5.2121 2.0386 25.4285 5.8439 35.1692 0.6850
# 6 -4.9182 -14.9028 5.6918 4.0571 0.6850 40.5859
#
#
#
# Elastic Compliance Matrix: (Units=1/GPa)
#
#
# Indices 1 2 3 4 5 6 
#
# 1 0.027792 -0.001122 -0.008740 -0.000688 0.002298 0.004212
# 2 -0.001122 0.018170 -0.003961 0.006457 0.000778 0.006433
# 3 -0.008740 -0.003961 0.011279 0.000683 -0.006664 -0.004051
# 4 -0.000688 0.006457 0.000683 0.034636 -0.006499 -0.001161
# 5 0.002298 0.000778 -0.006664 -0.006499 0.033916 0.001576
# 6 0.004212 0.006433 -0.004051 -0.001161 0.001576 0.028169
#
#
# Mechanical properties :
#
#
# Convention : Reuss Voigt Hill
#
# Bulk Modulus (GPa) = 33.79038 52.75799 43.27418
# Shear Modulus (GPa) = 26.11339 33.88669 30.00004
#
# Velocity S-wave (km/s) = 3.21825 3.66609 3.44945
# Velocity P-wave (km/s) = 5.21647 6.23260 5.74704
#
# Compressibility (1/GPa) = 0.02959422
#
# Stress axis : x y z
#
# Youngs Moduli (GPa) = 35.98204 55.03491 88.66387
#
# Poissons Ratio (x) = 0.06175 0.77496
# Poissons Ratio (y) = 0.04037 0.35117
# Poissons Ratio (z) = 0.31450 0.21798
#
# Static dielectric constant tensor:
#      x y z
#    x 2.017270 -0.025890 0.002210 
#    y -0.025890 2.113720 0.034240 
#    z 0.002210 0.034240 1.939840 
# 
# From -- ./inp_files/370282.got.cif
#   From: 2010.05.17/outbox.cif.g08.bks.cpg/sg2_186_cif.got.tgz:370282.got - 2010.06.03 11:33:40.
