data_PCOD9032371
_publ_section_title
;
Structure prediction by ZEFSAII (Michael W. Deem and Ramdas Pophale) SiO2 
 PCOD9032371
Probable space group: P -1
;
_chemical_formula_sum "Si O2"
_cell_formula_units_Z 14
_cell_length_a 5.082544
_cell_length_b 12.459711
_cell_length_c 11.873005
_cell_angle_alpha 107.116530
_cell_angle_beta 109.880239
_cell_angle_gamma 51.162589
_cell_volume 547.377354
_symmetry_space_group_name_H-M "P -1"
_symmetry_group_IT_number 2
_symmetry_cell_setting 'triclinic'
loop_
_space_group_symop_operation_xyz
x,y,z
-x,-y,-z
loop_
_atom_site_type_symbol
_atom_site_label
_atom_site_fract_x
_atom_site_fract_y
_atom_site_fract_z
Si Si1 0.362316 0.419628 0.677023
Si Si2 0.838620 0.969763 0.365298
Si Si3 0.496248 0.171352 0.737698
Si Si4 0.603133 0.413663 0.104078
Si Si5 0.570255 0.615582 0.560824
Si Si6 0.607433 0.788250 0.775841
Si Si7 0.377314 0.859640 0.000434
O O1 0.343543 0.329348 0.740447
O O2 0.557278 0.479021 0.780617
O O3 0.523783 0.323121 0.559877
O O4 0.977884 0.539293 0.616418
O O5 0.725968 0.874390 0.363331
O O6 0.118477 0.912468 0.285493
O O7 0.480791 0.107708 0.307053
O O8 0.000000 0.000000 0.500000
O O9 0.462030 0.152444 0.859217
O O10 0.561119 0.289933 0.050666
O O11 0.006304 0.331344 0.166633
O O12 0.500000 0.500000 0.000000
O O13 0.500000 0.500000 0.500000
O O14 0.419295 0.719625 0.677196
O O15 0.488366 0.875919 0.899789
O O16 0.000000 0.000000 0.000000
#
# Coordination Sequence:
#
# PCOD9032371 Si02
#       7
#     2   2   2   2   2   2   2
#     4  10  23  43  69 107 142 195 250 312 380 453
#     4  12  28  50  75 112 152 200 256 314 380 457
#     4  12  27  46  77 108 149 200 252 313 380 455
#     4  11  24  46  70 107 152 192 253 312 381 448
#     4  10  22  43  70  99 142 190 247 314 381 448
#     4  11  26  44  72 106 144 201 250 314 379 454
#     4  12  25  46  73 104 151 198 255 313 379 453
#
# _framework density 25.576505000000001
#
# number of rings (size 3 to 8) (size 9 to 14) (size 15 to 20)
#    0.000    0.857    2.857    3.000    6.000    1.714 
#    0.000    0.000    0.000    0.000    0.000    0.000 
#    0.000    0.000    0.000    0.000    0.000    0.000 
#
# Total GULP energy -78131.875577 kJ/mol
# GULP energy per Si atom -5580.848255 kJ/mol
# Density = 2.551829 g / cm^3
# Si number density = 25.576505 Si / 1000 Ang^3
#
#
#
# Elastic Constant Matrix: (Units=GPa)
#
#
# Indices 1 2 3 4 5 6 
#
# 1 61.3522 6.4941 6.6869 6.4722 10.6225 -1.3467
# 2 6.4941 84.8470 14.6088 -12.8688 10.3353 1.2596
# 3 6.6869 14.6088 129.3798 2.2403 -1.4951 -10.5434
# 4 6.4722 -12.8688 2.2403 53.3142 7.9148 8.2968
# 5 10.6225 10.3353 -1.4951 7.9148 34.1746 9.7122
# 6 -1.3467 1.2596 -10.5434 8.2968 9.7122 40.4185
#
#
#
# Elastic Compliance Matrix: (Units=1/GPa)
#
#
# Indices 1 2 3 4 5 6 
#
# 1 0.017647 -0.000888 -0.000669 -0.001854 -0.005420 0.002124
# 2 -0.000888 0.013342 -0.001637 0.004180 -0.004622 -0.000620
# 3 -0.000669 -0.001637 0.008156 -0.001104 0.000685 0.002218
# 4 -0.001854 0.004180 -0.001104 0.021304 -0.004605 -0.003746
# 5 -0.005420 -0.004622 0.000685 -0.004605 0.035560 -0.007457
# 6 0.002124 -0.000620 0.002218 -0.003746 -0.007457 0.027971
#
#
# Mechanical properties :
#
#
# Convention : Reuss Voigt Hill
#
# Bulk Modulus (GPa) = 30.52783 36.79542 33.66162
# Shear Modulus (GPa) = 35.38895 42.10076 38.74485
#
# Velocity S-wave (km/s) = 3.72378 4.06158 3.89634
# Velocity P-wave (km/s) = 5.51820 6.03431 5.78202
#
# Compressibility (1/GPa) = 0.03275699
#
# Stress axis : x y z
#
# Youngs Moduli (GPa) = 56.66701 74.95175 122.60329
#
# Poissons Ratio (x) = 0.06656 0.08205
# Poissons Ratio (y) = 0.05032 0.20069
# Poissons Ratio (z) = 0.03792 0.12269
#
# Static dielectric constant tensor:
#      x y z
#    x 2.165460 -0.186010 -0.139780 
#    y -0.186010 2.546460 0.108660 
#    z -0.139780 0.108660 2.292850 
# 
# From -- ./inp_files/68097.got.cif
#   From: 2010.05.17/outbox.cif.g08.bks.cpg/sg2_35_cif.got.tgz:68097.got - 2010.06.03 11:33:40.
