data_PCOD9032579
_publ_section_title
;
Structure prediction by ZEFSAII (Michael W. Deem and Ramdas Pophale) SiO2 
 PCOD9032579
Probable space group: P -1
;
_chemical_formula_sum "Si O2"
_cell_formula_units_Z 15
_cell_length_a 8.884137
_cell_length_b 9.138114
_cell_length_c 8.573702
_cell_angle_alpha 106.001868
_cell_angle_beta 97.556033
_cell_angle_gamma 68.319561
_cell_volume 621.405318
_symmetry_space_group_name_H-M "P -1"
_symmetry_group_IT_number 2
_symmetry_cell_setting 'triclinic'
loop_
_space_group_symop_operation_xyz
x,y,z
-x,-y,-z
loop_
_atom_site_type_symbol
_atom_site_label
_atom_site_fract_x
_atom_site_fract_y
_atom_site_fract_z
Si Si1 0.899090 0.898313 0.026441
Si Si2 0.259067 0.626770 0.524374
Si Si3 0.950713 0.459748 0.151384
Si Si4 0.363416 0.976788 0.195815
Si Si5 0.000000 0.500000 0.500000
Si Si6 0.594839 0.624756 0.045615
Si Si7 0.450794 0.291940 0.294058
Si Si8 0.898190 0.107468 0.657952
O O1 0.966924 0.867368 0.201292
O O2 0.956541 0.731763 0.892283
O O3 0.713139 0.989689 0.980714
O O4 0.000000 0.000000 0.000000
O O5 0.352352 0.436099 0.441688
O O6 0.368067 0.703650 0.664128
O O7 0.221286 0.728987 0.389779
O O8 0.100638 0.622841 0.589939
O O9 0.008083 0.537517 0.327523
O O10 0.757745 0.534066 0.134429
O O11 0.000000 0.500000 0.000000
O O12 0.498269 0.798750 0.160420
O O13 0.218169 0.970502 0.288036
O O14 0.427174 0.123452 0.285765
O O15 0.500000 0.500000 0.000000
O O16 0.614981 0.659988 0.875938
O O17 0.000000 0.000000 0.500000
#
# Coordination Sequence:
#
# PCOD9032579 Si02
#       8
#     2   2   2   2   1   2   2   2
#     4  10  22  43  72 104 146 191 246 309 381 448
#     4  11  26  45  71 107 150 197 254 317 379 472
#     4  12  26  48  74 111 151 196 254 314 378 471
#     4  11  25  46  77 108 151 204 256 318 389 470
#     4  12  26  44  80 108 148 200 264 306 394 448
#     4  12  24  45  78 109 154 199 253 315 388 464
#     4  11  25  47  72 105 155 199 252 311 396 462
#     4  11  26  44  72 113 155 196 260 324 389 461
#
# _framework density 24.138835
#
# number of rings (size 3 to 8) (size 9 to 14) (size 15 to 20)
#    0.000    0.800    0.000    7.600    7.467    1.600 
#    2.400    0.000    0.000    0.000    0.000    0.000 
#    0.000    0.000    0.000    0.000    0.000    0.000 
#
# Total GULP energy -83717.388171 kJ/mol
# GULP energy per Si atom -5581.159211 kJ/mol
# Density = 2.408389 g / cm^3
# Si number density = 24.138835 Si / 1000 Ang^3
#
#
#
# Elastic Constant Matrix: (Units=GPa)
#
#
# Indices 1 2 3 4 5 6 
#
# 1 95.3129 35.7347 21.1795 6.9732 23.0361 19.6281
# 2 35.7347 119.8414 0.6576 7.6970 9.0062 18.0115
# 3 21.1795 0.6576 113.3252 -6.1798 5.7742 2.9475
# 4 6.9732 7.6970 -6.1798 37.6633 -3.5200 5.7963
# 5 23.0361 9.0062 5.7742 -3.5200 43.1554 -3.8771
# 6 19.6281 18.0115 2.9475 5.7963 -3.8771 49.1551
#
#
#
# Elastic Compliance Matrix: (Units=1/GPa)
#
#
# Indices 1 2 3 4 5 6 
#
# 1 0.015335 -0.003021 -0.002451 -0.002564 -0.007903 -0.005191
# 2 -0.003021 0.009718 0.000551 -0.001052 -0.000784 -0.002326
# 3 -0.002451 0.000551 0.009377 0.001889 0.000092 -0.000001
# 4 -0.002564 -0.001052 0.001889 0.028144 0.003474 -0.001749
# 5 -0.007903 -0.000784 0.000092 0.003474 0.028298 0.005260
# 6 -0.005191 -0.002326 -0.000001 -0.001749 0.005260 0.023890
#
#
# Mechanical properties :
#
#
# Convention : Reuss Voigt Hill
#
# Bulk Modulus (GPa) = 40.66565 49.29146 44.97856
# Shear Modulus (GPa) = 37.65060 44.05526 40.85293
#
# Velocity S-wave (km/s) = 3.95365 4.27673 4.11836
# Velocity P-wave (km/s) = 6.14207 6.69713 6.42559
#
# Compressibility (1/GPa) = 0.02459078
#
# Stress axis : x y z
#
# Youngs Moduli (GPa) = 65.20826 102.90149 106.64075
#
# Poissons Ratio (x) = 0.31082 0.26134
# Poissons Ratio (y) = 0.19697 -0.05878
# Poissons Ratio (z) = 0.15980 -0.05672
#
# Static dielectric constant tensor:
#      x y z
#    x 2.041120 -0.010960 -0.084570 
#    y -0.010960 1.931600 0.041060 
#    z -0.084570 0.041060 1.707760 
# 
# From -- ./inp_files/159865.got.cif
#   From: 2010.05.17/outbox.cif.g08.bks.cpg/sg2_80_cif.got.tgz:159865.got - 2010.06.03 11:33:40.
