data_PCOD9032086
_publ_section_title
;
Structure prediction by ZEFSAII (Michael W. Deem and Ramdas Pophale) SiO2 
 PCOD9032086
Probable space group: P -1
;
_chemical_formula_sum "Si O2"
_cell_formula_units_Z 16
_cell_length_a 8.749083
_cell_length_b 14.868584
_cell_length_c 12.250035
_cell_angle_alpha 51.674588
_cell_angle_beta 34.825969
_cell_angle_gamma 52.922667
_cell_volume 698.109220
_symmetry_space_group_name_H-M "P -1"
_symmetry_group_IT_number 2
_symmetry_cell_setting 'triclinic'
loop_
_space_group_symop_operation_xyz
x,y,z
-x,-y,-z
loop_
_atom_site_type_symbol
_atom_site_label
_atom_site_fract_x
_atom_site_fract_y
_atom_site_fract_z
Si Si1 0.146306 0.824396 0.516685
Si Si2 0.104733 0.455667 0.308516
Si Si3 0.707097 0.064394 0.439722
Si Si4 0.525846 0.781869 0.933465
Si Si5 0.399814 0.475039 0.899230
Si Si6 0.754509 0.047674 0.856949
Si Si7 0.500741 0.423403 0.448246
Si Si8 0.633470 0.801320 0.629260
O O1 0.216534 0.914830 0.497011
O O2 0.178764 0.869557 0.341913
O O3 0.371735 0.707467 0.492322
O O4 0.839163 0.802534 0.733720
O O5 0.346041 0.488354 0.214961
O O6 0.125431 0.315649 0.422496
O O7 0.811786 0.537994 0.439589
O O8 0.175082 0.475263 0.125320
O O9 0.486995 0.172936 0.439977
O O10 0.639086 0.936375 0.558510
O O11 0.979866 0.055515 0.214009
O O12 0.450236 0.768973 0.860410
O O13 0.520625 0.659407 0.084808
O O14 0.324766 0.884056 0.036718
O O15 0.322878 0.550445 0.779151
O O16 0.500000 0.000000 0.000000
O O17 0.500000 0.500000 0.500000
#
# Coordination Sequence:
#
# PCOD9032086 Si02
#       8
#     2   2   2   2   2   2   2   2
#     4  12  25  45  66  99 139 171 220 275 328 391
#     4  10  23  46  67  95 136 177 217 274 329 391
#     4  11  23  42  70  97 128 176 219 271 333 389
#     4  11  23  42  69  94 135 176 216 277 327 386
#     4  10  23  42  66  95 130 177 220 267 329 388
#     4  12  24  43  70  98 132 177 222 269 333 398
#     4  12  25  41  68 100 134 177 221 270 330 396
#     4  10  22  43  69  95 134 172 216 275 332 385
#
# _framework density 22.919052000000001
#
# number of rings (size 3 to 8) (size 9 to 14) (size 15 to 20)
#    0.000    1.000    2.500    4.500    1.750    3.500 
#    9.000    0.000    0.000    0.000    0.000    0.000 
#    0.000    0.000    0.000    0.000    0.000    0.000 
#
# Total GULP energy -89337.761365 kJ/mol
# GULP energy per Si atom -5583.610085 kJ/mol
# Density = 2.286689 g / cm^3
# Si number density = 22.919052 Si / 1000 Ang^3
#
#
#
# Elastic Constant Matrix: (Units=GPa)
#
#
# Indices 1 2 3 4 5 6 
#
# 1 62.7675 15.1468 19.1852 -10.0888 19.3844 -5.0956
# 2 15.1468 93.9843 27.7350 0.9557 -2.5556 -20.0381
# 3 19.1852 27.7350 71.1817 0.2623 9.5401 -9.3841
# 4 -10.0888 0.9557 0.2623 37.1108 5.0371 4.8696
# 5 19.3844 -2.5556 9.5401 5.0371 31.3180 -8.4940
# 6 -5.0956 -20.0381 -9.3841 4.8696 -8.4940 43.6020
#
#
#
# Elastic Compliance Matrix: (Units=1/GPa)
#
#
# Indices 1 2 3 4 5 6 
#
# 1 0.024560 -0.004533 -0.003136 0.009745 -0.017366 -0.004360
# 2 -0.004533 0.014462 -0.004520 -0.003567 0.007855 0.007072
# 3 -0.003136 -0.004520 0.017200 -0.000479 -0.003415 0.000646
# 4 0.009745 -0.003567 -0.000479 0.032378 -0.013228 -0.006797
# 5 -0.017366 0.007855 -0.003415 -0.013228 0.049746 0.012014
# 6 -0.004360 0.007072 0.000646 -0.006797 0.012014 0.028914
#
#
# Mechanical properties :
#
#
# Convention : Reuss Voigt Hill
#
# Bulk Modulus (GPa) = 31.40530 39.11861 35.26195
# Shear Modulus (GPa) = 24.72129 33.46390 29.09260
#
# Velocity S-wave (km/s) = 3.28782 3.82526 3.56668
# Velocity P-wave (km/s) = 5.30523 6.05106 5.69038
#
# Compressibility (1/GPa) = 0.03184176
#
# Stress axis : x y z
#
# Youngs Moduli (GPa) = 40.71682 69.14464 58.14013
#
# Poissons Ratio (x) = 0.31346 0.18235
# Poissons Ratio (y) = 0.18458 0.26282
# Poissons Ratio (z) = 0.12770 0.31257
#
# Static dielectric constant tensor:
#      x y z
#    x 1.955070 0.001420 -0.012770 
#    y 0.001420 1.899260 -0.032350 
#    z -0.012770 -0.032350 1.900390 
# 
# From -- ./inp_files/398505.got.cif
#   From: 2010.05.17/outbox.cif.g08.bks.cpg/sg2_200_cif.got.tgz:398505.got - 2010.06.03 11:33:40.
