data_PCOD9032369
_publ_section_title
;
Structure prediction by ZEFSAII (Michael W. Deem and Ramdas Pophale) SiO2 
 PCOD9032369
Probable space group: P -1
;
_chemical_formula_sum "Si O2"
_cell_formula_units_Z 14
_cell_length_a 12.643825
_cell_length_b 5.488329
_cell_length_c 18.893186
_cell_angle_alpha 77.152947
_cell_angle_beta 149.753397
_cell_angle_gamma 105.128806
_cell_volume 637.510724
_symmetry_space_group_name_H-M "P -1"
_symmetry_group_IT_number 2
_symmetry_cell_setting 'triclinic'
loop_
_space_group_symop_operation_xyz
x,y,z
-x,-y,-z
loop_
_atom_site_type_symbol
_atom_site_label
_atom_site_fract_x
_atom_site_fract_y
_atom_site_fract_z
Si Si1 0.748785 0.445433 0.357661
Si Si2 0.870391 0.995242 0.727181
Si Si3 0.459568 0.138168 0.702666
Si Si4 0.944444 0.210116 0.011236
Si Si5 0.690228 0.048757 0.048849
Si Si6 0.536193 0.249253 0.575794
Si Si7 0.540900 0.543897 0.937781
O O1 0.663349 0.653314 0.344854
O O2 0.663661 0.496478 0.226698
O O3 0.000000 0.500000 0.500000
O O4 0.657893 0.152522 0.342455
O O5 0.663892 0.929483 0.563031
O O6 0.935261 0.828325 0.842136
O O7 0.074525 0.008910 0.793368
O O8 0.781693 0.220332 0.703419
O O9 0.499921 0.220878 0.639587
O O10 0.690417 0.163096 0.869588
O O11 0.000000 0.500000 0.000000
O O12 0.000000 0.000000 0.000000
O O13 0.691594 0.343159 0.014042
O O14 0.500000 0.000000 0.000000
O O15 0.631154 0.837118 0.968741
O O16 0.500000 0.500000 0.500000
O O17 0.500000 0.500000 0.000000
#
# Coordination Sequence:
#
# PCOD9032369 Si02
#       7
#     2   2   2   2   2   2   2
#     4  12  27  47  72 107 150 195 238 300 376 444
#     4  11  25  43  72 102 141 187 243 301 368 433
#     4  12  27  48  73 106 149 193 250 303 370 446
#     4  12  24  43  72 104 140 184 239 302 371 429
#     4  10  23  42  69 103 137 177 234 295 358 422
#     4  11  27  47  70 105 147 195 253 304 371 442
#     4  10  22  43  70  99 140 180 238 291 350 433
#
# _framework density 21.960412999999999
#
# number of rings (size 3 to 8) (size 9 to 14) (size 15 to 20)
#    0.000    0.857    1.429    4.714    6.000    4.571 
#    0.000    0.000    0.000    0.000    0.000    0.000 
#    0.000    0.000    0.000    0.000    0.000    0.000 
#
# Total GULP energy -77997.593383 kJ/mol
# GULP energy per Si atom -5571.256670 kJ/mol
# Density = 2.191043 g / cm^3
# Si number density = 21.960413 Si / 1000 Ang^3
#
#
#
# Elastic Constant Matrix: (Units=GPa)
#
#
# Indices 1 2 3 4 5 6 
#
# 1 112.1459 75.7144 58.9099 -22.8100 13.8291 -4.5209
# 2 75.7144 173.8260 46.1439 -17.1112 19.8503 -19.2134
# 3 58.9099 46.1439 129.4403 -21.9200 25.9449 -9.9314
# 4 -22.8100 -17.1112 -21.9200 37.4010 0.1943 0.2713
# 5 13.8291 19.8503 25.9449 0.1943 63.9449 -12.4119
# 6 -4.5209 -19.2134 -9.9314 0.2713 -12.4119 42.6449
#
#
#
# Elastic Compliance Matrix: (Units=1/GPa)
#
#
# Indices 1 2 3 4 5 6 
#
# 1 0.015886 -0.005433 -0.004626 0.004507 -0.000263 -0.001946
# 2 -0.005433 0.008637 -0.000103 0.000560 -0.000878 0.003032
# 3 -0.004626 -0.000103 0.011252 0.003735 -0.003333 0.001090
# 4 0.004507 0.000560 0.003735 0.031941 -0.002639 0.000629
# 5 -0.000263 -0.000878 -0.003333 -0.002639 0.018122 0.004092
# 6 -0.001946 0.003032 0.001090 0.000629 0.004092 0.026050
#
#
# Mechanical properties :
#
#
# Convention : Reuss Voigt Hill
#
# Bulk Modulus (GPa) = 64.72279 86.32762 75.52520
# Shear Modulus (GPa) = 36.40002 44.44111 40.42056
#
# Velocity S-wave (km/s) = 4.07569 4.50343 4.29489
# Velocity P-wave (km/s) = 7.18922 8.15089 7.68511
#
# Compressibility (1/GPa) = 0.01545051
#
# Stress axis : x y z
#
# Youngs Moduli (GPa) = 62.94942 115.77867 88.87299
#
# Poissons Ratio (x) = 0.62899 0.41116
# Poissons Ratio (y) = 0.34199 0.00916
# Poissons Ratio (z) = 0.29123 0.01193
#
# Static dielectric constant tensor:
#      x y z
#    x 2.055740 -0.189890 -0.057160 
#    y -0.189890 1.834270 -0.042780 
#    z -0.057160 -0.042780 1.723280 
# 
# From -- ./inp_files/564448.got.cif
#   From: 2010.05.17/outbox.cif.g08.bks.cpg/sg2_283_cif.got.tgz:564448.got - 2010.06.03 11:33:40.
