data_PCOD9032349
_publ_section_title
;
Structure prediction by ZEFSAII (Michael W. Deem and Ramdas Pophale) SiO2 
 PCOD9032349
Probable space group: P -1
;
_chemical_formula_sum "Si O2"
_cell_formula_units_Z 16
_cell_length_a 11.535493
_cell_length_b 12.563917
_cell_length_c 5.178857
_cell_angle_alpha 99.503727
_cell_angle_beta 90.749612
_cell_angle_gamma 116.630891
_cell_volume 658.504578
_symmetry_space_group_name_H-M "P -1"
_symmetry_group_IT_number 2
_symmetry_cell_setting 'triclinic'
loop_
_space_group_symop_operation_xyz
x,y,z
-x,-y,-z
loop_
_atom_site_type_symbol
_atom_site_label
_atom_site_fract_x
_atom_site_fract_y
_atom_site_fract_z
Si Si1 0.071872 0.145295 0.096685
Si Si2 0.795523 0.460507 0.341728
Si Si3 0.538133 0.451095 0.223910
Si Si4 0.204690 0.733816 0.058482
Si Si5 0.406263 0.780007 0.443792
Si Si6 0.019111 0.266799 0.621269
Si Si7 0.642745 0.821456 0.811854
Si Si8 0.360438 0.959457 0.844934
O O1 0.007693 0.179031 0.351287
O O2 0.218074 0.176677 0.211733
O O3 0.069138 0.220313 0.863977
O O4 0.000000 0.000000 0.000000
O O5 0.688707 0.489485 0.214711
O O6 0.697054 0.350191 0.484162
O O7 0.901289 0.598049 0.450052
O O8 0.857534 0.392505 0.144473
O O9 0.500000 0.500000 0.500000
O O10 0.453888 0.309045 0.143538
O O11 0.500000 0.500000 0.000000
O O12 0.350782 0.754074 0.143877
O O13 0.112894 0.733293 0.283587
O O14 0.239545 0.851956 0.940231
O O15 0.554359 0.823035 0.560562
O O16 0.374809 0.890990 0.566024
O O17 0.660684 0.923759 0.062334
O O18 0.500000 0.000000 0.000000
#
# Coordination Sequence:
#
# PCOD9032349 Si02
#       8
#     2   2   2   2   2   2   2   2
#     4  12  28  50  70 104 140 195 245 295 352 423
#     4  10  24  43  68 105 140 186 238 288 362 422
#     4  11  24  43  67  99 141 180 229 293 348 415
#     4  11  24  42  72 103 144 186 234 300 354 427
#     4   9  22  41  69 105 141 176 232 298 361 415
#     4  12  28  47  75 101 145 193 243 291 354 428
#     4  10  22  43  70  98 139 182 237 290 359 420
#     4   9  20  42  61 102 134 179 227 289 352 418
#
# _framework density 24.297477000000001
#
# number of rings (size 3 to 8) (size 9 to 14) (size 15 to 20)
#    0.000    1.500    0.000    3.750   10.500    2.500 
#    9.000    0.000    0.000    0.000    0.000    0.000 
#    0.000    0.000    0.000    0.000    0.000    0.000 
#
# Total GULP energy -89205.129774 kJ/mol
# GULP energy per Si atom -5575.320611 kJ/mol
# Density = 2.424217 g / cm^3
# Si number density = 24.297477 Si / 1000 Ang^3
#
#
#
# Elastic Constant Matrix: (Units=GPa)
#
#
# Indices 1 2 3 4 5 6 
#
# 1 131.9381 19.3622 27.0686 1.3399 9.9469 1.9498
# 2 19.3622 131.8895 51.8658 22.4381 -11.8119 -9.5639
# 3 27.0686 51.8658 90.6311 3.9391 -4.0224 -16.3524
# 4 1.3399 22.4381 3.9391 37.7329 -7.6028 -3.1457
# 5 9.9469 -11.8119 -4.0224 -7.6028 36.4020 1.1941
# 6 1.9498 -9.5639 -16.3524 -3.1457 1.1941 38.3965
#
#
#
# Elastic Compliance Matrix: (Units=1/GPa)
#
#
# Indices 1 2 3 4 5 6 
#
# 1 0.008431 -0.000498 -0.002631 -0.000426 -0.002792 -0.001621
# 2 -0.000498 0.011085 -0.005912 -0.005591 0.001920 -0.000249
# 3 -0.002631 -0.005912 0.016165 0.002588 0.000940 0.005728
# 4 -0.000426 -0.005591 0.002588 0.030742 0.004940 0.002096
# 5 -0.002792 0.001920 0.000940 0.004940 0.029976 0.000493
# 6 -0.001621 -0.000249 0.005728 0.002096 0.000493 0.028660
#
#
# Mechanical properties :
#
#
# Convention : Reuss Voigt Hill
#
# Bulk Modulus (GPa) = 56.81767 61.22799 59.02283
# Shear Modulus (GPa) = 33.55533 39.58377 36.56955
#
# Velocity S-wave (km/s) = 3.72024 4.04063 3.88374
# Velocity P-wave (km/s) = 6.47214 6.85733 6.66751
#
# Compressibility (1/GPa) = 0.01760016
#
# Stress axis : x y z
#
# Youngs Moduli (GPa) = 118.61106 90.21139 61.86106
#
# Poissons Ratio (x) = 0.04495 0.16274
# Poissons Ratio (y) = 0.05910 0.36570
# Poissons Ratio (z) = 0.31203 0.53329
#
# Static dielectric constant tensor:
#      x y z
#    x 1.974590 -0.036700 0.103930 
#    y -0.036700 1.953800 -0.057480 
#    z 0.103930 -0.057480 2.258130 
# 
# From -- ./inp_files/71294.got.cif
#   From: 2010.05.17/outbox.cif.g08.bks.cpg/sg2_36_cif.got.tgz:71294.got - 2010.06.03 11:33:40.
