data_PCOD9032050
_publ_section_title
;
Structure prediction by ZEFSAII (Michael W. Deem and Ramdas Pophale) SiO2 
 PCOD9032050
Probable space group: P -1
;
_chemical_formula_sum "Si O2"
_cell_formula_units_Z 15
_cell_length_a 14.283312
_cell_length_b 18.432097
_cell_length_c 7.935839
_cell_angle_alpha 120.611238
_cell_angle_beta 68.808031
_cell_angle_gamma 159.894323
_cell_volume 568.002293
_symmetry_space_group_name_H-M "P -1"
_symmetry_group_IT_number 2
_symmetry_cell_setting 'triclinic'
loop_
_space_group_symop_operation_xyz
x,y,z
-x,-y,-z
loop_
_atom_site_type_symbol
_atom_site_label
_atom_site_fract_x
_atom_site_fract_y
_atom_site_fract_z
Si Si1 0.794198 0.349793 0.698432
Si Si2 0.647213 0.000405 0.708265
Si Si3 0.794990 0.454196 0.133856
Si Si4 0.958126 0.282065 0.151105
Si Si5 0.369851 0.468630 0.923532
Si Si6 0.249798 0.256195 0.483122
Si Si7 0.417954 0.642280 0.525283
Si Si8 0.000000 0.000000 0.000000
O O1 0.979723 0.570796 0.751066
O O2 0.015397 0.459497 0.771053
O O3 0.577360 0.139071 0.451005
O O4 0.651816 0.288420 0.877246
O O5 0.963157 0.287743 0.785863
O O6 0.552529 0.827722 0.556696
O O7 0.660465 0.030048 0.937575
O O8 0.569400 0.322746 0.245875
O O9 0.070296 0.357791 0.359930
O O10 0.193683 0.401738 0.057026
O O11 0.152934 0.247412 0.675072
O O12 0.639739 0.715252 0.927465
O O13 0.500000 0.500000 0.000000
O O14 0.500000 0.500000 0.500000
O O15 0.402850 0.301483 0.539430
O O16 0.032529 0.050226 0.240499
#
# Coordination Sequence:
#
# PCOD9032050 Si02
#       8
#     2   2   2   2   2   2   2   1
#     4   9  21  43  65  98 127 170 212 260 324 378
#     4  10  23  40  67  95 127 165 216 255 324 379
#     4  10  22  43  69  91 135 165 209 271 315 380
#     4  10  23  42  64  95 131 166 215 266 311 381
#     4  11  23  45  65  90 131 169 210 264 315 376
#     4  10  24  42  63  95 128 163 218 258 315 380
#     4  11  24  43  63  97 128 168 215 262 321 377
#     4  10  26  42  66  94 122 166 218 258 322 376
#
# _framework density 26.408344
#
# number of rings (size 3 to 8) (size 9 to 14) (size 15 to 20)
#    0.000    1.867    1.333    0.400    9.333    5.867 
#    4.800    6.667    0.000    0.000    0.000    0.000 
#    0.000    0.000    0.000    0.000    0.000    0.000 
#
# Total GULP energy -83532.985398 kJ/mol
# GULP energy per Si atom -5568.865693 kJ/mol
# Density = 2.634824 g / cm^3
# Si number density = 26.408344 Si / 1000 Ang^3
#
#
#
# Elastic Constant Matrix: (Units=GPa)
#
#
# Indices 1 2 3 4 5 6 
#
# 1 100.8719 18.1413 31.2844 12.8980 8.6202 -21.9813
# 2 18.1413 62.3771 2.1292 -4.4593 -7.2553 0.7694
# 3 31.2844 2.1292 180.5871 -4.0750 37.2223 6.6017
# 4 12.8980 -4.4593 -4.0750 39.7930 10.4510 -8.1217
# 5 8.6202 -7.2553 37.2223 10.4510 48.9134 -6.7500
# 6 -21.9813 0.7694 6.6017 -8.1217 -6.7500 31.3729
#
#
#
# Elastic Compliance Matrix: (Units=1/GPa)
#
#
# Indices 1 2 3 4 5 6 
#
# 1 0.014205 -0.004244 -0.003165 -0.003733 0.001463 0.010071
# 2 -0.004244 0.017736 0.000156 0.002259 0.002456 -0.002328
# 3 -0.003165 0.000156 0.007627 0.002580 -0.006400 -0.004535
# 4 -0.003733 0.002259 0.002580 0.029238 -0.006818 0.002888
# 5 0.001463 0.002456 -0.006400 -0.006818 0.027778 0.006523
# 6 0.010071 -0.002328 -0.004535 0.002888 0.006523 0.042094
#
#
# Mechanical properties :
#
#
# Convention : Reuss Voigt Hill
#
# Bulk Modulus (GPa) = 39.89969 49.66063 44.78016
# Shear Modulus (GPa) = 30.95229 43.50128 37.22678
#
# Velocity S-wave (km/s) = 3.42726 4.06304 3.75862
# Velocity P-wave (km/s) = 5.55005 6.39193 5.98581
#
# Compressibility (1/GPa) = 0.02506285
#
# Stress axis : x y z
#
# Youngs Moduli (GPa) = 70.39602 56.38101 131.11097
#
# Poissons Ratio (x) = 0.23930 0.41493
# Poissons Ratio (y) = 0.29878 -0.02045
# Poissons Ratio (z) = 0.22278 -0.00879
#
# Static dielectric constant tensor:
#      x y z
#    x 2.071890 -0.012460 0.037260 
#    y -0.012460 2.080210 -0.015930 
#    z 0.037260 -0.015930 2.013390 
# 
# From -- ./inp_files/317283.got.cif
#   From: 2010.05.17/outbox.cif.g08.bks.cpg/sg2_159_cif.got.tgz:317283.got - 2010.06.03 11:33:40.
