data_PCOD9032609
_publ_section_title
;
Structure prediction by ZEFSAII (Michael W. Deem and Ramdas Pophale) SiO2 
 PCOD9032609
Probable space group: P -1
;
_chemical_formula_sum "Si O2"
_cell_formula_units_Z 14
_cell_length_a 5.340857
_cell_length_b 18.957171
_cell_length_c 9.347741
_cell_angle_alpha 125.196409
_cell_angle_beta 63.160539
_cell_angle_gamma 131.739032
_cell_volume 573.530670
_symmetry_space_group_name_H-M "P -1"
_symmetry_group_IT_number 2
_symmetry_cell_setting 'triclinic'
loop_
_space_group_symop_operation_xyz
x,y,z
-x,-y,-z
loop_
_atom_site_type_symbol
_atom_site_label
_atom_site_fract_x
_atom_site_fract_y
_atom_site_fract_z
Si Si1 0.911176 0.484345 0.168823
Si Si2 0.318568 0.114265 0.057023
Si Si3 0.251313 0.257146 0.054758
Si Si4 0.154790 0.673565 0.616837
Si Si5 0.361043 0.131398 0.406428
Si Si6 0.867490 0.101368 0.729023
Si Si7 0.402183 0.544257 0.379193
O O1 0.612244 0.362484 0.108345
O O2 0.742602 0.549726 0.300123
O O3 0.214673 0.515692 0.237941
O O4 0.000000 0.500000 0.000000
O O5 0.202506 0.186466 0.117129
O O6 0.377711 0.126983 0.225847
O O7 0.583632 0.119474 0.879718
O O8 0.000000 0.000000 0.000000
O O9 0.975382 0.286088 0.175688
O O10 0.175271 0.184288 0.851793
O O11 0.294024 0.752168 0.537112
O O12 0.440240 0.649494 0.541374
O O13 0.840304 0.551571 0.563301
O O14 0.046676 0.127910 0.558408
O O15 0.300149 0.022409 0.348213
#
# Coordination Sequence:
#
# PCOD9032609 Si02
#       7
#     2   2   2   2   2   2   2
#     4  11  25  43  70 102 144 183 234 298 361 411
#     4  12  23  42  70  97 137 184 230 286 353 419
#     4  11  24  43  70  96 137 183 232 292 351 432
#     4  10  22  43  72  94 135 185 231 287 362 411
#     4  11  23  43  69  95 141 181 224 291 356 421
#     4  11  25  44  63 104 139 175 238 287 349 434
#     4  10  24  44  68 103 136 183 244 288 346 442
#
# _framework density 24.410205000000001
#
# number of rings (size 3 to 8) (size 9 to 14) (size 15 to 20)
#    0.000    1.143    2.857    2.571    4.000    8.000 
#    2.571    0.000    0.000    0.000    0.000    0.000 
#    0.000    0.000    0.000    0.000    0.000    0.000 
#
# Total GULP energy -77955.577788 kJ/mol
# GULP energy per Si atom -5568.255556 kJ/mol
# Density = 2.435465 g / cm^3
# Si number density = 24.410205 Si / 1000 Ang^3
#
#
#
# Elastic Constant Matrix: (Units=GPa)
#
#
# Indices 1 2 3 4 5 6 
#
# 1 99.8585 25.4531 56.9493 0.4430 3.8586 -5.4776
# 2 25.4531 120.9345 48.3743 23.5987 -0.8962 -10.3406
# 3 56.9493 48.3743 116.9981 -13.9311 -10.1437 -1.5394
# 4 0.4430 23.5987 -13.9311 40.9862 -0.8340 2.6790
# 5 3.8586 -0.8962 -10.1437 -0.8340 37.1023 12.8644
# 6 -5.4776 -10.3406 -1.5394 2.6790 12.8644 27.5739
#
#
#
# Elastic Compliance Matrix: (Units=1/GPa)
#
#
# Indices 1 2 3 4 5 6 
#
# 1 0.015616 0.002129 -0.009600 -0.005254 -0.006751 0.007025
# 2 0.002129 0.014447 -0.008823 -0.012058 -0.005746 0.009200
# 3 -0.009600 -0.008823 0.019069 0.012510 0.009712 -0.009897
# 4 -0.005254 -0.012058 0.012510 0.036651 0.008854 -0.012559
# 5 -0.006751 -0.005746 0.009712 0.008854 0.037808 -0.021453
# 6 0.007025 0.009200 -0.009897 -0.012559 -0.021453 0.051788
#
#
# Mechanical properties :
#
#
# Convention : Reuss Voigt Hill
#
# Bulk Modulus (GPa) = 60.44001 66.59384 63.51692
# Shear Modulus (GPa) = 23.42133 34.93344 29.17738
#
# Velocity S-wave (km/s) = 3.10092 3.78709 3.46105
# Velocity P-wave (km/s) = 6.13473 6.81639 6.48452
#
# Compressibility (1/GPa) = 0.01654533
#
# Stress axis : x y z
#
# Youngs Moduli (GPa) = 64.03783 69.21887 52.44114
#
# Poissons Ratio (x) = -0.14739 0.50343
# Poissons Ratio (y) = -0.13635 0.46266
# Poissons Ratio (z) = 0.61476 0.61069
#
# Static dielectric constant tensor:
#      x y z
#    x 1.757760 -0.506350 -0.387520 
#    y -0.506350 0.726730 -0.820020 
#    z -0.387520 -0.820020 1.412200 
# 
# From -- ./inp_files/90260.got.cif
#   From: 2010.05.17/outbox.cif.g08.bks.cpg/sg2_46_cif.got.tgz:90260.got - 2010.06.03 11:33:40.
