data_PCOD9032228
_publ_section_title
;
Structure prediction by ZEFSAII (Michael W. Deem and Ramdas Pophale) SiO2 
 PCOD9032228
Probable space group: P -1
;
_chemical_formula_sum "Si O2"
_cell_formula_units_Z 14
_cell_length_a 17.502262
_cell_length_b 11.673010
_cell_length_c 17.834796
_cell_angle_alpha 40.608723
_cell_angle_beta 19.609180
_cell_angle_gamma 31.461882
_cell_volume 617.447111
_symmetry_space_group_name_H-M "P -1"
_symmetry_group_IT_number 2
_symmetry_cell_setting 'triclinic'
loop_
_space_group_symop_operation_xyz
x,y,z
-x,-y,-z
loop_
_atom_site_type_symbol
_atom_site_label
_atom_site_fract_x
_atom_site_fract_y
_atom_site_fract_z
Si Si1 0.951317 0.509885 0.880077
Si Si2 0.226161 0.043938 0.937643
Si Si3 0.122234 0.352226 0.278970
Si Si4 0.886553 0.743540 0.510851
Si Si5 0.295741 0.898138 0.323953
Si Si6 0.749050 0.346799 0.908577
Si Si7 0.182500 0.718858 0.659658
O O1 0.049828 0.518317 0.701509
O O2 0.113903 0.256927 0.884072
O O3 0.027685 0.631890 0.804285
O O4 0.596211 0.663094 0.133356
O O5 0.538898 0.923550 0.748161
O O6 0.003227 0.143795 0.163862
O O7 0.275484 0.839391 0.946198
O O8 0.971650 0.327134 0.501919
O O9 0.238014 0.485297 0.135749
O O10 0.343017 0.086836 0.184299
O O11 0.000000 0.500000 0.500000
O O12 0.967775 0.810337 0.328720
O O13 0.231166 0.852723 0.489174
O O14 0.000000 0.000000 0.500000
O O15 0.500000 0.500000 0.000000
O O16 0.500000 0.500000 0.500000
#
# Coordination Sequence:
#
# PCOD9032228 Si02
#       7
#     2   2   2   2   2   2   2
#     4  12  28  45  68 114 145 187 245 297 370 428
#     4  12  25  44  73 101 149 186 241 298 353 433
#     4  11  24  45  70 103 144 181 242 298 348 436
#     4  10  22  43  70 102 134 187 244 287 346 424
#     4  12  26  47  73 104 146 189 240 305 365 421
#     4  11  24  45  75 104 136 193 242 294 358 426
#     4  12  27  47  73 107 144 193 241 299 367 424
#
# _framework density 22.674008000000001
#
# number of rings (size 3 to 8) (size 9 to 14) (size 15 to 20)
#    0.000    0.571    5.714    2.571    6.000    1.714 
#    0.000    2.857    0.000    0.000    0.000    0.000 
#    0.000    0.000    0.000    0.000    0.000    0.000 
#
# Total GULP energy -78079.389495 kJ/mol
# GULP energy per Si atom -5577.099250 kJ/mol
# Density = 2.262240 g / cm^3
# Si number density = 22.674008 Si / 1000 Ang^3
#
#
#
# Elastic Constant Matrix: (Units=GPa)
#
#
# Indices 1 2 3 4 5 6 
#
# 1 94.6949 65.7865 11.0078 2.1649 -6.4886 -10.7737
# 2 65.7865 201.9941 27.7326 -20.6965 -10.6442 -1.5949
# 3 11.0078 27.7326 71.9582 22.3578 -9.8879 -9.3897
# 4 2.1649 -20.6965 22.3578 38.9155 -1.4147 -0.7627
# 5 -6.4886 -10.6442 -9.8879 -1.4147 34.9878 -11.7083
# 6 -10.7737 -1.5949 -9.3897 -0.7627 -11.7083 41.6251
#
#
#
# Elastic Compliance Matrix: (Units=1/GPa)
#
#
# Indices 1 2 3 4 5 6 
#
# 1 0.015037 -0.005540 0.002508 -0.005003 0.003312 0.005085
# 2 -0.005540 0.008158 -0.004946 0.007431 -0.000382 -0.002208
# 3 0.002508 -0.004946 0.021955 -0.014993 0.006930 0.007087
# 4 -0.005003 0.007431 -0.014993 0.038349 -0.002857 -0.004493
# 5 0.003312 -0.000382 0.006930 -0.002857 0.035005 0.012200
# 6 0.005085 -0.002208 0.007087 -0.004493 0.012200 0.030203
#
#
# Mechanical properties :
#
#
# Convention : Reuss Voigt Hill
#
# Bulk Modulus (GPa) = 34.25362 64.18901 49.22132
# Shear Modulus (GPa) = 28.67072 40.71368 34.69220
#
# Velocity S-wave (km/s) = 3.55980 4.24206 3.91582
# Velocity P-wave (km/s) = 5.66004 7.23633 6.49617
#
# Compressibility (1/GPa) = 0.02919400
#
# Stress axis : x y z
#
# Youngs Moduli (GPa) = 66.50219 122.58291 45.54800
#
# Poissons Ratio (x) = 0.67907 -0.11423
# Poissons Ratio (y) = 0.36840 0.22528
# Poissons Ratio (z) = -0.16678 0.60630
#
# Static dielectric constant tensor:
#      x y z
#    x 1.870340 0.003850 0.122870 
#    y 0.003850 1.939980 -0.281250 
#    z 0.122870 -0.281250 2.521900 
# 
# From -- ./inp_files/575945.got.cif
#   From: 2010.05.17/outbox.cif.g08.bks.cpg/sg2_288_cif.got.tgz:575945.got - 2010.06.03 11:33:40.
