data_PCOD9032998
_publ_section_title
;
Structure prediction by ZEFSAII (Michael W. Deem and Ramdas Pophale) SiO2 
 PCOD9032998
Probable space group: P -1
;
_chemical_formula_sum "Si O2"
_cell_formula_units_Z 16
_cell_length_a 9.811345
_cell_length_b 8.681941
_cell_length_c 15.219299
_cell_angle_alpha 58.874532
_cell_angle_beta 52.108960
_cell_angle_gamma 97.125884
_cell_volume 662.883104
_symmetry_space_group_name_H-M "P -1"
_symmetry_group_IT_number 2
_symmetry_cell_setting 'triclinic'
loop_
_space_group_symop_operation_xyz
x,y,z
-x,-y,-z
loop_
_atom_site_type_symbol
_atom_site_label
_atom_site_fract_x
_atom_site_fract_y
_atom_site_fract_z
Si Si1 0.178323 0.135998 0.565383
Si Si2 0.763692 0.095148 0.732239
Si Si3 0.690231 0.058799 0.572050
Si Si4 0.635338 0.396784 0.748864
Si Si5 0.788660 0.984750 0.071390
Si Si6 0.346977 0.558791 0.072727
Si Si7 0.474700 0.268238 0.572380
Si Si8 0.176931 0.627167 0.970822
O O1 0.189109 0.997139 0.524558
O O2 0.314653 0.403788 0.394866
O O3 0.298628 0.128247 0.603647
O O4 0.940556 0.068424 0.705227
O O5 0.766674 0.299978 0.705283
O O6 0.803600 0.131428 0.601300
O O7 0.510241 0.846056 0.921353
O O8 0.427695 0.814374 0.769646
O O9 0.671836 0.252027 0.486891
O O10 0.366067 0.163765 0.908531
O O11 0.708962 0.503809 0.785465
O O12 0.618461 0.844914 0.261882
O O13 0.874414 0.243137 0.980559
O O14 0.000000 0.000000 0.000000
O O15 0.172537 0.460772 0.090354
O O16 0.500000 0.500000 0.000000
O O17 0.500000 0.500000 0.500000
O O18 0.000000 0.500000 0.000000
#
# Coordination Sequence:
#
# PCOD9032998 Si02
#       8
#     2   2   2   2   2   2   2   2
#     4  12  25  39  70  98 133 181 223 281 338 407
#     4  11  23  45  66  95 134 176 229 277 337 408
#     4  10  22  44  64  96 137 175 222 286 337 394
#     4  12  23  45  69  98 139 177 226 286 340 401
#     4  11  25  41  69 100 131 176 225 281 339 403
#     4  11  25  42  70  99 136 177 222 283 343 403
#     4  11  22  44  64  96 134 176 225 275 335 398
#     4  10  23  43  67  96 136 172 221 278 338 404
#
# _framework density 24.136984000000002
#
# number of rings (size 3 to 8) (size 9 to 14) (size 15 to 20)
#    0.000    1.000    5.000    3.000    5.250    1.000 
#    0.000    2.500    0.000    0.000    0.000    0.000 
#    0.000    0.000    0.000    0.000    0.000    0.000 
#
# Total GULP energy -89433.758191 kJ/mol
# GULP energy per Si atom -5589.609887 kJ/mol
# Density = 2.408205 g / cm^3
# Si number density = 24.136984 Si / 1000 Ang^3
#
#
#
# Elastic Constant Matrix: (Units=GPa)
#
#
# Indices 1 2 3 4 5 6 
#
# 1 118.1754 18.7386 1.4975 9.9021 11.7880 3.6358
# 2 18.7386 93.7199 11.4302 16.2215 -2.2957 -9.5129
# 3 1.4975 11.4302 48.9747 2.1277 -1.7502 7.4492
# 4 9.9021 16.2215 2.1277 31.0841 -2.3489 2.2434
# 5 11.7880 -2.2957 -1.7502 -2.3489 28.8076 7.9858
# 6 3.6358 -9.5129 7.4492 2.2434 7.9858 62.0497
#
#
#
# Elastic Compliance Matrix: (Units=1/GPa)
#
#
# Indices 1 2 3 4 5 6 
#
# 1 0.009329 -0.001567 0.000068 -0.002454 -0.004088 -0.000180
# 2 -0.001567 0.012673 -0.003030 -0.006074 0.000255 0.002585
# 3 0.000068 -0.003030 0.021685 0.000469 0.002014 -0.003348
# 4 -0.002454 -0.006074 0.000469 0.036611 0.004288 -0.002719
# 5 -0.004088 0.000255 0.002014 0.004288 0.038277 -0.005044
# 6 -0.000180 0.002585 -0.003348 -0.002719 -0.005044 0.017673
#
#
# Mechanical properties :
#
#
# Convention : Reuss Voigt Hill
#
# Bulk Modulus (GPa) = 28.87767 36.02252 32.45010
# Shear Modulus (GPa) = 31.87831 39.66852 35.77342
#
# Velocity S-wave (km/s) = 3.63812 4.05838 3.85398
# Velocity P-wave (km/s) = 5.44407 6.07595 5.76867
#
# Compressibility (1/GPa) = 0.03462883
#
# Stress axis : x y z
#
# Youngs Moduli (GPa) = 107.19688 78.90797 46.11560
#
# Poissons Ratio (x) = 0.12366 -0.00316
# Poissons Ratio (y) = 0.16799 0.13973
# Poissons Ratio (z) = -0.00734 0.23909
#
# Static dielectric constant tensor:
#      x y z
#    x 1.954020 -0.034370 -0.003360 
#    y -0.034370 2.003200 -0.129210 
#    z -0.003360 -0.129210 2.097790 
# 
# From -- ./inp_files/346337.got.cif
#   From: 2010.05.17/outbox.cif.g08.bks.cpg/sg2_174_cif.got.tgz:346337.got - 2010.06.03 11:33:40.
