data_PCOD9032356
_publ_section_title
;
Structure prediction by ZEFSAII (Michael W. Deem and Ramdas Pophale) SiO2 
 PCOD9032356
Probable space group: P -1
;
_chemical_formula_sum "Si O2"
_cell_formula_units_Z 14
_cell_length_a 12.161790
_cell_length_b 14.886665
_cell_length_c 5.768682
_cell_angle_alpha 72.059299
_cell_angle_beta 68.199688
_cell_angle_gamma 36.151879
_cell_volume 572.000474
_symmetry_space_group_name_H-M "P -1"
_symmetry_group_IT_number 2
_symmetry_cell_setting 'triclinic'
loop_
_space_group_symop_operation_xyz
x,y,z
-x,-y,-z
loop_
_atom_site_type_symbol
_atom_site_label
_atom_site_fract_x
_atom_site_fract_y
_atom_site_fract_z
Si Si1 0.544892 0.890754 0.370154
Si Si2 0.788058 0.809433 0.855506
Si Si3 0.188182 0.772557 0.948982
Si Si4 0.214604 0.565048 0.831452
Si Si5 0.521955 0.276178 0.514834
Si Si6 0.843977 0.081183 0.753886
Si Si7 0.891487 0.559409 0.782910
O O1 0.551923 0.774427 0.501302
O O2 0.500000 0.000000 0.500000
O O3 0.365252 0.017888 0.234530
O O4 0.733774 0.805064 0.155036
O O5 0.768224 0.731523 0.764056
O O6 0.004443 0.708680 0.769550
O O7 0.249875 0.635262 0.901914
O O8 0.331075 0.760396 0.734884
O O9 0.963264 0.935594 0.940378
O O10 0.199382 0.790616 0.195519
O O11 0.358287 0.446574 0.608073
O O12 0.207986 0.479008 0.077384
O O13 0.648298 0.170294 0.726063
O O14 0.000000 0.000000 0.500000
O O15 0.000000 0.500000 0.500000
O O16 0.000000 0.500000 0.000000
#
# Coordination Sequence:
#
# PCOD9032356 Si02
#       7
#     2   2   2   2   2   2   2
#     4  11  25  42  70  98 134 182 239 289 354 424
#     4  10  24  44  65  97 136 184 234 290 357 413
#     4  10  22  43  70  99 132 185 227 283 349 427
#     4  11  23  44  70  99 143 178 233 287 363 425
#     4  11  23  43  65 102 139 174 230 293 349 423
#     4   9  21  43  66  89 137 173 233 279 342 406
#     4  10  23  45  68 101 142 186 235 292 357 426
#
# _framework density 24.475503
#
# number of rings (size 3 to 8) (size 9 to 14) (size 15 to 20)
#    0.000    1.714    1.429    1.286    4.000    6.286 
#   15.429    0.000    0.000    0.000    0.000    0.000 
#    0.000    0.000    0.000    0.000    0.000    0.000 
#
# Total GULP energy -78218.521113 kJ/mol
# GULP energy per Si atom -5587.037222 kJ/mol
# Density = 2.441980 g / cm^3
# Si number density = 24.475503 Si / 1000 Ang^3
#
#
#
# Elastic Constant Matrix: (Units=GPa)
#
#
# Indices 1 2 3 4 5 6 
#
# 1 135.9991 46.8020 32.9034 21.7189 16.0726 38.7370
# 2 46.8020 106.8263 31.4940 30.4887 0.9172 13.9947
# 3 32.9034 31.4940 85.9803 37.1722 12.1737 13.7548
# 4 21.7189 30.4887 37.1722 51.5290 6.5963 8.4718
# 5 16.0726 0.9172 12.1737 6.5963 29.4353 12.2167
# 6 38.7370 13.9947 13.7548 8.4718 12.2167 62.4444
#
#
#
# Elastic Compliance Matrix: (Units=1/GPa)
#
#
# Indices 1 2 3 4 5 6 
#
# 1 0.010720 -0.003540 -0.001539 -0.000117 -0.003044 -0.004906
# 2 -0.003540 0.012920 -0.001440 -0.005509 0.003493 -0.000318
# 3 -0.001539 -0.001440 0.018136 -0.011001 -0.003964 -0.000450
# 4 -0.000117 -0.005509 -0.011001 0.030932 -0.002125 -0.000050
# 5 -0.003044 0.003493 -0.003964 -0.002125 0.039944 -0.005548
# 6 -0.004906 -0.000318 -0.000450 -0.000050 -0.005548 0.020320
#
#
# Mechanical properties :
#
#
# Convention : Reuss Voigt Hill
#
# Bulk Modulus (GPa) = 34.79747 61.24492 48.02120
# Shear Modulus (GPa) = 32.13573 43.18883 37.66228
#
# Velocity S-wave (km/s) = 3.62743 4.20524 3.92698
# Velocity P-wave (km/s) = 5.63848 6.97538 6.34226
#
# Compressibility (1/GPa) = 0.02873772
#
# Stress axis : x y z
#
# Youngs Moduli (GPa) = 93.28784 77.39664 55.13812
#
# Poissons Ratio (x) = 0.27402 0.08486
# Poissons Ratio (y) = 0.33028 0.07939
# Poissons Ratio (z) = 0.14357 0.11144
#
# Static dielectric constant tensor:
#      x y z
#    x 1.989770 -0.028440 0.068370 
#    y -0.028440 2.088640 -0.071170 
#    z 0.068370 -0.071170 1.999900 
# 
# From -- ./inp_files/77570.got.cif
#   From: 2010.05.17/outbox.cif.g08.bks.cpg/sg2_39_cif.got.tgz:77570.got - 2010.06.03 11:33:40.
