data_PCOD9032891
_publ_section_title
;
Structure prediction by ZEFSAII (Michael W. Deem and Ramdas Pophale) SiO2 
 PCOD9032891
Probable space group: P -1
;
_chemical_formula_sum "Si O2"
_cell_formula_units_Z 16
_cell_length_a 26.727417
_cell_length_b 26.908218
_cell_length_c 5.280949
_cell_angle_alpha 86.644095
_cell_angle_beta 84.059766
_cell_angle_gamma 10.317919
_cell_volume 656.334832
_symmetry_space_group_name_H-M "P -1"
_symmetry_group_IT_number 2
_symmetry_cell_setting 'triclinic'
loop_
_space_group_symop_operation_xyz
x,y,z
-x,-y,-z
loop_
_atom_site_type_symbol
_atom_site_label
_atom_site_fract_x
_atom_site_fract_y
_atom_site_fract_z
Si Si1 0.984347 0.897073 0.653814
Si Si2 0.030273 0.504085 0.233070
Si Si3 0.573269 0.215614 0.022805
Si Si4 0.559290 0.308080 0.366141
Si Si5 0.601101 0.009512 0.178488
Si Si6 0.264804 0.771968 0.041704
Si Si7 0.390089 0.934040 0.338274
Si Si8 0.069771 0.663054 0.826122
O O1 0.320360 0.559891 0.615900
O O2 0.797129 0.039191 0.860054
O O3 0.881858 0.985867 0.396626
O O4 0.880814 0.054284 0.707383
O O5 0.000000 0.500000 0.500000
O O6 0.323215 0.249042 0.175388
O O7 0.804599 0.768243 0.248902
O O8 0.000000 0.500000 0.000000
O O9 0.315056 0.459766 0.885515
O O10 0.453555 0.358670 0.293629
O O11 0.775056 0.970478 0.032493
O O12 0.588207 0.326467 0.160669
O O13 0.578233 0.069896 0.407765
O O14 0.685564 0.955545 0.891108
O O15 0.500000 0.500000 0.000000
O O16 0.000000 0.000000 0.000000
O O17 0.706837 0.601898 0.210619
O O18 0.109492 0.170085 0.396540
#
# Coordination Sequence:
#
# PCOD9032891 Si02
#       8
#     2   2   2   2   2   2   2   2
#     4  11  23  40  63  91 122 164 211 260 341 389
#     4  12  24  41  68 104 134 181 236 283 338 402
#     4  10  22  44  62  92 128 162 212 281 332 386
#     4  11  23  40  63  91 122 164 211 260 341 389
#     4  12  24  45  68  95 146 179 226 288 344 404
#     4  11  24  40  60  88 126 164 206 266 314 404
#     4  11  24  44  66  98 132 189 222 280 354 409
#     4  10  22  44  64  93 126 165 228 270 328 421
#
# _framework density 24.377800000000001
#
# number of rings (size 3 to 8) (size 9 to 14) (size 15 to 20)
#    0.000    1.000    0.000    6.750    0.000    7.000 
#   22.500    0.000    0.000    0.000    0.000    0.000 
#    0.000    0.000    0.000    0.000    0.000    0.000 
#
# Total GULP energy -89131.024592 kJ/mol
# GULP energy per Si atom -5570.689037 kJ/mol
# Density = 2.432232 g / cm^3
# Si number density = 24.377800 Si / 1000 Ang^3
#
#
#
# Elastic Constant Matrix: (Units=GPa)
#
#
# Indices 1 2 3 4 5 6 
#
# 1 116.4380 52.1404 54.0425 -4.9917 34.6326 1.5887
# 2 52.1404 193.9151 18.9203 -10.7123 18.7811 -0.1973
# 3 54.0425 18.9203 113.5532 -16.9658 24.4271 -0.8651
# 4 -4.9917 -10.7123 -16.9658 28.5475 -1.7926 10.6770
# 5 34.6326 18.7811 24.4271 -1.7926 39.7510 -12.2135
# 6 1.5887 -0.1973 -0.8651 10.6770 -12.2135 61.4033
#
#
#
# Elastic Compliance Matrix: (Units=1/GPa)
#
#
# Indices 1 2 3 4 5 6 
#
# 1 0.014751 -0.002653 -0.004723 -0.001008 -0.009403 -0.002152
# 2 -0.002653 0.006030 0.000861 0.002445 -0.001125 -0.000549
# 3 -0.004723 0.000861 0.013018 0.007670 -0.004538 -0.001928
# 4 -0.001008 0.002445 0.007670 0.043147 -0.005651 -0.008485
# 5 -0.009403 -0.001125 -0.004538 -0.005651 0.039164 0.008948
# 6 -0.002152 -0.000549 -0.001928 -0.008485 0.008948 0.019568
#
#
# Mechanical properties :
#
#
# Convention : Reuss Voigt Hill
#
# Bulk Modulus (GPa) = 48.14661 74.90140 61.52401
# Shear Modulus (GPa) = 32.12762 45.86057 38.99410
#
# Velocity S-wave (km/s) = 3.63423 4.34204 4.00381
# Velocity P-wave (km/s) = 6.11582 7.47861 6.83129
#
# Compressibility (1/GPa) = 0.02076989
#
# Stress axis : x y z
#
# Youngs Moduli (GPa) = 67.79261 165.84766 76.81562
#
# Poissons Ratio (x) = 0.43994 0.36277
# Poissons Ratio (y) = 0.17983 -0.06614
# Poissons Ratio (z) = 0.32016 -0.14279
#
# Static dielectric constant tensor:
#      x y z
#    x 2.096130 0.029420 0.100340 
#    y 0.029420 1.894050 0.093630 
#    z 0.100340 0.093630 2.305600 
# 
# From -- ./inp_files/127781.got.cif
#   From: 2010.05.17/outbox.cif.g08.bks.cpg/sg2_64_cif.got.tgz:127781.got - 2010.06.03 11:33:40.
