data_PCOD9032941
_publ_section_title
;
Structure prediction by ZEFSAII (Michael W. Deem and Ramdas Pophale) SiO2 
 PCOD9032941
Probable space group: P -1
;
_chemical_formula_sum "Si O2"
_cell_formula_units_Z 16
_cell_length_a 15.349589
_cell_length_b 8.753059
_cell_length_c 8.755513
_cell_angle_alpha 117.496373
_cell_angle_beta 114.656080
_cell_angle_gamma 104.365864
_cell_volume 794.081607
_symmetry_space_group_name_H-M "P -1"
_symmetry_group_IT_number 2
_symmetry_cell_setting 'triclinic'
loop_
_space_group_symop_operation_xyz
x,y,z
-x,-y,-z
loop_
_atom_site_type_symbol
_atom_site_label
_atom_site_fract_x
_atom_site_fract_y
_atom_site_fract_z
Si Si1 0.997591 0.621265 0.909921
Si Si2 0.576956 0.208468 0.248532
Si Si3 0.811651 0.086865 0.019852
Si Si4 0.826725 0.879020 0.380915
Si Si5 0.066647 0.114598 0.838702
Si Si6 0.408746 0.421501 0.761894
Si Si7 0.557510 0.730461 0.583691
Si Si8 0.186823 0.745122 0.585573
O O1 0.126671 0.783013 0.025080
O O2 0.926274 0.463103 0.649396
O O3 0.000000 0.500000 0.000000
O O4 0.934971 0.731535 0.973087
O O5 0.583036 0.391286 0.239232
O O6 0.517763 0.193574 0.360314
O O7 0.701792 0.250700 0.381242
O O8 0.500000 0.000000 0.000000
O O9 0.806781 0.222692 0.212975
O O10 0.895388 0.019702 0.110183
O O11 0.686678 0.885908 0.808776
O O12 0.850044 0.789655 0.203649
O O13 0.716160 0.717533 0.319747
O O14 0.813608 0.063572 0.399151
O O15 0.939723 0.976133 0.611861
O O16 0.434017 0.292505 0.601074
O O17 0.500000 0.500000 0.000000
O O18 0.500000 0.500000 0.500000
#
# Coordination Sequence:
#
# PCOD9032941 Si02
#       8
#     2   2   2   2   2   2   2   2
#     4  12  25  41  64 103 136 168 218 275 329 382
#     4  11  23  45  67  95 129 171 223 274 332 384
#     4  11  24  44  70  92 134 177 220 263 331 402
#     4  10  22  44  63  97 133 173 218 266 326 391
#     4  10  23  40  68  92 133 173 217 262 323 395
#     4  11  25  41  70  93 130 172 222 270 327 394
#     4  10  24  43  68  96 128 172 222 270 321 400
#     4  11  24  42  69  92 137 173 212 274 331 389
#
# _framework density 20.149062000000001
#
# number of rings (size 3 to 8) (size 9 to 14) (size 15 to 20)
#    0.000    1.250    2.500    2.250   10.500    1.000 
#    0.000    2.500    0.000    0.000    0.000    0.000 
#    0.000    0.000    0.000    0.000    0.000    0.000 
#
# Total GULP energy -89429.226860 kJ/mol
# GULP energy per Si atom -5589.326679 kJ/mol
# Density = 2.010320 g / cm^3
# Si number density = 20.149062 Si / 1000 Ang^3
#
#
#
# Elastic Constant Matrix: (Units=GPa)
#
#
# Indices 1 2 3 4 5 6 
#
# 1 160.0328 47.4791 53.3370 4.5040 -6.3241 17.4244
# 2 47.4791 56.3903 18.0151 4.2366 5.4995 21.1623
# 3 53.3370 18.0151 100.2634 4.0396 -15.2941 11.5035
# 4 4.5040 4.2366 4.0396 30.0938 -5.0850 4.0488
# 5 -6.3241 5.4995 -15.2941 -5.0850 41.4023 -3.6548
# 6 17.4244 21.1623 11.5035 4.0488 -3.6548 37.5261
#
#
#
# Elastic Compliance Matrix: (Units=1/GPa)
#
#
# Indices 1 2 3 4 5 6 
#
# 1 0.009623 -0.007393 -0.003726 0.000174 0.001180 0.000939
# 2 -0.007393 0.030280 -0.000896 -0.002361 -0.006990 -0.013795
# 3 -0.003726 -0.000896 0.012911 -0.000168 0.004184 -0.001297
# 4 0.000174 -0.002361 -0.000168 0.034562 0.004346 -0.002003
# 5 0.001180 -0.006990 0.004184 0.004346 0.027725 0.004343
# 6 0.000939 -0.013795 -0.001297 -0.002003 0.004343 0.035028
#
#
# Mechanical properties :
#
#
# Convention : Reuss Voigt Hill
#
# Bulk Modulus (GPa) = 34.74102 61.59433 48.16768
# Shear Modulus (GPa) = 27.21028 34.99479 31.10253
#
# Velocity S-wave (km/s) = 3.67883 4.17201 3.93316
# Velocity P-wave (km/s) = 5.94344 7.33779 6.67712
#
# Compressibility (1/GPa) = 0.02878441
#
# Stress axis : x y z
#
# Youngs Moduli (GPa) = 103.91486 33.02457 77.45616
#
# Poissons Ratio (x) = 0.24414 0.28858
# Poissons Ratio (y) = 0.76822 0.06944
# Poissons Ratio (z) = 0.38716 0.02961
#
# Static dielectric constant tensor:
#      x y z
#    x 1.708520 0.012860 -0.036150 
#    y 0.012860 1.715300 0.011100 
#    z -0.036150 0.011100 1.701480 
# 
# From -- ./inp_files/179497.got.cif
#   From: 2010.05.17/outbox.cif.g08.bks.cpg/sg2_90_cif.got.tgz:179497.got - 2010.06.03 11:33:40.
