data_PCOD9032010
_publ_section_title
;
Structure prediction by ZEFSAII (Michael W. Deem and Ramdas Pophale) SiO2 
 PCOD9032010
Probable space group: P -1
;
_chemical_formula_sum "Si O2"
_cell_formula_units_Z 15
_cell_length_a 4.978094
_cell_length_b 11.031423
_cell_length_c 10.950210
_cell_angle_alpha 77.039660
_cell_angle_beta 106.654020
_cell_angle_gamma 84.435724
_cell_volume 552.999758
_symmetry_space_group_name_H-M "P -1"
_symmetry_group_IT_number 2
_symmetry_cell_setting 'triclinic'
loop_
_space_group_symop_operation_xyz
x,y,z
-x,-y,-z
loop_
_atom_site_type_symbol
_atom_site_label
_atom_site_fract_x
_atom_site_fract_y
_atom_site_fract_z
Si Si1 0.125684 0.586172 0.792649
Si Si2 0.537933 0.213565 0.146168
Si Si3 0.500000 0.000000 0.000000
Si Si4 0.806490 0.134318 0.460640
Si Si5 0.338795 0.479235 0.584298
Si Si6 0.999262 0.671397 0.077007
Si Si7 0.444079 0.236639 0.799255
Si Si8 0.697146 0.718304 0.515484
O O1 0.325731 0.660051 0.879717
O O2 0.304220 0.523551 0.711987
O O3 0.022438 0.473666 0.876990
O O4 0.860952 0.678625 0.678848
O O5 0.656546 0.166422 0.303104
O O6 0.612598 0.106201 0.076893
O O7 0.200476 0.258790 0.070407
O O8 0.462644 0.912696 0.139835
O O9 0.551173 0.161550 0.517859
O O10 0.021435 0.226600 0.510368
O O11 0.000000 0.000000 0.500000
O O12 0.394389 0.316367 0.647475
O O13 0.542009 0.581096 0.536681
O O14 0.000000 0.500000 0.500000
O O15 0.843890 0.735470 0.166154
O O16 0.311062 0.699555 0.123386
#
# Coordination Sequence:
#
# PCOD9032010 Si02
#       8
#     2   2   1   2   2   2   2   2
#     4  10  22  43  72 112 154 191 243 312 382 453
#     4  10  23  44  73 102 147 195 248 307 370 442
#     4  10  24  48  68 102 142 196 258 300 358 440
#     4  11  26  47  70 102 142 195 247 303 360 436
#     4  11  22  42  72 112 153 194 244 309 376 457
#     4  10  22  43  69 104 142 188 240 304 380 440
#     4  10  24  42  68 103 143 194 245 304 368 433
#     4  11  24  43  70 105 142 190 242 296 378 434
#
# _framework density 27.124783000000001
#
# number of rings (size 3 to 8) (size 9 to 14) (size 15 to 20)
#    0.000    1.600    0.000    3.600    1.867   11.733 
#    2.400    6.000    0.000    0.000    0.000    0.000 
#    0.000    0.000    0.000    0.000    0.000    0.000 
#
# Total GULP energy -83587.317912 kJ/mol
# GULP energy per Si atom -5572.487861 kJ/mol
# Density = 2.706305 g / cm^3
# Si number density = 27.124783 Si / 1000 Ang^3
#
#
#
# Elastic Constant Matrix: (Units=GPa)
#
#
# Indices 1 2 3 4 5 6 
#
# 1 135.8952 39.0167 73.6317 -2.9642 -1.2198 -3.7512
# 2 39.0167 142.0371 83.3352 21.4413 9.6684 16.0033
# 3 73.6317 83.3352 204.8441 7.5272 2.6099 15.4710
# 4 -2.9642 21.4413 7.5272 77.1268 -2.5416 -4.1566
# 5 -1.2198 9.6684 2.6099 -2.5416 53.4574 -2.5002
# 6 -3.7512 16.0033 15.4710 -4.1566 -2.5002 46.6328
#
#
#
# Elastic Compliance Matrix: (Units=1/GPa)
#
#
# Indices 1 2 3 4 5 6 
#
# 1 0.009524 -0.001275 -0.003139 0.001181 0.000769 0.002391
# 2 -0.001275 0.010243 -0.003365 -0.002787 -0.001983 -0.002856
# 3 -0.003139 -0.003365 0.007497 0.000001 0.000097 -0.001579
# 4 0.001181 -0.002787 0.000001 0.013956 0.001305 0.002365
# 5 0.000769 -0.001983 0.000097 0.001305 0.019227 0.001857
# 6 0.002391 -0.002856 -0.001579 0.002365 0.001857 0.023451
#
#
# Mechanical properties :
#
#
# Convention : Reuss Voigt Hill
#
# Bulk Modulus (GPa) = 85.42508 97.19374 91.30941
# Shear Modulus (GPa) = 48.37608 54.56293 51.46951
#
# Velocity S-wave (km/s) = 4.22769 4.48990 4.36077
# Velocity P-wave (km/s) = 7.44264 7.92394 7.68706
#
# Compressibility (1/GPa) = 0.01170616
#
# Stress axis : x y z
#
# Youngs Moduli (GPa) = 104.99977 97.63152 133.38630
#
# Poissons Ratio (x) = 0.12446 0.41864
# Poissons Ratio (y) = 0.13385 0.44889
# Poissons Ratio (z) = 0.32955 0.32856
#
# Static dielectric constant tensor:
#      x y z
#    x 2.198400 -0.103750 -0.112840 
#    y -0.103750 2.230340 -0.049430 
#    z -0.112840 -0.049430 2.183340 
# 
# From -- ./inp_files/481604.got.cif
#   From: 2010.05.17/outbox.cif.g08.bks.cpg/sg2_241_cif.got.tgz:481604.got - 2010.06.03 11:33:40.
