data_PCOD9032211
_publ_section_title
;
Structure prediction by ZEFSAII (Michael W. Deem and Ramdas Pophale) SiO2 
 PCOD9032211
Probable space group: P -1
;
_chemical_formula_sum "Si O2"
_cell_formula_units_Z 14
_cell_length_a 11.705325
_cell_length_b 5.261472
_cell_length_c 12.365894
_cell_angle_alpha 118.374063
_cell_angle_beta 77.970123
_cell_angle_gamma 75.621517
_cell_volume 599.603293
_symmetry_space_group_name_H-M "P -1"
_symmetry_group_IT_number 2
_symmetry_cell_setting 'triclinic'
loop_
_space_group_symop_operation_xyz
x,y,z
-x,-y,-z
loop_
_atom_site_type_symbol
_atom_site_label
_atom_site_fract_x
_atom_site_fract_y
_atom_site_fract_z
Si Si1 0.162023 0.147234 0.197711
Si Si2 0.670733 0.525025 0.964139
Si Si3 0.953625 0.505159 0.888990
Si Si4 0.734969 0.556070 0.606529
Si Si5 0.529526 0.309086 0.567104
Si Si6 0.528691 0.275911 0.785286
Si Si7 0.019564 0.928317 0.610725
O O1 0.058451 0.220998 0.138472
O O2 0.208588 0.413822 0.281275
O O3 0.100451 0.098519 0.312083
O O4 0.281320 0.837893 0.077786
O O5 0.573210 0.746096 0.114484
O O6 0.803410 0.561984 0.935792
O O7 0.592192 0.497722 0.869766
O O8 0.032597 0.197590 0.738609
O O9 0.000000 0.500000 0.000000
O O10 0.667612 0.310736 0.568333
O O11 0.855460 0.397619 0.471703
O O12 0.633671 0.914199 0.673917
O O13 0.500000 0.500000 0.500000
O O14 0.460530 0.438566 0.720857
O O15 0.500000 0.000000 0.500000
O O16 0.000000 0.000000 0.500000
#
# Coordination Sequence:
#
# PCOD9032211 Si02
#       7
#     2   2   2   2   2   2   2
#     4  10  22  43  70 101 137 182 243 301 359 436
#     4   9  22  43  70  99 133 184 243 298 355 437
#     4  11  24  43  65  99 144 184 237 299 369 436
#     4  11  23  41  73 100 139 185 240 306 358 440
#     4  12  26  46  66 102 148 186 237 299 370 438
#     4  10  22  44  71 101 136 189 245 296 364 427
#     4  11  24  40  71 106 136 183 245 301 364 440
#
# _framework density 23.348772
#
# number of rings (size 3 to 8) (size 9 to 14) (size 15 to 20)
#    0.000    1.429    2.857    1.286    4.000    4.571 
#    5.143    4.286    0.000    0.000    0.000    0.000 
#    0.000    0.000    0.000    0.000    0.000    0.000 
#
# Total GULP energy -77957.948642 kJ/mol
# GULP energy per Si atom -5568.424903 kJ/mol
# Density = 2.329563 g / cm^3
# Si number density = 23.348772 Si / 1000 Ang^3
#
#
#
# Elastic Constant Matrix: (Units=GPa)
#
#
# Indices 1 2 3 4 5 6 
#
# 1 73.8954 30.8655 41.7735 -15.3405 16.7363 -1.5636
# 2 30.8655 95.7158 66.7589 -19.4311 14.1109 -7.6476
# 3 41.7735 66.7589 154.8616 -15.8813 7.5252 -32.5159
# 4 -15.3405 -19.4311 -15.8813 41.0555 -21.4498 2.8345
# 5 16.7363 14.1109 7.5252 -21.4498 55.9439 -6.0477
# 6 -1.5636 -7.6476 -32.5159 2.8345 -6.0477 26.7141
#
#
#
# Elastic Compliance Matrix: (Units=1/GPa)
#
#
# Indices 1 2 3 4 5 6 
#
# 1 0.018553 -0.001764 -0.005282 0.002309 -0.004273 -0.007061
# 2 -0.001764 0.016773 -0.007329 0.003861 -0.001781 -0.005036
# 3 -0.005282 -0.007329 0.014238 0.000824 0.003520 0.015632
# 4 0.002309 0.003861 0.000824 0.033042 0.011027 0.001234
# 5 -0.004273 -0.001781 0.003520 0.011027 0.024204 0.007834
# 6 -0.007061 -0.005036 0.015632 0.001234 0.007834 0.056247
#
#
# Mechanical properties :
#
#
# Convention : Reuss Voigt Hill
#
# Bulk Modulus (GPa) = 48.04975 67.02986 57.53980
# Shear Modulus (GPa) = 25.15776 37.08104 31.11940
#
# Velocity S-wave (km/s) = 3.28606 3.98947 3.65472
# Velocity P-wave (km/s) = 5.91788 7.07047 6.51970
#
# Compressibility (1/GPa) = 0.02081176
#
# Stress axis : x y z
#
# Youngs Moduli (GPa) = 53.89850 59.62125 70.23680
#
# Poissons Ratio (x) = 0.10517 0.37102
# Poissons Ratio (y) = 0.09508 0.51480
# Poissons Ratio (z) = 0.28471 0.43699
#
# Static dielectric constant tensor:
#      x y z
#    x 1.908970 0.012750 -0.008990 
#    y 0.012750 2.144640 -0.058130 
#    z -0.008990 -0.058130 1.877100 
# 
# From -- ./inp_files/411213.got.cif
#   From: 2010.05.17/outbox.cif.g08.bks.cpg/sg2_206_cif.got.tgz:411213.got - 2010.06.03 11:33:40.
