data_PCOD9032898
_publ_section_title
;
Structure prediction by ZEFSAII (Michael W. Deem and Ramdas Pophale) SiO2 
 PCOD9032898
Probable space group: P -1
;
_chemical_formula_sum "Si O2"
_cell_formula_units_Z 15
_cell_length_a 12.117581
_cell_length_b 13.936283
_cell_length_c 6.275338
_cell_angle_alpha 42.879611
_cell_angle_beta 77.781172
_cell_angle_gamma 71.181142
_cell_volume 682.060124
_symmetry_space_group_name_H-M "P -1"
_symmetry_group_IT_number 2
_symmetry_cell_setting 'triclinic'
loop_
_space_group_symop_operation_xyz
x,y,z
-x,-y,-z
loop_
_atom_site_type_symbol
_atom_site_label
_atom_site_fract_x
_atom_site_fract_y
_atom_site_fract_z
Si Si1 0.298706 0.308514 0.769782
Si Si2 0.177060 0.468540 0.938383
Si Si3 0.496233 0.833491 0.762876
Si Si4 0.399135 0.420296 0.159087
Si Si5 0.063795 0.791798 0.395606
Si Si6 0.823174 0.812476 0.328135
Si Si7 0.230095 0.906333 0.836755
Si Si8 0.000000 0.000000 0.500000
O O1 0.194093 0.394118 0.822357
O O2 0.335104 0.417194 0.412515
O O3 0.250988 0.190266 0.848303
O O4 0.413174 0.241714 0.968975
O O5 0.087269 0.623284 0.725521
O O6 0.302058 0.495303 0.906504
O O7 0.163426 0.343911 0.310592
O O8 0.548641 0.745763 0.671367
O O9 0.362748 0.825769 0.857268
O O10 0.500000 0.000000 0.500000
O O11 0.500000 0.500000 0.000000
O O12 0.954397 0.827750 0.215301
O O13 0.025819 0.890387 0.457653
O O14 0.172720 0.823498 0.174813
O O15 0.765327 0.939591 0.307697
O O16 0.138533 0.937020 0.629842
#
# Coordination Sequence:
#
# PCOD9032898 Si02
#       8
#     2   2   2   2   2   2   2   1
#     4  10  23  42  66  90 134 167 206 270 317 377
#     4  10  23  40  65  95 128 167 215 258 321 390
#     4  11  25  42  65  98 129 171 220 262 322 391
#     4  10  24  40  63  96 131 171 213 265 326 379
#     4  11  25  41  66  98 123 167 220 261 318 381
#     4  10  22  44  62  94 130 168 212 263 322 385
#     4  11  25  41  67  95 126 167 221 259 319 385
#     4  10  24  44  62  90 134 162 198 278 316 362
#
# _framework density 21.992196
#
# number of rings (size 3 to 8) (size 9 to 14) (size 15 to 20)
#    0.000    1.600    0.000    4.400    5.600   11.200 
#    0.000    0.000    0.000    0.000    0.000    0.000 
#    0.000    0.000    0.000    0.000    0.000    0.000 
#
# Total GULP energy -83586.890368 kJ/mol
# GULP energy per Si atom -5572.459358 kJ/mol
# Density = 2.194214 g / cm^3
# Si number density = 21.992196 Si / 1000 Ang^3
#
#
#
# Elastic Constant Matrix: (Units=GPa)
#
#
# Indices 1 2 3 4 5 6 
#
# 1 112.9770 39.8987 2.6946 11.6660 9.6764 1.7483
# 2 39.8987 54.4847 19.9592 5.0312 13.2439 8.7743
# 3 2.6946 19.9592 48.5389 -9.7460 0.9813 -0.2607
# 4 11.6660 5.0312 -9.7460 25.9044 -2.1221 4.6783
# 5 9.6764 13.2439 0.9813 -2.1221 29.7355 0.3734
# 6 1.7483 8.7743 -0.2607 4.6783 0.3734 43.6471
#
#
#
# Elastic Compliance Matrix: (Units=1/GPa)
#
#
# Indices 1 2 3 4 5 6 
#
# 1 0.012757 -0.010567 0.003066 -0.002871 0.000225 0.001937
# 2 -0.010567 0.036874 -0.016033 -0.008402 -0.012979 -0.006074
# 3 0.003066 -0.016033 0.029523 0.013008 0.006074 0.001830
# 4 -0.002871 -0.008402 0.013008 0.047646 0.007689 -0.003291
# 5 0.000225 -0.012979 0.006074 0.007689 0.039667 0.001473
# 6 0.001937 -0.006074 0.001830 -0.003291 0.001473 0.024405
#
#
# Mechanical properties :
#
#
# Convention : Reuss Voigt Hill
#
# Bulk Modulus (GPa) = 31.16489 37.90065 34.53277
# Shear Modulus (GPa) = 20.10970 30.08727 25.09848
#
# Velocity S-wave (km/s) = 3.02719 3.70278 3.38190
# Velocity P-wave (km/s) = 5.14005 5.96254 5.56651
#
# Compressibility (1/GPa) = 0.03208739
#
# Stress axis : x y z
#
# Youngs Moduli (GPa) = 78.38741 27.11952 33.87138
#
# Poissons Ratio (x) = 0.28656 -0.10386
# Poissons Ratio (y) = 0.82830 0.54306
# Poissons Ratio (z) = -0.24036 0.43481
#
# Static dielectric constant tensor:
#      x y z
#    x 1.872310 0.013010 0.000330 
#    y 0.013010 1.782450 -0.000350 
#    z 0.000330 -0.000350 1.872340 
# 
# From -- ./inp_files/68156.got.cif
#   From: 2010.05.17/outbox.cif.g08.bks.cpg/sg2_35_cif.got.tgz:68156.got - 2010.06.03 11:33:40.
