data_PCOD9032806
_publ_section_title
;
Structure prediction by ZEFSAII (Michael W. Deem and Ramdas Pophale) SiO2 
 PCOD9032806
Probable space group: P -1
;
_chemical_formula_sum "Si O2"
_cell_formula_units_Z 13
_cell_length_a 16.954957
_cell_length_b 6.843920
_cell_length_c 8.730049
_cell_angle_alpha 53.816673
_cell_angle_beta 135.362226
_cell_angle_gamma 136.014119
_cell_volume 487.890553
_symmetry_space_group_name_H-M "P -1"
_symmetry_group_IT_number 2
_symmetry_cell_setting 'triclinic'
loop_
_space_group_symop_operation_xyz
x,y,z
-x,-y,-z
loop_
_atom_site_type_symbol
_atom_site_label
_atom_site_fract_x
_atom_site_fract_y
_atom_site_fract_z
Si Si1 0.713071 0.435638 0.607323
Si Si2 0.026398 0.347328 0.963124
Si Si3 0.566619 0.301555 0.753543
Si Si4 0.000000 0.500000 0.500000
Si Si5 0.690151 0.146922 0.247893
Si Si6 0.749401 0.933209 0.838774
Si Si7 0.654991 0.622666 0.146630
O O1 0.584116 0.286788 0.604268
O O2 0.727243 0.191433 0.656657
O O3 0.711374 0.643350 0.383327
O O4 0.834637 0.603765 0.814073
O O5 0.025577 0.464632 0.739749
O O6 0.897707 0.030048 0.950127
O O7 0.000000 0.500000 0.000000
O O8 0.418721 0.141805 0.687167
O O9 0.354267 0.371673 0.233736
O O10 0.634578 0.147672 0.002039
O O11 0.157323 0.742968 0.585505
O O12 0.675407 0.389300 0.199356
O O13 0.732642 0.890945 0.018826
O O14 0.500000 0.500000 0.000000
#
# Coordination Sequence:
#
# PCOD9032806 Si02
#       7
#     2   2   2   1   2   2   2
#     4  11  23  48  76 110 159 206 258 338 399 469
#     4  10  23  45  74 114 160 209 259 331 406 473
#     4  10  22  45  74 112 155 202 265 317 401 482
#     4  12  22  46  82 116 158 216 258 330 412 472
#     4  10  22  43  75 113 159 203 262 330 396 477
#     4  10  24  47  75 113 156 200 267 323 402 486
#     4  11  25  47  76 112 154 210 265 325 403 479
#
# _framework density 26.645320999999999
#
# number of rings (size 3 to 8) (size 9 to 14) (size 15 to 20)
#    0.000    1.538    1.538    2.769    0.000    4.923 
#    5.538   12.308    0.000    0.000    0.000    0.000 
#    0.000    0.000    0.000    0.000    0.000    0.000 
#
# Total GULP energy -72637.791072 kJ/mol
# GULP energy per Si atom -5587.522390 kJ/mol
# Density = 2.658468 g / cm^3
# Si number density = 26.645321 Si / 1000 Ang^3
#
#
#
# Elastic Constant Matrix: (Units=GPa)
#
#
# Indices 1 2 3 4 5 6 
#
# 1 106.6059 45.9291 39.2290 11.0092 -14.3179 23.9869
# 2 45.9291 140.7979 42.9454 33.7215 20.9818 29.2590
# 3 39.2290 42.9454 201.5006 -4.1390 -30.9421 30.7407
# 4 11.0092 33.7215 -4.1390 46.4528 15.1862 0.8176
# 5 -14.3179 20.9818 -30.9421 15.1862 44.2804 5.3824
# 6 23.9869 29.2590 30.7407 0.8176 5.3824 61.2558
#
#
#
# Elastic Compliance Matrix: (Units=1/GPa)
#
#
# Indices 1 2 3 4 5 6 
#
# 1 0.013282 -0.004004 -0.000032 -0.002643 0.007550 -0.003900
# 2 -0.004004 0.012024 -0.002560 -0.005841 -0.006505 -0.002241
# 3 -0.000032 -0.002560 0.006899 0.000507 0.006187 -0.002777
# 4 -0.002643 -0.005841 0.000507 0.029040 -0.008166 0.003901
# 5 0.007550 -0.006505 0.006187 -0.008166 0.035961 -0.006005
# 6 -0.003900 -0.002241 -0.002777 0.003901 -0.006005 0.020792
#
#
# Mechanical properties :
#
#
# Convention : Reuss Voigt Hill
#
# Bulk Modulus (GPa) = 52.60083 78.34575 65.47329
# Shear Modulus (GPa) = 36.35624 51.78452 44.07038
#
# Velocity S-wave (km/s) = 3.69786 4.41327 4.07131
# Velocity P-wave (km/s) = 6.16572 7.44555 6.83566
#
# Compressibility (1/GPa) = 0.01901111
#
# Stress axis : x y z
#
# Youngs Moduli (GPa) = 75.28957 83.17031 144.95252
#
# Poissons Ratio (x) = 0.33305 0.00467
# Poissons Ratio (y) = 0.30149 0.37108
# Poissons Ratio (z) = 0.00243 0.21292
#
# Static dielectric constant tensor:
#      x y z
#    x 2.163460 -0.098740 0.039110 
#    y -0.098740 2.104360 -0.029490 
#    z 0.039110 -0.029490 2.168060 
# 
# From -- ./inp_files/232973.got.cif
#   From: 2010.05.17/outbox.cif.g08.bks.cpg/sg2_117_cif.got.tgz:232973.got - 2010.06.03 11:33:40.
