data_PCOD9032796
_publ_section_title
;
Structure prediction by ZEFSAII (Michael W. Deem and Ramdas Pophale) SiO2 
 PCOD9032796
Probable space group: P -1
;
_chemical_formula_sum "Si O2"
_cell_formula_units_Z 12
_cell_length_a 8.735309
_cell_length_b 9.098897
_cell_length_c 10.834661
_cell_angle_alpha 112.249865
_cell_angle_beta 58.098128
_cell_angle_gamma 142.534474
_cell_volume 443.315456
_symmetry_space_group_name_H-M "P -1"
_symmetry_group_IT_number 2
_symmetry_cell_setting 'triclinic'
loop_
_space_group_symop_operation_xyz
x,y,z
-x,-y,-z
loop_
_atom_site_type_symbol
_atom_site_label
_atom_site_fract_x
_atom_site_fract_y
_atom_site_fract_z
Si Si1 0.723048 0.050246 0.303019
Si Si2 0.651897 0.203326 0.841526
Si Si3 0.394493 0.674791 0.527889
Si Si4 0.747408 0.765975 0.614048
Si Si5 0.786677 0.639121 0.980955
Si Si6 0.132862 0.918877 0.140011
O O1 0.772935 0.271698 0.375099
O O2 0.966450 0.143947 0.145240
O O3 0.443611 0.855066 0.277465
O O4 0.655609 0.909118 0.410078
O O5 0.787740 0.450688 0.914950
O O6 0.848831 0.190335 0.788428
O O7 0.359283 0.000999 0.974136
O O8 0.490527 0.672324 0.619155
O O9 0.266767 0.434023 0.442483
O O10 0.765150 0.851774 0.769160
O O11 0.000000 0.000000 0.500000
O O12 0.500000 0.500000 0.000000
O O13 0.854062 0.735724 0.122361
#
# Coordination Sequence:
#
# PCOD9032796 Si02
#       6
#     2   2   2   2   2   2
#     4  10  23  46  77 107 153 192 253 298 384 440
#     4  10  22  43  75 103 144 192 248 309 373 442
#     4  10  24  46  72 112 149 202 238 307 367 460
#     4  11  25  43  74 110 153 189 250 301 378 443
#     4  11  26  44  75 108 145 196 250 318 371 434
#     4  10  23  45  69 107 146 192 248 306 377 441
#
# _framework density 27.068759
#
# number of rings (size 3 to 8) (size 9 to 14) (size 15 to 20)
#    0.000    1.667    1.667    0.500    2.333   10.667 
#    0.000    5.833    0.000    1.000    0.000    0.000 
#    0.000    0.000    0.000    0.000    0.000    0.000 
#
# Total GULP energy -67291.830106 kJ/mol
# GULP energy per Si atom -5607.652509 kJ/mol
# Density = 2.700715 g / cm^3
# Si number density = 27.068759 Si / 1000 Ang^3
#
#
#
# Elastic Constant Matrix: (Units=GPa)
#
#
# Indices 1 2 3 4 5 6 
#
# 1 147.6980 69.1968 72.8510 26.0500 29.2178 1.6952
# 2 69.1968 117.7254 30.0632 37.2329 -5.0889 -8.2195
# 3 72.8510 30.0632 113.4265 29.1273 5.8737 11.0354
# 4 26.0500 37.2329 29.1273 71.8629 4.9114 -11.9677
# 5 29.2178 -5.0889 5.8737 4.9114 41.6945 8.3448
# 6 1.6952 -8.2195 11.0354 -11.9677 8.3448 52.6693
#
#
#
# Elastic Compliance Matrix: (Units=1/GPa)
#
#
# Indices 1 2 3 4 5 6 
#
# 1 0.017991 -0.009716 -0.009535 0.003780 -0.013475 0.002896
# 2 -0.009716 0.015835 0.003419 -0.006860 0.009259 -0.000958
# 3 -0.009535 0.003419 0.015686 -0.005925 0.006554 -0.004831
# 4 0.003780 -0.006860 -0.005925 0.019837 -0.006093 0.005522
# 5 -0.013475 0.009259 0.006554 -0.006093 0.035658 -0.006529
# 6 0.002896 -0.000958 -0.004831 0.005522 -0.006529 0.022045
#
#
# Mechanical properties :
#
#
# Convention : Reuss Voigt Hill
#
# Bulk Modulus (GPa) = 56.02626 80.34132 68.18379
# Shear Modulus (GPa) = 30.36446 47.02792 38.69619
#
# Velocity S-wave (km/s) = 3.35289 4.17268 3.78504
# Velocity P-wave (km/s) = 5.97761 7.27735 6.65927
#
# Compressibility (1/GPa) = 0.01784877
#
# Stress axis : x y z
#
# Youngs Moduli (GPa) = 55.58323 63.15063 63.74968
#
# Poissons Ratio (x) = 0.61355 0.60784
# Poissons Ratio (y) = 0.54003 -0.21793
# Poissons Ratio (z) = 0.52997 -0.21588
#
# Static dielectric constant tensor:
#      x y z
#    x 2.153190 0.017250 -0.045260 
#    y 0.017250 2.104300 -0.037880 
#    z -0.045260 -0.037880 2.108220 
# 
# From -- ./inp_files/377051.got.cif
#   From: 2010.05.17/outbox.cif.g08.bks.cpg/sg2_189_cif.got.tgz:377051.got - 2010.06.03 11:33:40.
