data_PCOD9032867
_publ_section_title
;
Structure prediction by ZEFSAII (Michael W. Deem and Ramdas Pophale) SiO2 
 PCOD9032867
Probable space group: P -1
;
_chemical_formula_sum "Si O2"
_cell_formula_units_Z 16
_cell_length_a 6.231527
_cell_length_b 22.444785
_cell_length_c 7.458416
_cell_angle_alpha 123.091797
_cell_angle_beta 116.098747
_cell_angle_gamma 91.323732
_cell_volume 735.228918
_symmetry_space_group_name_H-M "P -1"
_symmetry_group_IT_number 2
_symmetry_cell_setting 'triclinic'
loop_
_space_group_symop_operation_xyz
x,y,z
-x,-y,-z
loop_
_atom_site_type_symbol
_atom_site_label
_atom_site_fract_x
_atom_site_fract_y
_atom_site_fract_z
Si Si1 0.866210 0.342189 0.976299
Si Si2 0.301306 0.550101 0.688794
Si Si3 0.361316 0.911941 0.765866
Si Si4 0.235936 0.494179 0.199618
Si Si5 0.593998 0.088944 0.643963
Si Si6 0.070338 0.225565 0.014120
Si Si7 0.208302 0.167261 0.599926
Si Si8 0.485726 0.226440 0.425566
O O1 0.933616 0.286636 0.046719
O O2 0.747816 0.292754 0.676531
O O3 0.677926 0.377046 0.065464
O O4 0.107331 0.412820 0.117182
O O5 0.330381 0.557573 0.495766
O O6 0.496140 0.511838 0.779792
O O7 0.000000 0.500000 0.500000
O O8 0.380585 0.903796 0.547656
O O9 0.474566 0.848284 0.767328
O O10 0.064956 0.887626 0.662767
O O11 0.500000 0.000000 0.000000
O O12 0.000000 0.500000 0.000000
O O13 0.871875 0.147030 0.897419
O O14 0.373841 0.120694 0.668710
O O15 0.500000 0.000000 0.500000
O O16 0.149622 0.213163 0.819358
O O17 0.312944 0.252600 0.272602
O O18 0.356177 0.208893 0.546738
#
# Coordination Sequence:
#
# PCOD9032867 Si02
#       8
#     2   2   2   2   2   2   2   2
#     4  11  23  45  62 101 139 166 227 271 319 416
#     4   9  22  42  69  97 141 171 212 271 323 390
#     4  10  23  39  61  93 127 169 232 284 333 402
#     4  10  23  43  72 105 133 176 219 262 336 398
#     4  10  23  39  62  93 123 171 230 281 342 393
#     4  11  25  43  64  96 134 176 224 275 337 398
#     4  10  22  44  61  85 140 164 228 284 328 404
#     4  11  25  42  64  97 130 182 223 273 342 397
#
# _framework density 21.76193
#
# number of rings (size 3 to 8) (size 9 to 14) (size 15 to 20)
#    0.000    1.750    3.750    0.000    7.000    8.000 
#    0.000    0.000    0.000    0.000    0.000    0.000 
#    0.000    0.000    0.000    0.000    0.000    0.000 
#
# Total GULP energy -89178.686742 kJ/mol
# GULP energy per Si atom -5573.667921 kJ/mol
# Density = 2.171240 g / cm^3
# Si number density = 21.761930 Si / 1000 Ang^3
#
#
#
# Elastic Constant Matrix: (Units=GPa)
#
#
# Indices 1 2 3 4 5 6 
#
# 1 77.5432 16.6288 11.1752 4.6746 8.1506 -22.2749
# 2 16.6288 58.8942 40.1822 -5.8565 3.2010 -18.8828
# 3 11.1752 40.1822 87.5421 -12.0921 10.8881 -14.5621
# 4 4.6746 -5.8565 -12.0921 38.2715 -6.9672 6.5760
# 5 8.1506 3.2010 10.8881 -6.9672 29.7338 4.6787
# 6 -22.2749 -18.8828 -14.5621 6.5760 4.6787 39.5188
#
#
#
# Elastic Compliance Matrix: (Units=1/GPa)
#
#
# Indices 1 2 3 4 5 6 
#
# 1 0.017574 -0.002052 0.000756 -0.005565 -0.007919 0.011067
# 2 -0.002052 0.027721 -0.011230 -0.000361 0.000352 0.007969
# 3 0.000756 -0.011230 0.017780 0.002552 -0.005194 0.001802
# 4 -0.005565 -0.000361 0.002552 0.030701 0.009171 -0.008563
# 5 -0.007919 0.000352 -0.005194 0.009171 0.041812 -0.012686
# 6 0.011067 0.007969 0.001802 -0.008563 -0.012686 0.038941
#
#
# Mechanical properties :
#
#
# Convention : Reuss Voigt Hill
#
# Bulk Modulus (GPa) = 26.30100 39.99468 33.14784
# Shear Modulus (GPa) = 23.55649 31.90439 27.73044
#
# Velocity S-wave (km/s) = 3.29365 3.83308 3.57356
# Velocity P-wave (km/s) = 5.15521 6.16507 5.68262
#
# Compressibility (1/GPa) = 0.03802137
#
# Stress axis : x y z
#
# Youngs Moduli (GPa) = 56.90177 36.07340 56.24443
#
# Poissons Ratio (x) = 0.07403 -0.04250
# Poissons Ratio (y) = 0.11678 0.63164
# Poissons Ratio (z) = -0.04300 0.40511
#
# Static dielectric constant tensor:
#      x y z
#    x 1.880140 0.019350 0.034560 
#    y 0.019350 1.883890 0.088820 
#    z 0.034560 0.088820 1.894750 
# 
# From -- ./inp_files/142715.got.cif
#   From: 2010.05.17/outbox.cif.g08.bks.cpg/sg2_72_cif.got.tgz:142715.got - 2010.06.03 11:33:40.
