data_PCOD9032497
_publ_section_title
;
Structure prediction by ZEFSAII (Michael W. Deem and Ramdas Pophale) SiO2 
 PCOD9032497
Probable space group: P -1
;
_chemical_formula_sum "Si O2"
_cell_formula_units_Z 16
_cell_length_a 7.372425
_cell_length_b 6.845897
_cell_length_c 16.212188
_cell_angle_alpha 49.989866
_cell_angle_beta 83.025169
_cell_angle_gamma 91.768207
_cell_volume 615.661320
_symmetry_space_group_name_H-M "P -1"
_symmetry_group_IT_number 2
_symmetry_cell_setting 'triclinic'
loop_
_space_group_symop_operation_xyz
x,y,z
-x,-y,-z
loop_
_atom_site_type_symbol
_atom_site_label
_atom_site_fract_x
_atom_site_fract_y
_atom_site_fract_z
Si Si1 0.692228 0.690928 0.923073
Si Si2 0.677211 0.742680 0.368800
Si Si3 0.865486 0.769853 0.615641
Si Si4 0.205075 0.243537 0.912433
Si Si5 0.344574 0.798628 0.491967
Si Si6 0.374241 0.736566 0.251585
Si Si7 0.781869 0.248548 0.305635
Si Si8 0.209992 0.720121 0.087676
O O1 0.801271 0.528645 0.900315
O O2 0.673445 0.974037 0.812139
O O3 0.500000 0.500000 0.000000
O O4 0.785072 0.728798 0.997103
O O5 0.528328 0.751179 0.448108
O O6 0.774378 0.486698 0.437348
O O7 0.563374 0.731705 0.292661
O O8 0.795294 0.016998 0.304135
O O9 0.761351 0.522699 0.640393
O O10 0.009796 0.673186 0.695276
O O11 0.720454 0.945992 0.611052
O O12 0.000000 0.000000 0.500000
O O13 0.295383 0.515348 0.796878
O O14 0.995313 0.219078 0.898157
O O15 0.288208 0.980981 0.961361
O O16 0.336749 0.826172 0.584013
O O17 0.338243 0.698257 0.165567
#
# Coordination Sequence:
#
# PCOD9032497 Si02
#       8
#     2   2   2   2   2   2   2   2
#     4  11  25  44  69 107 137 173 227 280 342 412
#     4  11  26  42  68 101 136 178 233 274 341 404
#     4  10  24  46  68  96 140 181 227 276 339 398
#     4  10  22  43  71  97 134 177 228 271 340 408
#     4  10  26  45  66  96 141 180 223 285 339 397
#     4  11  25  43  71 102 136 182 225 276 344 401
#     4  11  23  45  69 101 134 180 227 283 336 401
#     4  10  23  46  69  97 139 178 216 286 340 402
#
# _framework density 25.988313000000002
#
# number of rings (size 3 to 8) (size 9 to 14) (size 15 to 20)
#    0.000    1.500    1.250    1.500   10.500    5.500 
#    6.750    0.000    0.000    0.000    0.000    0.000 
#    0.000    0.000    0.000    0.000    0.000    0.000 
#
# Total GULP energy -89370.304619 kJ/mol
# GULP energy per Si atom -5585.644039 kJ/mol
# Density = 2.592916 g / cm^3
# Si number density = 25.988313 Si / 1000 Ang^3
#
#
#
# Elastic Constant Matrix: (Units=GPa)
#
#
# Indices 1 2 3 4 5 6 
#
# 1 69.8699 18.5407 8.5187 1.0066 9.6778 13.7368
# 2 18.5407 166.9694 42.7407 -28.8048 12.2016 2.4372
# 3 8.5187 42.7407 141.9527 -20.3934 21.1933 -10.0871
# 4 1.0066 -28.8048 -20.3934 56.8597 0.4388 7.5817
# 5 9.6778 12.2016 21.1933 0.4388 36.5607 -4.6361
# 6 13.7368 2.4372 -10.0871 7.5817 -4.6361 40.1268
#
#
#
# Elastic Compliance Matrix: (Units=1/GPa)
#
#
# Indices 1 2 3 4 5 6 
#
# 1 0.016556 -0.001369 -0.000389 -0.000272 -0.004476 -0.006148
# 2 -0.001369 0.007208 -0.001490 0.003302 -0.001362 -0.001125
# 3 -0.000389 -0.001490 0.008559 0.002156 -0.004199 0.001483
# 4 -0.000272 0.003302 0.002156 0.020568 -0.003009 -0.003799
# 5 -0.004476 -0.001362 -0.004199 -0.003009 0.032074 0.004834
# 6 -0.006148 -0.001125 0.001483 -0.003799 0.004834 0.028743
#
#
# Mechanical properties :
#
#
# Convention : Reuss Voigt Hill
#
# Bulk Modulus (GPa) = 38.72069 57.59914 48.15991
# Shear Modulus (GPa) = 38.81603 47.30889 43.06246
#
# Velocity S-wave (km/s) = 3.86890 4.27123 4.07503
# Velocity P-wave (km/s) = 5.90673 6.82174 6.38066
#
# Compressibility (1/GPa) = 0.02582599
#
# Stress axis : x y z
#
# Youngs Moduli (GPa) = 60.40230 138.73105 116.84009
#
# Poissons Ratio (x) = 0.18990 0.04545
# Poissons Ratio (y) = 0.08268 0.17415
# Poissons Ratio (z) = 0.02349 0.20678
#
# Static dielectric constant tensor:
#      x y z
#    x 2.190630 0.020650 -0.152960 
#    y 0.020650 2.038950 -0.085420 
#    z -0.152960 -0.085420 2.253980 
# 
# From -- ./inp_files/553179.got.cif
#   From: 2010.05.17/outbox.cif.g08.bks.cpg/sg2_277_cif.got.tgz:553179.got - 2010.06.03 11:33:40.
