data_PCOD9032645
_publ_section_title
;
Structure prediction by ZEFSAII (Michael W. Deem and Ramdas Pophale) SiO2 
 PCOD9032645
Probable space group: P -1
;
_chemical_formula_sum "Si O2"
_cell_formula_units_Z 12
_cell_length_a 12.666065
_cell_length_b 5.228170
_cell_length_c 9.925407
_cell_angle_alpha 51.134588
_cell_angle_beta 86.140268
_cell_angle_gamma 98.518199
_cell_volume 495.032417
_symmetry_space_group_name_H-M "P -1"
_symmetry_group_IT_number 2
_symmetry_cell_setting 'triclinic'
loop_
_space_group_symop_operation_xyz
x,y,z
-x,-y,-z
loop_
_atom_site_type_symbol
_atom_site_label
_atom_site_fract_x
_atom_site_fract_y
_atom_site_fract_z
Si Si1 0.927487 0.610855 0.637524
Si Si2 0.126442 0.612298 0.992199
Si Si3 0.503181 0.335648 0.808538
Si Si4 0.858156 0.628930 0.349461
Si Si5 0.707718 0.425785 0.211262
Si Si6 0.492509 0.001095 0.336845
O O1 0.849824 0.574321 0.527194
O O2 0.866027 0.494057 0.819721
O O3 0.000000 0.000000 0.500000
O O4 0.018630 0.394417 0.685849
O O5 0.198701 0.433622 0.950557
O O6 0.156679 0.010277 0.819870
O O7 0.000000 0.500000 0.000000
O O8 0.377479 0.361205 0.809155
O O9 0.558515 0.672228 0.779227
O O10 0.550227 0.296567 0.667498
O O11 0.500000 0.000000 0.000000
O O12 0.771165 0.354660 0.362062
O O13 0.621450 0.113277 0.254950
O O14 0.500000 0.000000 0.500000
#
# Coordination Sequence:
#
# PCOD9032645 Si02
#       6
#     2   2   2   2   2   2
#     4  11  23  38  65  92 131 184 235 275 338 392
#     4  12  22  41  66  92 138 187 223 281 335 401
#     4  10  22  43  72  99 133 172 226 287 344 412
#     4  11  22  41  62  95 135 183 232 283 328 406
#     4  10  24  38  70  93 139 177 232 271 350 407
#     4  10  22  44  73  97 134 176 222 285 354 405
#
# _framework density 24.240838
#
# number of rings (size 3 to 8) (size 9 to 14) (size 15 to 20)
#    1.000    0.333    3.333    2.500    0.000    0.000 
#    0.000    8.333    0.000    0.000    0.000    0.000 
#    0.000    0.000    0.000    0.000    0.000    0.000 
#
# Total GULP energy -66921.051683 kJ/mol
# GULP energy per Si atom -5576.754307 kJ/mol
# Density = 2.418566 g / cm^3
# Si number density = 24.240838 Si / 1000 Ang^3
#
#
#
# Elastic Constant Matrix: (Units=GPa)
#
#
# Indices 1 2 3 4 5 6 
#
# 1 59.2985 29.5004 36.6687 8.1900 -4.7740 -16.0833
# 2 29.5004 98.5584 28.3376 28.1317 -1.9688 -23.1637
# 3 36.6687 28.3376 126.5590 39.2684 19.4983 -25.4472
# 4 8.1900 28.1317 39.2684 45.8570 -4.2850 -3.0846
# 5 -4.7740 -1.9688 19.4983 -4.2850 29.0253 9.2039
# 6 -16.0833 -23.1637 -25.4472 -3.0846 9.2039 41.0398
#
#
#
# Elastic Compliance Matrix: (Units=1/GPa)
#
#
# Indices 1 2 3 4 5 6 
#
# 1 0.028439 -0.009599 -0.014697 0.014657 0.018073 -0.006337
# 2 -0.009599 0.018461 0.008948 -0.017586 -0.013334 0.013875
# 3 -0.014697 0.008948 0.028443 -0.028745 -0.032129 0.021972
# 4 0.014657 -0.017586 -0.028745 0.056305 0.037116 -0.026098
# 5 0.018073 -0.013334 -0.032129 0.037116 0.074451 -0.034272
# 6 -0.006337 0.013875 0.021972 -0.026098 -0.034272 0.049063
#
#
# Mechanical properties :
#
#
# Convention : Reuss Voigt Hill
#
# Bulk Modulus (GPa) = 22.39759 52.60323 37.50041
# Shear Modulus (GPa) = 16.62562 35.84503 26.23533
#
# Velocity S-wave (km/s) = 2.62172 3.84956 3.29337
# Velocity P-wave (km/s) = 4.29234 6.44253 5.47405
#
# Compressibility (1/GPa) = 0.04464766
#
# Stress axis : x y z
#
# Youngs Moduli (GPa) = 35.16271 54.16900 35.15804
#
# Poissons Ratio (x) = 0.51995 0.51672
# Poissons Ratio (y) = 0.33752 -0.31460
# Poissons Ratio (z) = 0.51679 -0.48471
#
# Static dielectric constant tensor:
#      x y z
#    x 2.020720 -0.075570 0.165290 
#    y -0.075570 2.128410 -0.088050 
#    z 0.165290 -0.088050 2.162290 
# 
# From -- ./inp_files/322321.got.cif
#   From: 2010.05.17/outbox.cif.g08.bks.cpg/sg2_162_cif.got.tgz:322321.got - 2010.06.03 11:33:40.
