data_PCOD9032345
_publ_section_title
;
Structure prediction by ZEFSAII (Michael W. Deem and Ramdas Pophale) SiO2 
 PCOD9032345
Probable space group: P -1
;
_chemical_formula_sum "Si O2"
_cell_formula_units_Z 14
_cell_length_a 10.533055
_cell_length_b 19.064104
_cell_length_c 13.192824
_cell_angle_alpha 27.328016
_cell_angle_beta 31.742554
_cell_angle_gamma 29.015281
_cell_volume 556.814171
_symmetry_space_group_name_H-M "P -1"
_symmetry_group_IT_number 2
_symmetry_cell_setting 'triclinic'
loop_
_space_group_symop_operation_xyz
x,y,z
-x,-y,-z
loop_
_atom_site_type_symbol
_atom_site_label
_atom_site_fract_x
_atom_site_fract_y
_atom_site_fract_z
Si Si1 0.333451 0.628548 0.605914
Si Si2 0.299037 0.853535 0.525111
Si Si3 0.717386 0.876923 0.707188
Si Si4 0.659918 0.815345 0.065306
Si Si5 0.588031 0.278047 0.975872
Si Si6 0.896801 0.689139 0.377257
Si Si7 0.749352 0.513527 0.871572
O O1 0.333746 0.690280 0.644192
O O2 0.488925 0.713818 0.331108
O O3 0.495612 0.419334 0.765150
O O4 0.013336 0.716108 0.679708
O O5 0.615815 0.813648 0.350234
O O6 0.262634 0.944371 0.544454
O O7 0.000000 0.000000 0.500000
O O8 0.686130 0.843909 0.890945
O O9 0.463208 0.878874 0.820224
O O10 0.978398 0.681010 0.057304
O O11 0.500000 0.000000 0.000000
O O12 0.885595 0.243342 0.854458
O O13 0.370609 0.386833 0.070868
O O14 0.832058 0.641238 0.592424
O O15 0.000000 0.500000 0.500000
O O16 0.500000 0.500000 0.000000
#
# Coordination Sequence:
#
# PCOD9032345 Si02
#       7
#     2   2   2   2   2   2   2
#     4  11  21  42  68  96 139 182 228 280 336 409
#     4  10  22  43  70  98 134 184 228 284 340 406
#     4  11  26  42  67 105 145 177 229 290 348 402
#     4  12  25  41  72 106 134 182 241 285 341 408
#     4  12  25  43  68 104 143 184 226 287 349 408
#     4  12  23  44  70  99 137 183 234 284 339 415
#     4  12  25  41  69 103 135 184 237 281 343 420
#
# _framework density 25.143038000000001
#
# number of rings (size 3 to 8) (size 9 to 14) (size 15 to 20)
#    0.000    0.571    7.143    0.429    2.000    2.286 
#    0.000    0.714    0.000    0.000    0.000    0.000 
#    0.000    0.000    0.000    0.000    0.000    0.000 
#
# Total GULP energy -78032.232989 kJ/mol
# GULP energy per Si atom -5573.730928 kJ/mol
# Density = 2.508581 g / cm^3
# Si number density = 25.143038 Si / 1000 Ang^3
#
#
#
# Elastic Constant Matrix: (Units=GPa)
#
#
# Indices 1 2 3 4 5 6 
#
# 1 97.5901 36.5813 31.9892 10.2539 -39.9788 -8.5854
# 2 36.5813 98.3850 10.1901 18.0834 -5.0978 -32.2537
# 3 31.9892 10.1901 102.7099 21.7002 -9.1043 7.0536
# 4 10.2539 18.0834 21.7002 41.1891 -2.2732 -9.0135
# 5 -39.9788 -5.0978 -9.1043 -2.2732 57.5891 3.3302
# 6 -8.5854 -32.2537 7.0536 -9.0135 3.3302 38.0408
#
#
#
# Elastic Compliance Matrix: (Units=1/GPa)
#
#
# Indices 1 2 3 4 5 6 
#
# 1 0.018721 -0.006498 -0.004202 0.000762 0.011865 -0.001363
# 2 -0.006498 0.017157 -0.000210 -0.003242 -0.003887 0.012691
# 3 -0.004202 -0.000210 0.012751 -0.006724 -0.000896 -0.005005
# 4 0.000762 -0.003242 -0.006724 0.030338 0.000038 0.005855
# 5 0.011865 -0.003887 -0.000896 0.000038 0.025271 -0.002655
# 6 -0.001363 0.012691 -0.005005 0.005855 -0.002655 0.039289
#
#
# Mechanical properties :
#
#
# Convention : Reuss Voigt Hill
#
# Bulk Modulus (GPa) = 37.29946 50.68959 43.99452
# Shear Modulus (GPa) = 28.68949 42.02545 35.35747
#
# Velocity S-wave (km/s) = 3.38161 4.09278 3.75407
# Velocity P-wave (km/s) = 5.48764 6.52217 6.02714
#
# Compressibility (1/GPa) = 0.02681004
#
# Stress axis : x y z
#
# Youngs Moduli (GPa) = 53.41707 58.28553 78.42788
#
# Poissons Ratio (x) = 0.37872 0.32952
# Poissons Ratio (y) = 0.34709 0.01645
# Poissons Ratio (z) = 0.22444 0.01222
#
# Static dielectric constant tensor:
#      x y z
#    x 2.159430 0.097940 0.096310 
#    y 0.097940 2.109860 -0.106280 
#    z 0.096310 -0.106280 2.325830 
# 
# From -- ./inp_files/523731.got.cif
#   From: 2010.05.17/outbox.cif.g08.bks.cpg/sg2_262_cif.got.tgz:523731.got - 2010.06.03 11:33:40.
