data_PCOD9032919
_publ_section_title
;
Structure prediction by ZEFSAII (Michael W. Deem and Ramdas Pophale) SiO2 
 PCOD9032919
Probable space group: P -1
;
_chemical_formula_sum "Si O2"
_cell_formula_units_Z 14
_cell_length_a 7.861615
_cell_length_b 7.775909
_cell_length_c 15.744608
_cell_angle_alpha 82.273940
_cell_angle_beta 49.345945
_cell_angle_gamma 106.547156
_cell_volume 628.559779
_symmetry_space_group_name_H-M "P -1"
_symmetry_group_IT_number 2
_symmetry_cell_setting 'triclinic'
loop_
_space_group_symop_operation_xyz
x,y,z
-x,-y,-z
loop_
_atom_site_type_symbol
_atom_site_label
_atom_site_fract_x
_atom_site_fract_y
_atom_site_fract_z
Si Si1 0.580368 0.776862 0.965556
Si Si2 0.929949 0.851933 0.611149
Si Si3 0.848841 0.421651 0.387952
Si Si4 0.060865 0.720515 0.813823
Si Si5 0.601431 0.237168 0.150666
Si Si6 0.286582 0.838825 0.196656
Si Si7 0.337378 0.084967 0.598106
O O1 0.778202 0.695390 0.903371
O O2 0.378162 0.695741 0.958362
O O3 0.735648 0.015757 0.876601
O O4 0.442333 0.749121 0.101671
O O5 0.033405 0.694716 0.588497
O O6 0.625447 0.736797 0.734670
O O7 0.000000 0.000000 0.500000
O O8 0.078766 0.999659 0.632206
O O9 0.022601 0.656898 0.327217
O O10 0.885696 0.380521 0.278914
O O11 0.546950 0.316584 0.517317
O O12 0.154290 0.677231 0.874488
O O13 0.250629 0.959717 0.720459
O O14 0.464691 0.996065 0.199080
O O15 0.500000 0.000000 0.500000
#
# Coordination Sequence:
#
# PCOD9032919 Si02
#       7
#     2   2   2   2   2   2   2
#     4   9  19  39  56  73 110 148 177 213 275 316
#     4  10  17  32  55  79 110 142 175 215 267 327
#     4  10  18  33  55  83 108 136 181 228 259 306
#     4  10  18  34  58  78 103 142 183 217 265 320
#     4  10  18  36  56  78 105 149 177 208 273 327
#     4   9  20  37  55  75 111 143 177 224 265 312
#     4   8  15  29  48  76 104 133 165 216 267 307
#
# _framework density 22.273140999999999
#
# number of rings (size 3 to 8) (size 9 to 14) (size 15 to 20)
#    0.857    2.000    2.857    2.571    0.000    1.143 
#    0.000    9.286    0.000    0.000    0.000    0.000 
#    0.000    0.000    0.000    0.000    0.000    0.000 
#
# Total GULP energy -78030.210397 kJ/mol
# GULP energy per Si atom -5573.586457 kJ/mol
# Density = 2.222245 g / cm^3
# Si number density = 22.273141 Si / 1000 Ang^3
#
#
#
# Elastic Constant Matrix: (Units=GPa)
#
#
# Indices 1 2 3 4 5 6 
#
# 1 128.8073 22.9959 12.7419 -3.5740 0.1411 8.0168
# 2 22.9959 74.0785 12.1528 -31.1097 1.8618 -3.4051
# 3 12.7419 12.1528 34.9612 -15.9241 -2.7587 -2.0896
# 4 -3.5740 -31.1097 -15.9241 36.0588 -3.8652 -3.3364
# 5 0.1411 1.8618 -2.7587 -3.8652 26.9005 -8.3242
# 6 8.0168 -3.4051 -2.0896 -3.3364 -8.3242 20.5687
#
#
#
# Elastic Compliance Matrix: (Units=1/GPa)
#
#
# Indices 1 2 3 4 5 6 
#
# 1 0.009594 -0.005415 -0.005764 -0.007409 -0.003794 -0.007959
# 2 -0.005415 0.025799 0.006601 0.026729 0.007184 0.014295
# 3 -0.005764 0.006601 0.042829 0.027073 0.013254 0.017446
# 4 -0.007409 0.026729 0.027073 0.066762 0.019460 0.028768
# 5 -0.003794 0.007184 0.013254 0.019460 0.049238 0.027098
# 6 -0.007959 0.014295 0.017446 0.028768 0.027098 0.071491
#
#
# Mechanical properties :
#
#
# Convention : Reuss Voigt Hill
#
# Bulk Modulus (GPa) = 14.47878 37.06980 25.77429
# Shear Modulus (GPa) = 16.78466 29.36937 23.07702
#
# Velocity S-wave (km/s) = 2.74812 3.63519 3.22233
# Velocity P-wave (km/s) = 4.07238 5.85653 5.04396
#
# Compressibility (1/GPa) = 0.06906659
#
# Stress axis : x y z
#
# Youngs Moduli (GPa) = 104.22765 38.76165 23.34864
#
# Poissons Ratio (x) = 0.20989 0.13459
# Poissons Ratio (y) = 0.56437 -0.15414
# Poissons Ratio (z) = 0.60081 -0.25588
#
# Static dielectric constant tensor:
#      x y z
#    x 1.820880 -0.018430 -0.028160 
#    y -0.018430 1.903250 -0.041180 
#    z -0.028160 -0.041180 1.869240 
# 
# From -- ./inp_files/554392.got.cif
#   From: 2010.05.17/outbox.cif.g08.bks.cpg/sg2_278_cif.got.tgz:554392.got - 2010.06.03 11:33:40.
