data_PCOD9032902
_publ_section_title
;
Structure prediction by ZEFSAII (Michael W. Deem and Ramdas Pophale) SiO2 
 PCOD9032902
Probable space group: P -1
;
_chemical_formula_sum "Si O2"
_cell_formula_units_Z 16
_cell_length_a 14.530768
_cell_length_b 8.863077
_cell_length_c 9.326880
_cell_angle_alpha 98.831136
_cell_angle_beta 140.090258
_cell_angle_gamma 86.376766
_cell_volume 758.693707
_symmetry_space_group_name_H-M "P -1"
_symmetry_group_IT_number 2
_symmetry_cell_setting 'triclinic'
loop_
_space_group_symop_operation_xyz
x,y,z
-x,-y,-z
loop_
_atom_site_type_symbol
_atom_site_label
_atom_site_fract_x
_atom_site_fract_y
_atom_site_fract_z
Si Si1 0.225032 0.936607 0.220085
Si Si2 0.811925 0.546873 0.916871
Si Si3 0.233274 0.116179 0.535521
Si Si4 0.491259 0.659506 0.093777
Si Si5 0.715069 0.837211 0.903766
Si Si6 0.346706 0.943088 0.879191
Si Si7 0.557525 0.302239 0.626117
Si Si8 0.972625 0.696379 0.859179
O O1 0.343262 0.839755 0.274796
O O2 0.283799 0.028459 0.441973
O O3 0.187104 0.059800 0.075611
O O4 0.090531 0.821110 0.086516
O O5 0.792228 0.688166 0.019642
O O6 0.662813 0.440517 0.706264
O O7 0.863047 0.620394 0.835685
O O8 0.932487 0.439046 0.097459
O O9 0.359363 0.242418 0.748026
O O10 0.103017 0.210169 0.340091
O O11 0.222974 0.988145 0.628294
O O12 0.481582 0.648367 0.253304
O O13 0.500000 0.500000 0.000000
O O14 0.363875 0.765176 0.909092
O O15 0.578094 0.760938 0.639683
O O16 0.670216 0.950280 0.988177
O O17 0.500000 0.000000 0.000000
#
# Coordination Sequence:
#
# PCOD9032902 Si02
#       8
#     2   2   2   2   2   2   2   2
#     4  11  21  39  73  90 125 166 224 275 303 377
#     4  10  23  37  63  96 131 163 213 274 308 381
#     4  11  22  43  64  94 128 176 208 263 326 384
#     4  11  23  41  63  97 136 166 203 265 336 391
#     4  12  21  40  68 100 126 165 222 271 319 375
#     4  10  24  41  62  94 137 164 208 262 330 395
#     4  11  21  38  66  98 130 164 212 271 330 377
#     4  10  22  44  62  95 129 170 222 261 322 370
#
# _framework density 21.088878999999999
#
# number of rings (size 3 to 8) (size 9 to 14) (size 15 to 20)
#    0.000    1.250    3.750    2.625    3.500    0.000 
#   11.250    1.250    0.000    0.000    0.000    0.000 
#    0.000    0.000    0.000    0.000    0.000    0.000 
#
# Total GULP energy -89297.711489 kJ/mol
# GULP energy per Si atom -5581.106968 kJ/mol
# Density = 2.104088 g / cm^3
# Si number density = 21.088879 Si / 1000 Ang^3
#
#
#
# Elastic Constant Matrix: (Units=GPa)
#
#
# Indices 1 2 3 4 5 6 
#
# 1 73.6372 41.4510 18.1344 7.1364 -16.0768 -14.7962
# 2 41.4510 170.1038 50.7842 5.3515 -16.3722 -37.2722
# 3 18.1344 50.7842 57.6858 -6.7665 -19.4271 -16.1860
# 4 7.1364 5.3515 -6.7665 37.6174 -3.1175 -0.5856
# 5 -16.0768 -16.3722 -19.4271 -3.1175 33.4189 7.1825
# 6 -14.7962 -37.2722 -16.1860 -0.5856 7.1825 37.3470
#
#
#
# Elastic Compliance Matrix: (Units=1/GPa)
#
#
# Indices 1 2 3 4 5 6 
#
# 1 0.017362 -0.002857 -0.000518 -0.002454 0.005855 0.002638
# 2 -0.002857 0.009876 -0.007093 -0.002224 -0.002164 0.006031
# 3 -0.000518 -0.007093 0.030244 0.007749 0.013876 0.003276
# 4 -0.002454 -0.002224 0.007749 0.029171 0.005029 -0.000344
# 5 0.005855 -0.002164 0.013876 0.005029 0.040548 -0.001545
# 6 0.002638 0.006031 0.003276 -0.000344 -0.001545 0.035552
#
#
# Mechanical properties :
#
#
# Convention : Reuss Voigt Hill
#
# Bulk Modulus (GPa) = 27.36412 58.01845 42.69128
# Shear Modulus (GPa) = 25.52680 34.41381 29.97030
#
# Velocity S-wave (km/s) = 3.48291 4.04399 3.77389
# Velocity P-wave (km/s) = 5.40167 7.02683 6.26715
#
# Compressibility (1/GPa) = 0.03654421
#
# Stress axis : x y z
#
# Youngs Moduli (GPa) = 57.59556 101.25527 33.06413
#
# Poissons Ratio (x) = 0.28932 0.01714
# Poissons Ratio (y) = 0.16457 0.23454
# Poissons Ratio (z) = 0.02986 0.71825
#
# Static dielectric constant tensor:
#      x y z
#    x 1.774430 -0.003110 0.006100 
#    y -0.003110 1.830650 -0.063950 
#    z 0.006100 -0.063950 1.762370 
# 
# From -- ./inp_files/263583.got.cif
#   From: 2010.05.17/outbox.cif.g08.bks.cpg/sg2_132_cif.got.tgz:263583.got - 2010.06.03 11:33:40.
