data_PCOD9032822
_publ_section_title
;
Structure prediction by ZEFSAII (Michael W. Deem and Ramdas Pophale) SiO2 
 PCOD9032822
Probable space group: P -1
;
_chemical_formula_sum "Si O2"
_cell_formula_units_Z 16
_cell_length_a 21.366164
_cell_length_b 9.705259
_cell_length_c 4.876840
_cell_angle_alpha 66.581083
_cell_angle_beta 119.172629
_cell_angle_gamma 134.490585
_cell_volume 627.368289
_symmetry_space_group_name_H-M "P -1"
_symmetry_group_IT_number 2
_symmetry_cell_setting 'triclinic'
loop_
_space_group_symop_operation_xyz
x,y,z
-x,-y,-z
loop_
_atom_site_type_symbol
_atom_site_label
_atom_site_fract_x
_atom_site_fract_y
_atom_site_fract_z
Si Si1 0.829857 0.152721 0.100487
Si Si2 0.619015 0.658615 0.419019
Si Si3 0.224976 0.237884 0.736930
Si Si4 0.555883 0.761655 0.687056
Si Si5 0.675056 0.185081 0.651401
Si Si6 0.074813 0.217715 0.101351
Si Si7 0.946391 0.320049 0.734483
Si Si8 0.739371 0.455211 0.061564
O O1 0.868015 0.165066 0.471961
O O2 0.709591 0.718890 0.411651
O O3 0.812041 0.968326 0.069845
O O4 0.742236 0.143684 0.943414
O O5 0.623533 0.760212 0.626023
O O6 0.545271 0.425931 0.472312
O O7 0.573456 0.716998 0.060126
O O8 0.153285 0.387939 0.927910
O O9 0.279465 0.411510 0.933920
O O10 0.137943 0.219977 0.460416
O O11 0.580020 0.969393 0.569593
O O12 0.899170 0.324380 0.899802
O O13 0.681477 0.326702 0.774318
O O14 0.012517 0.274471 0.009911
O O15 0.000000 0.000000 0.000000
O O16 0.717567 0.303943 0.367209
O O17 0.000000 0.500000 0.500000
#
# Coordination Sequence:
#
# PCOD9032822 Si02
#       8
#     2   2   2   2   2   2   2   2
#     4  12  26  43  72 101 129 186 244 294 346 424
#     4  10  23  43  74 113 139 182 234 297 344 417
#     4  12  27  46  73 103 147 185 241 292 363 424
#     4  10  22  43  76 110 144 176 238 292 346 420
#     4  12  24  47  73 103 147 184 234 287 371 416
#     4  12  26  47  69  97 141 192 240 296 356 416
#     4  12  27  44  67 100 136 181 243 301 352 413
#     4  12  28  46  68 104 145 195 224 299 357 432
#
# _framework density 25.503361999999999
#
# number of rings (size 3 to 8) (size 9 to 14) (size 15 to 20)
#    0.000    0.500    3.750    4.125    5.250    1.000 
#    0.000    1.250    0.000    0.000    0.000    0.000 
#    0.000    0.000    0.000    0.000    0.000    0.000 
#
# Total GULP energy -89638.303565 kJ/mol
# GULP energy per Si atom -5602.393973 kJ/mol
# Density = 2.544531 g / cm^3
# Si number density = 25.503362 Si / 1000 Ang^3
#
#
#
# Elastic Constant Matrix: (Units=GPa)
#
#
# Indices 1 2 3 4 5 6 
#
# 1 53.8723 2.4789 6.7997 6.3382 -9.5185 -5.1884
# 2 2.4789 176.1512 31.9761 1.4121 -21.3752 -3.3616
# 3 6.7997 31.9761 108.2998 5.6539 -19.9559 5.0585
# 4 6.3382 1.4121 5.6539 34.7919 -4.0123 -1.7199
# 5 -9.5185 -21.3752 -19.9559 -4.0123 42.2351 -3.5973
# 6 -5.1884 -3.3616 5.0585 -1.7199 -3.5973 35.4100
#
#
#
# Elastic Compliance Matrix: (Units=1/GPa)
#
#
# Indices 1 2 3 4 5 6 
#
# 1 0.020075 0.000455 -0.000573 -0.002897 0.004497 0.003383
# 2 0.000455 0.006284 -0.001451 0.000269 0.002722 0.001160
# 3 -0.000573 -0.001451 0.010540 -0.001170 0.003887 -0.001389
# 4 -0.002897 0.000269 -0.001170 0.029735 0.001875 0.001403
# 5 0.004497 0.002722 0.003887 0.001875 0.028367 0.003335
# 6 0.003383 0.001160 -0.001389 0.001403 0.003335 0.029452
#
#
# Mechanical properties :
#
#
# Convention : Reuss Voigt Hill
#
# Bulk Modulus (GPa) = 29.61918 46.75918 38.18918
# Shear Modulus (GPa) = 36.01162 42.29196 39.15179
#
# Velocity S-wave (km/s) = 3.76178 4.07663 3.92236
# Velocity P-wave (km/s) = 5.52332 6.36654 5.95986
#
# Compressibility (1/GPa) = 0.03376190
#
# Stress axis : x y z
#
# Youngs Moduli (GPa) = 49.81347 159.13074 94.87486
#
# Poissons Ratio (x) = -0.07239 0.05436
# Poissons Ratio (y) = -0.02266 0.13763
# Poissons Ratio (z) = 0.02854 0.23085
#
# Static dielectric constant tensor:
#      x y z
#    x 1.977430 0.038300 0.033980 
#    y 0.038300 2.122210 0.028120 
#    z 0.033980 0.028120 2.019900 
# 
# From -- ./inp_files/116062.got.cif
#   From: 2010.05.17/outbox.cif.g08.bks.cpg/sg2_59_cif.got.tgz:116062.got - 2010.06.03 11:33:40.
