data_PCOD9032961
_publ_section_title
;
Structure prediction by ZEFSAII (Michael W. Deem and Ramdas Pophale) SiO2 
 PCOD9032961
Probable space group: P -1
;
_chemical_formula_sum "Si O2"
_cell_formula_units_Z 14
_cell_length_a 18.950903
_cell_length_b 8.015930
_cell_length_c 8.129158
_cell_angle_alpha 76.742766
_cell_angle_beta 121.657974
_cell_angle_gamma 143.894150
_cell_volume 570.835933
_symmetry_space_group_name_H-M "P -1"
_symmetry_group_IT_number 2
_symmetry_cell_setting 'triclinic'
loop_
_space_group_symop_operation_xyz
x,y,z
-x,-y,-z
loop_
_atom_site_type_symbol
_atom_site_label
_atom_site_fract_x
_atom_site_fract_y
_atom_site_fract_z
Si Si1 0.832623 0.203621 0.791514
Si Si2 0.791290 0.509199 0.570501
Si Si3 0.555654 0.289993 0.493864
Si Si4 0.640578 0.584733 0.850506
Si Si5 0.912835 0.193260 0.543261
Si Si6 0.636925 0.515695 0.214417
Si Si7 0.068574 0.132444 0.869761
O O1 0.769078 0.284919 0.668767
O O2 0.839130 0.130671 0.636434
O O3 0.733237 0.914077 0.850551
O O4 0.000000 0.500000 0.000000
O O5 0.731161 0.550591 0.615370
O O6 0.699700 0.424849 0.322256
O O7 0.966491 0.833773 0.697969
O O8 0.537051 0.364725 0.618314
O O9 0.523736 0.326934 0.273085
O O10 0.500000 0.000000 0.500000
O O11 0.569331 0.449012 0.972912
O O12 0.765083 0.647551 0.987396
O O13 0.000000 0.500000 0.500000
O O14 0.034707 0.261282 0.729613
O O15 0.781701 0.883300 0.343371
O O16 0.000000 0.000000 0.000000
#
# Coordination Sequence:
#
# PCOD9032961 Si02
#       7
#     2   2   2   2   2   2   2
#     4  12  20  33  56  91 122 160 184 232 300 351
#     4   9  20  36  55  87 121 147 198 234 289 353
#     4  10  22  44  64  80 113 158 205 251 284 335
#     4  12  21  36  64  85 120 155 192 244 294 358
#     4  11  22  32  51  86 129 153 184 233 286 356
#     4   9  22  40  56  89 114 157 200 236 293 353
#     4  11  17  35  54  83 121 156 185 230 293 357
#
# _framework density 24.525435999999999
#
# number of rings (size 3 to 8) (size 9 to 14) (size 15 to 20)
#    0.857    0.571    5.714    0.857    2.000    1.714 
#    0.000    0.714    0.000    0.857    0.000    0.000 
#    0.000    0.000    0.000    0.000    0.000    0.000 
#
# Total GULP energy -78185.880804 kJ/mol
# GULP energy per Si atom -5584.705772 kJ/mol
# Density = 2.446962 g / cm^3
# Si number density = 24.525436 Si / 1000 Ang^3
#
#
#
# Elastic Constant Matrix: (Units=GPa)
#
#
# Indices 1 2 3 4 5 6 
#
# 1 69.6888 8.9141 44.9849 -17.8039 4.2102 -7.8297
# 2 8.9141 133.0565 63.9852 -45.3440 -10.0925 -17.6950
# 3 44.9849 63.9852 99.6374 -43.7943 -22.8647 -3.7909
# 4 -17.8039 -45.3440 -43.7943 47.3962 3.3392 11.1507
# 5 4.2102 -10.0925 -22.8647 3.3392 44.7113 -12.9542
# 6 -7.8297 -17.6950 -3.7909 11.1507 -12.9542 39.9197
#
#
#
# Elastic Compliance Matrix: (Units=1/GPa)
#
#
# Indices 1 2 3 4 5 6 
#
# 1 0.026120 0.006491 -0.018535 -0.001285 -0.009343 0.003567
# 2 0.006491 0.014303 -0.009426 0.006461 -0.001393 0.004461
# 3 -0.018535 -0.009426 0.034836 0.016121 0.015031 -0.004131
# 4 -0.001285 0.006461 0.016121 0.042827 0.004812 -0.006258
# 5 -0.009343 -0.001393 0.015031 0.004812 0.032642 0.008226
# 6 0.003567 0.004461 -0.004131 -0.006258 0.008226 0.031753
#
#
# Mechanical properties :
#
#
# Convention : Reuss Voigt Hill
#
# Bulk Modulus (GPa) = 30.94056 59.79457 45.36756
# Shear Modulus (GPa) = 21.16920 38.70536 29.93728
#
# Velocity S-wave (km/s) = 2.94113 3.97693 3.49759
# Velocity P-wave (km/s) = 4.91699 6.74697 5.90332
#
# Compressibility (1/GPa) = 0.03232004
#
# Stress axis : x y z
#
# Youngs Moduli (GPa) = 38.28416 69.91599 28.70632
#
# Poissons Ratio (x) = -0.45381 0.53206
# Poissons Ratio (y) = -0.24849 0.27057
# Poissons Ratio (z) = 0.70958 0.65900
#
# Static dielectric constant tensor:
#      x y z
#    x 2.063160 -0.009650 -0.083510 
#    y -0.009650 2.003770 -0.042420 
#    z -0.083510 -0.042420 2.116290 
# 
# From -- ./inp_files/198521.got.cif
#   From: 2010.05.17/outbox.cif.g08.bks.cpg/sg2_100_cif.got.tgz:198521.got - 2010.06.03 11:33:40.
