data_PCOD9032909
_publ_section_title
;
Structure prediction by ZEFSAII (Michael W. Deem and Ramdas Pophale) SiO2 
 PCOD9032909
Probable space group: P -1
;
_chemical_formula_sum "Si O2"
_cell_formula_units_Z 15
_cell_length_a 9.893428
_cell_length_b 10.932491
_cell_length_c 11.409739
_cell_angle_alpha 116.607065
_cell_angle_beta 64.494116
_cell_angle_gamma 144.324411
_cell_volume 638.189208
_symmetry_space_group_name_H-M "P -1"
_symmetry_group_IT_number 2
_symmetry_cell_setting 'triclinic'
loop_
_space_group_symop_operation_xyz
x,y,z
-x,-y,-z
loop_
_atom_site_type_symbol
_atom_site_label
_atom_site_fract_x
_atom_site_fract_y
_atom_site_fract_z
Si Si1 0.846673 0.837184 0.594331
Si Si2 0.690470 0.928983 0.362826
Si Si3 0.277506 0.550456 0.495406
Si Si4 0.641667 0.651313 0.121575
Si Si5 0.128356 0.871441 0.987460
Si Si6 0.000000 0.500000 0.000000
Si Si7 0.912125 0.308313 0.322020
Si Si8 0.484292 0.696033 0.838979
O O1 0.739542 0.611501 0.513552
O O2 0.651481 0.799744 0.707037
O O3 0.000000 0.000000 0.500000
O O4 0.048444 0.945252 0.660755
O O5 0.536177 0.783132 0.469553
O O6 0.591667 0.771131 0.225050
O O7 0.717914 0.104758 0.392669
O O8 0.143972 0.572882 0.628234
O O9 0.143370 0.459397 0.380052
O O10 0.566513 0.496850 0.188015
O O11 0.500000 0.500000 0.000000
O O12 0.911530 0.820056 0.064347
O O13 0.099268 0.786414 0.832473
O O14 0.088238 0.716101 0.023007
O O15 0.362214 0.116710 0.039186
O O16 0.762076 0.399978 0.110212
#
# Coordination Sequence:
#
# PCOD9032909 Si02
#       8
#     2   2   2   2   2   1   2   2
#     4  11  25  42  68  99 132 185 231 287 344 401
#     4  11  21  40  64  97 133 173 228 281 338 408
#     4  10  22  44  62  96 140 174 229 280 331 415
#     4  11  22  36  67 102 135 176 215 281 356 405
#     4  11  23  41  65  99 134 177 224 282 347 408
#     4  10  26  44  66  92 136 188 220 286 346 414
#     4  10  23  39  66  95 133 181 221 277 343 406
#     4  11  23  45  65  99 137 173 234 288 339 415
#
# _framework density 23.504003000000001
#
# number of rings (size 3 to 8) (size 9 to 14) (size 15 to 20)
#    0.000    1.333    2.667    2.400    1.867    4.800 
#    0.000    0.000    0.000    0.000    0.000    0.000 
#    0.000    0.000    0.000    0.000    0.000    0.000 
#
# Total GULP energy -83571.615473 kJ/mol
# GULP energy per Si atom -5571.441032 kJ/mol
# Density = 2.345051 g / cm^3
# Si number density = 23.504003 Si / 1000 Ang^3
#
#
#
# Elastic Constant Matrix: (Units=GPa)
#
#
# Indices 1 2 3 4 5 6 
#
# 1 67.1222 34.5537 28.4026 -8.7884 -23.0602 0.4741
# 2 34.5537 106.5991 35.9525 -16.2938 -10.1855 0.3901
# 3 28.4026 35.9525 97.9251 -10.4431 -8.8860 5.8427
# 4 -8.7884 -16.2938 -10.4431 39.3807 9.3664 -6.5489
# 5 -23.0602 -10.1855 -8.8860 9.3664 29.5106 -2.4515
# 6 0.4741 0.3901 5.8427 -6.5489 -2.4515 27.3552
#
#
#
# Elastic Compliance Matrix: (Units=1/GPa)
#
#
# Indices 1 2 3 4 5 6 
#
# 1 0.025020 -0.005361 -0.003994 -0.001485 0.017108 0.001674
# 2 -0.005361 0.012494 -0.002865 0.003870 -0.001861 0.001286
# 3 -0.003994 -0.002865 0.012602 0.001069 -0.000854 -0.002402
# 4 -0.001485 0.003870 0.001069 0.029995 -0.008511 0.006160
# 5 0.017108 -0.001861 -0.000854 -0.008511 0.049247 0.002288
# 6 0.001674 0.001286 -0.002402 0.006160 0.002288 0.038702
#
#
# Mechanical properties :
#
#
# Convention : Reuss Voigt Hill
#
# Bulk Modulus (GPa) = 38.94893 52.16269 45.55581
# Shear Modulus (GPa) = 24.86841 30.76513 27.81677
#
# Velocity S-wave (km/s) = 3.25630 3.62184 3.44392
# Velocity P-wave (km/s) = 5.54483 6.30330 5.93619
#
# Compressibility (1/GPa) = 0.02567465
#
# Stress axis : x y z
#
# Youngs Moduli (GPa) = 39.96871 80.03823 79.35217
#
# Poissons Ratio (x) = 0.42911 0.31695
# Poissons Ratio (y) = 0.21428 0.22735
# Poissons Ratio (z) = 0.15964 0.22931
#
# Static dielectric constant tensor:
#      x y z
#    x 1.904490 0.016580 0.040360 
#    y 0.016580 1.894630 -0.006470 
#    z 0.040360 -0.006470 1.906260 
# 
# From -- ./inp_files/65885.got.cif
#   From: 2010.05.17/outbox.cif.g08.bks.cpg/sg2_33_cif.got.tgz:65885.got - 2010.06.03 11:33:40.
