data_PCOD9032786
_publ_section_title
;
Structure prediction by ZEFSAII (Michael W. Deem and Ramdas Pophale) SiO2 
 PCOD9032786
Probable space group: P -1
;
_chemical_formula_sum "Si O2"
_cell_formula_units_Z 16
_cell_length_a 10.942651
_cell_length_b 11.510830
_cell_length_c 8.930400
_cell_angle_alpha 132.591724
_cell_angle_beta 54.138491
_cell_angle_gamma 124.749189
_cell_volume 642.129050
_symmetry_space_group_name_H-M "P -1"
_symmetry_group_IT_number 2
_symmetry_cell_setting 'triclinic'
loop_
_space_group_symop_operation_xyz
x,y,z
-x,-y,-z
loop_
_atom_site_type_symbol
_atom_site_label
_atom_site_fract_x
_atom_site_fract_y
_atom_site_fract_z
Si Si1 0.885459 0.651949 0.857226
Si Si2 0.599494 0.738346 0.261597
Si Si3 0.442091 0.122039 0.889898
Si Si4 0.994722 0.324559 0.534636
Si Si5 0.169274 0.870443 0.023569
Si Si6 0.244575 0.974256 0.379761
Si Si7 0.827555 0.472346 0.170048
Si Si8 0.511849 0.465666 0.286886
O O1 0.915357 0.473929 0.701458
O O2 0.944798 0.711683 0.700598
O O3 0.709679 0.654258 0.014662
O O4 0.998674 0.782956 0.002757
O O5 0.534062 0.833844 0.264352
O O6 0.472768 0.600917 0.327105
O O7 0.705004 0.860642 0.415250
O O8 0.590438 0.068263 0.794318
O O9 0.435277 0.282111 0.127113
O O10 0.283158 0.979259 0.913620
O O11 0.874495 0.170190 0.565763
O O12 0.142548 0.399885 0.603908
O O13 0.173644 0.972661 0.262817
O O14 0.228513 0.713361 0.890396
O O15 0.701457 0.494521 0.162315
O O16 0.000000 0.500000 0.000000
O O17 0.500000 0.500000 0.500000
#
# Coordination Sequence:
#
# PCOD9032786 Si02
#       8
#     2   2   2   2   2   2   2   2
#     4  10  24  45  67 105 136 178 232 284 354 407
#     4  12  28  45  69 101 146 178 229 292 350 413
#     4  12  26  47  68  98 143 187 227 281 357 423
#     4  10  22  43  74  98 134 185 229 284 343 422
#     4  11  23  42  76  98 135 181 235 287 334 419
#     4  12  24  44  70 101 134 186 237 280 347 413
#     4  11  21  44  75 104 136 182 236 287 341 415
#     4  12  27  46  71 106 139 181 236 293 354 414
#
# _framework density 24.917109
#
# number of rings (size 3 to 8) (size 9 to 14) (size 15 to 20)
#    0.000    0.750    2.500    4.875    3.500    2.500 
#    2.250    0.000    0.000    0.000    0.000    0.000 
#    0.000    0.000    0.000    0.000    0.000    0.000 
#
# Total GULP energy -89711.837837 kJ/mol
# GULP energy per Si atom -5606.989865 kJ/mol
# Density = 2.486040 g / cm^3
# Si number density = 24.917109 Si / 1000 Ang^3
#
#
#
# Elastic Constant Matrix: (Units=GPa)
#
#
# Indices 1 2 3 4 5 6 
#
# 1 52.6678 -7.2956 10.5969 -0.3032 12.7226 -3.2637
# 2 -7.2956 123.7459 18.4585 3.9225 -1.7703 -6.7405
# 3 10.5969 18.4585 121.0018 1.7531 18.7583 -4.1094
# 4 -0.3032 3.9225 1.7531 42.5920 2.7623 10.8371
# 5 12.7226 -1.7703 18.7583 2.7623 37.3914 -2.7207
# 6 -3.2637 -6.7405 -4.1094 10.8371 -2.7207 18.8817
#
#
#
# Elastic Compliance Matrix: (Units=1/GPa)
#
#
# Indices 1 2 3 4 5 6 
#
# 1 0.021127 0.001489 -0.000975 -0.000364 -0.006365 0.003263
# 2 0.001489 0.008694 -0.001452 -0.001892 0.001085 0.004287
# 3 -0.000975 -0.001452 0.009270 -0.000182 -0.004315 0.000813
# 4 -0.000364 -0.001892 -0.000182 0.028320 -0.003240 -0.017499
# 5 -0.006365 0.001085 -0.004315 -0.003240 0.031713 0.004777
# 6 0.003263 0.004287 0.000813 -0.017499 0.004777 0.065965
#
#
# Mechanical properties :
#
#
# Convention : Reuss Voigt Hill
#
# Bulk Modulus (GPa) = 26.86935 37.88166 32.37551
# Shear Modulus (GPa) = 27.87534 38.15004 33.01269
#
# Velocity S-wave (km/s) = 3.34836 3.91714 3.64387
# Velocity P-wave (km/s) = 5.07500 5.97451 5.54303
#
# Compressibility (1/GPa) = 0.03721712
#
# Stress axis : x y z
#
# Youngs Moduli (GPa) = 47.33292 115.01582 107.87012
#
# Poissons Ratio (x) = -0.17128 0.10513
# Poissons Ratio (y) = -0.07049 0.15662
# Poissons Ratio (z) = 0.04613 0.16700
#
# Static dielectric constant tensor:
#      x y z
#    x 1.986880 -0.014260 -0.022470 
#    y -0.014260 1.938040 -0.017960 
#    z -0.022470 -0.017960 1.984310 
# 
# From -- ./inp_files/263374.got.cif
#   From: 2010.05.17/outbox.cif.g08.bks.cpg/sg2_132_cif.got.tgz:263374.got - 2010.06.03 11:33:40.
