data_PCOD9032204
_publ_section_title
;
Structure prediction by ZEFSAII (Michael W. Deem and Ramdas Pophale) SiO2 
 PCOD9032204
Probable space group: P -1
;
_chemical_formula_sum "Si O2"
_cell_formula_units_Z 14
_cell_length_a 7.294032
_cell_length_b 15.854878
_cell_length_c 8.808354
_cell_angle_alpha 109.017933
_cell_angle_beta 59.173143
_cell_angle_gamma 66.496875
_cell_volume 593.081021
_symmetry_space_group_name_H-M "P -1"
_symmetry_group_IT_number 2
_symmetry_cell_setting 'triclinic'
loop_
_space_group_symop_operation_xyz
x,y,z
-x,-y,-z
loop_
_atom_site_type_symbol
_atom_site_label
_atom_site_fract_x
_atom_site_fract_y
_atom_site_fract_z
Si Si1 0.866334 0.395490 0.939476
Si Si2 0.463420 0.138563 0.443596
Si Si3 0.938052 0.484051 0.246799
Si Si4 0.680706 0.246818 0.251345
Si Si5 0.344448 0.080271 0.959394
Si Si6 0.674789 0.130454 0.681485
Si Si7 0.514123 0.336171 0.046963
O O1 0.114399 0.258343 0.682792
O O2 0.910762 0.476880 0.885430
O O3 0.933017 0.400391 0.089475
O O4 0.564567 0.427678 0.075329
O O5 0.593954 0.171637 0.288395
O O6 0.596066 0.126505 0.542447
O O7 0.547212 0.017366 0.278381
O O8 0.601122 0.609792 0.498843
O O9 0.167494 0.409281 0.243966
O O10 0.699597 0.250509 0.064552
O O11 0.986647 0.181498 0.167735
O O12 0.462410 0.142255 0.898371
O O13 0.500000 0.000000 0.000000
O O14 0.636555 0.246434 0.797213
O O15 0.000000 0.000000 0.500000
#
# Coordination Sequence:
#
# PCOD9032204 Si02
#       7
#     2   2   2   2   2   2   2
#     4  10  22  43  70 101 130 181 229 281 322 410
#     4  11  22  45  67  95 137 174 229 280 336 400
#     4  10  23  45  67  99 141 176 229 273 339 397
#     4  11  25  42  67  99 140 178 220 284 334 410
#     4  12  25  45  68 102 137 178 225 283 346 396
#     4  12  24  41  69  99 133 179 230 280 334 404
#     4  12  23  43  68 103 137 177 226 277 344 394
#
# _framework density 23.605543999999998
#
# number of rings (size 3 to 8) (size 9 to 14) (size 15 to 20)
#    0.000    0.857    1.429    6.000    0.000    0.571 
#    7.714    0.000    0.000    0.000    0.000    0.000 
#    0.000    0.000    0.000    0.000    0.000    0.000 
#
# Total GULP energy -78354.362853 kJ/mol
# GULP energy per Si atom -5596.740204 kJ/mol
# Density = 2.355182 g / cm^3
# Si number density = 23.605544 Si / 1000 Ang^3
#
#
#
# Elastic Constant Matrix: (Units=GPa)
#
#
# Indices 1 2 3 4 5 6 
#
# 1 149.3705 29.7098 50.0106 10.1175 -1.7857 -10.4372
# 2 29.7098 71.4555 14.1422 -0.0493 6.2816 -10.8625
# 3 50.0106 14.1422 68.8816 20.7861 -0.0892 3.4687
# 4 10.1175 -0.0493 20.7861 40.9380 -11.6264 1.1270
# 5 -1.7857 6.2816 -0.0892 -11.6264 41.7670 4.5465
# 6 -10.4372 -10.8625 3.4687 1.1270 4.5465 46.9049
#
#
#
# Elastic Compliance Matrix: (Units=1/GPa)
#
#
# Indices 1 2 3 4 5 6 
#
# 1 0.009553 -0.002375 -0.006962 0.001378 0.000920 0.001968
# 2 -0.002375 0.016168 -0.002008 0.000754 -0.002720 0.003610
# 3 -0.006962 -0.002008 0.023409 -0.010818 -0.002605 -0.003233
# 4 0.001378 0.000754 -0.010818 0.032118 0.008901 -0.000353
# 5 0.000920 -0.002720 -0.002605 0.008901 0.027199 -0.003083
# 6 0.001968 0.003610 -0.003233 -0.000353 -0.003083 0.023140
#
#
# Mechanical properties :
#
#
# Convention : Reuss Voigt Hill
#
# Bulk Modulus (GPa) = 37.82198 53.04809 45.43503
# Shear Modulus (GPa) = 30.65772 38.97833 34.81803
#
# Velocity S-wave (km/s) = 3.60773 4.06795 3.84473
# Velocity P-wave (km/s) = 5.78027 6.67726 6.24489
#
# Compressibility (1/GPa) = 0.02643965
#
# Stress axis : x y z
#
# Youngs Moduli (GPa) = 104.67522 61.85054 42.71875
#
# Poissons Ratio (x) = 0.14689 0.29742
# Poissons Ratio (y) = 0.24859 0.08578
# Poissons Ratio (z) = 0.72879 0.12420
#
# Static dielectric constant tensor:
#      x y z
#    x 1.875090 -0.033180 -0.032800 
#    y -0.033180 1.925100 -0.006870 
#    z -0.032800 -0.006870 1.882110 
# 
# From -- ./inp_files/72545.got.cif
#   From: 2010.05.17/outbox.cif.g08.bks.cpg/sg2_37_cif.got.tgz:72545.got - 2010.06.03 11:33:40.
