data_PCOD9032147
_publ_section_title
;
Structure prediction by ZEFSAII (Michael W. Deem and Ramdas Pophale) SiO2 
 PCOD9032147
Probable space group: P -1
;
_chemical_formula_sum "Si O2"
_cell_formula_units_Z 14
_cell_length_a 14.565950
_cell_length_b 12.331576
_cell_length_c 11.516994
_cell_angle_alpha 155.601655
_cell_angle_beta 136.704608
_cell_angle_gamma 37.632445
_cell_volume 521.593257
_symmetry_space_group_name_H-M "P -1"
_symmetry_group_IT_number 2
_symmetry_cell_setting 'triclinic'
loop_
_space_group_symop_operation_xyz
x,y,z
-x,-y,-z
loop_
_atom_site_type_symbol
_atom_site_label
_atom_site_fract_x
_atom_site_fract_y
_atom_site_fract_z
Si Si1 0.050000 0.240027 0.649908
Si Si2 0.425683 0.822288 0.192378
Si Si3 0.245905 0.408688 0.170693
Si Si4 0.677062 0.364297 0.749727
Si Si5 0.405192 0.207254 0.355789
Si Si6 0.909938 0.355205 0.109822
Si Si7 0.837395 0.260552 0.192752
O O1 0.887352 0.303313 0.610080
O O2 0.160677 0.911880 0.396656
O O3 0.147351 0.292078 0.892528
O O4 0.032464 0.465130 0.747113
O O5 0.500000 0.000000 0.500000
O O6 0.436873 0.898798 0.142918
O O7 0.500000 0.500000 0.000000
O O8 0.250768 0.897586 0.109544
O O9 0.350835 0.450635 0.212715
O O10 0.345345 0.221047 0.185105
O O11 0.554106 0.251579 0.543105
O O12 0.737097 0.471632 0.020155
O O13 0.278805 0.476254 0.576934
O O14 0.891095 0.399889 0.274491
O O15 0.030468 0.007207 0.879130
#
# Coordination Sequence:
#
# PCOD9032147 Si02
#       7
#     2   2   2   2   2   2   2
#     4  10  22  43  69  98 143 187 247 303 374 432
#     4  12  26  46  71 106 148 196 240 297 372 439
#     4  10  23  44  68 103 140 192 247 302 373 435
#     4  11  24  41  71 103 145 190 244 306 373 440
#     4  12  26  43  73 108 148 196 242 310 370 447
#     4  10  24  44  69 105 141 196 242 308 360 448
#     4  11  25  45  72 105 148 191 253 295 372 441
#
# _framework density 26.840838000000002
#
# number of rings (size 3 to 8) (size 9 to 14) (size 15 to 20)
#    0.000    1.143    1.429    3.429    2.000    6.286 
#    0.000    3.571    0.000    0.000    0.000    0.000 
#    0.000    0.000    0.000    0.000    0.000    0.000 
#
# Total GULP energy -78399.279693 kJ/mol
# GULP energy per Si atom -5599.948549 kJ/mol
# Density = 2.677975 g / cm^3
# Si number density = 26.840838 Si / 1000 Ang^3
#
#
#
# Elastic Constant Matrix: (Units=GPa)
#
#
# Indices 1 2 3 4 5 6 
#
# 1 153.5704 66.0636 20.9277 -3.8212 22.6771 24.5988
# 2 66.0636 187.6667 41.8752 6.9396 14.0419 31.9425
# 3 20.9277 41.8752 72.4798 6.3985 22.0477 10.5523
# 4 -3.8212 6.9396 6.3985 38.5684 -10.7348 4.4300
# 5 22.6771 14.0419 22.0477 -10.7348 43.2026 4.3134
# 6 24.5988 31.9425 10.5523 4.4300 4.3134 61.3400
#
#
#
# Elastic Compliance Matrix: (Units=1/GPa)
#
#
# Indices 1 2 3 4 5 6 
#
# 1 0.008346 -0.002434 0.000272 0.000490 -0.003415 -0.001921
# 2 -0.002434 0.007282 -0.003344 -0.000541 0.000708 -0.002251
# 3 0.000272 -0.003344 0.019302 -0.005338 -0.010174 -0.000587
# 4 0.000490 -0.000541 -0.005338 0.030042 0.010296 -0.001890
# 5 -0.003415 0.000708 -0.010174 0.010296 0.032487 -0.000277
# 6 -0.001921 -0.002251 -0.000587 -0.001890 -0.000277 0.018502
#
#
# Mechanical properties :
#
#
# Convention : Reuss Voigt Hill
#
# Bulk Modulus (GPa) = 41.81144 74.60552 58.20848
# Shear Modulus (GPa) = 37.05150 47.61222 42.33186
#
# Velocity S-wave (km/s) = 3.71942 4.21631 3.97564
# Velocity P-wave (km/s) = 5.83583 7.18045 6.54277
#
# Compressibility (1/GPa) = 0.02391690
#
# Stress axis : x y z
#
# Youngs Moduli (GPa) = 119.81779 137.32637 51.80792
#
# Poissons Ratio (x) = 0.33429 -0.01408
# Poissons Ratio (y) = 0.29167 0.17325
# Poissons Ratio (z) = -0.03256 0.45923
#
# Static dielectric constant tensor:
#      x y z
#    x 2.154100 0.002480 -0.158510 
#    y 0.002480 2.059520 -0.014840 
#    z -0.158510 -0.014840 2.230460 
# 
# From -- ./inp_files/452000.got.cif
#   From: 2010.05.17/outbox.cif.g08.bks.cpg/sg2_226_cif.got.tgz:452000.got - 2010.06.03 11:33:40.
