data_PCOD9032595
_publ_section_title
;
Structure prediction by ZEFSAII (Michael W. Deem and Ramdas Pophale) SiO2 
 PCOD9032595
Probable space group: P -1
;
_chemical_formula_sum "Si O2"
_cell_formula_units_Z 10
_cell_length_a 13.788747
_cell_length_b 7.947149
_cell_length_c 12.083765
_cell_angle_alpha 129.964155
_cell_angle_beta 22.956737
_cell_angle_gamma 130.407052
_cell_volume 388.639832
_symmetry_space_group_name_H-M "P -1"
_symmetry_group_IT_number 2
_symmetry_cell_setting 'triclinic'
loop_
_space_group_symop_operation_xyz
x,y,z
-x,-y,-z
loop_
_atom_site_type_symbol
_atom_site_label
_atom_site_fract_x
_atom_site_fract_y
_atom_site_fract_z
Si Si1 0.419126 0.084480 0.736753
Si Si2 0.739594 0.379804 0.166890
Si Si3 0.388163 0.534666 0.904013
Si Si4 0.754942 0.917393 0.649828
Si Si5 0.223967 0.708085 0.369103
O O1 0.265587 0.275187 0.942373
O O2 0.500000 0.000000 0.500000
O O3 0.318851 0.874390 0.831753
O O4 0.672070 0.650936 0.615578
O O5 0.500000 0.500000 0.500000
O O6 0.757033 0.390072 0.018753
O O7 0.000000 0.500000 0.000000
O O8 0.648471 0.242124 0.626708
O O9 0.401837 0.636453 0.056567
O O10 0.823749 0.052126 0.521088
O O11 0.000000 0.000000 0.500000
O O12 0.500000 0.000000 0.000000
O O13 0.000000 0.500000 0.500000
#
# Coordination Sequence:
#
# PCOD9032595 Si02
#       5
#     2   2   2   2   2
#     4  12  26  48  77 114 156 206 259 321 392 464
#     4  12  29  52  79 115 158 207 257 324 394 465
#     4  11  25  50  77 114 155 205 262 320 386 466
#     4  10  22  43  72 106 150 193 245 315 379 444
#     4  11  25  45  75 117 154 203 261 323 383 462
#
# _framework density 25.730764000000001
#
# number of rings (size 3 to 8) (size 9 to 14) (size 15 to 20)
#    0.000    0.800    4.000    1.800    2.800    7.200 
#    0.000    0.000    0.000    0.000    0.000    0.000 
#    0.000    0.000    0.000    0.000    0.000    0.000 
#
# Total GULP energy -55747.498691 kJ/mol
# GULP energy per Si atom -5574.749869 kJ/mol
# Density = 2.567220 g / cm^3
# Si number density = 25.730764 Si / 1000 Ang^3
#
#
#
# Elastic Constant Matrix: (Units=GPa)
#
#
# Indices 1 2 3 4 5 6 
#
# 1 206.4228 33.3637 48.7667 -3.2014 -22.1754 -3.5047
# 2 33.3637 244.2479 29.4844 -18.9697 -15.2679 -6.2450
# 3 48.7667 29.4844 116.7186 -3.1979 -26.7103 11.6164
# 4 -3.2014 -18.9697 -3.1979 28.4522 20.9992 -7.1139
# 5 -22.1754 -15.2679 -26.7103 20.9992 47.1800 -0.0633
# 6 -3.5047 -6.2450 11.6164 -7.1139 -0.0633 47.8599
#
#
#
# Elastic Compliance Matrix: (Units=1/GPa)
#
#
# Indices 1 2 3 4 5 6 
#
# 1 0.005561 -0.000491 -0.001851 -0.001183 0.001934 0.000619
# 2 -0.000491 0.004602 -0.001306 0.004259 -0.001374 0.001513
# 3 -0.001851 -0.001306 0.011865 -0.007155 0.008604 -0.004238
# 4 -0.001183 0.004259 -0.007155 0.062997 -0.031252 0.011528
# 5 0.001934 -0.001374 0.008604 -0.031252 0.040432 -0.006718
# 6 0.000619 0.001513 -0.004238 0.011528 -0.006718 0.023870
#
#
# Mechanical properties :
#
#
# Convention : Reuss Voigt Hill
#
# Bulk Modulus (GPa) = 67.87348 87.84654 77.86001
# Shear Modulus (GPa) = 30.95309 55.08340 43.01825
#
# Velocity S-wave (km/s) = 3.47213 4.63185 4.09327
# Velocity P-wave (km/s) = 6.51996 7.92592 7.25707
#
# Compressibility (1/GPa) = 0.01473330
#
# Stress axis : x y z
#
# Youngs Moduli (GPa) = 179.82300 217.27339 84.27843
#
# Poissons Ratio (x) = 0.10675 0.15598
# Poissons Ratio (y) = 0.08835 0.11005
# Poissons Ratio (z) = 0.33281 0.28371
#
# Static dielectric constant tensor:
#      x y z
#    x 3.195400 0.522580 1.932990 
#    y 0.522580 2.530900 0.971790 
#    z 1.932990 0.971790 5.218570 
# 
# From -- ./inp_files/102018.got.cif
#   From: 2010.05.17/outbox.cif.g08.bks.cpg/sg2_52_cif.got.tgz:102018.got - 2010.06.03 11:33:40.
