data_PCOD9032937
_publ_section_title
;
Structure prediction by ZEFSAII (Michael W. Deem and Ramdas Pophale) SiO2 
 PCOD9032937
Probable space group: P -1
;
_chemical_formula_sum "Si O2"
_cell_formula_units_Z 15
_cell_length_a 21.131040
_cell_length_b 11.201643
_cell_length_c 14.631592
_cell_angle_alpha 150.793462
_cell_angle_beta 25.334430
_cell_angle_gamma 150.381254
_cell_volume 667.356996
_symmetry_space_group_name_H-M "P -1"
_symmetry_group_IT_number 2
_symmetry_cell_setting 'triclinic'
loop_
_space_group_symop_operation_xyz
x,y,z
-x,-y,-z
loop_
_atom_site_type_symbol
_atom_site_label
_atom_site_fract_x
_atom_site_fract_y
_atom_site_fract_z
Si Si1 0.710166 0.481861 0.244652
Si Si2 0.000000 0.500000 0.000000
Si Si3 0.552486 0.715499 0.291137
Si Si4 0.150609 0.075520 0.094737
Si Si5 0.167840 0.895227 0.513092
Si Si6 0.448524 0.020059 0.353883
Si Si7 0.370259 0.344478 0.141512
Si Si8 0.353081 0.710701 0.005110
O O1 0.531962 0.312610 0.399288
O O2 0.715948 0.397482 0.076383
O O3 0.756242 0.793065 0.402291
O O4 0.829601 0.410094 0.106879
O O5 0.925470 0.234123 0.987849
O O6 0.539675 0.934911 0.523156
O O7 0.391322 0.538900 0.328705
O O8 0.593873 0.502870 0.155541
O O9 0.697143 0.845114 0.117649
O O10 0.206503 0.221796 0.217808
O O11 0.019753 0.169177 0.281083
O O12 0.266886 0.875939 0.460552
O O13 0.216720 0.745573 0.268831
O O14 0.558022 0.874444 0.072571
O O15 0.500000 0.500000 0.000000
O O16 0.500000 0.000000 0.000000
#
# Coordination Sequence:
#
# PCOD9032937 Si02
#       8
#     2   1   2   2   2   2   2   2
#     4  11  22  42  65  96 131 172 221 273 322 395
#     4  10  22  46  64  88 138 176 204 282 328 384
#     4  11  24  41  70 102 127 176 225 271 328 394
#     4  10  24  45  65  95 141 170 221 274 334 393
#     4  11  23  40  65  99 128 175 216 273 331 384
#     4  12  21  41  71  93 132 175 222 269 330 388
#     4  10  22  44  63  95 134 172 214 275 322 395
#     4  12  22  40  70  99 131 170 223 277 324 386
#
# _framework density 22.476725999999999
#
# number of rings (size 3 to 8) (size 9 to 14) (size 15 to 20)
#    0.000    1.067    5.333    1.200    0.000    3.200 
#    2.400    1.333    0.000    0.000    0.000    0.000 
#    0.000    0.000    0.000    0.000    0.000    0.000 
#
# Total GULP energy -83567.856207 kJ/mol
# GULP energy per Si atom -5571.190414 kJ/mol
# Density = 2.242557 g / cm^3
# Si number density = 22.476726 Si / 1000 Ang^3
#
#
#
# Elastic Constant Matrix: (Units=GPa)
#
#
# Indices 1 2 3 4 5 6 
#
# 1 119.2639 13.0762 43.5464 0.0925 0.3246 25.3137
# 2 13.0762 69.5272 14.6353 -5.9721 -6.6153 -4.1021
# 3 43.5464 14.6353 72.8553 11.9608 20.2319 15.9148
# 4 0.0925 -5.9721 11.9608 23.5863 1.3904 -9.0657
# 5 0.3246 -6.6153 20.2319 1.3904 41.6290 -0.4044
# 6 25.3137 -4.1021 15.9148 -9.0657 -0.4044 42.5299
#
#
#
# Elastic Compliance Matrix: (Units=1/GPa)
#
#
# Indices 1 2 3 4 5 6 
#
# 1 0.011983 -0.000431 -0.007464 0.001916 0.003363 -0.003940
# 2 -0.000431 0.018603 -0.009223 0.012101 0.007117 0.008149
# 3 -0.007464 -0.009223 0.030817 -0.021924 -0.015776 -0.012802
# 4 0.001916 0.012101 -0.021924 0.064427 0.010626 0.022065
# 5 0.003363 0.007117 -0.015776 0.010626 0.032508 0.007162
# 6 -0.003940 0.008149 -0.012802 0.022065 0.007162 0.036206
#
#
# Mechanical properties :
#
#
# Convention : Reuss Voigt Hill
#
# Bulk Modulus (GPa) = 36.80742 44.90691 40.85716
# Shear Modulus (GPa) = 21.02318 34.24161 27.63240
#
# Velocity S-wave (km/s) = 3.06164 3.90734 3.51005
# Velocity P-wave (km/s) = 5.37676 6.35446 5.88594
#
# Compressibility (1/GPa) = 0.02716843
#
# Stress axis : x y z
#
# Youngs Moduli (GPa) = 83.45301 53.75607 32.45013
#
# Poissons Ratio (x) = 0.02314 0.24219
# Poissons Ratio (y) = 0.03593 0.29928
# Poissons Ratio (z) = 0.62285 0.49578
#
# Static dielectric constant tensor:
#      x y z
#    x 2.017400 -0.060210 -0.152800 
#    y -0.060210 1.890370 0.105100 
#    z -0.152800 0.105100 1.957420 
# 
# From -- ./inp_files/541010.got.cif
#   From: 2010.05.17/outbox.cif.g08.bks.cpg/sg2_271_cif.got.tgz:541010.got - 2010.06.03 11:33:40.
