data_PCOD9032736
_publ_section_title
;
Structure prediction by ZEFSAII (Michael W. Deem and Ramdas Pophale) SiO2 
 PCOD9032736
Probable space group: P -1
;
_chemical_formula_sum "Si O2"
_cell_formula_units_Z 16
_cell_length_a 7.552733
_cell_length_b 23.691900
_cell_length_c 5.322360
_cell_angle_alpha 78.464474
_cell_angle_beta 61.007948
_cell_angle_gamma 51.128228
_cell_volume 640.919947
_symmetry_space_group_name_H-M "P -1"
_symmetry_group_IT_number 2
_symmetry_cell_setting 'triclinic'
loop_
_space_group_symop_operation_xyz
x,y,z
-x,-y,-z
loop_
_atom_site_type_symbol
_atom_site_label
_atom_site_fract_x
_atom_site_fract_y
_atom_site_fract_z
Si Si1 0.776747 0.906419 0.143372
Si Si2 0.254517 0.455072 0.199373
Si Si3 0.698743 0.440177 0.216162
Si Si4 0.393317 0.817232 0.120579
Si Si5 0.273511 0.322690 0.340684
Si Si6 0.084426 0.289870 0.934591
Si Si7 0.467900 0.929242 0.823612
Si Si8 0.209195 0.775730 0.694043
O O1 0.645222 0.897760 0.478909
O O2 0.725785 0.983079 0.152708
O O3 0.634368 0.914483 0.972625
O O4 0.075929 0.839584 0.942032
O O5 0.517200 0.430814 0.177280
O O6 0.265673 0.387222 0.162993
O O7 0.000000 0.500000 0.500000
O O8 0.203835 0.516875 0.996975
O O9 0.500000 0.500000 0.500000
O O10 0.954569 0.357333 0.165786
O O11 0.621415 0.784056 0.204275
O O12 0.187538 0.815148 0.414951
O O13 0.570918 0.750150 0.867407
O O14 0.336151 0.890959 0.997204
O O15 0.054123 0.330560 0.655960
O O16 0.494660 0.295912 0.426349
O O17 0.939329 0.257072 0.128947
#
# Coordination Sequence:
#
# PCOD9032736 Si02
#       8
#     2   2   2   2   2   2   2   2
#     4  10  22  43  73  99 140 184 225 283 338 407
#     4  11  24  44  62  92 126 168 218 273 336 400
#     4  11  26  41  65  91 124 169 220 273 338 404
#     4  11  26  39  68  99 128 175 223 273 338 404
#     4  11  25  42  64  93 133 169 220 278 335 407
#     4  11  23  44  61  92 133 169 217 276 335 404
#     4  10  22  44  70 103 137 184 230 275 344 405
#     4  11  24  42  65  99 132 174 223 273 335 405
#
# _framework density 24.964116000000001
#
# number of rings (size 3 to 8) (size 9 to 14) (size 15 to 20)
#    0.000    1.250    3.750    0.750    7.000    2.000 
#    0.000    0.625    0.000    0.000    0.000    0.000 
#    0.000    0.000    0.000    0.000    0.000    0.000 
#
# Total GULP energy -89220.188324 kJ/mol
# GULP energy per Si atom -5576.261770 kJ/mol
# Density = 2.490730 g / cm^3
# Si number density = 24.964116 Si / 1000 Ang^3
#
#
#
# Elastic Constant Matrix: (Units=GPa)
#
#
# Indices 1 2 3 4 5 6 
#
# 1 46.9069 21.0954 19.3349 -11.9746 -17.2039 17.7026
# 2 21.0954 143.1100 49.8067 -11.6019 -20.9451 35.4196
# 3 19.3349 49.8067 191.3225 -21.0743 -17.0816 25.0194
# 4 -11.9746 -11.6019 -21.0743 51.6176 11.3313 -15.5053
# 5 -17.2039 -20.9451 -17.0816 11.3313 42.9190 -3.4649
# 6 17.7026 35.4196 25.0194 -15.5053 -3.4649 52.3501
#
#
#
# Elastic Compliance Matrix: (Units=1/GPa)
#
#
# Indices 1 2 3 4 5 6 
#
# 1 0.028922 -0.000449 -0.000679 0.001741 0.010001 -0.007975
# 2 -0.000449 0.009391 -0.001461 -0.001067 0.003653 -0.005578
# 3 -0.000679 -0.001461 0.006075 0.001423 0.000960 -0.001200
# 4 0.001741 -0.001067 0.001423 0.022963 -0.004840 0.005934
# 5 0.010001 0.003653 0.000960 -0.004840 0.030288 -0.005741
# 6 -0.007975 -0.005578 -0.001200 0.005934 -0.005741 0.027524
#
#
# Mechanical properties :
#
#
# Convention : Reuss Voigt Hill
#
# Bulk Modulus (GPa) = 25.50261 62.42371 43.96316
# Shear Modulus (GPa) = 34.86461 48.78417 41.82439
#
# Velocity S-wave (km/s) = 3.74115 4.42540 4.09758
# Velocity P-wave (km/s) = 5.37583 7.15345 6.32738
#
# Compressibility (1/GPa) = 0.03921167
#
# Stress axis : x y z
#
# Youngs Moduli (GPa) = 34.57529 106.48419 164.60273
#
# Poissons Ratio (x) = 0.04776 0.11169
# Poissons Ratio (y) = 0.01551 0.24055
# Poissons Ratio (z) = 0.02346 0.15562
#
# Static dielectric constant tensor:
#      x y z
#    x 2.464860 -0.187180 0.205540 
#    y -0.187180 2.051090 -0.032840 
#    z 0.205540 -0.032840 2.022080 
# 
# From -- ./inp_files/11035.got.cif
#   From: 2010.05.17/outbox.cif.g08.bks.cpg/sg2_6_cif.got.tgz:11035.got - 2010.06.03 11:33:40.
