data_PCOD9032081
_publ_section_title
;
Structure prediction by ZEFSAII (Michael W. Deem and Ramdas Pophale) SiO2 
 PCOD9032081
Probable space group: P -1
;
_chemical_formula_sum "Si O2"
_cell_formula_units_Z 16
_cell_length_a 16.802657
_cell_length_b 13.516532
_cell_length_c 20.858237
_cell_angle_alpha 154.774524
_cell_angle_beta 155.571118
_cell_angle_gamma 40.266092
_cell_volume 784.042791
_symmetry_space_group_name_H-M "P -1"
_symmetry_group_IT_number 2
_symmetry_cell_setting 'triclinic'
loop_
_space_group_symop_operation_xyz
x,y,z
-x,-y,-z
loop_
_atom_site_type_symbol
_atom_site_label
_atom_site_fract_x
_atom_site_fract_y
_atom_site_fract_z
Si Si1 0.659986 0.019729 0.725489
Si Si2 0.786032 0.961448 0.352730
Si Si3 0.000014 0.724831 0.586840
Si Si4 0.195459 0.527533 0.270768
Si Si5 0.463018 0.028739 0.063836
Si Si6 0.285561 0.484151 0.864933
Si Si7 0.408587 0.401574 0.472995
Si Si8 0.198435 0.915416 0.278146
O O1 0.685567 0.805035 0.663649
O O2 0.421165 0.943426 0.485369
O O3 0.780242 0.058622 0.768674
O O4 0.712658 0.268262 0.952381
O O5 0.804454 0.213644 0.550285
O O6 0.749768 0.731637 0.236804
O O7 0.000000 0.000000 0.500000
O O8 0.601242 0.911895 0.138253
O O9 0.885008 0.604567 0.367015
O O10 0.000000 0.500000 0.500000
O O11 0.228783 0.905604 0.842750
O O12 0.879640 0.879747 0.626324
O O13 0.273845 0.379443 0.296715
O O14 0.368472 0.597734 0.384470
O O15 0.970618 0.348148 0.982786
O O16 0.500000 0.000000 0.000000
O O17 0.549608 0.321569 0.310781
O O18 0.500000 0.500000 0.000000
#
# Coordination Sequence:
#
# PCOD9032081 Si02
#       8
#     2   2   2   2   2   2   2   2
#     4  11  26  43  69 100 138 178 223 283 332 407
#     4  11  24  44  70  99 134 175 223 280 337 407
#     4  12  27  45  69 100 139 182 228 283 340 407
#     4  10  22  43  69  95 130 174 221 277 335 398
#     4  11  25  44  70 102 136 177 226 283 338 400
#     4  12  24  44  69 101 135 182 228 274 344 401
#     4  10  23  43  68  97 131 174 223 271 337 402
#     4  11  25  45  65 102 135 177 228 276 341 397
#
# _framework density 20.407050000000002
#
# number of rings (size 3 to 8) (size 9 to 14) (size 15 to 20)
#    0.000    1.000    2.500    3.000    3.500    5.000 
#    0.000    0.000    0.000    0.000    0.000    0.000 
#    0.000    0.000    0.000    0.000    0.000    0.000 
#
# Total GULP energy -89499.671934 kJ/mol
# GULP energy per Si atom -5593.729496 kJ/mol
# Density = 2.036060 g / cm^3
# Si number density = 20.407050 Si / 1000 Ang^3
#
#
#
# Elastic Constant Matrix: (Units=GPa)
#
#
# Indices 1 2 3 4 5 6 
#
# 1 101.4754 26.3602 27.4871 1.9826 -2.9956 4.4122
# 2 26.3602 89.9387 32.6947 6.2757 -0.0219 28.1937
# 3 27.4871 32.6947 98.8405 -3.8963 -5.8101 10.1660
# 4 1.9826 6.2757 -3.8963 31.8578 3.5483 11.3599
# 5 -2.9956 -0.0219 -5.8101 3.5483 39.4470 -3.6590
# 6 4.4122 28.1937 10.1660 11.3599 -3.6590 31.5468
#
#
#
# Elastic Compliance Matrix: (Units=1/GPa)
#
#
# Indices 1 2 3 4 5 6 
#
# 1 0.011254 -0.003165 -0.002356 -0.001396 0.000874 0.002618
# 2 -0.003165 0.018080 -0.003559 0.002018 -0.002380 -0.015571
# 3 -0.002356 -0.003559 0.012257 0.002650 0.001271 -0.001246
# 4 -0.001396 0.002018 0.002650 0.037853 -0.004662 -0.016633
# 5 0.000874 -0.002380 0.001271 -0.004662 0.026612 0.006361
# 6 0.002618 -0.015571 -0.001246 -0.016633 0.006361 0.052378
#
#
# Mechanical properties :
#
#
# Convention : Reuss Voigt Hill
#
# Bulk Modulus (GPa) = 42.67808 51.48209 47.08008
# Shear Modulus (GPa) = 27.11420 34.15117 30.63268
#
# Velocity S-wave (km/s) = 3.64904 4.09528 3.87858
# Velocity P-wave (km/s) = 6.22196 6.90247 6.57103
#
# Compressibility (1/GPa) = 0.02343123
#
# Stress axis : x y z
#
# Youngs Moduli (GPa) = 88.85594 55.30948 81.58582
#
# Poissons Ratio (x) = 0.17507 0.19219
# Poissons Ratio (y) = 0.28125 0.29038
# Poissons Ratio (z) = 0.20931 0.19686
#
# Static dielectric constant tensor:
#      x y z
#    x 1.628260 0.009520 0.012640 
#    y 0.009520 1.702660 -0.030340 
#    z 0.012640 -0.030340 1.693190 
# 
# From -- ./inp_files/332339.got.cif
#   From: 2010.05.17/outbox.cif.g08.bks.cpg/sg2_167_cif.got.tgz:332339.got - 2010.06.03 11:33:40.
