data_PCOD9032707
_publ_section_title
;
Structure prediction by ZEFSAII (Michael W. Deem and Ramdas Pophale) SiO2 
 PCOD9032707
Probable space group: P -1
;
_chemical_formula_sum "Si O2"
_cell_formula_units_Z 16
_cell_length_a 9.215684
_cell_length_b 18.880817
_cell_length_c 12.579639
_cell_angle_alpha 142.729109
_cell_angle_beta 141.662584
_cell_angle_gamma 34.582451
_cell_volume 697.192593
_symmetry_space_group_name_H-M "P -1"
_symmetry_group_IT_number 2
_symmetry_cell_setting 'triclinic'
loop_
_space_group_symop_operation_xyz
x,y,z
-x,-y,-z
loop_
_atom_site_type_symbol
_atom_site_label
_atom_site_fract_x
_atom_site_fract_y
_atom_site_fract_z
Si Si1 0.244489 0.541763 0.281673
Si Si2 0.272417 0.778114 0.059940
Si Si3 0.212289 0.772777 0.779657
Si Si4 0.206435 0.510351 0.986026
Si Si5 0.581102 0.888114 0.507316
Si Si6 0.588786 0.234122 0.323785
Si Si7 0.080432 0.241841 0.008066
Si Si8 0.287646 0.979159 0.672987
O O1 0.526317 0.388613 0.266740
O O2 0.314577 0.658554 0.480085
O O3 0.000553 0.545975 0.215002
O O4 0.123945 0.575100 0.133197
O O5 0.483186 0.614824 0.977297
O O6 0.425215 0.818069 0.282670
O O7 0.227345 0.828146 0.971297
O O8 0.991330 0.808406 0.987221
O O9 0.261827 0.845005 0.793935
O O10 0.910634 0.797882 0.611932
O O11 0.186672 0.628440 0.041677
O O12 0.455558 0.947916 0.622954
O O13 0.500000 0.000000 0.500000
O O14 0.266002 0.306300 0.206758
O O15 0.620764 0.139143 0.327344
O O16 0.232151 0.115434 0.863416
O O17 0.000000 0.000000 0.500000
#
# Coordination Sequence:
#
# PCOD9032707 Si02
#       8
#     2   2   2   2   2   2   2   2
#     4  10  22  43  73 109 139 192 240 296 365 427
#     4  11  26  47  70 111 144 187 243 301 370 420
#     4  11  25  46  73 107 144 186 245 301 357 432
#     4  10  22  44  75 104 145 183 243 302 358 429
#     4  12  28  48  77 104 146 192 241 304 359 434
#     4  12  25  43  75 104 145 193 238 301 357 437
#     4  12  25  45  70 103 146 189 238 299 363 433
#     4  12  26  49  69 103 142 192 245 290 366 434
#
# _framework density 22.949182
#
# number of rings (size 3 to 8) (size 9 to 14) (size 15 to 20)
#    0.000    0.750    2.500    4.125    3.500    0.500 
#    0.000    1.875    0.000    0.000    0.000    0.000 
#    0.000    0.000    0.000    0.000    0.000    0.000 
#
# Total GULP energy -89236.046124 kJ/mol
# GULP energy per Si atom -5577.252883 kJ/mol
# Density = 2.289695 g / cm^3
# Si number density = 22.949182 Si / 1000 Ang^3
#
#
#
# Elastic Constant Matrix: (Units=GPa)
#
#
# Indices 1 2 3 4 5 6 
#
# 1 163.2074 33.6334 37.3066 -7.0820 -20.1696 8.5620
# 2 33.6334 53.9518 14.0969 -4.0171 -11.9028 14.1768
# 3 37.3066 14.0969 90.0279 -4.8509 0.6513 2.2846
# 4 -7.0820 -4.0171 -4.8509 26.3944 -2.3260 4.9862
# 5 -20.1696 -11.9028 0.6513 -2.3260 39.8769 -13.0483
# 6 8.5620 14.1768 2.2846 4.9862 -13.0483 40.6705
#
#
#
# Elastic Compliance Matrix: (Units=1/GPa)
#
#
# Indices 1 2 3 4 5 6 
#
# 1 0.007902 -0.003578 -0.002686 0.001250 0.003250 0.000624
# 2 -0.003578 0.024140 -0.001931 0.003971 0.003383 -0.006954
# 3 -0.002686 -0.001931 0.012610 0.001170 -0.002174 -0.000311
# 4 0.001250 0.003971 0.001170 0.040361 0.002205 -0.005954
# 5 0.003250 0.003383 -0.002174 0.002205 0.030431 0.007752
# 6 0.000624 -0.006954 -0.000311 -0.005954 0.007752 0.030115
#
#
# Mechanical properties :
#
#
# Convention : Reuss Voigt Hill
#
# Bulk Modulus (GPa) = 35.38508 53.02899 44.20704
# Shear Modulus (GPa) = 29.17689 36.19837 32.68763
#
# Velocity S-wave (km/s) = 3.56949 3.97587 3.77815
# Velocity P-wave (km/s) = 5.69568 6.65086 6.19172
#
# Compressibility (1/GPa) = 0.02826050
#
# Stress axis : x y z
#
# Youngs Moduli (GPa) = 126.55641 41.42576 79.30342
#
# Poissons Ratio (x) = 0.14822 0.21301
# Poissons Ratio (y) = 0.45281 0.15315
# Poissons Ratio (z) = 0.33994 0.08000
#
# Static dielectric constant tensor:
#      x y z
#    x 1.892870 0.046560 -0.063110 
#    y 0.046560 1.788020 -0.093930 
#    z -0.063110 -0.093930 1.981870 
# 
# From -- ./inp_files/403440.got.cif
#   From: 2010.05.17/outbox.cif.g08.bks.cpg/sg2_202_cif.got.tgz:403440.got - 2010.06.03 11:33:40.
