data_PCOD9032352
_publ_section_title
;
Structure prediction by ZEFSAII (Michael W. Deem and Ramdas Pophale) SiO2 
 PCOD9032352
Probable space group: P -1
;
_chemical_formula_sum "Si O2"
_cell_formula_units_Z 16
_cell_length_a 12.299174
_cell_length_b 14.127590
_cell_length_c 5.506042
_cell_angle_alpha 57.705886
_cell_angle_beta 68.351689
_cell_angle_gamma 94.086719
_cell_volume 706.479492
_symmetry_space_group_name_H-M "P -1"
_symmetry_group_IT_number 2
_symmetry_cell_setting 'triclinic'
loop_
_space_group_symop_operation_xyz
x,y,z
-x,-y,-z
loop_
_atom_site_type_symbol
_atom_site_label
_atom_site_fract_x
_atom_site_fract_y
_atom_site_fract_z
Si Si1 0.067496 0.851821 0.052158
Si Si2 0.942265 0.406672 0.467663
Si Si3 0.571955 0.555590 0.114711
Si Si4 0.368461 0.779136 0.489419
Si Si5 0.516928 0.790441 0.854350
Si Si6 0.889268 0.945165 0.860002
Si Si7 0.200706 0.531908 0.860809
Si Si8 0.703916 0.002686 0.656533
O O1 0.084859 0.730142 0.271512
O O2 0.095928 0.948435 0.109894
O O3 0.170757 0.910961 0.685731
O O4 0.928990 0.840933 0.091372
O O5 0.818723 0.430435 0.448609
O O6 0.000000 0.500000 0.500000
O O7 0.062864 0.440321 0.146063
O O8 0.500000 0.500000 0.500000
O O9 0.699043 0.527268 0.071123
O O10 0.500000 0.500000 0.000000
O O11 0.585692 0.693877 0.908454
O O12 0.441574 0.786077 0.673184
O O13 0.244052 0.662305 0.773690
O O14 0.349925 0.905854 0.293902
O O15 0.437552 0.759927 0.213856
O O16 0.611958 0.922817 0.642717
O O17 0.752681 0.916189 0.901345
O O18 0.000000 0.000000 0.500000
#
# Coordination Sequence:
#
# PCOD9032352 Si02
#       8
#     2   2   2   2   2   2   2   2
#     4  10  22  43  70  98 144 178 235 296 356 434
#     4  11  26  44  72 109 138 190 245 296 369 431
#     4  12  25  48  74 104 144 195 242 299 362 428
#     4  12  26  47  72 101 148 184 241 302 358 431
#     4  12  27  46  71 107 141 189 243 293 362 432
#     4   9  21  41  65  97 137 180 228 287 364 419
#     4  11  26  45  73 102 146 187 244 301 366 428
#     4  11  25  40  71 102 139 186 234 293 365 428
#
# _framework density 22.647508999999999
#
# number of rings (size 3 to 8) (size 9 to 14) (size 15 to 20)
#    0.000    1.000    2.500    2.250    8.750    7.000 
#    0.000    0.000    0.000    0.000    0.000    0.000 
#    0.000    0.000    0.000    0.000    0.000    0.000 
#
# Total GULP energy -89316.946020 kJ/mol
# GULP energy per Si atom -5582.309126 kJ/mol
# Density = 2.259596 g / cm^3
# Si number density = 22.647509 Si / 1000 Ang^3
#
#
#
# Elastic Constant Matrix: (Units=GPa)
#
#
# Indices 1 2 3 4 5 6 
#
# 1 128.7277 37.2582 24.1565 6.0146 23.6770 11.1897
# 2 37.2582 92.7419 1.7002 1.3152 9.9014 -14.5372
# 3 24.1565 1.7002 50.4103 -0.3403 6.9590 -7.0515
# 4 6.0146 1.3152 -0.3403 33.7206 10.4111 2.1293
# 5 23.6770 9.9014 6.9590 10.4111 26.7165 0.6813
# 6 11.1897 -14.5372 -7.0515 2.1293 0.6813 38.3850
#
#
#
# Elastic Compliance Matrix: (Units=1/GPa)
#
#
# Indices 1 2 3 4 5 6 
#
# 1 0.012157 -0.004974 -0.005488 0.000724 -0.007621 -0.006341
# 2 -0.004974 0.014091 0.003228 0.000538 -0.002053 0.007386
# 3 -0.005488 0.003228 0.023839 0.001685 -0.003382 0.007168
# 4 0.000724 0.000538 0.001685 0.034093 -0.014531 -0.001331
# 5 -0.007621 -0.002053 -0.003382 -0.014531 0.051471 0.000715
# 6 -0.006341 0.007386 0.007168 -0.001331 0.000715 0.032075
#
#
# Mechanical properties :
#
#
# Convention : Reuss Voigt Hill
#
# Bulk Modulus (GPa) = 28.07356 44.23440 36.15398
# Shear Modulus (GPa) = 25.76450 33.68210 29.72330
#
# Velocity S-wave (km/s) = 3.37654 3.86065 3.62668
# Velocity P-wave (km/s) = 5.25587 6.28068 5.79098
#
# Compressibility (1/GPa) = 0.03562070
#
# Stress axis : x y z
#
# Youngs Moduli (GPa) = 82.25796 70.96763 41.94802
#
# Poissons Ratio (x) = 0.35298 0.23020
# Poissons Ratio (y) = 0.40913 -0.13543
# Poissons Ratio (z) = 0.45141 -0.22911
#
# Static dielectric constant tensor:
#      x y z
#    x 1.848200 0.031770 -0.020730 
#    y 0.031770 1.790440 0.100340 
#    z -0.020730 0.100340 2.010330 
# 
# From -- ./inp_files/76963.got.cif
#   From: 2010.05.17/outbox.cif.g08.bks.cpg/sg2_39_cif.got.tgz:76963.got - 2010.06.03 11:33:40.
