data_PCOD9032897
_publ_section_title
;
Structure prediction by ZEFSAII (Michael W. Deem and Ramdas Pophale) SiO2 
 PCOD9032897
Probable space group: P -1
;
_chemical_formula_sum "Si O2"
_cell_formula_units_Z 16
_cell_length_a 6.715630
_cell_length_b 16.144868
_cell_length_c 9.611113
_cell_angle_alpha 95.333400
_cell_angle_beta 45.143372
_cell_angle_gamma 85.312896
_cell_volume 719.304843
_symmetry_space_group_name_H-M "P -1"
_symmetry_group_IT_number 2
_symmetry_cell_setting 'triclinic'
loop_
_space_group_symop_operation_xyz
x,y,z
-x,-y,-z
loop_
_atom_site_type_symbol
_atom_site_label
_atom_site_fract_x
_atom_site_fract_y
_atom_site_fract_z
Si Si1 0.995453 0.577222 0.619012
Si Si2 0.972847 0.385404 0.093287
Si Si3 0.428427 0.072712 0.835163
Si Si4 0.502044 0.893488 0.882845
Si Si5 0.347666 0.681811 0.283971
Si Si6 0.811342 0.140872 0.468347
Si Si7 0.381300 0.588735 0.992439
Si Si8 0.825662 0.201170 0.161557
O O1 0.087892 0.557116 0.729760
O O2 0.660007 0.620250 0.803697
O O3 0.000000 0.500000 0.500000
O O4 0.190418 0.636362 0.469170
O O5 0.863105 0.298002 0.162341
O O6 0.812148 0.425902 0.042394
O O7 0.313095 0.357531 0.895069
O O8 0.646771 0.071616 0.599977
O O9 0.362736 0.980639 0.886106
O O10 0.561544 0.097463 0.920046
O O11 0.136799 0.141800 0.965134
O O12 0.844732 0.884678 0.700173
O O13 0.392737 0.817641 0.850427
O O14 0.290195 0.779517 0.366481
O O15 0.229327 0.657255 0.189863
O O16 0.736101 0.171408 0.352460
O O17 0.500000 0.500000 0.000000
#
# Coordination Sequence:
#
# PCOD9032897 Si02
#       8
#     2   2   2   2   2   2   2   2
#     4  11  24  47  67  97 131 166 215 269 327 393
#     4  11  26  42  69  95 134 171 218 270 330 387
#     4  10  22  44  62  93 137 175 214 271 322 385
#     4  10  24  39  67  95 132 177 218 264 329 380
#     4  11  24  44  65  96 130 170 213 274 325 386
#     4  11  23  40  66  94 135 165 225 270 317 385
#     4  11  26  46  67  98 130 169 217 268 327 397
#     4  11  23  40  63 100 127 171 222 269 321 386
#
# _framework density 22.243698999999999
#
# number of rings (size 3 to 8) (size 9 to 14) (size 15 to 20)
#    0.000    1.250    3.750    0.750    3.500    6.000 
#    0.000    0.000    0.000    0.000    0.000    0.000 
#    0.000    0.000    0.000    0.000    0.000    0.000 
#
# Total GULP energy -89504.640931 kJ/mol
# GULP energy per Si atom -5594.040058 kJ/mol
# Density = 2.219307 g / cm^3
# Si number density = 22.243699 Si / 1000 Ang^3
#
#
#
# Elastic Constant Matrix: (Units=GPa)
#
#
# Indices 1 2 3 4 5 6 
#
# 1 95.3744 21.6751 27.1719 -2.9065 22.8146 6.0034
# 2 21.6751 63.6888 17.3703 -12.6455 8.5668 -0.3748
# 3 27.1719 17.3703 101.5673 -20.7389 10.3759 0.9472
# 4 -2.9065 -12.6455 -20.7389 43.0554 7.2594 0.1569
# 5 22.8146 8.5668 10.3759 7.2594 19.6601 3.0963
# 6 6.0034 -0.3748 0.9472 0.1569 3.0963 30.7742
#
#
#
# Elastic Compliance Matrix: (Units=1/GPa)
#
#
# Indices 1 2 3 4 5 6 
#
# 1 0.015683 -0.002088 -0.001530 0.002620 -0.017242 -0.001316
# 2 -0.002088 0.018971 -0.000520 0.006561 -0.008219 0.001448
# 3 -0.001530 -0.000520 0.012510 0.006995 -0.007279 0.000604
# 4 0.002620 0.006561 0.006995 0.032363 -0.021758 0.001378
# 5 -0.017242 -0.008219 -0.007279 -0.021758 0.087144 -0.005169
# 6 -0.001316 0.001448 0.000604 0.001378 -0.005169 0.033264
#
#
# Mechanical properties :
#
#
# Convention : Reuss Voigt Hill
#
# Bulk Modulus (GPa) = 25.71516 43.67392 34.69454
# Shear Modulus (GPa) = 22.60686 31.65882 27.13284
#
# Velocity S-wave (km/s) = 3.19145 3.77672 3.49635
# Velocity P-wave (km/s) = 5.01659 6.22054 5.65072
#
# Compressibility (1/GPa) = 0.03888757
#
# Stress axis : x y z
#
# Youngs Moduli (GPa) = 63.76516 52.71311 79.93584
#
# Poissons Ratio (x) = 0.11008 0.12227
# Poissons Ratio (y) = 0.13316 0.04156
# Poissons Ratio (z) = 0.09754 0.02741
#
# Static dielectric constant tensor:
#      x y z
#    x 1.825750 0.013510 0.011160 
#    y 0.013510 1.853090 -0.012420 
#    z 0.011160 -0.012420 1.819810 
# 
# From -- ./inp_files/53599.got.cif
#   From: 2010.05.17/outbox.cif.g08.bks.cpg/sg2_27_cif.got.tgz:53599.got - 2010.06.03 11:33:40.
