data_PCOD9032122
_publ_section_title
;
Structure prediction by ZEFSAII (Michael W. Deem and Ramdas Pophale) SiO2 
 PCOD9032122
Probable space group: P -1
;
_chemical_formula_sum "Si O2"
_cell_formula_units_Z 16
_cell_length_a 9.447157
_cell_length_b 15.971806
_cell_length_c 15.432637
_cell_angle_alpha 28.356994
_cell_angle_beta 102.699068
_cell_angle_gamma 123.017468
_cell_volume 703.133021
_symmetry_space_group_name_H-M "P -1"
_symmetry_group_IT_number 2
_symmetry_cell_setting 'triclinic'
loop_
_space_group_symop_operation_xyz
x,y,z
-x,-y,-z
loop_
_atom_site_type_symbol
_atom_site_label
_atom_site_fract_x
_atom_site_fract_y
_atom_site_fract_z
Si Si1 0.766192 0.782833 0.789923
Si Si2 0.421965 0.100906 0.451872
Si Si3 0.069148 0.721330 0.873154
Si Si4 0.143064 0.382344 0.699495
Si Si5 0.151546 0.535707 0.751482
Si Si6 0.336444 0.677485 0.280103
Si Si7 0.849889 0.113088 0.651757
Si Si8 0.308560 0.137495 0.962630
O O1 0.763240 0.951532 0.571857
O O2 0.919822 0.759727 0.804020
O O3 0.856489 0.945888 0.744588
O O4 0.500000 0.500000 0.000000
O O5 0.659844 0.404071 0.229330
O O6 0.500000 0.000000 0.500000
O O7 0.321457 0.980161 0.643457
O O8 0.000000 0.500000 0.000000
O O9 0.042966 0.641939 0.042193
O O10 0.119530 0.433001 0.746138
O O11 0.301394 0.611087 0.438571
O O12 0.220650 0.254551 0.839673
O O13 0.893624 0.163653 0.828606
O O14 0.231549 0.806683 0.494674
O O15 0.086670 0.407390 0.452967
O O16 0.480929 0.678763 0.238682
O O17 0.500000 0.000000 0.000000
O O18 0.682845 0.918494 0.885898
#
# Coordination Sequence:
#
# PCOD9032122 Si02
#       8
#     2   2   2   2   2   2   2   2
#     4  12  24  47  74 100 146 193 239 301 358 425
#     4  12  24  46  66  98 139 185 234 297 356 417
#     4  12  25  44  70  99 138 189 241 295 358 430
#     4  10  23  42  68 100 137 182 229 297 357 431
#     4  12  24  42  67  99 138 180 236 288 362 422
#     4  11  23  43  70 103 139 181 232 292 362 433
#     4  11  25  43  68 105 139 186 238 293 356 434
#     4  10  22  43  69  97 141 178 232 292 359 430
#
# _framework density 22.755296999999999
#
# number of rings (size 3 to 8) (size 9 to 14) (size 15 to 20)
#    0.000    0.750    3.750    3.000    0.000    6.000 
#    2.250    0.000    0.000    0.000    0.000    0.000 
#    0.000    0.000    0.000    0.000    0.000    0.000 
#
# Total GULP energy -89104.651356 kJ/mol
# GULP energy per Si atom -5569.040710 kJ/mol
# Density = 2.270350 g / cm^3
# Si number density = 22.755297 Si / 1000 Ang^3
#
#
#
# Elastic Constant Matrix: (Units=GPa)
#
#
# Indices 1 2 3 4 5 6 
#
# 1 132.0426 45.6954 34.2085 17.1025 -3.3407 -23.3325
# 2 45.6954 141.8688 50.9503 22.4515 -0.1399 -33.9058
# 3 34.2085 50.9503 110.8286 31.6891 -20.2693 -13.6259
# 4 17.1025 22.4515 31.6891 51.7529 -12.7345 -1.8571
# 5 -3.3407 -0.1399 -20.2693 -12.7345 42.5353 5.3493
# 6 -23.3325 -33.9058 -13.6259 -1.8571 5.3493 33.7741
#
#
#
# Elastic Compliance Matrix: (Units=1/GPa)
#
#
# Indices 1 2 3 4 5 6 
#
# 1 0.009400 -0.001009 -0.001512 -0.001851 -0.001163 0.004953
# 2 -0.001009 0.011503 -0.003608 -0.003057 -0.003914 0.009847
# 3 -0.001512 -0.003608 0.013415 -0.004977 0.004808 -0.000289
# 4 -0.001851 -0.003057 -0.004977 0.025539 0.005858 -0.005880
# 5 -0.001163 -0.003914 0.004808 0.005858 0.028326 -0.006957
# 6 0.004953 0.009847 -0.000289 -0.005880 -0.006957 0.043578
#
#
# Mechanical properties :
#
#
# Convention : Reuss Voigt Hill
#
# Bulk Modulus (GPa) = 45.33014 71.82762 58.57888
# Shear Modulus (GPa) = 33.03163 42.53817 37.78490
#
# Velocity S-wave (km/s) = 3.81412 4.32832 4.07933
# Velocity P-wave (km/s) = 6.27381 7.52415 6.92725
#
# Compressibility (1/GPa) = 0.02206038
#
# Stress axis : x y z
#
# Youngs Moduli (GPa) = 106.38542 86.93546 74.54385
#
# Poissons Ratio (x) = 0.08773 0.11270
# Poissons Ratio (y) = 0.10736 0.26893
# Poissons Ratio (z) = 0.16083 0.31363
#
# Static dielectric constant tensor:
#      x y z
#    x 1.887140 0.046940 0.115330 
#    y 0.046940 1.523140 -0.665770 
#    z 0.115330 -0.665770 1.157470 
# 
# From -- ./inp_files/505028.got.cif
#   From: 2010.05.17/outbox.cif.g08.bks.cpg/sg2_253_cif.got.tgz:505028.got - 2010.06.03 11:33:40.
