data_PCOD9032625
_publ_section_title
;
Structure prediction by ZEFSAII (Michael W. Deem and Ramdas Pophale) SiO2 
 PCOD9032625
Probable space group: P -1
;
_chemical_formula_sum "Si O2"
_cell_formula_units_Z 16
_cell_length_a 26.465682
_cell_length_b 9.186064
_cell_length_c 11.515055
_cell_angle_alpha 40.782911
_cell_angle_beta 29.657099
_cell_angle_gamma 29.509400
_cell_volume 682.302633
_symmetry_space_group_name_H-M "P -1"
_symmetry_group_IT_number 2
_symmetry_cell_setting 'triclinic'
loop_
_space_group_symop_operation_xyz
x,y,z
-x,-y,-z
loop_
_atom_site_type_symbol
_atom_site_label
_atom_site_fract_x
_atom_site_fract_y
_atom_site_fract_z
Si Si1 0.956862 0.249057 0.702859
Si Si2 0.477704 0.196577 0.535886
Si Si3 0.813461 0.540105 0.058046
Si Si4 0.654427 0.627389 0.680661
Si Si5 0.935611 0.358142 0.182139
Si Si6 0.693569 0.792476 0.821566
Si Si7 0.541946 0.622313 0.153425
Si Si8 0.263515 0.942574 0.223160
O O1 0.854573 0.531022 0.653541
O O2 0.909115 0.357999 0.865236
O O3 0.955262 0.996109 0.818342
O O4 0.112178 0.097655 0.471890
O O5 0.314715 0.436148 0.720069
O O6 0.531208 0.373335 0.323634
O O7 0.500000 0.000000 0.500000
O O8 0.558325 0.950324 0.623486
O O9 0.879364 0.423906 0.122364
O O10 0.757697 0.874494 0.958009
O O11 0.809234 0.487453 0.441352
O O12 0.651806 0.401863 0.748298
O O13 0.613901 0.604989 0.902267
O O14 0.000000 0.500000 0.000000
O O15 0.607751 0.050372 0.741925
O O16 0.671935 0.981460 0.861123
O O17 0.631570 0.634287 0.058308
#
# Coordination Sequence:
#
# PCOD9032625 Si02
#       8
#     2   2   2   2   2   2   2   2
#     4  10  23  43  70  94 133 178 225 278 325 407
#     4  12  24  42  71  99 136 178 226 277 325 402
#     4  11  22  43  66 100 129 181 227 274 335 386
#     4  11  24  44  69 102 131 181 225 269 339 395
#     4  11  26  43  63 102 137 171 223 278 337 402
#     4  10  22  44  66  99 132 172 223 274 339 384
#     4  11  26  44  69  99 141 173 220 284 333 398
#     4  10  22  43  72  97 133 177 231 273 325 409
#
# _framework density 23.450005999999998
#
# number of rings (size 3 to 8) (size 9 to 14) (size 15 to 20)
#    0.000    1.250    1.250    4.875    3.500    3.500 
#    6.750    7.500    0.000    0.000    0.000    0.000 
#    0.000    0.000    0.000    0.000    0.000    0.000 
#
# Total GULP energy -89432.124181 kJ/mol
# GULP energy per Si atom -5589.507761 kJ/mol
# Density = 2.339663 g / cm^3
# Si number density = 23.450006 Si / 1000 Ang^3
#
#
#
# Elastic Constant Matrix: (Units=GPa)
#
#
# Indices 1 2 3 4 5 6 
#
# 1 81.4466 49.1140 43.0485 -4.4219 -20.4844 17.1350
# 2 49.1140 125.3755 58.2480 -23.5179 -21.4284 18.2374
# 3 43.0485 58.2480 124.6666 -16.5005 -19.4283 24.4784
# 4 -4.4219 -23.5179 -16.5005 45.9400 11.8582 -14.7081
# 5 -20.4844 -21.4284 -19.4283 11.8582 32.2573 -13.0593
# 6 17.1350 18.2374 24.4784 -14.7081 -13.0593 34.7300
#
#
#
# Elastic Compliance Matrix: (Units=1/GPa)
#
#
# Indices 1 2 3 4 5 6 
#
# 1 0.019507 -0.005393 -0.002951 -0.005145 0.007230 -0.004173
# 2 -0.005393 0.012667 -0.003377 0.004640 0.001644 0.000972
# 3 -0.002951 -0.003377 0.011707 0.000526 0.000941 -0.004446
# 4 -0.005145 0.004640 0.000526 0.028523 -0.006573 0.009339
# 5 0.007230 0.001644 0.000941 -0.006573 0.043028 0.008303
# 6 -0.004173 0.000972 -0.004446 0.009339 0.008303 0.040552
#
#
# Mechanical properties :
#
#
# Convention : Reuss Voigt Hill
#
# Bulk Modulus (GPa) = 48.92466 70.25665 59.59065
# Shear Modulus (GPa) = 26.84704 34.65735 30.75219
#
# Velocity S-wave (km/s) = 3.38725 3.84855 3.62525
# Velocity P-wave (km/s) = 6.01720 7.05505 6.55669
#
# Compressibility (1/GPa) = 0.02043959
#
# Stress axis : x y z
#
# Youngs Moduli (GPa) = 51.26455 78.94247 85.41607
#
# Poissons Ratio (x) = 0.42573 0.25207
# Poissons Ratio (y) = 0.27647 0.28844
# Poissons Ratio (z) = 0.15129 0.26658
#
# Static dielectric constant tensor:
#      x y z
#    x 1.952750 -0.011200 0.027120 
#    y -0.011200 1.910610 0.010450 
#    z 0.027120 0.010450 1.920900 
# 
# From -- ./inp_files/476364.got.cif
#   From: 2010.05.17/outbox.cif.g08.bks.cpg/sg2_239_cif.got.tgz:476364.got - 2010.06.03 11:33:40.
