data_PCOD9032631
_publ_section_title
;
Structure prediction by ZEFSAII (Michael W. Deem and Ramdas Pophale) SiO2 
 PCOD9032631
Probable space group: P -1
;
_chemical_formula_sum "Si O2"
_cell_formula_units_Z 14
_cell_length_a 11.484098
_cell_length_b 12.025413
_cell_length_c 9.175535
_cell_angle_alpha 128.178611
_cell_angle_beta 60.752996
_cell_angle_gamma 140.441452
_cell_volume 634.194236
_symmetry_space_group_name_H-M "P -1"
_symmetry_group_IT_number 2
_symmetry_cell_setting 'triclinic'
loop_
_space_group_symop_operation_xyz
x,y,z
-x,-y,-z
loop_
_atom_site_type_symbol
_atom_site_label
_atom_site_fract_x
_atom_site_fract_y
_atom_site_fract_z
Si Si1 0.979055 0.195515 0.031444
Si Si2 0.968842 0.876910 0.733067
Si Si3 0.482742 0.357229 0.777952
Si Si4 0.256292 0.944515 0.468269
Si Si5 0.538646 0.596302 0.705873
Si Si6 0.167584 0.578280 0.350151
Si Si7 0.380881 0.048275 0.139891
O O1 0.971103 0.153563 0.176465
O O2 0.087733 0.420761 0.143570
O O3 0.048919 0.093971 0.851805
O O4 0.796913 0.087810 0.963969
O O5 0.749858 0.735750 0.743584
O O6 0.044971 0.839357 0.524153
O O7 0.420380 0.411433 0.729689
O O8 0.675985 0.414490 0.677712
O O9 0.353083 0.124957 0.668023
O O10 0.500000 0.500000 0.000000
O O11 0.260037 0.787312 0.399213
O O12 0.331523 0.020341 0.320029
O O13 0.500000 0.500000 0.500000
O O14 0.506506 0.737213 0.817547
O O15 0.000000 0.500000 0.500000
O O16 0.500000 0.000000 0.000000
#
# Coordination Sequence:
#
# PCOD9032631 Si02
#       7
#     2   2   2   2   2   2   2
#     4  10  22  43  72  97 138 191 233 287 353 421
#     4  10  22  45  73 100 135 185 250 286 350 426
#     4  12  27  45  73 107 139 188 247 294 353 429
#     4  12  26  44  70 109 142 184 237 300 356 429
#     4  11  23  48  72  98 140 189 230 294 355 424
#     4  12  25  44  73 104 143 188 239 300 355 423
#     4  11  28  44  68 104 150 185 228 298 368 420
#
# _framework density 22.075256
#
# number of rings (size 3 to 8) (size 9 to 14) (size 15 to 20)
#    0.000    0.857    4.286    1.286    8.000    4.000 
#    2.571    0.000    0.000    0.000    0.000    0.000 
#    0.000    0.000    0.000    0.000    0.000    0.000 
#
# Total GULP energy -77947.306291 kJ/mol
# GULP energy per Si atom -5567.664735 kJ/mol
# Density = 2.202501 g / cm^3
# Si number density = 22.075256 Si / 1000 Ang^3
#
#
#
# Elastic Constant Matrix: (Units=GPa)
#
#
# Indices 1 2 3 4 5 6 
#
# 1 108.5961 40.5634 59.2285 3.9517 -27.1535 -27.7179
# 2 40.5634 106.9855 35.9239 30.3604 -16.4360 -30.5423
# 3 59.2285 35.9239 90.8864 24.1658 -13.7951 -17.8132
# 4 3.9517 30.3604 24.1658 53.8237 -5.0302 -15.0431
# 5 -27.1535 -16.4360 -13.7951 -5.0302 48.7485 7.3965
# 6 -27.7179 -30.5423 -17.8132 -15.0431 7.3965 38.1195
#
#
#
# Elastic Compliance Matrix: (Units=1/GPa)
#
#
# Indices 1 2 3 4 5 6 
#
# 1 0.020122 -0.002453 -0.011534 0.008290 0.006566 0.009274
# 2 -0.002453 0.014343 -0.001070 -0.005388 0.001583 0.006775
# 3 -0.011534 -0.001070 0.020473 -0.008664 -0.001459 -0.002813
# 4 0.008290 -0.005388 -0.008664 0.027338 0.001945 0.008073
# 5 0.006566 0.001583 -0.001459 0.001945 0.024277 0.001418
# 6 0.009274 0.006775 -0.002813 0.008073 0.001418 0.040001
#
#
# Mechanical properties :
#
#
# Convention : Reuss Voigt Hill
#
# Bulk Modulus (GPa) = 40.28213 64.21105 52.24659
# Shear Modulus (GPa) = 27.03549 39.52183 33.27866
#
# Velocity S-wave (km/s) = 3.50336 4.23581 3.88688
# Velocity P-wave (km/s) = 5.88659 7.28514 6.62289
#
# Compressibility (1/GPa) = 0.02482490
#
# Stress axis : x y z
#
# Youngs Moduli (GPa) = 49.69599 69.72224 48.84511
#
# Poissons Ratio (x) = 0.17102 0.56337
# Poissons Ratio (y) = 0.12190 0.05226
# Poissons Ratio (z) = 0.57318 0.07459
#
# Static dielectric constant tensor:
#      x y z
#    x 1.887480 0.140410 0.000000 
#    y 0.140410 1.971450 0.047640 
#    z 0.000000 0.047640 1.798280 
# 
# From -- ./inp_files/238287.got.cif
#   From: 2010.05.17/outbox.cif.g08.bks.cpg/sg2_120_cif.got.tgz:238287.got - 2010.06.03 11:33:40.
