data_PCOD9032276
_publ_section_title
;
Structure prediction by ZEFSAII (Michael W. Deem and Ramdas Pophale) SiO2 
 PCOD9032276
Probable space group: P -1
;
_chemical_formula_sum "Si O2"
_cell_formula_units_Z 16
_cell_length_a 9.602995
_cell_length_b 15.593389
_cell_length_c 14.429704
_cell_angle_alpha 41.261515
_cell_angle_beta 134.894831
_cell_angle_gamma 143.641298
_cell_volume 816.446582
_symmetry_space_group_name_H-M "P -1"
_symmetry_group_IT_number 2
_symmetry_cell_setting 'triclinic'
loop_
_space_group_symop_operation_xyz
x,y,z
-x,-y,-z
loop_
_atom_site_type_symbol
_atom_site_label
_atom_site_fract_x
_atom_site_fract_y
_atom_site_fract_z
Si Si1 0.489483 0.752887 0.561235
Si Si2 0.401775 0.153665 0.166100
Si Si3 0.800915 0.112877 0.471354
Si Si4 0.179473 0.459060 0.333299
Si Si5 0.635206 0.649598 0.873739
Si Si6 0.906420 0.188632 0.678273
Si Si7 0.615461 0.515547 0.394868
Si Si8 0.843145 0.482888 0.029391
O O1 0.454393 0.659395 0.715328
O O2 0.257450 0.749059 0.430699
O O3 0.521958 0.655002 0.580438
O O4 0.709012 0.938815 0.532479
O O5 0.587292 0.132570 0.329363
O O6 0.265369 0.202047 0.130442
O O7 0.584820 0.304950 0.061876
O O8 0.202155 0.973569 0.182759
O O9 0.857411 0.134803 0.589750
O O10 0.037257 0.266900 0.410290
O O11 0.426160 0.545850 0.320896
O O12 0.244047 0.490352 0.446070
O O13 0.002617 0.499728 0.178804
O O14 0.500000 0.500000 0.000000
O O15 0.796395 0.618810 0.909189
O O16 0.186108 0.337504 0.696031
O O17 0.000000 0.500000 0.000000
#
# Coordination Sequence:
#
# PCOD9032276 Si02
#       8
#     2   2   2   2   2   2   2   2
#     4  11  18  31  53  90 103 128 184 225 274 310
#     4   9  16  32  54  81 102 136 182 217 273 307
#     4   9  16  30  58  78 108 133 169 239 268 301
#     4   9  20  38  51  78 107 148 175 209 286 318
#     4  10  19  30  54  83 105 139 178 224 255 316
#     4  10  17  32  54  81 111 138 163 231 274 312
#     4  10  21  32  54  80 112 141 171 221 274 329
#     4  10  20  34  56  80 109 141 180 229 259 314
#
# _framework density 19.597117999999998
#
# number of rings (size 3 to 8) (size 9 to 14) (size 15 to 20)
#    0.000    2.250    2.500    1.875    1.750    0.500 
#    0.000    1.250    0.000    7.500    3.250    0.000 
#    0.000    0.000    0.000    0.000    0.000    0.000 
#
# Total GULP energy -89108.340848 kJ/mol
# GULP energy per Si atom -5569.271303 kJ/mol
# Density = 1.955251 g / cm^3
# Si number density = 19.597118 Si / 1000 Ang^3
#
#
#
# Elastic Constant Matrix: (Units=GPa)
#
#
# Indices 1 2 3 4 5 6 
#
# 1 75.6535 12.1100 10.6116 -13.5968 1.6409 -3.0553
# 2 12.1100 44.3128 17.1622 -9.7428 -1.5821 -10.9780
# 3 10.6116 17.1622 60.4277 -15.1073 8.4435 -2.7429
# 4 -13.5968 -9.7428 -15.1073 20.1613 -1.3428 3.3885
# 5 1.6409 -1.5821 8.4435 -1.3428 12.6168 -6.4960
# 6 -3.0553 -10.9780 -2.7429 3.3885 -6.4960 28.1550
#
#
#
# Elastic Compliance Matrix: (Units=1/GPa)
#
#
# Indices 1 2 3 4 5 6 
#
# 1 0.015275 -0.002695 0.000759 0.009582 -0.002333 -0.001011
# 2 -0.002695 0.032641 -0.009373 0.005644 0.019177 0.015267
# 3 0.000759 -0.009373 0.025323 0.014872 -0.020573 -0.007642
# 4 0.009582 0.005644 0.014872 0.070413 -0.005613 -0.005080
# 5 -0.002333 0.019177 -0.020573 -0.005613 0.111407 0.031600
# 6 -0.001011 0.015267 -0.007642 -0.005080 0.031600 0.048518
#
#
# Mechanical properties :
#
#
# Convention : Reuss Voigt Hill
#
# Bulk Modulus (GPa) = 19.75466 28.90683 24.33074
# Shear Modulus (GPa) = 14.57424 21.55398 18.06411
#
# Velocity S-wave (km/s) = 2.73003 3.32000 3.03937
# Velocity P-wave (km/s) = 4.47657 5.42947 4.97588
#
# Compressibility (1/GPa) = 0.05062098
#
# Stress axis : x y z
#
# Youngs Moduli (GPa) = 65.46600 30.63600 39.48950
#
# Poissons Ratio (x) = 0.08257 -0.02996
# Poissons Ratio (y) = 0.17645 0.37013
# Poissons Ratio (z) = -0.04967 0.28715
#
# Static dielectric constant tensor:
#      x y z
#    x 1.708120 0.004880 -0.024880 
#    y 0.004880 1.734220 -0.001420 
#    z -0.024880 -0.001420 1.723850 
# 
# From -- ./inp_files/239080.got.cif
#   From: 2010.05.17/outbox.cif.g08.bks.cpg/sg2_120_cif.got.tgz:239080.got - 2010.06.03 11:33:40.
