data_PCOD9032051
_publ_section_title
;
Structure prediction by ZEFSAII (Michael W. Deem and Ramdas Pophale) SiO2 
 PCOD9032051
Probable space group: P -1
;
_chemical_formula_sum "Si O2"
_cell_formula_units_Z 14
_cell_length_a 8.195681
_cell_length_b 18.114301
_cell_length_c 16.062871
_cell_angle_alpha 156.620657
_cell_angle_beta 129.203794
_cell_angle_gamma 37.736140
_cell_volume 534.181268
_symmetry_space_group_name_H-M "P -1"
_symmetry_group_IT_number 2
_symmetry_cell_setting 'triclinic'
loop_
_space_group_symop_operation_xyz
x,y,z
-x,-y,-z
loop_
_atom_site_type_symbol
_atom_site_label
_atom_site_fract_x
_atom_site_fract_y
_atom_site_fract_z
Si Si1 0.892300 0.732649 0.592933
Si Si2 0.624718 0.217016 0.760328
Si Si3 0.690730 0.065033 0.442206
Si Si4 0.452139 0.509723 0.278630
Si Si5 0.996577 0.536362 0.938610
Si Si6 0.902171 0.803773 0.854807
Si Si7 0.844141 0.131143 0.299092
O O1 0.607726 0.867284 0.586815
O O2 0.031003 0.446970 0.357211
O O3 0.793031 0.865537 0.789269
O O4 0.097481 0.744229 0.620453
O O5 0.759155 0.055390 0.551023
O O6 0.861339 0.069089 0.757391
O O7 0.317247 0.302212 0.767075
O O8 0.500000 0.500000 0.000000
O O9 0.632364 0.303154 0.631038
O O10 0.897971 0.812271 0.189863
O O11 0.245784 0.457204 0.166479
O O12 0.789736 0.272616 0.130761
O O13 0.401485 0.662055 0.501796
O O14 0.000000 0.500000 0.000000
O O15 0.750721 0.005215 0.088316
#
# Coordination Sequence:
#
# PCOD9032051 Si02
#       7
#     2   2   2   2   2   2   2
#     4  10  22  43  69  92 126 170 211 261 321 381
#     4  12  25  42  66  95 133 174 212 260 317 380
#     4  11  24  44  63  91 132 170 209 259 319 375
#     4  11  25  41  64  96 126 165 216 262 313 379
#     4  12  24  39  62  92 126 167 213 258 308 372
#     4  10  23  46  66  92 131 165 208 268 322 376
#     4  12  24  41  66  95 126 168 214 262 319 376
#
# _framework density 26.208333
#
# number of rings (size 3 to 8) (size 9 to 14) (size 15 to 20)
#    0.000    0.857    0.000    8.143    0.000    5.143 
#    0.000   10.714    0.000    0.000    0.000    0.000 
#    0.000    0.000    0.000    0.000    0.000    0.000 
#
# Total GULP energy -78530.662342 kJ/mol
# GULP energy per Si atom -5609.333024 kJ/mol
# Density = 2.614868 g / cm^3
# Si number density = 26.208333 Si / 1000 Ang^3
#
#
#
# Elastic Constant Matrix: (Units=GPa)
#
#
# Indices 1 2 3 4 5 6 
#
# 1 67.1051 24.1098 35.7837 -4.4910 7.3098 6.9513
# 2 24.1098 81.9630 14.7664 -24.0888 8.7205 4.0950
# 3 35.7837 14.7664 121.4976 -28.4138 -7.6741 10.6038
# 4 -4.4910 -24.0888 -28.4138 51.0467 6.0279 -5.7497
# 5 7.3098 8.7205 -7.6741 6.0279 49.1569 -3.3475
# 6 6.9513 4.0950 10.6038 -5.7497 -3.3475 50.1883
#
#
#
# Elastic Compliance Matrix: (Units=1/GPa)
#
#
# Indices 1 2 3 4 5 6 
#
# 1 0.020569 -0.005825 -0.006390 -0.004380 -0.002602 -0.001699
# 2 -0.005825 0.016418 0.001513 0.008404 -0.002846 -0.000079
# 3 -0.006390 0.001513 0.011583 0.006307 0.001659 -0.000852
# 4 -0.004380 0.008404 0.006307 0.027215 -0.003090 0.001500
# 5 -0.002602 -0.002846 0.001659 -0.003090 0.021965 0.001353
# 6 -0.001699 -0.000079 -0.000852 0.001500 0.001353 0.020609
#
#
# Mechanical properties :
#
#
# Convention : Reuss Voigt Hill
#
# Bulk Modulus (GPa) = 36.81189 46.65395 41.73292
# Shear Modulus (GPa) = 33.59788 43.13877 38.36833
#
# Velocity S-wave (km/s) = 3.58432 4.06149 3.83034
# Velocity P-wave (km/s) = 5.58625 6.31142 5.95988
#
# Compressibility (1/GPa) = 0.02716514
#
# Stress axis : x y z
#
# Youngs Moduli (GPa) = 48.61770 60.90746 86.33303
#
# Poissons Ratio (x) = 0.35477 0.55171
# Poissons Ratio (y) = 0.28319 -0.13060
# Poissons Ratio (z) = 0.31069 -0.09214
#
# Static dielectric constant tensor:
#      x y z
#    x 2.062400 -0.064750 0.053650 
#    y -0.064750 2.073310 0.024810 
#    z 0.053650 0.024810 2.081710 
# 
# From -- ./inp_files/429159.got.cif
#   From: 2010.05.17/outbox.cif.g08.bks.cpg/sg2_215_cif.got.tgz:429159.got - 2010.06.03 11:33:40.
