data_PCOD9032604
_publ_section_title
;
Structure prediction by ZEFSAII (Michael W. Deem and Ramdas Pophale) SiO2 
 PCOD9032604
Probable space group: P -1
;
_chemical_formula_sum "Si O2"
_cell_formula_units_Z 12
_cell_length_a 9.432512
_cell_length_b 12.563333
_cell_length_c 8.395953
_cell_angle_alpha 102.202116
_cell_angle_beta 108.773528
_cell_angle_gamma 131.576005
_cell_volume 563.788164
_symmetry_space_group_name_H-M "P -1"
_symmetry_group_IT_number 2
_symmetry_cell_setting 'triclinic'
loop_
_space_group_symop_operation_xyz
x,y,z
-x,-y,-z
loop_
_atom_site_type_symbol
_atom_site_label
_atom_site_fract_x
_atom_site_fract_y
_atom_site_fract_z
Si Si1 0.707407 0.034092 0.150458
Si Si2 0.550085 0.724328 0.133027
Si Si3 0.251625 0.839940 0.450301
Si Si4 0.769937 0.641607 0.723064
Si Si5 0.206207 0.588679 0.234175
Si Si6 0.797593 0.680487 0.106545
O O1 0.764995 0.113065 0.371793
O O2 0.973289 0.172645 0.205030
O O3 0.584140 0.843985 0.064794
O O4 0.500000 0.000000 0.000000
O O5 0.454082 0.718519 0.261294
O O6 0.785442 0.781940 0.240701
O O7 0.362965 0.516937 0.956456
O O8 0.208277 0.686023 0.392187
O O9 0.063103 0.785026 0.244229
O O10 0.500000 0.000000 0.500000
O O11 0.500000 0.500000 0.500000
O O12 0.824484 0.544887 0.738481
O O13 0.739443 0.672603 0.899726
O O14 0.000000 0.500000 0.000000
#
# Coordination Sequence:
#
# PCOD9032604 Si02
#       6
#     2   2   2   2   2   2
#     4  12  27  43  68 105 144 175 230 293 350 398
#     4  10  22  43  72  93 135 178 231 280 332 413
#     4  12  24  41  73 101 127 185 239 275 335 417
#     4  11  26  42  68 105 145 174 223 295 356 395
#     4  11  21  44  71  95 139 183 232 281 336 421
#     4  10  24  45  71  95 133 185 236 270 347 417
#
# _framework density 21.284589
#
# number of rings (size 3 to 8) (size 9 to 14) (size 15 to 20)
#    0.000    1.000    5.000    2.000    7.000    4.667 
#    0.000    0.000    0.000    0.000    0.000    0.000 
#    0.000    0.000    0.000    0.000    0.000    0.000 
#
# Total GULP energy -66864.681965 kJ/mol
# GULP energy per Si atom -5572.056830 kJ/mol
# Density = 2.123614 g / cm^3
# Si number density = 21.284589 Si / 1000 Ang^3
#
#
#
# Elastic Constant Matrix: (Units=GPa)
#
#
# Indices 1 2 3 4 5 6 
#
# 1 124.9053 41.2150 25.9104 3.7474 -3.1944 -4.2980
# 2 41.2150 120.0032 25.3432 2.6325 9.7866 6.5679
# 3 25.9104 25.3432 76.8270 -8.4841 -0.0160 -0.5845
# 4 3.7474 2.6325 -8.4841 15.9671 1.8032 -1.4837
# 5 -3.1944 9.7866 -0.0160 1.8032 30.8470 -5.5340
# 6 -4.2980 6.5679 -0.5845 -1.4837 -5.5340 46.4236
#
#
#
# Elastic Compliance Matrix: (Units=1/GPa)
#
#
# Indices 1 2 3 4 5 6 
#
# 1 0.009759 -0.002994 -0.002662 -0.003347 0.002420 0.001475
# 2 -0.002994 0.010425 -0.002693 -0.002221 -0.003906 -0.002323
# 3 -0.002662 -0.002693 0.015861 0.009541 0.000147 0.000657
# 4 -0.003347 -0.002221 0.009541 0.069408 -0.003345 0.001944
# 5 0.002420 -0.003906 0.000147 -0.003345 0.034972 0.004840
# 6 0.001475 -0.002323 0.000657 0.001944 0.004840 0.022653
#
#
# Mechanical properties :
#
#
# Convention : Reuss Voigt Hill
#
# Bulk Modulus (GPa) = 51.68664 56.29697 53.99181
# Shear Modulus (GPa) = 26.84933 33.93199 30.39066
#
# Velocity S-wave (km/s) = 3.55554 3.99708 3.78276
# Velocity P-wave (km/s) = 6.41811 6.91442 6.67088
#
# Compressibility (1/GPa) = 0.01934736
#
# Stress axis : x y z
#
# Youngs Moduli (GPa) = 102.46645 95.92740 63.04879
#
# Poissons Ratio (x) = 0.28724 0.16781
# Poissons Ratio (y) = 0.30682 0.16977
# Poissons Ratio (z) = 0.27272 0.25830
#
# Static dielectric constant tensor:
#      x y z
#    x 1.899880 -0.038100 0.024380 
#    y -0.038100 1.796810 0.045080 
#    z 0.024380 0.045080 1.796620 
# 
# From -- ./inp_files/180645.got.cif
#   From: 2010.05.17/outbox.cif.g08.bks.cpg/sg2_91_cif.got.tgz:180645.got - 2010.06.03 11:33:40.
