data_PCOD9032541
_publ_section_title
;
Structure prediction by ZEFSAII (Michael W. Deem and Ramdas Pophale) SiO2 
 PCOD9032541
Probable space group: P -1
;
_chemical_formula_sum "Si O2"
_cell_formula_units_Z 16
_cell_length_a 9.403962
_cell_length_b 16.714299
_cell_length_c 5.622642
_cell_angle_alpha 53.083260
_cell_angle_beta 82.244918
_cell_angle_gamma 101.637755
_cell_volume 653.998589
_symmetry_space_group_name_H-M "P -1"
_symmetry_group_IT_number 2
_symmetry_cell_setting 'triclinic'
loop_
_space_group_symop_operation_xyz
x,y,z
-x,-y,-z
loop_
_atom_site_type_symbol
_atom_site_label
_atom_site_fract_x
_atom_site_fract_y
_atom_site_fract_z
Si Si1 0.422640 0.945939 0.867630
Si Si2 0.545209 0.461275 0.307956
Si Si3 0.438472 0.747703 0.471574
Si Si4 0.192040 0.378325 0.839837
Si Si5 0.071378 0.259802 0.684690
Si Si6 0.899268 0.033195 0.165234
Si Si7 0.274862 0.195562 0.365689
Si Si8 0.085089 0.627301 0.811933
O O1 0.250847 0.946084 0.930737
O O2 0.500000 0.000000 0.500000
O O3 0.428937 0.828950 0.124025
O O4 0.500000 0.000000 0.000000
O O5 0.500000 0.500000 0.500000
O O6 0.502863 0.337022 0.516421
O O7 0.727139 0.518244 0.208033
O O8 0.500000 0.500000 0.000000
O O9 0.563301 0.797523 0.565452
O O10 0.267430 0.677771 0.730568
O O11 0.187048 0.370441 0.573446
O O12 0.273750 0.293681 0.031751
O O13 0.012934 0.346337 0.999901
O O14 0.170000 0.217669 0.557961
O O15 0.946590 0.299519 0.519571
O O16 0.992883 0.149608 0.049073
O O17 0.815803 0.920773 0.521455
O O18 0.000000 0.000000 0.000000
O O19 0.000000 0.500000 0.000000
#
# Coordination Sequence:
#
# PCOD9032541 Si02
#       8
#     2   2   2   2   2   2   2   2
#     4  12  28  51  78 116 162 206 265 333 402 473
#     4  12  27  47  76 114 152 202 260 321 390 465
#     4  12  24  48  77 110 157 202 263 325 397 460
#     4  11  24  43  69 103 147 196 252 316 377 472
#     4  10  23  44  66 102 147 192 253 311 382 460
#     4  10  22  47  72 108 152 202 257 317 393 470
#     4  10  22  43  72 101 142 193 255 308 383 457
#     4  11  24  44  68 103 149 195 251 313 393 464
#
# _framework density 24.464886
#
# number of rings (size 3 to 8) (size 9 to 14) (size 15 to 20)
#    0.000    1.000    5.000    0.750    1.750    5.000 
#    2.250    0.000    0.000    0.000    0.000    0.000 
#    0.000    0.000    0.000    0.000    0.000    0.000 
#
# Total GULP energy -89070.794991 kJ/mol
# GULP energy per Si atom -5566.924687 kJ/mol
# Density = 2.440920 g / cm^3
# Si number density = 24.464886 Si / 1000 Ang^3
#
#
#
# Elastic Constant Matrix: (Units=GPa)
#
#
# Indices 1 2 3 4 5 6 
#
# 1 139.2052 14.1967 45.7913 1.9122 1.6173 -9.2182
# 2 14.1967 106.4969 45.6666 -15.5769 -1.8240 -1.8372
# 3 45.7913 45.6666 81.8502 -18.0374 -11.2162 -14.0207
# 4 1.9122 -15.5769 -18.0374 42.4918 -0.6201 5.2013
# 5 1.6173 -1.8240 -11.2162 -0.6201 26.5659 -8.9817
# 6 -9.2182 -1.8372 -14.0207 5.2013 -8.9817 36.2836
#
#
#
# Elastic Compliance Matrix: (Units=1/GPa)
#
#
# Indices 1 2 3 4 5 6 
#
# 1 0.009538 0.001424 -0.007526 -0.003041 -0.004064 -0.000983
# 2 0.001424 0.013136 -0.009054 0.001300 -0.004230 -0.003705
# 3 -0.007526 -0.009054 0.027006 0.007390 0.015038 0.010729
# 4 -0.003041 0.001300 0.007390 0.027444 0.003745 -0.000858
# 5 -0.004064 -0.004230 0.015038 0.003745 0.049544 0.016292
# 6 -0.000983 -0.003705 0.010729 -0.000858 0.016292 0.035425
#
#
# Mechanical properties :
#
#
# Convention : Reuss Voigt Hill
#
# Bulk Modulus (GPa) = 51.62696 59.87349 55.75022
# Shear Modulus (GPa) = 25.14321 35.86144 30.50232
#
# Velocity S-wave (km/s) = 3.20929 3.83277 3.53481
# Velocity P-wave (km/s) = 5.90602 6.64178 6.28468
#
# Compressibility (1/GPa) = 0.01936973
#
# Stress axis : x y z
#
# Youngs Moduli (GPa) = 104.84411 76.12602 37.02835
#
# Poissons Ratio (x) = -0.10844 0.27868
# Poissons Ratio (y) = -0.14935 0.33524
# Poissons Ratio (z) = 0.78907 0.68922
#
# Static dielectric constant tensor:
#      x y z
#    x 2.129390 0.084940 -0.215430 
#    y 0.084940 2.028050 0.013240 
#    z -0.215430 0.013240 2.280980 
# 
# From -- ./inp_files/46308.got.cif
#   From: 2010.05.17/outbox.cif.g08.bks.cpg/sg2_24_cif.got.tgz:46308.got - 2010.06.03 11:33:40.
