data_PCOD9032402
_publ_section_title
;
Structure prediction by ZEFSAII (Michael W. Deem and Ramdas Pophale) SiO2 
 PCOD9032402
Probable space group: P -1
;
_chemical_formula_sum "Si O2"
_cell_formula_units_Z 11
_cell_length_a 16.979558
_cell_length_b 5.443952
_cell_length_c 10.246262
_cell_angle_alpha 52.354325
_cell_angle_beta 34.352780
_cell_angle_gamma 63.670580
_cell_volume 419.253091
_symmetry_space_group_name_H-M "P -1"
_symmetry_group_IT_number 2
_symmetry_cell_setting 'triclinic'
loop_
_space_group_symop_operation_xyz
x,y,z
-x,-y,-z
loop_
_atom_site_type_symbol
_atom_site_label
_atom_site_fract_x
_atom_site_fract_y
_atom_site_fract_z
Si Si1 0.281883 0.560265 0.715755
Si Si2 0.095650 0.117923 0.452945
Si Si3 0.556710 0.979441 0.279817
Si Si4 0.781086 0.434034 0.495826
Si Si5 0.066516 0.716160 0.160448
Si Si6 0.500000 0.500000 0.000000
O O1 0.435352 0.763993 0.433748
O O2 0.311532 0.218646 0.835497
O O3 0.217281 0.519194 0.675235
O O4 0.188703 0.747747 0.876869
O O5 0.123426 0.484653 0.265241
O O6 0.999023 0.039296 0.738438
O O7 0.229716 0.940627 0.342555
O O8 0.000000 0.000000 0.500000
O O9 0.500000 0.000000 0.500000
O O10 0.577796 0.306384 0.070679
O O11 0.647576 0.560899 0.696932
O O12 0.926710 0.572952 0.318671
#
# Coordination Sequence:
#
# PCOD9032402 Si02
#       6
#     2   2   2   2   2   1
#     4  11  25  46  72 109 143 183 248 297 361 431
#     4   9  21  41  63 104 137 185 235 282 369 417
#     4  11  26  49  70 106 145 196 238 297 360 425
#     4  11  24  42  69 106 137 192 235 295 366 423
#     4  10  22  43  71 101 143 181 235 305 355 430
#     4  12  26  48  72  98 152 186 244 294 350 440
#
# _framework density 26.237134999999999
#
# number of rings (size 3 to 8) (size 9 to 14) (size 15 to 20)
#    0.000    1.455    1.818    1.636    2.545    8.727 
#    0.000    0.000    0.000    0.000    0.000    0.000 
#    0.000    0.000    0.000    0.000    0.000    0.000 
#
# Total GULP energy -61348.008316 kJ/mol
# GULP energy per Si atom -5577.091665 kJ/mol
# Density = 2.617742 g / cm^3
# Si number density = 26.237135 Si / 1000 Ang^3
#
#
#
# Elastic Constant Matrix: (Units=GPa)
#
#
# Indices 1 2 3 4 5 6 
#
# 1 158.0352 50.7385 46.5365 5.2918 17.3829 -14.8925
# 2 50.7385 70.1506 7.1442 11.8206 3.9925 -16.0102
# 3 46.5365 7.1442 97.1045 23.3344 13.5507 4.1096
# 4 5.2918 11.8206 23.3344 35.0711 -10.0202 5.3640
# 5 17.3829 3.9925 13.5507 -10.0202 54.3373 7.4966
# 6 -14.8925 -16.0102 4.1096 5.3640 7.4966 45.1907
#
#
#
# Elastic Compliance Matrix: (Units=1/GPa)
#
#
# Indices 1 2 3 4 5 6 
#
# 1 0.010276 -0.007321 -0.005289 0.004063 -0.000809 0.000925
# 2 -0.007321 0.022997 0.004968 -0.012178 -0.003849 0.007367
# 3 -0.005289 0.004968 0.016422 -0.013502 -0.005399 0.001022
# 4 0.004063 -0.012178 -0.013502 0.046056 0.012742 -0.009328
# 5 -0.000809 -0.003849 -0.005399 0.012742 0.023546 -0.006558
# 6 0.000925 0.007367 0.001022 -0.009328 -0.006558 0.027145
#
#
# Mechanical properties :
#
#
# Convention : Reuss Voigt Hill
#
# Bulk Modulus (GPa) = 29.05967 59.34764 44.20365
# Shear Modulus (GPa) = 28.86932 41.64454 35.25693
#
# Velocity S-wave (km/s) = 3.32071 3.98834 3.66974
# Velocity P-wave (km/s) = 5.07963 6.62404 5.90257
#
# Compressibility (1/GPa) = 0.03441196
#
# Stress axis : x y z
#
# Youngs Moduli (GPa) = 97.31799 43.48469 60.89434
#
# Poissons Ratio (x) = 0.31835 0.32204
# Poissons Ratio (y) = 0.71246 -0.30255
# Poissons Ratio (z) = 0.51467 -0.21605
#
# Static dielectric constant tensor:
#      x y z
#    x 1.961680 0.020660 0.003210 
#    y 0.020660 2.202580 -0.123430 
#    z 0.003210 -0.123430 2.080240 
# 
# From -- ./inp_files/21708.got.cif
#   From: 2010.05.17/outbox.cif.g08.bks.cpg/sg2_11_cif.got.tgz:21708.got - 2010.06.03 11:33:40.
