data_PCOD9032172
_publ_section_title
;
Structure prediction by ZEFSAII (Michael W. Deem and Ramdas Pophale) SiO2 
 PCOD9032172
Probable space group: P -1
;
_chemical_formula_sum "Si O2"
_cell_formula_units_Z 14
_cell_length_a 17.664800
_cell_length_b 7.086573
_cell_length_c 21.228205
_cell_angle_alpha 50.485722
_cell_angle_beta 160.371995
_cell_angle_gamma 140.670345
_cell_volume 509.818686
_symmetry_space_group_name_H-M "P -1"
_symmetry_group_IT_number 2
_symmetry_cell_setting 'triclinic'
loop_
_space_group_symop_operation_xyz
x,y,z
-x,-y,-z
loop_
_atom_site_type_symbol
_atom_site_label
_atom_site_fract_x
_atom_site_fract_y
_atom_site_fract_z
Si Si1 0.214509 0.892499 0.347260
Si Si2 0.660180 0.075086 0.750373
Si Si3 0.887718 0.725631 0.606065
Si Si4 0.201135 0.376914 0.037000
Si Si5 0.240187 0.178284 0.904923
Si Si6 0.632770 0.082097 0.309511
Si Si7 0.788907 0.077209 0.308598
O O1 0.510553 0.155699 0.566534
O O2 0.278169 0.652552 0.434570
O O3 0.950657 0.766612 0.216939
O O4 0.062101 0.874737 0.167188
O O5 0.635812 0.760221 0.792013
O O6 0.472501 0.977698 0.687527
O O7 0.023806 0.361202 0.961547
O O8 0.705904 0.838991 0.419288
O O9 0.038395 0.903902 0.752087
O O10 0.135124 0.824547 0.725549
O O11 0.440268 0.739322 0.117034
O O12 0.500000 0.500000 0.000000
O O13 0.383190 0.091928 0.084227
O O14 0.866263 0.305037 0.382306
O O15 0.000000 0.000000 0.500000
#
# Coordination Sequence:
#
# PCOD9032172 Si02
#       7
#     2   2   2   2   2   2   2
#     4  12  24  46  72 103 142 187 235 289 351 416
#     4  11  24  44  70 101 140 189 237 287 347 416
#     4  11  25  45  69 104 143 180 231 290 361 413
#     4  11  24  44  71 101 139 188 236 289 351 414
#     4  12  25  41  70 105 139 186 237 291 349 422
#     4  11  23  44  68 101 142 180 236 288 350 418
#     4  10  22  43  69  99 139 181 225 292 353 412
#
# _framework density 27.460742
#
# number of rings (size 3 to 8) (size 9 to 14) (size 15 to 20)
#    0.000    0.857    2.857    4.714    0.000    4.000 
#    0.000    0.714    0.000    0.000    0.000    0.000 
#    0.000    0.000    0.000    0.000    0.000    0.000 
#
# Total GULP energy -77937.440587 kJ/mol
# GULP energy per Si atom -5566.960042 kJ/mol
# Density = 2.739824 g / cm^3
# Si number density = 27.460742 Si / 1000 Ang^3
#
#
#
# Elastic Constant Matrix: (Units=GPa)
#
#
# Indices 1 2 3 4 5 6 
#
# 1 263.0481 64.9891 70.5365 10.3059 10.2681 -19.6224
# 2 64.9891 134.4377 51.0269 0.8866 -24.9539 -59.8212
# 3 70.5365 51.0269 142.0775 -32.9403 -10.9131 -30.4835
# 4 10.3059 0.8866 -32.9403 53.1072 -0.2300 -6.8696
# 5 10.2681 -24.9539 -10.9131 -0.2300 75.0636 8.8020
# 6 -19.6224 -59.8212 -30.4835 -6.8696 8.8020 95.3356
#
#
#
# Elastic Compliance Matrix: (Units=1/GPa)
#
#
# Indices 1 2 3 4 5 6 
#
# 1 0.005234 -0.002361 -0.002860 -0.002934 -0.001765 -0.001367
# 2 -0.002361 0.012890 -0.001727 0.000057 0.003569 0.006724
# 3 -0.002860 -0.001727 0.011588 0.008100 0.001233 0.002503
# 4 -0.002934 0.000057 0.008100 0.024907 0.001240 0.003702
# 5 -0.001765 0.003569 0.001233 0.001240 0.014817 0.000992
# 6 -0.001367 0.006724 0.002503 0.003702 0.000992 0.015403
#
#
# Mechanical properties :
#
#
# Convention : Reuss Voigt Hill
#
# Bulk Modulus (GPa) = 63.22746 101.40758 82.31752
# Shear Modulus (GPa) = 48.07459 68.23534 58.15496
#
# Velocity S-wave (km/s) = 4.18864 4.99022 4.60689
# Velocity P-wave (km/s) = 6.81671 8.37922 7.63803
#
# Compressibility (1/GPa) = 0.01581591
#
# Stress axis : x y z
#
# Youngs Moduli (GPa) = 191.07087 77.58235 86.29574
#
# Poissons Ratio (x) = 0.18320 0.24676
# Poissons Ratio (y) = 0.45120 0.14901
# Poissons Ratio (z) = 0.54637 0.13396
#
# Static dielectric constant tensor:
#      x y z
#    x 2.257670 -0.034770 -0.151730 
#    y -0.034770 2.419760 0.274730 
#    z -0.151730 0.274730 2.323180 
# 
# From -- ./inp_files/599219.got.cif
#   From: 2010.05.17/outbox.cif.g08.bks.cpg/sg2_300_cif.got.tgz:599219.got - 2010.06.03 11:33:40.
