data_PCOD9032594
_publ_section_title
;
Structure prediction by ZEFSAII (Michael W. Deem and Ramdas Pophale) SiO2 
 PCOD9032594
Probable space group: P -1
;
_chemical_formula_sum "Si O2"
_cell_formula_units_Z 16
_cell_length_a 6.940564
_cell_length_b 5.476417
_cell_length_c 23.202469
_cell_angle_alpha 103.515547
_cell_angle_beta 129.412626
_cell_angle_gamma 73.647630
_cell_volume 651.998910
_symmetry_space_group_name_H-M "P -1"
_symmetry_group_IT_number 2
_symmetry_cell_setting 'triclinic'
loop_
_space_group_symop_operation_xyz
x,y,z
-x,-y,-z
loop_
_atom_site_type_symbol
_atom_site_label
_atom_site_fract_x
_atom_site_fract_y
_atom_site_fract_z
Si Si1 0.456578 0.699996 0.317057
Si Si2 0.145785 0.694121 0.673240
Si Si3 0.800219 0.067271 0.416677
Si Si4 0.902983 0.922259 0.212385
Si Si5 0.757623 0.387198 0.125278
Si Si6 0.624274 0.523703 0.588524
Si Si7 0.155424 0.256655 0.092229
Si Si8 0.269971 0.694348 0.076508
O O1 0.559190 0.435816 0.288816
O O2 0.412050 0.668145 0.375967
O O3 0.204099 0.864924 0.253556
O O4 0.703707 0.823605 0.360812
O O5 0.074206 0.786340 0.599999
O O6 0.917484 0.553450 0.642714
O O7 0.139874 0.931703 0.727493
O O8 0.546058 0.224278 0.404141
O O9 0.000000 0.000000 0.500000
O O10 0.839102 0.636247 0.184953
O O11 0.774477 0.132695 0.152964
O O12 0.469889 0.517570 0.063419
O O13 0.945075 0.305273 0.104027
O O14 0.500000 0.500000 0.500000
O O15 0.275919 0.509871 0.122249
O O16 0.322812 0.976564 0.115404
O O17 0.005311 0.252126 0.002526
#
# Coordination Sequence:
#
# PCOD9032594 Si02
#       8
#     2   2   2   2   2   2   2   2
#     4  11  26  45  65  95 133 176 230 283 356 421
#     4  11  26  45  66  93 134 180 221 292 350 421
#     4  11  24  41  69 101 122 168 228 285 363 424
#     4  12  28  46  68  97 142 191 235 283 342 424
#     4  12  26  45  69 104 138 189 242 280 338 412
#     4  11  23  42  69  99 132 166 223 291 361 436
#     4  10  22  43  72 106 146 180 230 297 342 401
#     4  10  22  43  72 107 142 185 230 287 357 394
#
# _framework density 24.539916999999999
#
# number of rings (size 3 to 8) (size 9 to 14) (size 15 to 20)
#    0.000    1.000    1.250    4.125    7.000    6.000 
#    0.000    5.000    0.000    0.000    0.000    0.000 
#    0.000    0.000    0.000    0.000    0.000    0.000 
#
# Total GULP energy -89346.843443 kJ/mol
# GULP energy per Si atom -5584.177715 kJ/mol
# Density = 2.448406 g / cm^3
# Si number density = 24.539917 Si / 1000 Ang^3
#
#
#
# Elastic Constant Matrix: (Units=GPa)
#
#
# Indices 1 2 3 4 5 6 
#
# 1 134.2698 51.4590 -0.0594 -7.3611 -11.6344 -4.0471
# 2 51.4590 144.1479 12.2960 -19.0375 -6.0230 -0.4384
# 3 -0.0594 12.2960 38.7709 -3.8112 2.2257 -2.0363
# 4 -7.3611 -19.0375 -3.8112 31.5965 -2.7887 3.6411
# 5 -11.6344 -6.0230 2.2257 -2.7887 34.4849 9.1506
# 6 -4.0471 -0.4384 -2.0363 3.6411 9.1506 38.5555
#
#
#
# Elastic Compliance Matrix: (Units=1/GPa)
#
#
# Indices 1 2 3 4 5 6 
#
# 1 0.008869 -0.003081 0.000922 0.000488 0.002343 0.000342
# 2 -0.003081 0.008911 -0.002515 0.004594 0.001345 -0.001108
# 3 0.000922 -0.002515 0.026970 0.001538 -0.002243 0.001880
# 4 0.000488 0.004594 0.001538 0.035650 0.004904 -0.004346
# 5 0.002343 0.001345 -0.002243 0.004904 0.032710 -0.008084
# 6 0.000342 -0.001108 0.001880 -0.004346 -0.008084 0.028388
#
#
# Mechanical properties :
#
#
# Convention : Reuss Voigt Hill
#
# Bulk Modulus (GPa) = 28.24602 49.39776 38.82189
# Shear Modulus (GPa) = 30.74122 37.82690 34.28406
#
# Velocity S-wave (km/s) = 3.54319 3.93038 3.74180
# Velocity P-wave (km/s) = 5.31735 6.38517 5.87557
#
# Compressibility (1/GPa) = 0.03540321
#
# Stress axis : x y z
#
# Youngs Moduli (GPa) = 112.75001 112.21494 37.07796
#
# Poissons Ratio (x) = 0.34578 -0.03420
# Poissons Ratio (y) = 0.34743 0.09324
# Poissons Ratio (z) = -0.10399 0.28219
#
# Static dielectric constant tensor:
#      x y z
#    x 1.946080 0.044470 0.036930 
#    y 0.044470 2.088700 0.044110 
#    z 0.036930 0.044110 1.948800 
# 
# From -- ./inp_files/603345.got.cif
#   From: 2010.05.17/outbox.cif.g08.bks.cpg/sg2_302_cif.got.tgz:603345.got - 2010.06.03 11:33:40.
