data_PCOD9032442
_publ_section_title
;
Structure prediction by ZEFSAII (Michael W. Deem and Ramdas Pophale) SiO2 
 PCOD9032442
Probable space group: P -1
;
_chemical_formula_sum "Si O2"
_cell_formula_units_Z 16
_cell_length_a 14.495733
_cell_length_b 11.643951
_cell_length_c 9.591421
_cell_angle_alpha 75.255775
_cell_angle_beta 110.937488
_cell_angle_gamma 150.563593
_cell_volume 737.398417
_symmetry_space_group_name_H-M "P -1"
_symmetry_group_IT_number 2
_symmetry_cell_setting 'triclinic'
loop_
_space_group_symop_operation_xyz
x,y,z
-x,-y,-z
loop_
_atom_site_type_symbol
_atom_site_label
_atom_site_fract_x
_atom_site_fract_y
_atom_site_fract_z
Si Si1 0.746289 0.029038 0.733036
Si Si2 0.834846 0.244821 0.424976
Si Si3 0.351364 0.482323 0.755792
Si Si4 0.632569 0.704323 0.394518
Si Si5 0.899589 0.765908 0.038326
Si Si6 0.292312 0.525160 0.256545
Si Si7 0.561426 0.074218 0.675646
Si Si8 0.965076 0.766312 0.541759
O O1 0.760423 0.082918 0.562040
O O2 0.694785 0.097735 0.764936
O O3 0.938637 0.156422 0.837286
O O4 0.561347 0.754816 0.751674
O O5 0.939485 0.263323 0.371403
O O6 0.000000 0.500000 0.500000
O O7 0.653833 0.135166 0.307215
O O8 0.349574 0.354025 0.717646
O O9 0.280266 0.403113 0.899577
O O10 0.190499 0.396597 0.616277
O O11 0.500000 0.500000 0.500000
O O12 0.508314 0.694153 0.306256
O O13 0.853112 0.960980 0.479379
O O14 0.818103 0.619017 0.900855
O O15 0.000000 0.000000 0.000000
O O16 0.325274 0.691377 0.283994
O O17 0.160459 0.325178 0.365250
O O18 0.500000 0.000000 0.500000
#
# Coordination Sequence:
#
# PCOD9032442 Si02
#       8
#     2   2   2   2   2   2   2   2
#     4  11  24  46  72 101 144 188 237 289 354 430
#     4  11  20  39  74 107 137 178 235 297 359 417
#     4  12  25  44  74 101 139 194 239 291 366 420
#     4  12  25  39  69 103 142 175 240 308 351 411
#     4  12  29  48  71 102 149 197 242 284 357 436
#     4  12  26  46  68 108 144 184 241 296 351 432
#     4  10  22  43  71 105 140 177 231 299 358 412
#     4  12  22  40  70 103 135 180 235 296 361 412
#
# _framework density 21.697904000000001
#
# number of rings (size 3 to 8) (size 9 to 14) (size 15 to 20)
#    0.000    0.500    3.750    6.375    1.750    3.500 
#    0.000    0.625    0.000    0.000    0.000    0.000 
#    0.000    0.000    0.000    0.000    0.000    0.000 
#
# Total GULP energy -89400.144411 kJ/mol
# GULP energy per Si atom -5587.509026 kJ/mol
# Density = 2.164852 g / cm^3
# Si number density = 21.697904 Si / 1000 Ang^3
#
#
#
# Elastic Constant Matrix: (Units=GPa)
#
#
# Indices 1 2 3 4 5 6 
#
# 1 140.7529 7.2337 9.8994 8.9217 0.2232 -2.9042
# 2 7.2337 99.4577 13.7557 10.8025 -20.8577 12.0446
# 3 9.8994 13.7557 63.5830 8.1105 -18.3793 0.6787
# 4 8.9217 10.8025 8.1105 25.3392 1.9979 -5.0997
# 5 0.2232 -20.8577 -18.3793 1.9979 34.3067 5.0618
# 6 -2.9042 12.0446 0.6787 -5.0997 5.0618 44.7975
#
#
#
# Elastic Compliance Matrix: (Units=1/GPa)
#
#
# Indices 1 2 3 4 5 6 
#
# 1 0.007332 -0.000410 -0.001051 -0.001910 -0.000819 0.000477
# 2 -0.000410 0.013641 0.001154 -0.008011 0.010234 -0.005780
# 3 -0.001051 0.001154 0.020349 -0.008236 0.012539 -0.003041
# 4 -0.001910 -0.008011 -0.008236 0.049118 -0.013499 0.009272
# 5 -0.000819 0.010234 0.012539 -0.013499 0.044287 -0.009535
# 6 0.000477 -0.005780 -0.003041 0.009272 -0.009535 0.026087
#
#
# Mechanical properties :
#
#
# Convention : Reuss Voigt Hill
#
# Bulk Modulus (GPa) = 24.56500 40.61902 32.59201
# Shear Modulus (GPa) = 28.57213 39.08235 33.82724
#
# Velocity S-wave (km/s) = 3.63273 4.24866 3.95271
# Velocity P-wave (km/s) = 5.37974 6.54439 5.99044
#
# Compressibility (1/GPa) = 0.04070833
#
# Stress axis : x y z
#
# Youngs Moduli (GPa) = 136.39169 73.30904 49.14288
#
# Poissons Ratio (x) = 0.03005 0.05165
# Poissons Ratio (y) = 0.05592 -0.05673
# Poissons Ratio (z) = 0.14336 -0.08463
#
# Static dielectric constant tensor:
#      x y z
#    x 1.839970 -0.025000 0.013770 
#    y -0.025000 1.813470 -0.010080 
#    z 0.013770 -0.010080 1.791650 
# 
# From -- ./inp_files/307398.got.cif
#   From: 2010.05.17/outbox.cif.g08.bks.cpg/sg2_154_cif.got.tgz:307398.got - 2010.06.03 11:33:40.
