data_PCOD9032737
_publ_section_title
;
Structure prediction by ZEFSAII (Michael W. Deem and Ramdas Pophale) SiO2 
 PCOD9032737
Probable space group: P -1
;
_chemical_formula_sum "Si O2"
_cell_formula_units_Z 12
_cell_length_a 12.172013
_cell_length_b 15.975720
_cell_length_c 19.678639
_cell_angle_alpha 159.307301
_cell_angle_beta 21.762618
_cell_angle_gamma 148.545414
_cell_volume 497.690691
_symmetry_space_group_name_H-M "P -1"
_symmetry_group_IT_number 2
_symmetry_cell_setting 'triclinic'
loop_
_space_group_symop_operation_xyz
x,y,z
-x,-y,-z
loop_
_atom_site_type_symbol
_atom_site_label
_atom_site_fract_x
_atom_site_fract_y
_atom_site_fract_z
Si Si1 0.451298 0.043500 0.469568
Si Si2 0.683948 0.923833 0.101742
Si Si3 0.748925 0.948427 0.660902
Si Si4 0.677709 0.739076 0.679068
Si Si5 0.152595 0.679079 0.002901
Si Si6 0.268891 0.642269 0.354322
O O1 0.685849 0.212332 0.491905
O O2 0.114495 0.169691 0.770465
O O3 0.480463 0.784317 0.291744
O O4 0.475134 0.007690 0.348912
O O5 0.666800 0.640540 0.888323
O O6 0.556286 0.051409 0.204245
O O7 0.000000 0.000000 0.000000
O O8 0.792726 0.744040 0.539046
O O9 0.716840 0.174783 0.900563
O O10 0.000000 0.000000 0.500000
O O11 0.950024 0.680942 0.529831
O O12 0.416518 0.578703 0.724829
O O13 0.500000 0.000000 0.000000
O O14 0.000000 0.500000 0.000000
#
# Coordination Sequence:
#
# PCOD9032737 Si02
#       6
#     2   2   2   2   2   2
#     4  11  24  45  73 102 142 187 241 293 366 425
#     4  12  28  43  68 107 144 186 239 296 359 429
#     4  11  22  45  68  98 145 180 231 297 351 426
#     4  10  22  43  73  99 140 188 236 293 357 429
#     4  11  23  42  72 102 137 185 242 293 359 429
#     4  11  24  46  74 101 141 189 236 298 357 431
#
# _framework density 24.111360000000001
#
# number of rings (size 3 to 8) (size 9 to 14) (size 15 to 20)
#    0.000    1.000    5.000    1.500    7.000    0.667 
#    0.000    5.000    0.000    0.000    0.000    0.000 
#    0.000    0.000    0.000    0.000    0.000    0.000 
#
# Total GULP energy -66977.861456 kJ/mol
# GULP energy per Si atom -5581.488455 kJ/mol
# Density = 2.405648 g / cm^3
# Si number density = 24.111360 Si / 1000 Ang^3
#
#
#
# Elastic Constant Matrix: (Units=GPa)
#
#
# Indices 1 2 3 4 5 6 
#
# 1 140.0691 39.3394 43.9307 -3.7187 -7.2140 7.0094
# 2 39.3394 125.3512 38.8741 -2.4849 6.8926 -4.3340
# 3 43.9307 38.8741 67.7022 -2.8392 -8.4702 7.9785
# 4 -3.7187 -2.4849 -2.8392 42.5166 -0.3522 4.5657
# 5 -7.2140 6.8926 -8.4702 -0.3522 32.9869 -13.9211
# 6 7.0094 -4.3340 7.9785 4.5657 -13.9211 39.3395
#
#
#
# Elastic Compliance Matrix: (Units=1/GPa)
#
#
# Indices 1 2 3 4 5 6 
#
# 1 0.009168 -0.001390 -0.004968 0.000455 0.000792 -0.000552
# 2 -0.001390 0.010396 -0.005650 -0.000065 -0.003354 0.001360
# 3 -0.004968 -0.005650 0.022184 0.001046 0.004658 -0.002710
# 4 0.000455 -0.000065 0.001046 0.023980 -0.000780 -0.003360
# 5 0.000792 -0.003354 0.004658 -0.000780 0.037384 0.011864
# 6 -0.000552 0.001360 -0.002710 -0.003360 0.011864 0.030806
#
#
# Mechanical properties :
#
#
# Convention : Reuss Voigt Hill
#
# Bulk Modulus (GPa) = 56.39227 64.15677 60.27452
# Shear Modulus (GPa) = 30.51667 37.03383 33.77525
#
# Velocity S-wave (km/s) = 3.56146 3.92337 3.74679
# Velocity P-wave (km/s) = 6.35225 6.86950 6.61593
#
# Compressibility (1/GPa) = 0.01773293
#
# Stress axis : x y z
#
# Youngs Moduli (GPa) = 109.07116 96.18894 45.07750
#
# Poissons Ratio (x) = 0.13374 0.22393
# Poissons Ratio (y) = 0.15165 0.25468
# Poissons Ratio (z) = 0.54182 0.54345
#
# Static dielectric constant tensor:
#      x y z
#    x 1.913760 -0.076300 -0.010140 
#    y -0.076300 2.573810 -0.088270 
#    z -0.010140 -0.088270 1.999800 
# 
# From -- ./inp_files/596015.got.cif
#   From: 2010.05.17/outbox.cif.g08.bks.cpg/sg2_299_cif.got.tgz:596015.got - 2010.06.03 11:33:40.
