data_PCOD9032999
_publ_section_title
;
Structure prediction by ZEFSAII (Michael W. Deem and Ramdas Pophale) SiO2 
 PCOD9032999
Probable space group: P -1
;
_chemical_formula_sum "Si O2"
_cell_formula_units_Z 16
_cell_length_a 20.134162
_cell_length_b 8.275149
_cell_length_c 20.145078
_cell_angle_alpha 124.936964
_cell_angle_beta 158.781971
_cell_angle_gamma 42.737038
_cell_volume 733.654310
_symmetry_space_group_name_H-M "P -1"
_symmetry_group_IT_number 2
_symmetry_cell_setting 'triclinic'
loop_
_space_group_symop_operation_xyz
x,y,z
-x,-y,-z
loop_
_atom_site_type_symbol
_atom_site_label
_atom_site_fract_x
_atom_site_fract_y
_atom_site_fract_z
Si Si1 0.225706 0.138749 0.751559
Si Si2 0.826132 0.167919 0.459175
Si Si3 0.597035 0.264369 0.871552
Si Si4 0.071966 0.916653 0.311372
Si Si5 0.211889 0.254212 0.492474
Si Si6 0.364637 0.064279 0.458806
Si Si7 0.979396 0.019945 0.908094
Si Si8 0.806693 0.484055 0.783819
O O1 0.081775 0.083245 0.651164
O O2 0.046993 0.459091 0.661088
O O3 0.207775 0.037370 0.640669
O O4 0.500000 0.000000 0.000000
O O5 0.601657 0.432704 0.269737
O O6 0.840218 0.181515 0.554831
O O7 0.440169 0.186563 0.727772
O O8 0.781911 0.174635 0.083845
O O9 0.783280 0.097142 0.942674
O O10 0.199928 0.028445 0.434075
O O11 0.125901 0.684542 0.260910
O O12 0.280802 0.278450 0.486910
O O13 0.564499 0.783596 0.615318
O O14 0.500000 0.000000 0.500000
O O15 0.111166 0.130344 0.228474
O O16 0.776437 0.330148 0.771936
O O17 0.000000 0.000000 0.000000
O O18 0.000000 0.500000 0.000000
#
# Coordination Sequence:
#
# PCOD9032999 Si02
#       8
#     2   2   2   2   2   2   2   2
#     4  10  23  45  71 104 142 177 234 293 350 424
#     4  10  24  44  74 103 135 186 230 289 355 419
#     4  10  22  44  64  96 142 175 233 287 341 414
#     4  11  24  44  70 102 140 184 234 288 354 410
#     4  11  23  42  68  96 137 184 226 291 349 414
#     4  12  24  40  66  97 135 181 230 282 343 421
#     4  11  23  40  62  94 134 185 225 286 345 405
#     4  11  24  43  62  97 138 179 234 287 341 417
#
# _framework density 21.808636
#
# number of rings (size 3 to 8) (size 9 to 14) (size 15 to 20)
#    0.000    1.250    2.500    4.125    5.250    1.500 
#    0.000   11.250    0.000    0.000    0.000    0.000 
#    0.000    0.000    0.000    0.000    0.000    0.000 
#
# Total GULP energy -89155.867043 kJ/mol
# GULP energy per Si atom -5572.241690 kJ/mol
# Density = 2.175900 g / cm^3
# Si number density = 21.808636 Si / 1000 Ang^3
#
#
#
# Elastic Constant Matrix: (Units=GPa)
#
#
# Indices 1 2 3 4 5 6 
#
# 1 54.9220 13.5215 23.4988 0.9979 -21.7183 -4.6578
# 2 13.5215 93.2738 34.2505 7.0929 -2.6256 -16.8945
# 3 23.4988 34.2505 140.8139 5.3580 5.9901 -2.5053
# 4 0.9979 7.0929 5.3580 39.0377 1.8494 -1.1502
# 5 -21.7183 -2.6256 5.9901 1.8494 39.4697 7.5008
# 6 -4.6578 -16.8945 -2.5053 -1.1502 7.5008 21.6511
#
#
#
# Elastic Compliance Matrix: (Units=1/GPa)
#
#
# Indices 1 2 3 4 5 6 
#
# 1 0.026739 -0.002019 -0.004651 -0.000473 0.015650 -0.001809
# 2 -0.002019 0.014047 -0.002750 -0.001726 -0.001714 0.010710
# 3 -0.004651 -0.002750 0.008714 -0.000417 -0.003891 -0.000813
# 4 -0.000473 -0.001726 -0.000417 0.026089 -0.001620 0.000450
# 5 0.015650 -0.001714 -0.003891 -0.001620 0.036628 -0.011196
# 6 -0.001809 0.010710 -0.000813 0.000450 -0.011196 0.057963
#
#
# Mechanical properties :
#
#
# Convention : Reuss Voigt Hill
#
# Bulk Modulus (GPa) = 32.61844 47.95016 40.28430
# Shear Modulus (GPa) = 25.09531 34.54763 29.82147
#
# Velocity S-wave (km/s) = 3.39588 3.98443 3.70187
# Velocity P-wave (km/s) = 5.51046 6.57283 6.06495
#
# Compressibility (1/GPa) = 0.03065750
#
# Stress axis : x y z
#
# Youngs Moduli (GPa) = 37.39890 71.19058 114.76298
#
# Poissons Ratio (x) = 0.14377 0.53375
# Poissons Ratio (y) = 0.07553 0.31565
# Poissons Ratio (z) = 0.17394 0.19581
#
# Static dielectric constant tensor:
#      x y z
#    x 1.811300 -0.016840 0.039950 
#    y -0.016840 1.858810 -0.025940 
#    z 0.039950 -0.025940 1.746890 
# 
# From -- ./inp_files/601198.got.cif
#   From: 2010.05.17/outbox.cif.g08.bks.cpg/sg2_301_cif.got.tgz:601198.got - 2010.06.03 11:33:40.
