data_PCOD9032838
_publ_section_title
;
Structure prediction by ZEFSAII (Michael W. Deem and Ramdas Pophale) SiO2 
 PCOD9032838
Probable space group: P -1
;
_chemical_formula_sum "Si O2"
_cell_formula_units_Z 14
_cell_length_a 9.398044
_cell_length_b 9.252637
_cell_length_c 18.237124
_cell_angle_alpha 155.156530
_cell_angle_beta 122.210082
_cell_angle_gamma 58.798541
_cell_volume 561.097507
_symmetry_space_group_name_H-M "P -1"
_symmetry_group_IT_number 2
_symmetry_cell_setting 'triclinic'
loop_
_space_group_symop_operation_xyz
x,y,z
-x,-y,-z
loop_
_atom_site_type_symbol
_atom_site_label
_atom_site_fract_x
_atom_site_fract_y
_atom_site_fract_z
Si Si1 0.496309 0.632271 0.368400
Si Si2 0.894605 0.395364 0.992849
Si Si3 0.309689 0.532334 0.786531
Si Si4 0.317509 0.276412 0.387455
Si Si5 0.390929 0.193434 0.805166
Si Si6 0.825592 0.740048 0.869681
Si Si7 0.969208 0.338170 0.596128
O O1 0.562311 0.395461 0.209140
O O2 0.612157 0.633538 0.472371
O O3 0.310754 0.537938 0.292861
O O4 0.500000 0.000000 0.500000
O O5 0.790043 0.063579 0.794462
O O6 0.770930 0.706432 0.140152
O O7 0.000000 0.500000 0.000000
O O8 0.042501 0.300394 0.047631
O O9 0.352400 0.256855 0.736691
O O10 0.147465 0.404943 0.641325
O O11 0.271815 0.885542 0.982668
O O12 0.192354 0.600167 0.472147
O O13 0.473478 0.146288 0.315770
O O14 0.500000 0.500000 0.000000
O O15 0.930192 0.656780 0.787344
O O16 0.000000 0.000000 0.500000
#
# Coordination Sequence:
#
# PCOD9032838 Si02
#       7
#     2   2   2   2   2   2   2
#     4  12  26  47  75 112 161 197 249 318 384 451
#     4  11  23  44  78 114 150 193 257 313 376 457
#     4  12  24  50  75 107 152 204 251 314 381 455
#     4  11  25  51  73 109 155 200 249 313 383 453
#     4  10  22  43  77 107 147 195 247 314 376 453
#     4  12  25  47  75 108 148 203 253 312 382 452
#     4  12  27  50  78 107 151 203 260 316 380 450
#
# _framework density 24.951101999999999
#
# number of rings (size 3 to 8) (size 9 to 14) (size 15 to 20)
#    0.000    0.571    4.286    4.286    2.000    1.143 
#    7.714    0.000    0.000    0.000    0.000    0.000 
#    0.000    0.000    0.000    0.000    0.000    0.000 
#
# Total GULP energy -78339.778454 kJ/mol
# GULP energy per Si atom -5595.698461 kJ/mol
# Density = 2.489431 g / cm^3
# Si number density = 24.951102 Si / 1000 Ang^3
#
#
#
# Elastic Constant Matrix: (Units=GPa)
#
#
# Indices 1 2 3 4 5 6 
#
# 1 137.1504 66.5020 33.4969 -7.7737 1.5499 9.6269
# 2 66.5020 140.5391 47.5937 -3.6810 3.5221 -4.0650
# 3 33.4969 47.5937 113.0090 8.6000 -1.1448 -4.7301
# 4 -7.7737 -3.6810 8.6000 51.6171 -8.6047 -5.5515
# 5 1.5499 3.5221 -1.1448 -8.6047 51.6814 -4.8737
# 6 9.6269 -4.0650 -4.7301 -5.5515 -4.8737 34.3414
#
#
#
# Elastic Compliance Matrix: (Units=1/GPa)
#
#
# Indices 1 2 3 4 5 6 
#
# 1 0.010031 -0.004351 -0.001363 0.001035 -0.000180 -0.003373
# 2 -0.004351 0.010283 -0.003014 0.000754 -0.000314 0.002099
# 3 -0.001363 -0.003014 0.010730 -0.002034 0.000259 0.001211
# 4 0.001035 0.000754 -0.002034 0.020902 0.003675 0.003420
# 5 -0.000180 -0.000314 0.000259 0.003675 0.020326 0.003528
# 6 -0.003373 0.002099 0.001211 0.003420 0.003528 0.031534
#
#
# Mechanical properties :
#
#
# Convention : Reuss Voigt Hill
#
# Bulk Modulus (GPa) = 73.58555 76.20930 74.89742
# Shear Modulus (GPa) = 39.74797 43.73504 41.74151
#
# Velocity S-wave (km/s) = 3.99561 4.19122 4.09459
# Velocity P-wave (km/s) = 7.13039 7.35062 7.24134
#
# Compressibility (1/GPa) = 0.01358963
#
# Stress axis : x y z
#
# Youngs Moduli (GPa) = 99.68719 97.24440 93.19560
#
# Poissons Ratio (x) = 0.42314 0.12699
# Poissons Ratio (y) = 0.43377 0.28087
# Poissons Ratio (z) = 0.13583 0.29307
#
# Static dielectric constant tensor:
#      x y z
#    x 1.595160 0.215940 -0.064010 
#    y 0.215940 2.031540 -0.033960 
#    z -0.064010 -0.033960 2.162160 
# 
# From -- ./inp_files/557726.got.cif
#   From: 2010.05.17/outbox.cif.g08.bks.cpg/sg2_279_cif.got.tgz:557726.got - 2010.06.03 11:33:40.
