data_PCOD9032617
_publ_section_title
;
Structure prediction by ZEFSAII (Michael W. Deem and Ramdas Pophale) SiO2 
 PCOD9032617
Probable space group: P -1
;
_chemical_formula_sum "Si O2"
_cell_formula_units_Z 14
_cell_length_a 10.040343
_cell_length_b 12.013322
_cell_length_c 5.497126
_cell_angle_alpha 79.537584
_cell_angle_beta 68.757375
_cell_angle_gamma 93.584172
_cell_volume 601.741295
_symmetry_space_group_name_H-M "P -1"
_symmetry_group_IT_number 2
_symmetry_cell_setting 'triclinic'
loop_
_space_group_symop_operation_xyz
x,y,z
-x,-y,-z
loop_
_atom_site_type_symbol
_atom_site_label
_atom_site_fract_x
_atom_site_fract_y
_atom_site_fract_z
Si Si1 0.284219 0.692313 0.694294
Si Si2 0.828493 0.739469 0.575443
Si Si3 0.412843 0.475271 0.821959
Si Si4 0.087299 0.838825 0.052865
Si Si5 0.846470 0.928283 0.864989
Si Si6 0.010513 0.571580 0.712900
Si Si7 0.610013 0.750616 0.321006
O O1 0.164539 0.653257 0.584294
O O2 0.210587 0.774578 0.886855
O O3 0.307705 0.571621 0.848534
O O4 0.000000 0.500000 0.000000
O O5 0.826465 0.863308 0.648480
O O6 0.883442 0.649732 0.757899
O O7 0.684158 0.705945 0.530324
O O8 0.959663 0.752390 0.289896
O O9 0.500000 0.500000 0.500000
O O10 0.440762 0.751239 0.476507
O O11 0.372996 0.339091 0.869347
O O12 0.500000 0.500000 0.000000
O O13 0.146453 0.936667 0.167790
O O14 0.999055 0.898509 0.880728
O O15 0.711855 0.867324 0.138682
O O16 0.000000 0.500000 0.500000
#
# Coordination Sequence:
#
# PCOD9032617 Si02
#       7
#     2   2   2   2   2   2   2
#     4  11  24  45  70 106 141 180 239 301 351 424
#     4  11  23  45  68 101 141 190 237 291 362 434
#     4  10  24  42  66  97 143 188 222 281 363 433
#     4  10  22  44  70 103 135 191 243 296 350 422
#     4  10  22  43  72  96 142 189 241 289 362 427
#     4  12  27  44  71 105 143 187 239 295 353 429
#     4  10  25  43  69 104 142 188 233 294 368 427
#
# _framework density 23.265812
#
# number of rings (size 3 to 8) (size 9 to 14) (size 15 to 20)
#    0.000    1.429    1.429    2.143    8.000    5.143 
#    0.000    0.714    0.000    0.000    0.000    0.000 
#    0.000    0.000    0.000    0.000    0.000    0.000 
#
# Total GULP energy -78274.898384 kJ/mol
# GULP energy per Si atom -5591.064170 kJ/mol
# Density = 2.321286 g / cm^3
# Si number density = 23.265812 Si / 1000 Ang^3
#
#
#
# Elastic Constant Matrix: (Units=GPa)
#
#
# Indices 1 2 3 4 5 6 
#
# 1 141.8001 44.2796 62.7628 30.5637 -30.2326 6.7625
# 2 44.2796 132.0744 38.5759 37.2954 -10.4315 0.5643
# 3 62.7628 38.5759 96.8187 17.0800 -13.4281 5.1500
# 4 30.5637 37.2954 17.0800 47.6113 10.0505 -1.6545
# 5 -30.2326 -10.4315 -13.4281 10.0505 51.9495 10.5414
# 6 6.7625 0.5643 5.1500 -1.6545 10.5414 42.6410
#
#
#
# Elastic Compliance Matrix: (Units=1/GPa)
#
#
# Indices 1 2 3 4 5 6 
#
# 1 0.013595 0.000445 -0.005939 -0.008989 0.009021 -0.004024
# 2 0.000445 0.010938 -0.002515 -0.008782 0.003743 -0.001178
# 3 -0.005939 -0.002515 0.015188 0.000286 0.000086 -0.000869
# 4 -0.008989 -0.008782 0.000286 0.037050 -0.015462 0.006767
# 5 0.009021 0.003743 0.000086 -0.015462 0.030204 -0.009557
# 6 -0.004024 -0.001178 -0.000869 0.006767 -0.009557 0.026836
#
#
# Mechanical properties :
#
#
# Convention : Reuss Voigt Hill
#
# Bulk Modulus (GPa) = 42.19058 73.54773 57.86916
# Shear Modulus (GPa) = 31.69978 43.44534 37.57256
#
# Velocity S-wave (km/s) = 3.69522 4.32597 4.02297
# Velocity P-wave (km/s) = 6.03156 7.52546 6.81954
#
# Compressibility (1/GPa) = 0.02370197
#
# Stress axis : x y z
#
# Youngs Moduli (GPa) = 73.55745 91.42833 65.83937
#
# Poissons Ratio (x) = -0.04068 0.39103
# Poissons Ratio (y) = -0.03273 0.16561
# Poissons Ratio (z) = 0.43686 0.22997
#
# Static dielectric constant tensor:
#      x y z
#    x 1.896320 0.034500 0.001070 
#    y 0.034500 1.918090 -0.086870 
#    z 0.001070 -0.086870 1.983720 
# 
# From -- ./inp_files/93614.got.cif
#   From: 2010.05.17/outbox.cif.g08.bks.cpg/sg2_47_cif.got.tgz:93614.got - 2010.06.03 11:33:40.
