data_PCOD9032939
_publ_section_title
;
Structure prediction by ZEFSAII (Michael W. Deem and Ramdas Pophale) SiO2 
 PCOD9032939
Probable space group: P -1
;
_chemical_formula_sum "Si O2"
_cell_formula_units_Z 16
_cell_length_a 7.871337
_cell_length_b 20.332753
_cell_length_c 12.332195
_cell_angle_alpha 153.186588
_cell_angle_beta 125.816058
_cell_angle_gamma 50.237523
_cell_volume 683.803073
_symmetry_space_group_name_H-M "P -1"
_symmetry_group_IT_number 2
_symmetry_cell_setting 'triclinic'
loop_
_space_group_symop_operation_xyz
x,y,z
-x,-y,-z
loop_
_atom_site_type_symbol
_atom_site_label
_atom_site_fract_x
_atom_site_fract_y
_atom_site_fract_z
Si Si1 0.079295 0.090262 0.570087
Si Si2 0.263347 0.279149 0.043075
Si Si3 0.057999 0.317630 0.240754
Si Si4 0.983066 0.587997 0.281536
Si Si5 0.637698 0.062871 0.978760
Si Si6 0.955530 0.040455 0.869508
Si Si7 0.760742 0.380936 0.779120
Si Si8 0.620474 0.754969 0.564139
O O1 0.891970 0.253789 0.726177
O O2 0.095987 0.014479 0.347542
O O3 0.284237 0.141598 0.763662
O O4 0.000000 0.000000 0.500000
O O5 0.172922 0.442065 0.189711
O O6 0.079538 0.281255 0.068419
O O7 0.484205 0.228699 0.123345
O O8 0.000000 0.500000 0.500000
O O9 0.291757 0.246791 0.284298
O O10 0.917056 0.223338 0.107555
O O11 0.114635 0.656890 0.345793
O O12 0.836407 0.687635 0.469123
O O13 0.805862 0.533951 0.063821
O O14 0.804868 0.010295 0.862810
O O15 0.512534 0.934029 0.753916
O O16 0.794221 0.041531 0.111852
O O17 0.522399 0.360150 0.660118
#
# Coordination Sequence:
#
# PCOD9032939 Si02
#       8
#     2   2   2   2   2   2   2   2
#     4  11  21  39  67  99 131 175 221 281 331 401
#     4  11  23  42  65  98 135 170 229 277 336 401
#     4  11  23  41  63  94 134 174 222 280 337 402
#     4  10  22  44  63  96 140 175 225 276 332 410
#     4  10  24  43  67 103 130 175 227 282 339 409
#     4  10  23  43  68  95 140 176 222 280 348 396
#     4  10  23  39  67  97 132 182 223 273 341 405
#     4  11  22  40  67  93 132 178 222 277 341 399
#
# _framework density 23.39855
#
# number of rings (size 3 to 8) (size 9 to 14) (size 15 to 20)
#    0.000    1.500    2.500    1.875    1.750    2.500 
#    0.000    5.000    0.000    0.000    0.000    0.000 
#    0.000    0.000    0.000    0.000    0.000    0.000 
#
# Total GULP energy -89282.001182 kJ/mol
# GULP energy per Si atom -5580.125074 kJ/mol
# Density = 2.334529 g / cm^3
# Si number density = 23.398550 Si / 1000 Ang^3
#
#
#
# Elastic Constant Matrix: (Units=GPa)
#
#
# Indices 1 2 3 4 5 6 
#
# 1 95.6982 37.6300 25.1071 -6.7049 1.1716 27.9278
# 2 37.6300 120.5882 24.3221 0.7913 8.3993 27.7599
# 3 25.1071 24.3221 98.6155 -6.8674 -4.5236 18.4206
# 4 -6.7049 0.7913 -6.8674 34.9736 19.0171 -6.0325
# 5 1.1716 8.3993 -4.5236 19.0171 26.3188 1.1342
# 6 27.9278 27.7599 18.4206 -6.0325 1.1342 33.4844
#
#
#
# Elastic Compliance Matrix: (Units=1/GPa)
#
#
# Indices 1 2 3 4 5 6 
#
# 1 0.014437 -0.002033 -0.001374 0.001388 -0.000831 -0.009321
# 2 -0.002033 0.010903 -0.001082 -0.000362 -0.003024 -0.006711
# 3 -0.001374 -0.001082 0.011716 -0.000237 0.002787 -0.004539
# 4 0.001388 -0.000362 -0.000237 0.050570 -0.036943 0.009635
# 5 -0.000831 -0.003024 0.002787 -0.036943 0.066482 -0.007240
# 6 -0.009321 -0.006711 -0.004539 0.009635 -0.007240 0.047681
#
#
# Mechanical properties :
#
#
# Convention : Reuss Voigt Hill
#
# Bulk Modulus (GPa) = 35.61542 54.33559 44.97550
# Shear Modulus (GPa) = 22.71388 34.14488 28.42938
#
# Velocity S-wave (km/s) = 3.11905 3.82419 3.48948
# Velocity P-wave (km/s) = 5.31277 6.53998 5.95806
#
# Compressibility (1/GPa) = 0.02807773
#
# Stress axis : x y z
#
# Youngs Moduli (GPa) = 69.26449 91.71511 85.35040
#
# Poissons Ratio (x) = 0.18649 0.11731
# Poissons Ratio (y) = 0.14084 0.09233
# Poissons Ratio (z) = 0.09520 0.09922
#
# Static dielectric constant tensor:
#      x y z
#    x 1.926980 -0.064320 -0.009270 
#    y -0.064320 1.885300 -0.028250 
#    z -0.009270 -0.028250 2.034120 
# 
# From -- ./inp_files/405156.got.cif
#   From: 2010.05.17/outbox.cif.g08.bks.cpg/sg2_203_cif.got.tgz:405156.got - 2010.06.03 11:33:40.
