data_PCOD9032829
_publ_section_title
;
Structure prediction by ZEFSAII (Michael W. Deem and Ramdas Pophale) SiO2 
 PCOD9032829
Probable space group: P -1
;
_chemical_formula_sum "Si O2"
_cell_formula_units_Z 14
_cell_length_a 8.414048
_cell_length_b 17.776474
_cell_length_c 9.111446
_cell_angle_alpha 141.530708
_cell_angle_beta 71.924063
_cell_angle_gamma 79.356385
_cell_volume 556.722022
_symmetry_space_group_name_H-M "P -1"
_symmetry_group_IT_number 2
_symmetry_cell_setting 'triclinic'
loop_
_space_group_symop_operation_xyz
x,y,z
-x,-y,-z
loop_
_atom_site_type_symbol
_atom_site_label
_atom_site_fract_x
_atom_site_fract_y
_atom_site_fract_z
Si Si1 0.822704 0.886143 0.042400
Si Si2 0.379097 0.374679 0.334929
Si Si3 0.772228 0.058510 0.575448
Si Si4 0.661781 0.282643 0.380598
Si Si5 0.556885 0.592214 0.950987
Si Si6 0.024723 0.414632 0.671808
Si Si7 0.433096 0.151658 0.348580
O O1 0.816794 0.908309 0.253386
O O2 0.556960 0.061831 0.330641
O O3 0.891865 0.732835 0.694045
O O4 0.051664 0.853984 0.890287
O O5 0.569185 0.347228 0.338435
O O6 0.313546 0.464231 0.333946
O O7 0.151120 0.464127 0.637192
O O8 0.545182 0.173664 0.927534
O O9 0.683117 0.205060 0.702583
O O10 0.000000 0.000000 0.500000
O O11 0.539581 0.457841 0.770273
O O12 0.570758 0.198063 0.319247
O O13 0.737319 0.559335 0.964133
O O14 0.150876 0.319519 0.645922
O O15 0.500000 0.000000 0.000000
#
# Coordination Sequence:
#
# PCOD9032829 Si02
#       7
#     2   2   2   2   2   2   2
#     4  10  18  33  52  75 103 135 169 210 255 301
#     4   9  18  30  53  74 107 127 173 207 255 294
#     4  10  20  33  50  77 111 132 166 208 257 308
#     4  10  17  32  55  77  96 136 175 213 249 292
#     4   9  19  31  52  77 104 135 169 208 253 303
#     4   9  18  33  53  77  99 134 175 214 246 291
#     4   9  19  33  54  77 100 127 179 219 245 291
#
# _framework density 25.147200999999999
#
# number of rings (size 3 to 8) (size 9 to 14) (size 15 to 20)
#    0.857    1.714    1.429    1.286    0.000    0.571 
#    0.000    1.429    0.000    0.000    0.000    0.000 
#    0.000    0.000    0.000    0.000    0.000    0.000 
#
# Total GULP energy -78053.987145 kJ/mol
# GULP energy per Si atom -5575.284796 kJ/mol
# Density = 2.508996 g / cm^3
# Si number density = 25.147201 Si / 1000 Ang^3
#
#
#
# Elastic Constant Matrix: (Units=GPa)
#
#
# Indices 1 2 3 4 5 6 
#
# 1 122.6761 48.0679 20.8114 16.3269 -7.9680 -28.3278
# 2 48.0679 75.6318 17.0139 0.1799 -9.3499 -29.8494
# 3 20.8114 17.0139 88.0526 10.6006 -2.0867 -9.4999
# 4 16.3269 0.1799 10.6006 39.9801 -11.0538 -4.8340
# 5 -7.9680 -9.3499 -2.0867 -11.0538 32.1822 1.5892
# 6 -28.3278 -29.8494 -9.4999 -4.8340 1.5892 55.2164
#
#
#
# Elastic Compliance Matrix: (Units=1/GPa)
#
#
# Indices 1 2 3 4 5 6 
#
# 1 0.011933 -0.006706 -0.000774 -0.004597 -0.000721 0.001982
# 2 -0.006706 0.022108 -0.002351 0.006015 0.006259 0.008453
# 3 -0.000774 -0.002351 0.012381 -0.003263 -0.001203 0.000211
# 4 -0.004597 0.006015 -0.003263 0.031084 0.010939 0.002738
# 5 -0.000721 0.006259 -0.001203 0.010939 0.036258 0.002721
# 6 0.001982 0.008453 0.000211 0.002738 0.002721 0.023895
#
#
# Mechanical properties :
#
#
# Convention : Reuss Voigt Hill
#
# Bulk Modulus (GPa) = 37.36836 50.90521 44.13678
# Shear Modulus (GPa) = 30.07679 38.84024 34.45852
#
# Velocity S-wave (km/s) = 3.46212 3.93430 3.70573
# Velocity P-wave (km/s) = 5.55642 6.39727 5.99161
#
# Compressibility (1/GPa) = 0.02676060
#
# Stress axis : x y z
#
# Youngs Moduli (GPa) = 83.79982 45.23188 80.76762
#
# Poissons Ratio (x) = 0.30332 0.06255
# Poissons Ratio (y) = 0.56195 0.18986
# Poissons Ratio (z) = 0.06490 0.10633
#
# Static dielectric constant tensor:
#      x y z
#    x 1.963970 -0.000590 0.024100 
#    y -0.000590 2.031660 0.018450 
#    z 0.024100 0.018450 2.102230 
# 
# From -- ./inp_files/195746.got.cif
#   From: 2010.05.17/outbox.cif.g08.bks.cpg/sg2_98_cif.got.tgz:195746.got - 2010.06.03 11:33:40.
