data_PCOD9032459
_publ_section_title
;
Structure prediction by ZEFSAII (Michael W. Deem and Ramdas Pophale) SiO2 
 PCOD9032459
Probable space group: P -1
;
_chemical_formula_sum "Si O2"
_cell_formula_units_Z 15
_cell_length_a 7.249963
_cell_length_b 12.865244
_cell_length_c 8.495420
_cell_angle_alpha 80.821422
_cell_angle_beta 55.177610
_cell_angle_gamma 64.078176
_cell_volume 580.674207
_symmetry_space_group_name_H-M "P -1"
_symmetry_group_IT_number 2
_symmetry_cell_setting 'triclinic'
loop_
_space_group_symop_operation_xyz
x,y,z
-x,-y,-z
loop_
_atom_site_type_symbol
_atom_site_label
_atom_site_fract_x
_atom_site_fract_y
_atom_site_fract_z
Si Si1 0.856742 0.364966 0.034266
Si Si2 0.000000 0.500000 0.500000
Si Si3 0.405781 0.814441 0.357318
Si Si4 0.741101 0.086806 0.941422
Si Si5 0.720237 0.562733 0.274004
Si Si6 0.000238 0.839634 0.770959
Si Si7 0.894199 0.813746 0.266763
Si Si8 0.726054 0.759250 0.681376
O O1 0.674108 0.475809 0.196050
O O2 0.857014 0.252569 0.143604
O O3 0.104760 0.387573 0.916051
O O4 0.887904 0.317894 0.849143
O O5 0.855897 0.515058 0.386741
O O6 0.788835 0.628633 0.628387
O O7 0.353351 0.844837 0.193990
O O8 0.470665 0.678827 0.390361
O O9 0.169274 0.878557 0.568308
O O10 0.643623 0.833342 0.292651
O O11 0.549998 0.155261 0.153582
O O12 0.788026 0.955745 0.916896
O O13 0.998089 0.907136 0.158337
O O14 0.884473 0.766198 0.749726
O O15 0.821491 0.813492 0.481337
#
# Coordination Sequence:
#
# PCOD9032459 Si02
#       8
#     2   1   2   2   2   2   2   2
#     4  10  22  43  71 107 151 198 249 311 380 451
#     4  12  22  46  80 114 152 196 260 318 386 462
#     4  11  25  48  78 113 150 205 256 318 388 450
#     4  12  29  52  76 111 160 209 256 316 386 458
#     4  10  22  43  75 107 154 198 248 320 383 457
#     4  12  26  50  77 111 157 207 257 318 386 457
#     4  11  26  49  72 112 156 196 261 314 379 460
#     4  12  25  48  77 113 152 201 256 319 387 456
#
# _framework density 25.832038000000001
#
# number of rings (size 3 to 8) (size 9 to 14) (size 15 to 20)
#    0.000    0.800    5.333    2.400    3.733    1.600 
#    2.400    1.333    0.000    0.000    0.000    0.000 
#    0.000    0.000    0.000    0.000    0.000    0.000 
#
# Total GULP energy -83606.121803 kJ/mol
# GULP energy per Si atom -5573.741454 kJ/mol
# Density = 2.577324 g / cm^3
# Si number density = 25.832038 Si / 1000 Ang^3
#
#
#
# Elastic Constant Matrix: (Units=GPa)
#
#
# Indices 1 2 3 4 5 6 
#
# 1 51.4046 5.0663 18.0124 15.8508 11.3803 7.6497
# 2 5.0663 103.5226 57.1391 32.6742 3.3899 9.8927
# 3 18.0124 57.1391 162.4393 27.2479 10.4365 7.5964
# 4 15.8508 32.6742 27.2479 46.0999 0.6828 14.4974
# 5 11.3803 3.3899 10.4365 0.6828 31.4400 1.1127
# 6 7.6497 9.8927 7.5964 14.4974 1.1127 32.1027
#
#
#
# Elastic Compliance Matrix: (Units=1/GPa)
#
#
# Indices 1 2 3 4 5 6 
#
# 1 0.024636 0.002966 -0.001659 -0.008799 -0.008420 -0.002127
# 2 0.002966 0.014525 -0.003852 -0.008963 -0.001160 -0.000183
# 3 -0.001659 -0.003852 0.008042 -0.001569 -0.001636 0.000444
# 4 -0.008799 -0.008963 -0.001569 0.035358 0.004290 -0.010886
# 5 -0.008420 -0.001160 -0.001636 0.004290 0.035444 -0.000415
# 6 -0.002127 -0.000183 0.000444 -0.010886 -0.000415 0.036538
#
#
# Mechanical properties :
#
#
# Convention : Reuss Voigt Hill
#
# Bulk Modulus (GPa) = 23.74440 53.08910 38.41675
# Shear Modulus (GPa) = 28.79016 37.73844 33.26430
#
# Velocity S-wave (km/s) = 3.34206 3.82634 3.59237
# Velocity P-wave (km/s) = 4.90961 6.33383 5.66664
#
# Compressibility (1/GPa) = 0.04211520
#
# Stress axis : x y z
#
# Youngs Moduli (GPa) = 40.59051 68.84704 124.34189
#
# Poissons Ratio (x) = -0.20420 0.20625
# Poissons Ratio (y) = -0.12039 0.47890
# Poissons Ratio (z) = 0.06733 0.26516
#
# Static dielectric constant tensor:
#      x y z
#    x 2.078980 -0.001920 0.065010 
#    y -0.001920 2.038460 0.033060 
#    z 0.065010 0.033060 2.100990 
# 
# From -- ./inp_files/196489.got.cif
#   From: 2010.05.17/outbox.cif.g08.bks.cpg/sg2_99_cif.got.tgz:196489.got - 2010.06.03 11:33:40.
