data_PCOD9032927
_publ_section_title
;
Structure prediction by ZEFSAII (Michael W. Deem and Ramdas Pophale) SiO2 
 PCOD9032927
Probable space group: P -1
;
_chemical_formula_sum "Si O2"
_cell_formula_units_Z 16
_cell_length_a 13.612737
_cell_length_b 8.329385
_cell_length_c 8.639781
_cell_angle_alpha 55.427216
_cell_angle_beta 83.850731
_cell_angle_gamma 100.292975
_cell_volume 766.913807
_symmetry_space_group_name_H-M "P -1"
_symmetry_group_IT_number 2
_symmetry_cell_setting 'triclinic'
loop_
_space_group_symop_operation_xyz
x,y,z
-x,-y,-z
loop_
_atom_site_type_symbol
_atom_site_label
_atom_site_fract_x
_atom_site_fract_y
_atom_site_fract_z
Si Si1 0.600308 0.444643 0.947674
Si Si2 0.431147 0.629399 0.370805
Si Si3 0.065571 0.854136 0.627483
Si Si4 0.763652 0.683644 0.428077
Si Si5 0.510638 0.955988 0.699476
Si Si6 0.281452 0.141173 0.353631
Si Si7 0.928355 0.490881 0.665516
Si Si8 0.905073 0.065721 0.054812
O O1 0.579211 0.394610 0.798079
O O2 0.703163 0.633398 0.847803
O O3 0.500000 0.500000 0.000000
O O4 0.589850 0.230455 0.144147
O O5 0.500000 0.500000 0.500000
O O6 0.316527 0.518344 0.514260
O O7 0.479015 0.858083 0.290518
O O8 0.075164 0.870664 0.802362
O O9 0.003226 0.629280 0.705839
O O10 0.176841 0.956392 0.470732
O O11 0.000000 0.000000 0.500000
O O12 0.707844 0.796083 0.499920
O O13 0.845408 0.604691 0.559164
O O14 0.814290 0.852458 0.200123
O O15 0.500000 0.000000 0.500000
O O16 0.622014 0.913608 0.706266
O O17 0.000000 0.500000 0.500000
O O18 0.886642 0.257449 0.860716
O O19 0.000000 0.000000 0.000000
#
# Coordination Sequence:
#
# PCOD9032927 Si02
#       8
#     2   2   2   2   2   2   2   2
#     4   9  19  40  63  91 122 156 205 254 313 376
#     4  11  23  43  65  92 129 164 209 266 319 379
#     4  11  21  42  65  93 131 170 210 265 316 377
#     4  10  22  44  63  93 133 167 218 265 321 379
#     4  11  22  40  66  92 124 165 207 261 319 381
#     4   9  20  39  62  89 126 158 208 258 313 373
#     4  12  23  41  68  91 135 172 212 269 318 377
#     4  11  22  42  65  97 128 172 217 262 319 381
#
# _framework density 20.862841
#
# number of rings (size 3 to 8) (size 9 to 14) (size 15 to 20)
#    0.000    1.500    3.750    3.000    1.750    0.000 
#   15.750    3.750    0.000    0.000    0.000    0.000 
#    0.000    0.000    0.000    0.000    0.000    0.000 
#
# Total GULP energy -89176.716133 kJ/mol
# GULP energy per Si atom -5573.544758 kJ/mol
# Density = 2.081536 g / cm^3
# Si number density = 20.862841 Si / 1000 Ang^3
#
#
#
# Elastic Constant Matrix: (Units=GPa)
#
#
# Indices 1 2 3 4 5 6 
#
# 1 41.6448 10.1220 17.4807 -9.6923 -6.4705 4.0793
# 2 10.1220 67.0545 24.5426 -14.8866 -1.9197 -5.0544
# 3 17.4807 24.5426 150.1214 -26.8732 -6.2341 4.7005
# 4 -9.6923 -14.8866 -26.8732 39.3078 4.5916 -6.4654
# 5 -6.4705 -1.9197 -6.2341 4.5916 32.8308 -1.5019
# 6 4.0793 -5.0544 4.7005 -6.4654 -1.5019 30.5954
#
#
#
# Elastic Compliance Matrix: (Units=1/GPa)
#
#
# Indices 1 2 3 4 5 6 
#
# 1 0.027194 -0.002765 -0.001833 0.003438 0.004238 -0.002866
# 2 -0.002765 0.017544 -0.001705 0.005617 -0.000414 0.004696
# 3 -0.001833 -0.001705 0.007938 0.004221 0.000440 -0.000343
# 4 0.003438 0.005617 0.004221 0.032675 -0.002460 0.006605
# 5 0.004238 -0.000414 0.000440 -0.002460 0.031713 0.000336
# 6 -0.002866 0.004696 -0.000343 0.006605 0.000336 0.035307
#
#
# Mechanical properties :
#
#
# Convention : Reuss Voigt Hill
#
# Bulk Modulus (GPa) = 24.95704 40.34572 32.65138
# Shear Modulus (GPa) = 28.03715 34.32517 31.18116
#
# Velocity S-wave (km/s) = 3.66987 4.06060 3.87017
# Velocity P-wave (km/s) = 5.47227 6.43158 5.97122
#
# Compressibility (1/GPa) = 0.04006886
#
# Stress axis : x y z
#
# Youngs Moduli (GPa) = 36.77329 56.99999 125.97379
#
# Poissons Ratio (x) = 0.15763 0.23094
# Poissons Ratio (y) = 0.10169 0.21476
# Poissons Ratio (z) = 0.06741 0.09717
#
# Static dielectric constant tensor:
#      x y z
#    x 2.002210 0.000090 -0.060790 
#    y 0.000090 1.778970 -0.065420 
#    z -0.060790 -0.065420 1.797640 
# 
# From -- ./inp_files/297426.got.cif
#   From: 2010.05.17/outbox.cif.g08.bks.cpg/sg2_149_cif.got.tgz:297426.got - 2010.06.03 11:33:40.
