data_PCOD9032592
_publ_section_title
;
Structure prediction by ZEFSAII (Michael W. Deem and Ramdas Pophale) SiO2 
 PCOD9032592
Probable space group: P -1
;
_chemical_formula_sum "Si O2"
_cell_formula_units_Z 16
_cell_length_a 9.291928
_cell_length_b 11.330425
_cell_length_c 9.401659
_cell_angle_alpha 90.224104
_cell_angle_beta 43.084153
_cell_angle_gamma 84.263344
_cell_volume 668.410778
_symmetry_space_group_name_H-M "P -1"
_symmetry_group_IT_number 2
_symmetry_cell_setting 'triclinic'
loop_
_space_group_symop_operation_xyz
x,y,z
-x,-y,-z
loop_
_atom_site_type_symbol
_atom_site_label
_atom_site_fract_x
_atom_site_fract_y
_atom_site_fract_z
Si Si1 0.377321 0.175779 0.834693
Si Si2 0.176353 0.569021 0.946563
Si Si3 0.299246 0.957993 0.213064
Si Si4 0.120713 0.588986 0.321287
Si Si5 0.217443 0.002804 0.755068
Si Si6 0.572241 0.395372 0.649818
Si Si7 0.075737 0.145639 0.596929
Si Si8 0.109279 0.758385 0.777114
O O1 0.593134 0.150515 0.768993
O O2 0.408518 0.300344 0.742676
O O3 0.375323 0.051974 0.751181
O O4 0.141077 0.200894 0.076746
O O5 0.420531 0.518791 0.727283
O O6 0.124080 0.704106 0.925658
O O7 0.164774 0.553161 0.124854
O O8 0.000000 0.500000 0.000000
O O9 0.144866 0.905725 0.216850
O O10 0.177129 0.066221 0.392212
O O11 0.500000 0.000000 0.000000
O O12 0.333307 0.598228 0.259206
O O13 0.000000 0.500000 0.500000
O O14 0.973991 0.718130 0.411561
O O15 0.239220 0.870308 0.674142
O O16 0.204021 0.104609 0.644978
O O17 0.000000 0.000000 0.000000
O O18 0.776812 0.347111 0.405655
#
# Coordination Sequence:
#
# PCOD9032592 Si02
#       8
#     2   2   2   2   2   2   2   2
#     4  11  23  44  72 102 148 187 236 297 358 434
#     4  12  26  51  76 105 145 192 250 305 360 434
#     4  11  24  41  71 105 144 188 233 288 363 432
#     4  12  28  50  76 106 147 197 248 307 363 432
#     4  10  22  43  72 106 144 187 231 295 364 427
#     4  12  26  47  76 104 145 193 245 304 368 426
#     4  11  25  46  70 106 148 183 237 295 358 437
#     4  11  24  45  79 105 149 190 245 298 365 439
#
# _framework density 23.937377000000001
#
# number of rings (size 3 to 8) (size 9 to 14) (size 15 to 20)
#    0.000    0.750    2.500    5.250    3.500    2.000 
#    4.500    0.000    0.000    0.000    0.000    0.000 
#    0.000    0.000    0.000    0.000    0.000    0.000 
#
# Total GULP energy -89397.160583 kJ/mol
# GULP energy per Si atom -5587.322536 kJ/mol
# Density = 2.388289 g / cm^3
# Si number density = 23.937377 Si / 1000 Ang^3
#
#
#
# Elastic Constant Matrix: (Units=GPa)
#
#
# Indices 1 2 3 4 5 6 
#
# 1 100.5910 14.8753 32.0394 15.5171 3.9886 2.4099
# 2 14.8753 115.4209 30.0935 0.1874 -4.8182 -12.3718
# 3 32.0394 30.0935 93.9906 9.0160 0.1823 2.5513
# 4 15.5171 0.1874 9.0160 44.2829 -4.3647 -9.3788
# 5 3.9886 -4.8182 0.1823 -4.3647 37.5181 -6.2237
# 6 2.4099 -12.3718 2.5513 -9.3788 -6.2237 37.6429
#
#
#
# Elastic Compliance Matrix: (Units=1/GPa)
#
#
# Indices 1 2 3 4 5 6 
#
# 1 0.011928 -0.001019 -0.003268 -0.004220 -0.002256 -0.002301
# 2 -0.001019 0.010241 -0.003272 0.002198 0.002460 0.004607
# 3 -0.003268 -0.003272 0.013068 -0.002087 -0.000777 -0.002400
# 4 -0.004220 0.002198 -0.002087 0.026842 0.005307 0.008699
# 5 -0.002256 0.002460 -0.000777 0.005307 0.029012 0.007124
# 6 -0.002301 0.004607 -0.002400 0.008699 0.007124 0.031735
#
#
# Mechanical properties :
#
#
# Convention : Reuss Voigt Hill
#
# Bulk Modulus (GPa) = 49.70581 51.55766 50.63173
# Shear Modulus (GPa) = 34.56555 39.42174 36.99365
#
# Velocity S-wave (km/s) = 3.80412 4.06257 3.93547
# Velocity P-wave (km/s) = 6.33286 6.60237 6.46902
#
# Compressibility (1/GPa) = 0.02011837
#
# Stress axis : x y z
#
# Youngs Moduli (GPa) = 83.83305 97.64247 76.52313
#
# Poissons Ratio (x) = 0.09952 0.25009
# Poissons Ratio (y) = 0.08545 0.25041
# Poissons Ratio (z) = 0.27398 0.31952
#
# Static dielectric constant tensor:
#      x y z
#    x 1.749190 0.103500 -0.025110 
#    y 0.103500 1.832570 0.075690 
#    z -0.025110 0.075690 1.957050 
# 
# From -- ./inp_files/187256.got.cif
#   From: 2010.05.17/outbox.cif.g08.bks.cpg/sg2_94_cif.got.tgz:187256.got - 2010.06.03 11:33:40.
