data_PCOD9032267
_publ_section_title
;
Structure prediction by ZEFSAII (Michael W. Deem and Ramdas Pophale) SiO2 
 PCOD9032267
Probable space group: P -1
;
_chemical_formula_sum "Si O2"
_cell_formula_units_Z 13
_cell_length_a 6.701303
_cell_length_b 10.464833
_cell_length_c 15.783330
_cell_angle_alpha 152.301385
_cell_angle_beta 80.293371
_cell_angle_gamma 106.898802
_cell_volume 482.367761
_symmetry_space_group_name_H-M "P -1"
_symmetry_group_IT_number 2
_symmetry_cell_setting 'triclinic'
loop_
_space_group_symop_operation_xyz
x,y,z
-x,-y,-z
loop_
_atom_site_type_symbol
_atom_site_label
_atom_site_fract_x
_atom_site_fract_y
_atom_site_fract_z
Si Si1 0.830726 0.954004 0.908486
Si Si2 0.194155 0.808149 0.722178
Si Si3 0.445243 0.649789 0.363597
Si Si4 0.610601 0.306100 0.033094
Si Si5 0.000000 0.500000 0.000000
Si Si6 0.923863 0.230564 0.472224
Si Si7 0.128763 0.884564 0.350098
O O1 0.639939 0.660049 0.765813
O O2 0.977670 0.897840 0.790282
O O3 0.735031 0.206883 0.042714
O O4 0.000000 0.000000 0.000000
O O5 0.223763 0.772264 0.599701
O O6 0.126079 0.512005 0.606959
O O7 0.396937 0.043099 0.881007
O O8 0.542012 0.579231 0.227706
O O9 0.227174 0.730914 0.417789
O O10 0.633731 0.901432 0.539285
O O11 0.757618 0.366554 0.976560
O O12 0.095065 0.561581 0.133088
O O13 0.002931 0.954051 0.314709
O O14 0.000000 0.000000 0.500000
#
# Coordination Sequence:
#
# PCOD9032267 Si02
#       7
#     2   2   2   2   1   2   2
#     4  11  23  39  74 111 142 178 236 296 362 426
#     4  10  22  43  70 106 138 181 233 295 364 413
#     4  11  24  42  73 106 138 186 231 299 356 411
#     4  12  24  44  71 105 145 189 235 294 353 420
#     4  12  28  48  70 102 140 198 240 282 348 426
#     4  10  24  44  71 105 140 179 237 296 357 430
#     4  12  26  49  71 100 146 191 238 289 350 420
#
# _framework density 26.950391
#
# number of rings (size 3 to 8) (size 9 to 14) (size 15 to 20)
#    0.000    0.923    3.077    3.231    4.308    0.615 
#    2.769   11.538    0.000    0.000    0.000    0.000 
#    0.000    0.000    0.000    0.000    0.000    0.000 
#
# Total GULP energy -72523.404407 kJ/mol
# GULP energy per Si atom -5578.723416 kJ/mol
# Density = 2.688905 g / cm^3
# Si number density = 26.950391 Si / 1000 Ang^3
#
#
#
# Elastic Constant Matrix: (Units=GPa)
#
#
# Indices 1 2 3 4 5 6 
#
# 1 105.6955 41.8102 13.7307 11.9168 10.9885 25.2890
# 2 41.8102 82.3765 14.4627 6.7436 5.6243 35.7190
# 3 13.7307 14.4627 75.3955 2.2872 53.9289 9.0365
# 4 11.9168 6.7436 2.2872 58.0312 10.7780 0.2391
# 5 10.9885 5.6243 53.9289 10.7780 64.3881 9.5586
# 6 25.2890 35.7190 9.0365 0.2391 9.5586 53.2255
#
#
#
# Elastic Compliance Matrix: (Units=1/GPa)
#
#
# Indices 1 2 3 4 5 6 
#
# 1 0.012313 -0.004956 -0.000572 -0.001820 -0.000540 -0.002322
# 2 -0.004956 0.020416 -0.005947 -0.002208 0.006109 -0.011424
# 3 -0.000572 -0.005947 0.036107 0.005133 -0.031030 0.003682
# 4 -0.001820 -0.002208 0.005133 0.019020 -0.007383 0.002715
# 5 -0.000540 0.006109 -0.031030 -0.007383 0.043252 -0.006309
# 6 -0.002322 -0.011424 0.003682 0.002715 -0.006309 0.028053
#
#
# Mechanical properties :
#
#
# Convention : Reuss Voigt Hill
#
# Bulk Modulus (GPa) = 21.79373 44.83052 33.31213
# Shear Modulus (GPa) = 25.32847 48.02656 36.67751
#
# Velocity S-wave (km/s) = 3.06897 4.22600 3.69308
# Velocity P-wave (km/s) = 4.54558 6.36260 5.52924
#
# Compressibility (1/GPa) = 0.04588476
#
# Stress axis : x y z
#
# Youngs Moduli (GPa) = 81.21552 48.98084 27.69574
#
# Poissons Ratio (x) = 0.24277 0.01583
# Poissons Ratio (y) = 0.40254 0.16471
# Poissons Ratio (z) = 0.04643 0.29130
#
# Static dielectric constant tensor:
#      x y z
#    x 2.001000 -0.033770 0.153360 
#    y -0.033770 2.187840 0.032860 
#    z 0.153360 0.032860 1.124200 
# 
# From -- ./inp_files/549355.got.cif
#   From: 2010.05.17/outbox.cif.g08.bks.cpg/sg2_275_cif.got.tgz:549355.got - 2010.06.03 11:33:40.
