data_PCOD9032429
_publ_section_title
;
Structure prediction by ZEFSAII (Michael W. Deem and Ramdas Pophale) SiO2 
 PCOD9032429
Probable space group: P -1
;
_chemical_formula_sum "Si O2"
_cell_formula_units_Z 16
_cell_length_a 11.045104
_cell_length_b 8.592885
_cell_length_c 18.756110
_cell_angle_alpha 132.061250
_cell_angle_beta 147.296860
_cell_angle_gamma 42.093404
_cell_volume 639.612417
_symmetry_space_group_name_H-M "P -1"
_symmetry_group_IT_number 2
_symmetry_cell_setting 'triclinic'
loop_
_space_group_symop_operation_xyz
x,y,z
-x,-y,-z
loop_
_atom_site_type_symbol
_atom_site_label
_atom_site_fract_x
_atom_site_fract_y
_atom_site_fract_z
Si Si1 0.362313 0.070030 0.117763
Si Si2 0.308951 0.441068 0.436368
Si Si3 0.334635 0.201986 0.631807
Si Si4 0.267964 0.770777 0.076285
Si Si5 0.786173 0.962314 0.115691
Si Si6 0.286815 0.862773 0.616834
Si Si7 0.931682 0.721031 0.627665
Si Si8 0.008907 0.510682 0.172263
O O1 0.630088 0.070273 0.246784
O O2 0.227727 0.290562 0.172311
O O3 0.419892 0.821228 0.104339
O O4 0.191744 0.110556 0.978475
O O5 0.500000 0.500000 0.500000
O O6 0.327683 0.598756 0.558793
O O7 0.270664 0.238076 0.397029
O O8 0.080292 0.516510 0.290694
O O9 0.592124 0.224723 0.780373
O O10 0.223023 0.198916 0.498108
O O11 0.119554 0.442470 0.632350
O O12 0.381849 0.968905 0.629450
O O13 0.226371 0.544739 0.973912
O O14 0.000000 0.000000 0.000000
O O15 0.966611 0.744977 0.185010
O O16 0.883580 0.158159 0.232694
O O17 0.500000 0.000000 0.000000
O O18 0.000000 0.000000 0.500000
#
# Coordination Sequence:
#
# PCOD9032429 Si02
#       8
#     2   2   2   2   2   2   2   2
#     4  10  23  43  68  95 137 186 224 283 352 410
#     4  12  25  45  71 104 142 182 237 293 350 419
#     4  10  22  43  71 104 140 184 229 294 359 418
#     4   9  20  41  68  98 132 181 238 280 342 424
#     4  12  27  43  68 105 141 182 234 292 347 421
#     4  11  22  42  72 101 135 185 231 284 351 421
#     4  11  25  45  69 106 145 180 236 295 354 422
#     4  11  23  44  67  95 142 181 233 283 345 422
#
# _framework density 25.015149000000001
#
# number of rings (size 3 to 8) (size 9 to 14) (size 15 to 20)
#    0.000    1.250    2.500    2.625    3.500    1.000 
#    4.500    4.375    0.000    0.000    0.000    0.000 
#    0.000    0.000    0.000    0.000    0.000    0.000 
#
# Total GULP energy -89155.885024 kJ/mol
# GULP energy per Si atom -5572.242814 kJ/mol
# Density = 2.495821 g / cm^3
# Si number density = 25.015149 Si / 1000 Ang^3
#
#
#
# Elastic Constant Matrix: (Units=GPa)
#
#
# Indices 1 2 3 4 5 6 
#
# 1 73.4614 29.5023 51.5207 6.9483 11.4469 18.9699
# 2 29.5023 92.0103 29.1401 8.6360 -1.9703 18.7318
# 3 51.5207 29.1401 214.3474 7.6864 1.6095 21.6002
# 4 6.9483 8.6360 7.6864 46.8463 15.9574 9.6255
# 5 11.4469 -1.9703 1.6095 15.9574 47.0233 -2.8854
# 6 18.9699 18.7318 21.6002 9.6255 -2.8854 30.3426
#
#
#
# Elastic Compliance Matrix: (Units=1/GPa)
#
#
# Indices 1 2 3 4 5 6 
#
# 1 0.020977 -0.004032 -0.003577 0.002392 -0.006545 -0.009460
# 2 -0.004032 0.013437 -0.000323 -0.001400 0.001728 -0.004936
# 3 -0.003577 -0.000323 0.005724 -0.000268 0.000661 -0.001491
# 4 0.002392 -0.001400 -0.000268 0.026867 -0.010359 -0.009948
# 5 -0.006545 0.001728 0.000661 -0.010359 0.026940 0.008403
# 6 -0.009460 -0.004936 -0.001491 -0.009948 0.008403 0.046935
#
#
# Mechanical properties :
#
#
# Convention : Reuss Voigt Hill
#
# Bulk Modulus (GPa) = 41.19693 66.68281 53.93987
# Shear Modulus (GPa) = 30.33332 42.81952 36.57642
#
# Velocity S-wave (km/s) = 3.48602 4.14181 3.82798
# Velocity P-wave (km/s) = 5.71906 7.04185 6.41464
#
# Compressibility (1/GPa) = 0.02427365
#
# Stress axis : x y z
#
# Youngs Moduli (GPa) = 47.67074 74.42276 174.70405
#
# Poissons Ratio (x) = 0.30007 0.62496
# Poissons Ratio (y) = 0.19221 0.05642
# Poissons Ratio (z) = 0.17053 0.02403
#
# Static dielectric constant tensor:
#      x y z
#    x 2.434570 -0.135260 0.153470 
#    y -0.135260 1.987720 0.011420 
#    z 0.153470 0.011420 2.096590 
# 
# From -- ./inp_files/566998.got.cif
#   From: 2010.05.17/outbox.cif.g08.bks.cpg/sg2_284_cif.got.tgz:566998.got - 2010.06.03 11:33:40.
