data_PCOD9032471
_publ_section_title
;
Structure prediction by ZEFSAII (Michael W. Deem and Ramdas Pophale) SiO2 
 PCOD9032471
Probable space group: P -1
;
_chemical_formula_sum "Si O2"
_cell_formula_units_Z 16
_cell_length_a 5.376484
_cell_length_b 25.809899
_cell_length_c 5.305580
_cell_angle_alpha 72.965854
_cell_angle_beta 79.464405
_cell_angle_gamma 69.113282
_cell_volume 655.142326
_symmetry_space_group_name_H-M "P -1"
_symmetry_group_IT_number 2
_symmetry_cell_setting 'triclinic'
loop_
_space_group_symop_operation_xyz
x,y,z
-x,-y,-z
loop_
_atom_site_type_symbol
_atom_site_label
_atom_site_fract_x
_atom_site_fract_y
_atom_site_fract_z
Si Si1 0.327750 0.962233 0.193747
Si Si2 0.040845 0.339428 0.602589
Si Si3 0.574307 0.621426 0.832778
Si Si4 0.192086 0.933263 0.759099
Si Si5 0.917615 0.177025 0.158434
Si Si6 0.461509 0.566425 0.407755
Si Si7 0.339237 0.236200 0.997969
Si Si8 0.877052 0.268070 0.389477
O O1 0.399411 0.934631 0.496533
O O2 0.321779 0.919344 0.030990
O O3 0.028552 0.005090 0.240480
O O4 0.500000 0.000000 0.000000
O O5 0.839574 0.396483 0.672411
O O6 0.867055 0.298969 0.611049
O O7 0.167799 0.361880 0.312999
O O8 0.275489 0.295742 0.778253
O O9 0.515964 0.587700 0.645147
O O10 0.326802 0.681312 0.810400
O O11 0.623665 0.584504 0.129177
O O12 0.041526 0.889642 0.759622
O O13 0.166932 0.195932 0.990685
O O14 0.840554 0.208398 0.401362
O O15 0.648368 0.204240 0.011057
O O16 0.500000 0.500000 0.500000
O O17 0.186483 0.253993 0.267084
#
# Coordination Sequence:
#
# PCOD9032471 Si02
#       8
#     2   2   2   2   2   2   2   2
#     4  10  22  43  71  93 135 181 232 281 350 405
#     4  11  24  40  72  94 137 184 226 281 352 420
#     4  11  24  41  71  92 137 177 228 280 352 415
#     4  10  23  43  65 102 133 178 232 285 341 410
#     4  10  23  42  68 103 141 180 231 288 344 414
#     4  11  25  44  65 100 133 173 234 293 342 411
#     4  10  23  43  66  97 143 177 230 279 352 412
#     4   9  22  40  63  98 133 177 224 275 343 413
#
# _framework density 24.422173000000001
#
# number of rings (size 3 to 8) (size 9 to 14) (size 15 to 20)
#    0.750    1.000    1.250    1.500    8.750    2.000 
#    2.250    0.000    0.000    0.000    0.000    0.000 
#    0.000    0.000    0.000    0.000    0.000    0.000 
#
# Total GULP energy -89249.241862 kJ/mol
# GULP energy per Si atom -5578.077616 kJ/mol
# Density = 2.436659 g / cm^3
# Si number density = 24.422173 Si / 1000 Ang^3
#
#
#
# Elastic Constant Matrix: (Units=GPa)
#
#
# Indices 1 2 3 4 5 6 
#
# 1 97.3240 13.9695 19.6714 4.9103 -9.9581 6.6748
# 2 13.9695 110.6772 22.6589 14.9945 10.9644 20.7622
# 3 19.6714 22.6589 108.5196 18.9171 -14.0641 -1.6637
# 4 4.9103 14.9945 18.9171 24.9829 7.5205 7.3251
# 5 -9.9581 10.9644 -14.0641 7.5205 28.7547 0.6586
# 6 6.6748 20.7622 -1.6637 7.3251 0.6586 23.1646
#
#
#
# Elastic Compliance Matrix: (Units=1/GPa)
#
#
# Indices 1 2 3 4 5 6 
#
# 1 0.011284 -0.001043 -0.001059 -0.001458 0.004216 -0.002052
# 2 -0.001043 0.012615 -0.003653 0.000800 -0.006908 -0.011326
# 3 -0.001059 -0.003653 0.014361 -0.014592 0.011663 0.008894
# 4 -0.001458 0.000800 -0.014592 0.064356 -0.024297 -0.021004
# 5 0.004216 -0.006908 0.011663 -0.024297 0.050654 0.012058
# 6 -0.002052 -0.011326 0.008894 -0.021004 0.012058 0.060849
#
#
# Mechanical properties :
#
#
# Convention : Reuss Voigt Hill
#
# Bulk Modulus (GPa) = 37.38158 47.68004 42.53081
# Shear Modulus (GPa) = 21.31766 32.72851 27.02309
#
# Velocity S-wave (km/s) = 2.95766 3.66473 3.33002
# Velocity P-wave (km/s) = 5.19647 6.12149 5.67785
#
# Compressibility (1/GPa) = 0.02675114
#
# Stress axis : x y z
#
# Youngs Moduli (GPa) = 88.61894 79.26775 69.63163
#
# Poissons Ratio (x) = 0.08266 0.07372
# Poissons Ratio (y) = 0.09241 0.25440
# Poissons Ratio (z) = 0.09382 0.28960
#
# Static dielectric constant tensor:
#      x y z
#    x 1.992560 0.012100 0.031360 
#    y 0.012100 1.933190 0.046970 
#    z 0.031360 0.046970 2.069210 
# 
# From -- ./inp_files/14439.got.cif
#   From: 2010.05.17/outbox.cif.g08.bks.cpg/sg2_8_cif.got.tgz:14439.got - 2010.06.03 11:33:40.
