data_PCOD9032286
_publ_section_title
;
Structure prediction by ZEFSAII (Michael W. Deem and Ramdas Pophale) SiO2 
 PCOD9032286
Probable space group: P -1
;
_chemical_formula_sum "Si O2"
_cell_formula_units_Z 16
_cell_length_a 9.055286
_cell_length_b 11.384205
_cell_length_c 23.017308
_cell_angle_alpha 145.187314
_cell_angle_beta 146.187755
_cell_angle_gamma 37.823502
_cell_volume 709.130556
_symmetry_space_group_name_H-M "P -1"
_symmetry_group_IT_number 2
_symmetry_cell_setting 'triclinic'
loop_
_space_group_symop_operation_xyz
x,y,z
-x,-y,-z
loop_
_atom_site_type_symbol
_atom_site_label
_atom_site_fract_x
_atom_site_fract_y
_atom_site_fract_z
Si Si1 0.419582 0.048239 0.560636
Si Si2 0.028019 0.980358 0.777592
Si Si3 0.138883 0.334704 0.257275
Si Si4 0.778137 0.651834 0.037115
Si Si5 0.836557 0.031293 0.052028
Si Si6 0.443125 0.590170 0.396082
Si Si7 0.976279 0.463386 0.388472
Si Si8 0.962161 0.570486 0.857444
O O1 0.210446 0.292373 0.587494
O O2 0.500000 0.000000 0.500000
O O3 0.316826 0.852993 0.471684
O O4 0.695747 0.038389 0.683131
O O5 0.106909 0.037062 0.890436
O O6 0.154677 0.718536 0.706990
O O7 0.135153 0.134056 0.834843
O O8 0.395176 0.416085 0.355592
O O9 0.093550 0.379833 0.328587
O O10 0.932010 0.462293 0.188226
O O11 0.101004 0.099005 0.144606
O O12 0.818378 0.521125 0.057188
O O13 0.449527 0.756845 0.955251
O O14 0.000000 0.500000 0.000000
O O15 0.816369 0.828090 0.926761
O O16 0.773199 0.548019 0.489902
O O17 0.278211 0.543197 0.267699
#
# Coordination Sequence:
#
# PCOD9032286 Si02
#       8
#     2   2   2   2   2   2   2   2
#     4  11  24  42  66 100 131 166 216 264 324 385
#     4  10  24  40  65  96 129 165 212 262 320 387
#     4   9  22  43  66  95 128 167 224 261 319 383
#     4  12  25  40  63  97 132 166 219 261 318 389
#     4  11  23  43  67  93 127 181 205 265 333 369
#     4   9  22  42  63  99 126 169 213 268 316 379
#     4  10  22  43  70  93 130 173 207 268 330 375
#     4  10  23  41  65  93 134 166 215 269 308 385
#
# _framework density 22.562840999999999
#
# number of rings (size 3 to 8) (size 9 to 14) (size 15 to 20)
#    0.750    1.000    1.250    1.875    3.500    6.000 
#    0.000    5.000    0.000    0.000    0.000    0.000 
#    0.000    0.000    0.000    0.000    0.000    0.000 
#
# Total GULP energy -89067.872666 kJ/mol
# GULP energy per Si atom -5566.742042 kJ/mol
# Density = 2.251149 g / cm^3
# Si number density = 22.562841 Si / 1000 Ang^3
#
#
#
# Elastic Constant Matrix: (Units=GPa)
#
#
# Indices 1 2 3 4 5 6 
#
# 1 21.5722 6.8773 7.1854 6.2790 2.0423 13.6976
# 2 6.8773 117.0046 28.0936 2.1376 3.1148 -0.1126
# 3 7.1854 28.0936 103.6824 14.6061 5.5734 -12.5404
# 4 6.2790 2.1376 14.6061 43.2295 26.2001 -3.1643
# 5 2.0423 3.1148 5.5734 26.2001 34.2695 -2.2667
# 6 13.6976 -0.1126 -12.5404 -3.1643 -2.2667 21.2601
#
#
#
# Elastic Compliance Matrix: (Units=1/GPa)
#
#
# Indices 1 2 3 4 5 6 
#
# 1 0.108429 -0.002916 -0.013876 -0.020856 0.006684 -0.080451
# 2 -0.002916 0.009309 -0.002415 0.001805 -0.001620 0.000599
# 3 -0.013876 -0.002415 0.013507 -0.002194 0.001634 0.016742
# 4 -0.020856 0.001805 -0.002194 0.049315 -0.035227 0.015737
# 5 0.006684 -0.001620 0.001634 -0.035227 0.055418 -0.002686
# 6 -0.080451 0.000599 0.016742 0.015737 -0.002686 0.110805
#
#
# Mechanical properties :
#
#
# Convention : Reuss Voigt Hill
#
# Bulk Modulus (GPa) = 10.77228 36.28575 23.52902
# Shear Modulus (GPa) = 12.01523 33.09203 22.55363
#
# Velocity S-wave (km/s) = 2.31015 3.83386 3.16506
# Velocity P-wave (km/s) = 3.44970 5.97620 4.87931
#
# Compressibility (1/GPa) = 0.09283085
#
# Stress axis : x y z
#
# Youngs Moduli (GPa) = 9.22266 107.42760 74.03591
#
# Poissons Ratio (x) = 0.31324 1.02732
# Poissons Ratio (y) = 0.02689 0.17878
# Poissons Ratio (z) = 0.12797 0.25942
#
# Static dielectric constant tensor:
#      x y z
#    x 1.899750 -0.015800 -0.012410 
#    y -0.015800 1.856000 0.000990 
#    z -0.012410 0.000990 2.069810 
# 
# From -- ./inp_files/618383.got.cif
#   From: 2010.05.17/outbox.cif.g08.bks.cpg/sg2_310_cif.got.tgz:618383.got - 2010.06.03 11:33:40.
