data_PCOD9032575
_publ_section_title
;
Structure prediction by ZEFSAII (Michael W. Deem and Ramdas Pophale) SiO2 
 PCOD9032575
Probable space group: P -1
;
_chemical_formula_sum "Si O2"
_cell_formula_units_Z 14
_cell_length_a 23.510067
_cell_length_b 8.813029
_cell_length_c 8.020846
_cell_angle_alpha 49.397474
_cell_angle_beta 148.591017
_cell_angle_gamma 139.546180
_cell_volume 561.936391
_symmetry_space_group_name_H-M "P -1"
_symmetry_group_IT_number 2
_symmetry_cell_setting 'triclinic'
loop_
_space_group_symop_operation_xyz
x,y,z
-x,-y,-z
loop_
_atom_site_type_symbol
_atom_site_label
_atom_site_fract_x
_atom_site_fract_y
_atom_site_fract_z
Si Si1 0.138058 0.520488 0.475355
Si Si2 0.535803 0.059028 0.734846
Si Si3 0.603720 0.701814 0.243516
Si Si4 0.910143 0.341291 0.239329
Si Si5 0.142095 0.111645 0.696638
Si Si6 0.328331 0.039976 0.455268
Si Si7 0.753829 0.513981 0.880370
O O1 0.226099 0.795816 0.466137
O O2 0.990011 0.440222 0.196092
O O3 0.171162 0.369340 0.541983
O O4 0.164801 0.434650 0.784226
O O5 0.615855 0.335837 0.738830
O O6 0.500000 0.000000 0.500000
O O7 0.418579 0.976917 0.622718
O O8 0.620748 0.943894 0.053977
O O9 0.732006 0.694101 0.593341
O O10 0.580552 0.741611 0.352008
O O11 0.500000 0.500000 0.000000
O O12 0.870662 0.072315 0.342998
O O13 0.000000 0.500000 0.500000
O O14 0.793456 0.380730 0.943820
O O15 0.245420 0.109289 0.081612
O O16 0.000000 0.000000 0.500000
#
# Coordination Sequence:
#
# PCOD9032575 Si02
#       7
#     2   2   2   2   2   2   2
#     4  10  22  44  72 103 142 187 237 298 357 420
#     4  12  26  47  67 101 144 188 240 299 359 420
#     4  12  26  45  72 109 141 194 248 281 365 435
#     4   9  21  43  71  99 141 189 233 292 360 420
#     4  10  22  43  72 104 137 187 239 287 360 423
#     4  12  26  46  74 106 146 187 241 302 356 428
#     4  11  22  45  68  99 147 188 232 299 349 424
#
# _framework density 24.913851999999999
#
# number of rings (size 3 to 8) (size 9 to 14) (size 15 to 20)
#    0.000    1.143    4.286    1.286    0.000    4.000 
#    2.571    5.000    0.000    0.000    0.000    0.000 
#    0.000    0.000    0.000    0.000    0.000    0.000 
#
# Total GULP energy -77984.091677 kJ/mol
# GULP energy per Si atom -5570.292263 kJ/mol
# Density = 2.485715 g / cm^3
# Si number density = 24.913852 Si / 1000 Ang^3
#
#
#
# Elastic Constant Matrix: (Units=GPa)
#
#
# Indices 1 2 3 4 5 6 
#
# 1 96.1697 42.3212 30.8958 -8.6868 23.1070 -14.9139
# 2 42.3212 109.4564 25.5873 -16.0591 1.1823 -23.3912
# 3 30.8958 25.5873 103.2183 -24.3831 10.3533 -4.0139
# 4 -8.6868 -16.0591 -24.3831 54.8851 -20.9122 1.1346
# 5 23.1070 1.1823 10.3533 -20.9122 39.6466 2.3637
# 6 -14.9139 -23.3912 -4.0139 1.1346 2.3637 46.4080
#
#
#
# Elastic Compliance Matrix: (Units=1/GPa)
#
#
# Indices 1 2 3 4 5 6 
#
# 1 0.016792 -0.005645 -0.003542 -0.005016 -0.011516 0.002954
# 2 -0.005645 0.013032 -0.000847 0.004438 0.005207 0.004308
# 3 -0.003542 -0.000847 0.011982 0.005195 0.001745 -0.000745
# 4 -0.005016 0.004438 0.005195 0.027028 0.015714 -0.000387
# 5 -0.011516 0.005207 0.001745 0.015714 0.039811 -0.003337
# 6 0.002954 0.004308 -0.000745 -0.000387 -0.003337 0.024784
#
#
# Mechanical properties :
#
#
# Convention : Reuss Voigt Hill
#
# Bulk Modulus (GPa) = 46.00348 56.27256 51.13802
# Shear Modulus (GPa) = 31.10565 42.19059 36.64812
#
# Velocity S-wave (km/s) = 3.53729 4.11963 3.83951
# Velocity P-wave (km/s) = 5.93197 6.72788 6.34242
#
# Compressibility (1/GPa) = 0.02173749
#
# Stress axis : x y z
#
# Youngs Moduli (GPa) = 59.55111 76.73284 83.46156
#
# Poissons Ratio (x) = 0.43316 0.29562
# Poissons Ratio (y) = 0.33617 0.07072
# Poissons Ratio (z) = 0.21093 0.06501
#
# Static dielectric constant tensor:
#      x y z
#    x 2.063080 -0.089080 -0.063160 
#    y -0.089080 1.986330 0.022520 
#    z -0.063160 0.022520 2.058490 
# 
# From -- ./inp_files/351640.got.cif
#   From: 2010.05.17/outbox.cif.g08.bks.cpg/sg2_176_cif.got.tgz:351640.got - 2010.06.03 11:33:40.
