data_PCOD9032509
_publ_section_title
;
Structure prediction by ZEFSAII (Michael W. Deem and Ramdas Pophale) SiO2 
 PCOD9032509
Probable space group: P -1
;
_chemical_formula_sum "Si O2"
_cell_formula_units_Z 15
_cell_length_a 9.462330
_cell_length_b 9.128688
_cell_length_c 12.478317
_cell_angle_alpha 74.520471
_cell_angle_beta 116.180574
_cell_angle_gamma 137.146788
_cell_volume 655.039324
_symmetry_space_group_name_H-M "P -1"
_symmetry_group_IT_number 2
_symmetry_cell_setting 'triclinic'
loop_
_space_group_symop_operation_xyz
x,y,z
-x,-y,-z
loop_
_atom_site_type_symbol
_atom_site_label
_atom_site_fract_x
_atom_site_fract_y
_atom_site_fract_z
Si Si1 0.707343 0.745687 0.059830
Si Si2 0.769668 0.780212 0.517225
Si Si3 0.208545 0.960197 0.153444
Si Si4 0.571649 0.732025 0.256273
Si Si5 0.000000 0.500000 0.500000
Si Si6 0.509022 0.829837 0.576240
Si Si7 0.101694 0.768615 0.686682
Si Si8 0.103622 0.549545 0.139935
O O1 0.672968 0.754214 0.172199
O O2 0.951694 0.836694 0.111533
O O3 0.500000 0.500000 0.000000
O O4 0.710796 0.895708 0.954133
O O5 0.619495 0.652053 0.386733
O O6 0.652066 0.825473 0.542254
O O7 0.869348 0.704524 0.625700
O O8 0.000000 0.000000 0.500000
O O9 0.198932 0.773723 0.170652
O O10 0.364780 0.098964 0.281383
O O11 0.310095 0.578256 0.188214
O O12 0.694365 0.974812 0.280965
O O13 0.749427 0.395273 0.463451
O O14 0.889675 0.317332 0.403543
O O15 0.500000 0.000000 0.500000
O O16 0.081055 0.638141 0.802933
O O17 0.000000 0.500000 0.000000
#
# Coordination Sequence:
#
# PCOD9032509 Si02
#       8
#     2   2   2   2   1   2   2   2
#     4  11  26  46  72 100 132 179 233 287 349 416
#     4  10  22  43  71  98 133 179 227 285 350 413
#     4  11  25  46  68  99 138 178 227 288 348 414
#     4  11  24  44  68  98 135 176 225 283 344 407
#     4  12  26  40  66 102 136 182 234 278 346 422
#     4  12  25  44  69 102 143 182 230 291 351 415
#     4  11  25  45  68 101 139 180 229 287 350 413
#     4  12  26  42  66  97 135 181 229 277 338 414
#
# _framework density 22.899387999999998
#
# number of rings (size 3 to 8) (size 9 to 14) (size 15 to 20)
#    0.000    0.800    0.000    8.000    0.000   13.867 
#    0.000    0.000    0.000    0.000    0.000    0.000 
#    0.000    0.000    0.000    0.000    0.000    0.000 
#
# Total GULP energy -83720.044700 kJ/mol
# GULP energy per Si atom -5581.336313 kJ/mol
# Density = 2.284727 g / cm^3
# Si number density = 22.899388 Si / 1000 Ang^3
#
#
#
# Elastic Constant Matrix: (Units=GPa)
#
#
# Indices 1 2 3 4 5 6 
#
# 1 115.5155 -4.1044 11.4013 2.0964 -8.5299 1.9064
# 2 -4.1044 53.1420 5.7253 7.7152 -4.4103 4.9425
# 3 11.4013 5.7253 116.9228 10.1619 -2.9390 -0.9001
# 4 2.0964 7.7152 10.1619 42.6854 -3.3790 10.0145
# 5 -8.5299 -4.4103 -2.9390 -3.3790 47.6730 15.4618
# 6 1.9064 4.9425 -0.9001 10.0145 15.4618 31.6910
#
#
#
# Elastic Compliance Matrix: (Units=1/GPa)
#
#
# Indices 1 2 3 4 5 6 
#
# 1 0.008984 0.001132 -0.000906 0.000204 0.002296 -0.001927
# 2 0.001132 0.019960 -0.000842 -0.002271 0.003140 -0.004019
# 3 -0.000906 -0.000842 0.008880 -0.002237 -0.000264 0.001274
# 4 0.000204 -0.002271 -0.002237 0.027317 0.005149 -0.010866
# 5 0.002296 0.003140 -0.000264 0.005149 0.027038 -0.015454
# 6 -0.001927 -0.004019 0.001274 -0.010866 -0.015454 0.043307
#
#
# Mechanical properties :
#
#
# Convention : Reuss Voigt Hill
#
# Bulk Modulus (GPa) = 27.32997 34.62497 30.97747
# Shear Modulus (GPa) = 33.57576 42.58041 38.07808
#
# Velocity S-wave (km/s) = 3.83329 4.31682 4.08222
# Velocity P-wave (km/s) = 5.61720 6.32455 5.98134
#
# Compressibility (1/GPa) = 0.03658986
#
# Stress axis : x y z
#
# Youngs Moduli (GPa) = 111.30724 50.10082 112.61440
#
# Poissons Ratio (x) = -0.05670 0.10206
# Poissons Ratio (y) = -0.12597 0.09486
# Poissons Ratio (z) = 0.10088 0.04220
#
# Static dielectric constant tensor:
#      x y z
#    x 1.861490 0.014550 -0.025680 
#    y 0.014550 2.020820 -0.115220 
#    z -0.025680 -0.115220 1.879410 
# 
# From -- ./inp_files/382093.got.cif
#   From: 2010.05.17/outbox.cif.g08.bks.cpg/sg2_192_cif.got.tgz:382093.got - 2010.06.03 11:33:40.
