data_PCOD9032151
_publ_section_title
;
Structure prediction by ZEFSAII (Michael W. Deem and Ramdas Pophale) SiO2 
 PCOD9032151
Probable space group: P -1
;
_chemical_formula_sum "Si O2"
_cell_formula_units_Z 14
_cell_length_a 12.494359
_cell_length_b 9.298797
_cell_length_c 16.710749
_cell_angle_alpha 48.973409
_cell_angle_beta 33.369992
_cell_angle_gamma 32.809256
_cell_volume 571.854887
_symmetry_space_group_name_H-M "P -1"
_symmetry_group_IT_number 2
_symmetry_cell_setting 'triclinic'
loop_
_space_group_symop_operation_xyz
x,y,z
-x,-y,-z
loop_
_atom_site_type_symbol
_atom_site_label
_atom_site_fract_x
_atom_site_fract_y
_atom_site_fract_z
Si Si1 0.306008 0.119987 0.913500
Si Si2 0.022116 0.753357 0.083202
Si Si3 0.467153 0.365075 0.830063
Si Si4 0.889553 0.158952 0.404683
Si Si5 0.825376 0.789694 0.371553
Si Si6 0.153523 0.814076 0.746050
Si Si7 0.112167 0.237176 0.374427
O O1 0.318906 0.302630 0.892172
O O2 0.171609 0.211364 0.875771
O O3 0.622438 0.854486 0.798776
O O4 0.120980 0.098815 0.084711
O O5 0.932868 0.752469 0.227333
O O6 0.324365 0.483510 0.961952
O O7 0.000000 0.000000 0.000000
O O8 0.381460 0.613279 0.743953
O O9 0.786924 0.100376 0.724203
O O10 0.791029 0.022516 0.547612
O O11 0.754119 0.322398 0.348272
O O12 0.902676 0.304152 0.413399
O O13 0.964138 0.500845 0.420625
O O14 0.500000 0.000000 0.500000
O O15 0.901116 0.925404 0.323168
#
# Coordination Sequence:
#
# PCOD9032151 Si02
#       7
#     2   2   2   2   2   2   2
#     4  10  23  42  67  99 126 166 219 265 326 379
#     4  11  22  41  66  93 132 170 210 270 320 379
#     4  10  22  43  69  99 130 164 218 270 318 386
#     4  10  24  45  67  94 133 168 216 274 316 376
#     4  12  27  43  62  96 132 174 217 259 327 389
#     4  11  23  42  67  96 130 171 213 265 324 379
#     4  10  25  44  63  96 129 169 220 263 323 388
#
# _framework density 24.481736000000001
#
# number of rings (size 3 to 8) (size 9 to 14) (size 15 to 20)
#    0.000    1.429    2.857    2.571    8.000    3.429 
#    0.000    2.857    0.000    0.000    0.000    0.000 
#    0.000    0.000    0.000    0.000    0.000    0.000 
#
# Total GULP energy -78366.392180 kJ/mol
# GULP energy per Si atom -5597.599441 kJ/mol
# Density = 2.442601 g / cm^3
# Si number density = 24.481736 Si / 1000 Ang^3
#
#
#
# Elastic Constant Matrix: (Units=GPa)
#
#
# Indices 1 2 3 4 5 6 
#
# 1 77.9265 -5.0025 16.2711 -6.3430 18.2381 8.4113
# 2 -5.0025 85.4301 12.0129 9.3351 -22.4306 21.5438
# 3 16.2711 12.0129 101.7449 12.5786 -5.2245 5.2666
# 4 -6.3430 9.3351 12.5786 32.1612 11.2652 5.6164
# 5 18.2381 -22.4306 -5.2245 11.2652 37.5327 -8.2577
# 6 8.4113 21.5438 5.2666 5.6164 -8.2577 33.3717
#
#
#
# Elastic Compliance Matrix: (Units=1/GPa)
#
#
# Indices 1 2 3 4 5 6 
#
# 1 0.020505 -0.002030 -0.005330 0.015032 -0.018668 -0.010165
# 2 -0.002030 0.017427 0.000356 -0.009020 0.012815 -0.006105
# 3 -0.005330 0.000356 0.012018 -0.009044 0.007777 0.002663
# 4 0.015032 -0.009020 -0.009044 0.054317 -0.033321 -0.013925
# 5 -0.018668 0.012815 0.007777 -0.033321 0.057781 0.015110
# 6 -0.010165 -0.006105 0.002663 -0.013925 0.015110 0.042131
#
#
# Mechanical properties :
#
#
# Convention : Reuss Voigt Hill
#
# Bulk Modulus (GPa) = 27.82261 34.62939 31.22600
# Shear Modulus (GPa) = 21.72328 36.73446 29.22887
#
# Velocity S-wave (km/s) = 2.98203 3.87781 3.45904
# Velocity P-wave (km/s) = 4.82141 5.85026 5.36058
#
# Compressibility (1/GPa) = 0.03594199
#
# Stress axis : x y z
#
# Youngs Moduli (GPa) = 48.76844 57.38380 83.20551
#
# Poissons Ratio (x) = 0.11650 0.44351
# Poissons Ratio (y) = 0.09901 -0.02965
# Poissons Ratio (z) = 0.25995 -0.02045
#
# Static dielectric constant tensor:
#      x y z
#    x 1.940830 -0.030030 0.010570 
#    y -0.030030 1.985530 -0.005050 
#    z 0.010570 -0.005050 1.932010 
# 
# From -- ./inp_files/153711.got.cif
#   From: 2010.05.17/outbox.cif.g08.bks.cpg/sg2_77_cif.got.tgz:153711.got - 2010.06.03 11:33:40.
