data_PCOD9032244
_publ_section_title
;
Structure prediction by ZEFSAII (Michael W. Deem and Ramdas Pophale) SiO2 
 PCOD9032244
Probable space group: P -1
;
_chemical_formula_sum "Si O2"
_cell_formula_units_Z 14
_cell_length_a 15.485117
_cell_length_b 14.730479
_cell_length_c 7.408093
_cell_angle_alpha 49.420727
_cell_angle_beta 131.210444
_cell_angle_gamma 153.327312
_cell_volume 561.017537
_symmetry_space_group_name_H-M "P -1"
_symmetry_group_IT_number 2
_symmetry_cell_setting 'triclinic'
loop_
_space_group_symop_operation_xyz
x,y,z
-x,-y,-z
loop_
_atom_site_type_symbol
_atom_site_label
_atom_site_fract_x
_atom_site_fract_y
_atom_site_fract_z
Si Si1 0.385858 0.066493 0.579185
Si Si2 0.488583 0.724510 0.880340
Si Si3 0.094208 0.999465 0.879072
Si Si4 0.687945 0.589912 0.710209
Si Si5 0.218066 0.556829 0.213605
Si Si6 0.010710 0.188296 0.627088
Si Si7 0.177235 0.651984 0.691013
O O1 0.466656 0.223500 0.334204
O O2 0.586352 0.202073 0.781024
O O3 0.277862 0.864187 0.595519
O O4 0.208119 0.983856 0.542040
O O5 0.355220 0.720691 0.770082
O O6 0.367364 0.504027 0.045488
O O7 0.704311 0.890789 0.052496
O O8 0.903189 0.828035 0.712393
O O9 0.037839 0.881350 0.140277
O O10 0.123414 0.164715 0.748285
O O11 0.500000 0.500000 0.500000
O O12 0.705020 0.490158 0.735058
O O13 0.113519 0.400633 0.438773
O O14 0.100675 0.532372 0.931682
O O15 0.000000 0.500000 0.500000
#
# Coordination Sequence:
#
# PCOD9032244 Si02
#       7
#     2   2   2   2   2   2   2
#     4  11  24  46  69  98 137 176 227 278 338 403
#     4  10  24  43  72  95 134 180 229 276 338 405
#     4  10  22  43  70 103 139 182 220 276 336 413
#     4  11  23  40  66 104 143 176 226 274 338 406
#     4  11  25  42  68 100 136 176 223 283 336 399
#     4  10  23  42  71 103 136 177 222 273 342 401
#     4  11  27  48  70  99 131 183 232 285 340 394
#
# _framework density 24.954657999999998
#
# number of rings (size 3 to 8) (size 9 to 14) (size 15 to 20)
#    0.000    1.429    0.000    3.429   10.000    5.143 
#    2.571    5.714    0.000    0.000    0.000    0.000 
#    0.000    0.000    0.000    0.000    0.000    0.000 
#
# Total GULP energy -78261.570815 kJ/mol
# GULP energy per Si atom -5590.112201 kJ/mol
# Density = 2.489786 g / cm^3
# Si number density = 24.954658 Si / 1000 Ang^3
#
#
#
# Elastic Constant Matrix: (Units=GPa)
#
#
# Indices 1 2 3 4 5 6 
#
# 1 58.7626 41.5467 23.1654 13.8196 15.7734 12.4101
# 2 41.5467 175.2673 72.3798 16.3211 2.8358 3.0130
# 3 23.1654 72.3798 139.7431 -3.4579 6.6045 -0.6872
# 4 13.8196 16.3211 -3.4579 50.3214 9.3216 1.0209
# 5 15.7734 2.8358 6.6045 9.3216 36.3041 5.9571
# 6 12.4101 3.0130 -0.6872 1.0209 5.9571 35.9990
#
#
#
# Elastic Compliance Matrix: (Units=1/GPa)
#
#
# Indices 1 2 3 4 5 6 
#
# 1 0.025664 -0.004858 -0.001473 -0.003883 -0.008361 -0.006975
# 2 -0.004858 0.008589 -0.003819 -0.002209 0.002618 0.000513
# 3 -0.001473 -0.003819 0.009526 0.002580 -0.001656 0.001210
# 4 -0.003883 -0.002209 0.002580 0.022670 -0.004711 0.001709
# 5 -0.008361 0.002618 -0.001656 -0.004711 0.032925 -0.002683
# 6 -0.006975 0.000513 0.001210 0.001709 -0.002683 0.030559
#
#
# Mechanical properties :
#
#
# Convention : Reuss Voigt Hill
#
# Bulk Modulus (GPa) = 42.59311 71.99521 57.29416
# Shear Modulus (GPa) = 31.63340 40.30366 35.96853
#
# Velocity S-wave (km/s) = 3.56425 4.02316 3.80064
# Velocity P-wave (km/s) = 5.83470 7.10592 6.50146
#
# Compressibility (1/GPa) = 0.02347798
#
# Stress axis : x y z
#
# Youngs Moduli (GPa) = 38.96487 116.42796 104.97184
#
# Poissons Ratio (x) = 0.56566 0.15464
# Poissons Ratio (y) = 0.18931 0.40090
# Poissons Ratio (z) = 0.05740 0.44466
#
# Static dielectric constant tensor:
#      x y z
#    x 1.979090 0.048400 -0.030750 
#    y 0.048400 2.040400 0.038300 
#    z -0.030750 0.038300 2.059580 
# 
# From -- ./inp_files/229564.got.cif
#   From: 2010.05.17/outbox.cif.g08.bks.cpg/sg2_115_cif.got.tgz:229564.got - 2010.06.03 11:33:40.
