data_PCOD9032487
_publ_section_title
;
Structure prediction by ZEFSAII (Michael W. Deem and Ramdas Pophale) SiO2 
 PCOD9032487
Probable space group: P -1
;
_chemical_formula_sum "Si O2"
_cell_formula_units_Z 16
_cell_length_a 11.876101
_cell_length_b 12.141366
_cell_length_c 8.075651
_cell_angle_alpha 125.111089
_cell_angle_beta 127.099279
_cell_angle_gamma 57.275629
_cell_volume 725.515797
_symmetry_space_group_name_H-M "P -1"
_symmetry_group_IT_number 2
_symmetry_cell_setting 'triclinic'
loop_
_space_group_symop_operation_xyz
x,y,z
-x,-y,-z
loop_
_atom_site_type_symbol
_atom_site_label
_atom_site_fract_x
_atom_site_fract_y
_atom_site_fract_z
Si Si1 0.478608 0.941257 0.174244
Si Si2 0.315576 0.206816 0.035512
Si Si3 0.225853 0.536977 0.716273
Si Si4 0.909199 0.706707 0.643620
Si Si5 0.259052 0.709090 0.210019
Si Si6 0.275358 0.977285 0.321115
Si Si7 0.992382 0.654302 0.062858
Si Si8 0.430255 0.423535 0.508118
O O1 0.603860 0.995155 0.422070
O O2 0.378210 0.066607 0.079455
O O3 0.371416 0.908411 0.186486
O O4 0.572425 0.813593 0.035171
O O5 0.326188 0.341534 0.263325
O O6 0.143296 0.236138 0.867703
O O7 0.200540 0.383643 0.580806
O O8 0.341641 0.522778 0.660030
O O9 0.062025 0.641597 0.624170
O O10 0.271435 0.595684 0.977008
O O11 0.833998 0.870748 0.690543
O O12 0.951277 0.675615 0.848283
O O13 0.425811 0.692659 0.395036
O O14 0.152455 0.679383 0.230765
O O15 0.195636 0.867993 0.225156
O O16 0.000000 0.500000 0.000000
O O17 0.500000 0.500000 0.500000
#
# Coordination Sequence:
#
# PCOD9032487 Si02
#       8
#     2   2   2   2   2   2   2   2
#     4  10  23  40  72  94 128 183 217 275 328 413
#     4  11  22  45  66  94 132 179 228 256 343 400
#     4  10  23  42  67  99 133 173 233 264 336 401
#     4  10  22  43  71  96 130 185 224 273 328 408
#     4  11  26  42  67 105 135 176 223 285 339 387
#     4  11  22  45  70 100 139 167 230 283 337 394
#     4  11  23  44  65  95 138 178 221 272 335 404
#     4  12  24  42  66  96 139 173 220 286 326 395
#
# _framework density 22.053276
#
# number of rings (size 3 to 8) (size 9 to 14) (size 15 to 20)
#    0.000    1.250    3.750    1.125    3.500    6.000 
#    0.000    0.625    0.000    0.000    0.000    0.000 
#    0.000    0.000    0.000    0.000    0.000    0.000 
#
# Total GULP energy -89458.754745 kJ/mol
# GULP energy per Si atom -5591.172172 kJ/mol
# Density = 2.200308 g / cm^3
# Si number density = 22.053276 Si / 1000 Ang^3
#
#
#
# Elastic Constant Matrix: (Units=GPa)
#
#
# Indices 1 2 3 4 5 6 
#
# 1 139.3557 51.9711 -7.5112 4.7366 12.5526 -21.4665
# 2 51.9711 110.5220 2.9062 0.5005 -3.3979 -5.8312
# 3 -7.5112 2.9062 15.3564 -0.2690 7.2375 -2.0565
# 4 4.7366 0.5005 -0.2690 19.7696 -2.3369 4.6273
# 5 12.5526 -3.3979 7.2375 -2.3369 22.8480 7.8338
# 6 -21.4665 -5.8312 -2.0565 4.6273 7.8338 29.2776
#
#
#
# Elastic Compliance Matrix: (Units=1/GPa)
#
#
# Indices 1 2 3 4 5 6 
#
# 1 0.019327 -0.009437 0.028960 -0.013466 -0.031063 0.024765
# 2 -0.009437 0.013838 -0.016491 0.006200 0.016802 -0.010797
# 3 0.028960 -0.016491 0.126072 -0.026309 -0.078838 0.052057
# 4 -0.013466 0.006200 -0.026309 0.064152 0.033346 -0.029548
# 5 -0.031063 0.016802 -0.078838 0.033346 0.112394 -0.060310
# 6 0.024765 -0.010797 0.052057 -0.029548 -0.060310 0.074627
#
#
# Mechanical properties :
#
#
# Convention : Reuss Voigt Hill
#
# Bulk Modulus (GPa) = 6.04959 39.99625 23.02292
# Shear Modulus (GPa) = 10.88268 28.90358 19.89313
#
# Velocity S-wave (km/s) = 2.22383 3.62418 3.00667
# Velocity P-wave (km/s) = 3.05664 5.97399 4.74508
#
# Compressibility (1/GPa) = 0.16530055
#
# Stress axis : x y z
#
# Youngs Moduli (GPa) = 51.74171 72.26466 7.93197
#
# Poissons Ratio (x) = 0.68196 -0.22971
# Poissons Ratio (y) = 0.48829 0.13081
# Poissons Ratio (z) = -1.49843 1.19172
#
# Static dielectric constant tensor:
#      x y z
#    x 1.858410 -0.027670 0.003100 
#    y -0.027670 1.846620 -0.055740 
#    z 0.003100 -0.055740 1.819670 
# 
# From -- ./inp_files/263631.got.cif
#   From: 2010.05.17/outbox.cif.g08.bks.cpg/sg2_132_cif.got.tgz:263631.got - 2010.06.03 11:33:40.
