data_PCOD9032500
_publ_section_title
;
Structure prediction by ZEFSAII (Michael W. Deem and Ramdas Pophale) SiO2 
 PCOD9032500
Probable space group: P -1
;
_chemical_formula_sum "Si O2"
_cell_formula_units_Z 16
_cell_length_a 11.043710
_cell_length_b 12.263916
_cell_length_c 9.079245
_cell_angle_alpha 110.789752
_cell_angle_beta 56.406607
_cell_angle_gamma 75.358906
_cell_volume 782.290312
_symmetry_space_group_name_H-M "P -1"
_symmetry_group_IT_number 2
_symmetry_cell_setting 'triclinic'
loop_
_space_group_symop_operation_xyz
x,y,z
-x,-y,-z
loop_
_atom_site_type_symbol
_atom_site_label
_atom_site_fract_x
_atom_site_fract_y
_atom_site_fract_z
Si Si1 0.201339 0.930839 0.378699
Si Si2 0.399941 0.464075 0.662758
Si Si3 0.001426 0.624714 0.941419
Si Si4 0.290460 0.115152 0.214752
Si Si5 0.985230 0.618780 0.299823
Si Si6 0.436016 0.846254 0.457784
Si Si7 0.323443 0.619541 0.089786
Si Si8 0.716910 0.882916 0.121609
O O1 0.265123 0.916198 0.497934
O O2 0.303858 0.766526 0.184700
O O3 0.242972 0.028070 0.308037
O O4 0.000000 0.000000 0.500000
O O5 0.500000 0.500000 0.500000
O O6 0.212719 0.515640 0.742150
O O7 0.499151 0.306047 0.589997
O O8 0.350598 0.569022 0.881339
O O9 0.940414 0.547718 0.837056
O O10 0.950251 0.646583 0.159873
O O11 0.907226 0.783384 0.024265
O O12 0.192749 0.268783 0.435504
O O13 0.237635 0.139918 0.091397
O O14 0.500000 0.000000 0.000000
O O15 0.140074 0.635060 0.260785
O O16 0.590825 0.836638 0.249600
O O17 0.386795 0.954605 0.676974
O O18 0.500000 0.500000 0.000000
#
# Coordination Sequence:
#
# PCOD9032500 Si02
#       8
#     2   2   2   2   2   2   2   2
#     4  12  25  44  69  97 142 187 226 285 351 419
#     4  11  26  44  68 101 137 179 229 287 343 416
#     4  10  23  43  72  99 133 182 223 287 355 409
#     4  12  26  42  67 107 139 181 239 293 338 405
#     4  10  22  43  71  97 138 176 237 284 349 415
#     4  11  24  46  69  97 139 184 231 278 350 418
#     4  11  23  42  69  97 136 185 232 277 359 417
#     4  11  25  42  71 102 134 180 234 286 342 406
#
# _framework density 20.452764999999999
#
# number of rings (size 3 to 8) (size 9 to 14) (size 15 to 20)
#    0.000    1.000    3.750    3.000    7.000    2.500 
#    0.000    1.250    0.000    0.000    0.000    0.000 
#    0.000    0.000    0.000    0.000    0.000    0.000 
#
# Total GULP energy -89178.571462 kJ/mol
# GULP energy per Si atom -5573.660716 kJ/mol
# Density = 2.040621 g / cm^3
# Si number density = 20.452765 Si / 1000 Ang^3
#
#
#
# Elastic Constant Matrix: (Units=GPa)
#
#
# Indices 1 2 3 4 5 6 
#
# 1 59.0428 6.0512 16.9258 0.5091 -3.3065 -13.0362
# 2 6.0512 80.9394 29.3621 8.0792 6.5976 -13.6614
# 3 16.9258 29.3621 120.1645 13.9753 10.6872 -3.8665
# 4 0.5091 8.0792 13.9753 30.2481 6.6042 -1.2241
# 5 -3.3065 6.5976 10.6872 6.6042 31.4315 14.6955
# 6 -13.0362 -13.6614 -3.8665 -1.2241 14.6955 27.0599
#
#
#
# Elastic Compliance Matrix: (Units=1/GPa)
#
#
# Indices 1 2 3 4 5 6 
#
# 1 0.019980 0.001591 -0.002733 0.001679 -0.003196 0.011849
# 2 0.001591 0.016223 -0.002970 -0.000693 -0.008118 0.012910
# 3 -0.002733 -0.002970 0.010004 -0.003313 -0.002213 -0.000335
# 4 0.001679 -0.000693 -0.003313 0.037110 -0.009552 0.006852
# 5 -0.003196 -0.008118 -0.002213 -0.009552 0.052177 -0.034722
# 6 0.011849 0.012910 -0.000335 0.006852 -0.034722 0.068300
#
#
# Mechanical properties :
#
#
# Convention : Reuss Voigt Hill
#
# Bulk Modulus (GPa) = 26.32778 40.53610 33.43194
# Shear Modulus (GPa) = 22.25387 31.60177 26.92782
#
# Velocity S-wave (km/s) = 3.30216 3.93505 3.63242
# Velocity P-wave (km/s) = 5.23826 6.36464 5.82872
#
# Compressibility (1/GPa) = 0.03798270
#
# Stress axis : x y z
#
# Youngs Moduli (GPa) = 50.04989 61.63933 99.96031
#
# Poissons Ratio (x) = -0.09804 0.27316
# Poissons Ratio (y) = -0.07961 0.29690
# Poissons Ratio (z) = 0.13677 0.18308
#
# Static dielectric constant tensor:
#      x y z
#    x 1.856200 -0.095240 -0.017330 
#    y -0.095240 -4.183310 0.004020 
#    z -0.017330 0.004020 1.611860 
# 
# From -- ./inp_files/259392.got.cif
#   From: 2010.05.17/outbox.cif.g08.bks.cpg/sg2_130_cif.got.tgz:259392.got - 2010.06.03 11:33:40.
