data_PCOD9032114
_publ_section_title
;
Structure prediction by ZEFSAII (Michael W. Deem and Ramdas Pophale) SiO2 
 PCOD9032114
Probable space group: P -1
;
_chemical_formula_sum "Si O2"
_cell_formula_units_Z 14
_cell_length_a 11.742429
_cell_length_b 14.562551
_cell_length_c 13.757902
_cell_angle_alpha 159.588190
_cell_angle_beta 132.759185
_cell_angle_gamma 49.897928
_cell_volume 602.141391
_symmetry_space_group_name_H-M "P -1"
_symmetry_group_IT_number 2
_symmetry_cell_setting 'triclinic'
loop_
_space_group_symop_operation_xyz
x,y,z
-x,-y,-z
loop_
_atom_site_type_symbol
_atom_site_label
_atom_site_fract_x
_atom_site_fract_y
_atom_site_fract_z
Si Si1 0.189048 0.028820 0.030515
Si Si2 0.728378 0.918435 0.646783
Si Si3 0.596165 0.293479 0.783848
Si Si4 0.839572 0.771876 0.100409
Si Si5 0.401448 0.249110 0.224893
Si Si6 0.004719 0.532913 0.419059
Si Si7 0.810710 0.251052 0.690612
O O1 0.205910 0.002074 0.130765
O O2 0.341919 0.170570 0.219786
O O3 0.052567 0.236422 0.124714
O O4 0.139318 0.741701 0.679553
O O5 0.547508 0.858248 0.496690
O O6 0.841012 0.673214 0.435404
O O7 0.708769 0.124529 0.752587
O O8 0.700211 0.364512 0.823444
O O9 0.500000 0.500000 0.000000
O O10 0.020072 0.831948 0.251786
O O11 0.762204 0.995820 0.347891
O O12 0.752645 0.751387 0.929271
O O13 0.830888 0.488347 0.863464
O O14 0.500000 0.500000 0.500000
O O15 0.500000 0.000000 0.000000
O O16 0.000000 0.500000 0.500000
#
# Coordination Sequence:
#
# PCOD9032114 Si02
#       7
#     2   2   2   2   2   2   2
#     4  11  25  44  71  99 135 188 220 291 350 410
#     4  10  25  42  63 101 136 177 223 275 354 418
#     4  11  27  41  68 105 138 186 225 290 354 422
#     4  10  24  47  73  99 135 185 242 288 349 410
#     4  12  27  44  68 108 138 181 236 292 357 421
#     4  10  22  43  69  97 132 178 230 270 339 428
#     4  10  24  47  73  99 136 186 234 297 345 413
#
# _framework density 23.250351999999999
#
# number of rings (size 3 to 8) (size 9 to 14) (size 15 to 20)
#    0.000    1.429    0.000    3.429   16.000    0.000 
#    2.571    0.000    0.000    0.000    0.000    0.000 
#    0.000    0.000    0.000    0.000    0.000    0.000 
#
# Total GULP energy -78146.554966 kJ/mol
# GULP energy per Si atom -5581.896783 kJ/mol
# Density = 2.319743 g / cm^3
# Si number density = 23.250352 Si / 1000 Ang^3
#
#
#
# Elastic Constant Matrix: (Units=GPa)
#
#
# Indices 1 2 3 4 5 6 
#
# 1 74.2954 9.1255 -4.0020 -0.4350 5.0828 1.1864
# 2 9.1255 109.4439 29.0558 -1.0813 -1.4014 3.1572
# 3 -4.0020 29.0558 95.6539 11.7519 8.6814 -0.3013
# 4 -0.4350 -1.0813 11.7519 36.6290 -3.6298 -1.8649
# 5 5.0828 -1.4014 8.6814 -3.6298 33.6860 3.9413
# 6 1.1864 3.1572 -0.3013 -1.8649 3.9413 18.3786
#
#
#
# Elastic Compliance Matrix: (Units=1/GPa)
#
#
# Indices 1 2 3 4 5 6 
#
# 1 0.013897 -0.001554 0.001356 -0.000576 -0.002559 -0.000118
# 2 -0.001554 0.010313 -0.003571 0.001526 0.001982 -0.002000
# 3 0.001356 -0.003571 0.012530 -0.004466 -0.004201 0.001179
# 4 -0.000576 0.001526 -0.004466 0.029283 0.004250 0.001761
# 5 -0.002559 0.001982 -0.004201 0.004250 0.032489 -0.006780
# 6 -0.000118 -0.002000 0.001179 0.001761 -0.006780 0.056414
#
#
# Mechanical properties :
#
#
# Convention : Reuss Voigt Hill
#
# Bulk Modulus (GPa) = 34.24491 38.63909 36.44200
# Shear Modulus (GPa) = 29.03639 34.08632 31.56136
#
# Velocity S-wave (km/s) = 3.53775 3.83307 3.68837
# Velocity P-wave (km/s) = 5.60788 6.02035 5.81777
#
# Compressibility (1/GPa) = 0.02920142
#
# Stress axis : x y z
#
# Youngs Moduli (GPa) = 71.95649 96.96510 79.81095
#
# Poissons Ratio (x) = 0.15067 -0.10823
# Poissons Ratio (y) = 0.11181 0.28504
# Poissons Ratio (z) = -0.09758 0.34630
#
# Static dielectric constant tensor:
#      x y z
#    x 1.870500 -0.043160 0.017520 
#    y -0.043160 1.831690 -0.028220 
#    z 0.017520 -0.028220 1.932380 
# 
# From -- ./inp_files/522060.got.cif
#   From: 2010.05.17/outbox.cif.g08.bks.cpg/sg2_262_cif.got.tgz:522060.got - 2010.06.03 11:33:40.
