data_PCOD9032887
_publ_section_title
;
Structure prediction by ZEFSAII (Michael W. Deem and Ramdas Pophale) SiO2 
 PCOD9032887
Probable space group: P -1
;
_chemical_formula_sum "Si O2"
_cell_formula_units_Z 16
_cell_length_a 18.487874
_cell_length_b 9.438330
_cell_length_c 6.740384
_cell_angle_alpha 132.850650
_cell_angle_beta 78.572103
_cell_angle_gamma 89.576516
_cell_volume 828.483493
_symmetry_space_group_name_H-M "P -1"
_symmetry_group_IT_number 2
_symmetry_cell_setting 'triclinic'
loop_
_space_group_symop_operation_xyz
x,y,z
-x,-y,-z
loop_
_atom_site_type_symbol
_atom_site_label
_atom_site_fract_x
_atom_site_fract_y
_atom_site_fract_z
Si Si1 0.078759 0.393613 0.952070
Si Si2 0.923982 0.935086 0.046127
Si Si3 0.590101 0.658341 0.709582
Si Si4 0.671862 0.331931 0.631647
Si Si5 0.662209 0.028098 0.009745
Si Si6 0.828499 0.935183 0.702149
Si Si7 0.169294 0.738238 0.303109
Si Si8 0.424373 0.624459 0.889856
O O1 0.062896 0.269613 0.035207
O O2 0.127049 0.235431 0.625522
O O3 0.128259 0.555879 0.126977
O O4 0.000000 0.500000 0.000000
O O5 0.880435 0.102576 0.374710
O O6 0.873246 0.925427 0.872844
O O7 0.000000 0.000000 0.000000
O O8 0.654050 0.511364 0.657211
O O9 0.510540 0.644127 0.837896
O O10 0.585945 0.573810 0.408585
O O11 0.607972 0.873627 0.911675
O O12 0.748932 0.322755 0.700042
O O13 0.673837 0.135512 0.312891
O O14 0.605733 0.361786 0.858487
O O15 0.625158 0.197979 0.039483
O O16 0.742889 0.920426 0.779559
O O17 0.825479 0.144960 0.793879
#
# Coordination Sequence:
#
# PCOD9032887 Si02
#       8
#     2   2   2   2   2   2   2   2
#     4  11  26  43  65  97 122 163 212 251 314 372
#     4  11  24  44  67  91 127 161 203 256 309 375
#     4  10  24  39  65  94 125 164 214 253 309 373
#     4  11  23  39  63  93 127 164 209 258 309 363
#     4  11  23  40  63  94 126 166 211 254 311 368
#     4  11  24  41  63  92 127 164 207 256 307 370
#     4  11  24  42  64  92 129 164 205 258 309 366
#     4  10  22  44  62  91 129 167 204 260 312 363
#
# _framework density 19.312391999999999
#
# number of rings (size 3 to 8) (size 9 to 14) (size 15 to 20)
#    0.000    1.250    2.500    2.250    3.500    6.500 
#    0.000    0.000    0.000    0.000    0.000    0.000 
#    0.000    0.000    0.000    0.000    0.000    0.000 
#
# Total GULP energy -89453.902574 kJ/mol
# GULP energy per Si atom -5590.868911 kJ/mol
# Density = 1.926844 g / cm^3
# Si number density = 19.312392 Si / 1000 Ang^3
#
#
#
# Elastic Constant Matrix: (Units=GPa)
#
#
# Indices 1 2 3 4 5 6 
#
# 1 94.8987 27.5758 22.8916 1.3734 8.9219 -8.8322
# 2 27.5758 74.5602 35.8858 -6.7604 21.2515 1.3570
# 3 22.8916 35.8858 72.4859 -2.4585 5.5004 10.0566
# 4 1.3734 -6.7604 -2.4585 31.1024 5.6697 3.9528
# 5 8.9219 21.2515 5.5004 5.6697 36.3785 3.4369
# 6 -8.8322 1.3570 10.0566 3.9528 3.4369 33.0520
#
#
#
# Elastic Compliance Matrix: (Units=1/GPa)
#
#
# Indices 1 2 3 4 5 6 
#
# 1 0.012792 -0.003240 -0.003101 -0.001959 -0.000926 0.004825
# 2 -0.003240 0.023384 -0.009601 0.006556 -0.012589 0.001621
# 3 -0.003101 -0.009601 0.020185 -0.000199 0.004007 -0.006969
# 4 -0.001959 0.006556 -0.000199 0.035720 -0.008497 -0.004120
# 5 -0.000926 -0.012589 0.004007 -0.008497 0.036138 -0.003691
# 6 0.004825 0.001621 -0.006969 -0.004120 -0.003691 0.034475
#
#
# Mechanical properties :
#
#
# Convention : Reuss Voigt Hill
#
# Bulk Modulus (GPa) = 40.85586 46.07236 43.46411
# Shear Modulus (GPa) = 24.66259 30.47935 27.57097
#
# Velocity S-wave (km/s) = 3.57744 3.97700 3.78250
# Velocity P-wave (km/s) = 6.18589 6.70797 6.45221
#
# Compressibility (1/GPa) = 0.02447629
#
# Stress axis : x y z
#
# Youngs Moduli (GPa) = 78.17645 42.76380 49.54292
#
# Poissons Ratio (x) = 0.13853 0.15366
# Poissons Ratio (y) = 0.25325 0.47566
# Poissons Ratio (z) = 0.24246 0.41058
#
# Static dielectric constant tensor:
#      x y z
#    x 1.668500 -0.017540 -0.029350 
#    y -0.017540 1.661930 0.005400 
#    z -0.029350 0.005400 1.674710 
# 
# From -- ./inp_files/10575.got.cif
#   From: 2010.05.17/outbox.cif.g08.bks.cpg/sg2_6_cif.got.tgz:10575.got - 2010.06.03 11:33:40.
