data_PCOD9032519
_publ_section_title
;
Structure prediction by ZEFSAII (Michael W. Deem and Ramdas Pophale) SiO2 
 PCOD9032519
Probable space group: P -1
;
_chemical_formula_sum "Si O2"
_cell_formula_units_Z 16
_cell_length_a 8.141405
_cell_length_b 22.625864
_cell_length_c 14.148160
_cell_angle_alpha 151.309678
_cell_angle_beta 128.764611
_cell_angle_gamma 34.209473
_cell_volume 654.058554
_symmetry_space_group_name_H-M "P -1"
_symmetry_group_IT_number 2
_symmetry_cell_setting 'triclinic'
loop_
_space_group_symop_operation_xyz
x,y,z
-x,-y,-z
loop_
_atom_site_type_symbol
_atom_site_label
_atom_site_fract_x
_atom_site_fract_y
_atom_site_fract_z
Si Si1 0.141542 0.270277 0.091091
Si Si2 0.958686 0.274935 0.458588
Si Si3 0.894051 0.003753 0.362200
Si Si4 0.740084 0.955502 0.945435
Si Si5 0.689213 0.371650 0.211333
Si Si6 0.755345 0.499055 0.936524
Si Si7 0.828403 0.909975 0.529469
Si Si8 0.735013 0.605236 0.273864
O O1 0.142955 0.126146 0.852704
O O2 0.496906 0.153178 0.083611
O O3 0.923858 0.368729 0.244160
O O4 0.973838 0.422666 0.165313
O O5 0.579886 0.448246 0.569167
O O6 0.115537 0.182053 0.284086
O O7 0.102855 0.126536 0.384804
O O8 0.077461 0.358673 0.646098
O O9 0.554759 0.214292 0.519765
O O10 0.120863 0.978737 0.339208
O O11 0.000000 0.000000 0.500000
O O12 0.070788 0.832071 0.944027
O O13 0.500000 0.000000 0.000000
O O14 0.499499 0.400144 0.095058
O O15 0.923240 0.294376 0.711141
O O16 0.618307 0.584023 0.109663
O O17 0.000000 0.500000 0.000000
O O18 0.500000 0.000000 0.500000
#
# Coordination Sequence:
#
# PCOD9032519 Si02
#       8
#     2   2   2   2   2   2   2   2
#     4  11  25  44  72 104 143 193 242 299 363 430
#     4  11  22  44  73 105 141 192 239 303 367 423
#     4  12  25  42  68 106 150 196 238 291 362 439
#     4  10  23  47  74  99 144 192 251 304 350 434
#     4  10  22  43  71  98 143 192 240 299 356 429
#     4  11  22  40  67 100 144 183 227 294 367 429
#     4  11  25  40  66 106 148 186 236 295 362 440
#     4  12  23  42  72 109 144 187 242 297 373 438
#
# _framework density 24.462641999999999
#
# number of rings (size 3 to 8) (size 9 to 14) (size 15 to 20)
#    0.000    1.000    3.750    4.125    3.500    1.500 
#    0.000    3.125   11.000    0.000    0.000    0.000 
#    0.000    0.000    0.000    0.000    0.000    0.000 
#
# Total GULP energy -89402.382893 kJ/mol
# GULP energy per Si atom -5587.648931 kJ/mol
# Density = 2.440696 g / cm^3
# Si number density = 24.462642 Si / 1000 Ang^3
#
#
#
# Elastic Constant Matrix: (Units=GPa)
#
#
# Indices 1 2 3 4 5 6 
#
# 1 76.9419 31.2665 32.5234 10.3131 -7.5038 14.3444
# 2 31.2665 174.8624 31.7197 40.7172 -11.5517 4.0009
# 3 32.5234 31.7197 100.0966 18.6052 -24.3728 12.9379
# 4 10.3131 40.7172 18.6052 38.6384 6.4544 -14.1495
# 5 -7.5038 -11.5517 -24.3728 6.4544 47.5415 10.3832
# 6 14.3444 4.0009 12.9379 -14.1495 10.3832 36.3509
#
#
#
# Elastic Compliance Matrix: (Units=1/GPa)
#
#
# Indices 1 2 3 4 5 6 
#
# 1 0.017581 0.000058 -0.000608 -0.010168 0.006603 -0.012572
# 2 0.000058 0.010688 0.004979 -0.020728 0.011075 -0.014203
# 3 -0.000608 0.004979 0.023189 -0.029861 0.022893 -0.026724
# 4 -0.010168 -0.020728 -0.029861 0.098859 -0.050630 0.069864
# 5 0.006603 0.011075 0.022893 -0.050630 0.053643 -0.047003
# 6 -0.012572 -0.014203 -0.026724 0.069864 -0.047003 0.084165
#
#
# Mechanical properties :
#
#
# Convention : Reuss Voigt Hill
#
# Bulk Modulus (GPa) = 16.57912 60.32445 38.45179
# Shear Modulus (GPa) = 16.70167 41.59891 29.15029
#
# Velocity S-wave (km/s) = 2.61577 4.12820 3.45574
# Velocity P-wave (km/s) = 3.98936 6.88738 5.62810
#
# Compressibility (1/GPa) = 0.06031682
#
# Stress axis : x y z
#
# Youngs Moduli (GPa) = 56.88030 93.56036 43.12451
#
# Poissons Ratio (x) = -0.00545 0.02622
# Poissons Ratio (y) = -0.00331 -0.21473
# Poissons Ratio (z) = 0.03459 -0.46587
#
# Static dielectric constant tensor:
#      x y z
#    x 1.981470 -0.027170 -0.037180 
#    y -0.027170 2.014680 -0.007470 
#    z -0.037180 -0.007470 1.993820 
# 
# From -- ./inp_files/508741.got.cif
#   From: 2010.05.17/outbox.cif.g08.bks.cpg/sg2_255_cif.got.tgz:508741.got - 2010.06.03 11:33:40.
