data_PCOD9032006
_publ_section_title
;
Structure prediction by ZEFSAII (Michael W. Deem and Ramdas Pophale) SiO2 
 PCOD9032006
Probable space group: P -1
;
_chemical_formula_sum "Si O2"
_cell_formula_units_Z 16
_cell_length_a 13.401188
_cell_length_b 13.482222
_cell_length_c 14.081142
_cell_angle_alpha 33.253354
_cell_angle_beta 142.484116
_cell_angle_gamma 118.452180
_cell_volume 704.071122
_symmetry_space_group_name_H-M "P -1"
_symmetry_group_IT_number 2
_symmetry_cell_setting 'triclinic'
loop_
_space_group_symop_operation_xyz
x,y,z
-x,-y,-z
loop_
_atom_site_type_symbol
_atom_site_label
_atom_site_fract_x
_atom_site_fract_y
_atom_site_fract_z
Si Si1 0.858895 0.536050 0.449487
Si Si2 0.136168 0.764295 0.972766
Si Si3 0.699443 0.163692 0.379860
Si Si4 0.288858 0.405606 0.222512
Si Si5 0.562104 0.399080 0.276489
Si Si6 0.044021 0.512288 0.230583
Si Si7 0.692847 0.996584 0.172911
Si Si8 0.475249 0.960836 0.802841
O O1 0.721738 0.450100 0.388301
O O2 0.977775 0.435183 0.716957
O O3 0.000000 0.500000 0.500000
O O4 0.701504 0.796924 0.133514
O O5 0.274670 0.850887 0.990178
O O6 0.158284 0.634039 0.996895
O O7 0.177441 0.591874 0.224394
O O8 0.920670 0.978981 0.662774
O O9 0.668465 0.203085 0.437382
O O10 0.556172 0.102701 0.274146
O O11 0.618408 0.396805 0.082331
O O12 0.463034 0.375685 0.312993
O O13 0.385736 0.214415 0.526794
O O14 0.147554 0.378349 0.068040
O O15 0.132833 0.256454 0.495498
O O16 0.652943 0.075588 0.189300
O O17 0.500000 0.000000 0.000000
#
# Coordination Sequence:
#
# PCOD9032006 Si02
#       8
#     2   2   2   2   2   2   2   2
#     4  11  27  48  70 101 150 194 238 300 369 434
#     4  12  25  45  77 108 148 188 248 303 360 430
#     4  10  22  43  69 104 134 189 245 296 356 419
#     4  12  25  45  76 111 144 185 253 305 354 437
#     4  10  25  44  72 100 143 194 248 290 365 435
#     4  12  26  46  74 113 144 188 245 303 363 433
#     4  12  26  44  70 107 151 192 233 300 375 432
#     4  11  23  46  71 104 145 187 239 302 361 432
#
# _framework density 22.724978
#
# number of rings (size 3 to 8) (size 9 to 14) (size 15 to 20)
#    0.000    0.750    3.750    3.375    7.000    4.500 
#    0.000    1.250    0.000    0.000    0.000    0.000 
#    0.000    0.000    0.000    0.000    0.000    0.000 
#
# Total GULP energy -89439.122491 kJ/mol
# GULP energy per Si atom -5589.945156 kJ/mol
# Density = 2.267326 g / cm^3
# Si number density = 22.724978 Si / 1000 Ang^3
#
#
#
# Elastic Constant Matrix: (Units=GPa)
#
#
# Indices 1 2 3 4 5 6 
#
# 1 178.5998 61.0333 26.3842 -5.7963 7.2551 -2.9443
# 2 61.0333 87.5694 28.6687 -5.3566 -0.2210 -6.0925
# 3 26.3842 28.6687 58.1829 -6.0292 7.4326 -2.1966
# 4 -5.7963 -5.3566 -6.0292 24.3616 -3.5933 -2.8467
# 5 7.2551 -0.2210 7.4326 -3.5933 34.1609 -5.7692
# 6 -2.9443 -6.0925 -2.1966 -2.8467 -5.7692 44.2907
#
#
#
# Elastic Compliance Matrix: (Units=1/GPa)
#
#
# Indices 1 2 3 4 5 6 
#
# 1 0.007473 -0.004987 -0.000731 0.000231 -0.001505 -0.000407
# 2 -0.004987 0.017253 -0.006372 0.001753 0.003121 0.002245
# 3 -0.000731 -0.006372 0.021517 0.003094 -0.004279 -0.000216
# 4 0.000231 0.001753 0.003094 0.043358 0.004488 0.003781
# 5 -0.001505 0.003121 -0.004279 0.004488 0.031784 0.004546
# 6 -0.000407 0.002245 -0.000216 0.003781 0.004546 0.023684
#
#
# Mechanical properties :
#
#
# Convention : Reuss Voigt Hill
#
# Bulk Modulus (GPa) = 45.32316 61.83605 53.57960
# Shear Modulus (GPa) = 28.31200 34.44703 31.37952
#
# Velocity S-wave (km/s) = 3.53349 3.89758 3.71999
# Velocity P-wave (km/s) = 6.05268 6.89380 6.48689
#
# Compressibility (1/GPa) = 0.02206378
#
# Stress axis : x y z
#
# Youngs Moduli (GPa) = 133.80875 57.96135 46.47470
#
# Poissons Ratio (x) = 0.28908 0.03396
# Poissons Ratio (y) = 0.66737 0.29612
# Poissons Ratio (z) = 0.09776 0.36931
#
# Static dielectric constant tensor:
#      x y z
#    x 1.843980 -0.032660 -0.010920 
#    y -0.032660 1.909820 -0.020380 
#    z -0.010920 -0.020380 1.872260 
# 
# From -- ./inp_files/522207.got.cif
#   From: 2010.05.17/outbox.cif.g08.bks.cpg/sg2_262_cif.got.tgz:522207.got - 2010.06.03 11:33:40.
