data_PCOD9032476
_publ_section_title
;
Structure prediction by ZEFSAII (Michael W. Deem and Ramdas Pophale) SiO2 
 PCOD9032476
Probable space group: P -1
;
_chemical_formula_sum "Si O2"
_cell_formula_units_Z 14
_cell_length_a 14.036215
_cell_length_b 8.329572
_cell_length_c 5.118419
_cell_angle_alpha 115.026383
_cell_angle_beta 100.699686
_cell_angle_gamma 74.931293
_cell_volume 521.631807
_symmetry_space_group_name_H-M "P -1"
_symmetry_group_IT_number 2
_symmetry_cell_setting 'triclinic'
loop_
_space_group_symop_operation_xyz
x,y,z
-x,-y,-z
loop_
_atom_site_type_symbol
_atom_site_label
_atom_site_fract_x
_atom_site_fract_y
_atom_site_fract_z
Si Si1 0.203491 0.823231 0.749978
Si Si2 0.916108 0.449635 0.240437
Si Si3 0.398588 0.088694 0.755300
Si Si4 0.902427 0.770827 0.070752
Si Si5 0.433382 0.417768 0.212155
Si Si6 0.713079 0.761593 0.711923
Si Si7 0.658809 0.225170 0.721923
O O1 0.152716 0.657974 0.705042
O O2 0.271694 0.776910 0.498028
O O3 0.267561 0.849958 0.059528
O O4 0.126373 0.011403 0.766419
O O5 0.000000 0.500000 0.500000
O O6 0.981753 0.301166 0.975142
O O7 0.874561 0.631030 0.176414
O O8 0.331154 0.192932 0.562922
O O9 0.421354 0.891039 0.504812
O O10 0.471827 0.216495 0.978649
O O11 0.333240 0.093689 0.985257
O O12 0.829460 0.738165 0.775566
O O13 0.500000 0.500000 0.500000
O O14 0.335665 0.397212 0.309554
O O15 0.395630 0.573267 0.090692
#
# Coordination Sequence:
#
# PCOD9032476 Si02
#       7
#     2   2   2   2   2   2   2
#     4  12  27  47  73 104 141 192 248 295 352 433
#     4  11  29  41  70 106 143 192 235 302 366 424
#     4  10  22  44  67 103 132 187 228 292 345 417
#     4  11  24  47  67 102 141 187 241 297 357 418
#     4  10  26  44  71 109 145 182 233 297 363 432
#     4  10  22  43  71  94 138 183 231 287 349 415
#     4  12  25  46  75 105 137 193 247 285 360 437
#
# _framework density 26.838857000000001
#
# number of rings (size 3 to 8) (size 9 to 14) (size 15 to 20)
#    0.857    0.286    2.857    1.286   12.000    1.714 
#    0.000    0.714    0.000    0.000    0.000    0.000 
#    0.000    0.000    0.000    0.000    0.000    0.000 
#
# Total GULP energy -78236.084802 kJ/mol
# GULP energy per Si atom -5588.291772 kJ/mol
# Density = 2.677777 g / cm^3
# Si number density = 26.838857 Si / 1000 Ang^3
#
#
#
# Elastic Constant Matrix: (Units=GPa)
#
#
# Indices 1 2 3 4 5 6 
#
# 1 87.5014 42.3625 34.9472 15.9213 -18.0805 20.8109
# 2 42.3625 174.8840 48.2824 0.1782 -9.2303 21.0443
# 3 34.9472 48.2824 150.5838 -3.0890 -2.7109 12.2539
# 4 15.9213 0.1782 -3.0890 44.5388 -1.7627 1.1506
# 5 -18.0805 -9.2303 -2.7109 -1.7627 44.6761 9.3317
# 6 20.8109 21.0443 12.2539 1.1506 9.3317 52.6985
#
#
#
# Elastic Compliance Matrix: (Units=1/GPa)
#
#
# Indices 1 2 3 4 5 6 
#
# 1 0.018062 -0.002347 -0.002873 -0.006162 0.007823 -0.006778
# 2 -0.002347 0.006943 -0.001518 0.000779 0.000767 -0.001646
# 3 -0.002873 -0.001518 0.007804 0.001535 -0.000955 0.000062
# 4 -0.006162 0.000779 0.001535 0.024657 -0.001582 0.001507
# 5 0.007823 0.000767 -0.000955 -0.001582 0.027251 -0.007965
# 6 -0.006778 -0.001646 0.000062 0.001507 -0.007965 0.023673
#
#
# Mechanical properties :
#
#
# Convention : Reuss Voigt Hill
#
# Bulk Modulus (GPa) = 51.72622 73.79481 62.76052
# Shear Modulus (GPa) = 38.96805 47.54117 43.25461
#
# Velocity S-wave (km/s) = 3.81455 4.21331 4.01888
# Velocity P-wave (km/s) = 6.22220 7.15713 6.70598
#
# Compressibility (1/GPa) = 0.01933256
#
# Stress axis : x y z
#
# Youngs Moduli (GPa) = 55.36488 144.02149 128.14651
#
# Poissons Ratio (x) = 0.33804 0.36819
# Poissons Ratio (y) = 0.12995 0.19451
# Poissons Ratio (z) = 0.15907 0.21861
#
# Static dielectric constant tensor:
#      x y z
#    x 2.167460 0.019530 -0.052680 
#    y 0.019530 2.205630 0.059020 
#    z -0.052680 0.059020 2.084940 
# 
# From -- ./inp_files/107430.got.cif
#   From: 2010.05.17/outbox.cif.g08.bks.cpg/sg2_54_cif.got.tgz:107430.got - 2010.06.03 11:33:40.
