data_PCOD9032565
_publ_section_title
;
Structure prediction by ZEFSAII (Michael W. Deem and Ramdas Pophale) SiO2 
 PCOD9032565
Probable space group: P -1
;
_chemical_formula_sum "Si O2"
_cell_formula_units_Z 14
_cell_length_a 15.083559
_cell_length_b 9.334735
_cell_length_c 15.976819
_cell_angle_alpha 129.779477
_cell_angle_beta 28.101003
_cell_angle_gamma 109.766110
_cell_volume 635.703667
_symmetry_space_group_name_H-M "P -1"
_symmetry_group_IT_number 2
_symmetry_cell_setting 'triclinic'
loop_
_space_group_symop_operation_xyz
x,y,z
-x,-y,-z
loop_
_atom_site_type_symbol
_atom_site_label
_atom_site_fract_x
_atom_site_fract_y
_atom_site_fract_z
Si Si1 0.738905 0.849972 0.859805
Si Si2 0.003398 0.939317 0.256210
Si Si3 0.103502 0.749965 0.279790
Si Si4 0.745193 0.661267 0.610502
Si Si5 0.071119 0.224597 0.071846
Si Si6 0.562179 0.748812 0.136203
Si Si7 0.218286 0.723775 0.818054
O O1 0.782316 0.679332 0.684277
O O2 0.951561 0.865699 0.703713
O O3 0.650221 0.796129 0.995672
O O4 0.525467 0.120563 0.107027
O O5 0.131045 0.767427 0.165650
O O6 0.114796 0.794328 0.023884
O O7 0.721277 0.069460 0.548232
O O8 0.902106 0.720654 0.454792
O O9 0.342007 0.522471 0.039812
O O10 0.000000 0.000000 0.500000
O O11 0.858332 0.403617 0.383031
O O12 0.940429 0.309155 0.122754
O O13 0.288295 0.234917 0.910042
O O14 0.179561 0.955027 0.899532
O O15 0.500000 0.500000 0.500000
#
# Coordination Sequence:
#
# PCOD9032565 Si02
#       7
#     2   2   2   2   2   2   2
#     4  11  22  44  75 105 145 193 232 283 357 420
#     4  12  25  45  73 106 139 187 235 294 358 411
#     4  11  24  45  65 109 149 183 236 285 346 427
#     4  10  22  43  72 102 149 189 231 290 346 428
#     4  10  24  45  71 106 138 183 246 287 352 421
#     4  11  26  45  71 106 147 184 236 291 350 428
#     4  11  25  47  76 101 138 185 242 301 351 419
#
# _framework density 22.022839999999999
#
# number of rings (size 3 to 8) (size 9 to 14) (size 15 to 20)
#    0.000    1.143    4.286    0.857    0.000    8.000 
#    0.000    5.000    0.000    0.000    0.000    0.000 
#    0.000    0.000    0.000    0.000    0.000    0.000 
#
# Total GULP energy -78325.805457 kJ/mol
# GULP energy per Si atom -5594.700390 kJ/mol
# Density = 2.197271 g / cm^3
# Si number density = 22.022840 Si / 1000 Ang^3
#
#
#
# Elastic Constant Matrix: (Units=GPa)
#
#
# Indices 1 2 3 4 5 6 
#
# 1 147.9962 56.5072 59.9578 -6.5942 12.6693 -21.6399
# 2 56.5072 79.7297 53.2293 -4.6527 -3.7312 -13.3163
# 3 59.9578 53.2293 116.2972 -4.0972 1.1242 -4.8797
# 4 -6.5942 -4.6527 -4.0972 41.0035 -0.9244 6.2323
# 5 12.6693 -3.7312 1.1242 -0.9244 28.5245 -3.2539
# 6 -21.6399 -13.3163 -4.8797 6.2323 -3.2539 30.0380
#
#
#
# Elastic Compliance Matrix: (Units=1/GPa)
#
#
# Indices 1 2 3 4 5 6 
#
# 1 0.011127 -0.005296 -0.003068 0.000068 -0.004985 0.004616
# 2 -0.005296 0.022444 -0.007360 0.000255 0.006221 0.005560
# 3 -0.003068 -0.007360 0.013428 0.000527 -0.000506 -0.003456
# 4 0.000068 0.000255 0.000527 0.025240 0.000234 -0.004964
# 5 -0.004985 0.006221 -0.000506 0.000234 0.038478 0.003204
# 6 0.004616 0.005560 -0.003456 -0.004964 0.003204 0.039897
#
#
# Mechanical properties :
#
#
# Convention : Reuss Voigt Hill
#
# Bulk Modulus (GPa) = 64.30934 75.93465 70.12200
# Shear Modulus (GPa) = 26.70281 31.53511 29.11896
#
# Velocity S-wave (km/s) = 3.48588 3.78819 3.64017
# Velocity P-wave (km/s) = 6.74288 7.32725 7.04113
#
# Compressibility (1/GPa) = 0.01554984
#
# Stress axis : x y z
#
# Youngs Moduli (GPa) = 89.87397 44.55495 74.47247
#
# Poissons Ratio (x) = 0.23596 0.22850
# Poissons Ratio (y) = 0.47596 0.54814
# Poissons Ratio (z) = 0.27576 0.32794
#
# Static dielectric constant tensor:
#      x y z
#    x 1.868830 0.019370 -0.011590 
#    y 0.019370 1.822700 0.052710 
#    z -0.011590 0.052710 1.826230 
# 
# From -- ./inp_files/530098.got.cif
#   From: 2010.05.17/outbox.cif.g08.bks.cpg/sg2_266_cif.got.tgz:530098.got - 2010.06.03 11:33:40.
