data_PCOD9032612
_publ_section_title
;
Structure prediction by ZEFSAII (Michael W. Deem and Ramdas Pophale) SiO2 
 PCOD9032612
Probable space group: P -1
;
_chemical_formula_sum "Si O2"
_cell_formula_units_Z 16
_cell_length_a 9.065978
_cell_length_b 8.032412
_cell_length_c 13.406556
_cell_angle_alpha 45.742142
_cell_angle_beta 110.447242
_cell_angle_gamma 102.706511
_cell_volume 654.754550
_symmetry_space_group_name_H-M "P -1"
_symmetry_group_IT_number 2
_symmetry_cell_setting 'triclinic'
loop_
_space_group_symop_operation_xyz
x,y,z
-x,-y,-z
loop_
_atom_site_type_symbol
_atom_site_label
_atom_site_fract_x
_atom_site_fract_y
_atom_site_fract_z
Si Si1 0.268052 0.664965 0.343022
Si Si2 0.653620 0.026844 0.956540
Si Si3 0.178624 0.360669 0.125739
Si Si4 0.784458 0.861322 0.433601
Si Si5 0.540123 0.980791 0.632409
Si Si6 0.322227 0.472068 0.931050
Si Si7 0.034286 0.734008 0.719073
Si Si8 0.016377 0.024133 0.874375
O O1 0.279238 0.395975 0.489483
O O2 0.360764 0.813342 0.383946
O O3 0.331817 0.756229 0.210262
O O4 0.082290 0.738998 0.272010
O O5 0.671211 0.797557 0.986924
O O6 0.500000 0.000000 0.000000
O O7 0.797768 0.009692 0.075639
O O8 0.074336 0.420108 0.170860
O O9 0.080484 0.166892 0.126581
O O10 0.347400 0.246700 0.239924
O O11 0.223205 0.543161 0.977489
O O12 0.624350 0.015378 0.349621
O O13 0.899748 0.816245 0.574070
O O14 0.895826 0.021589 0.326093
O O15 0.500000 0.000000 0.500000
O O16 0.190787 0.592574 0.774626
O O17 0.500000 0.500000 0.000000
O O18 0.000000 0.000000 0.000000
#
# Coordination Sequence:
#
# PCOD9032612 Si02
#       8
#     2   2   2   2   2   2   2   2
#     4  10  22  43  72  95 137 186 229 289 342 413
#     4  11  24  42  68 105 136 177 230 291 358 407
#     4  11  22  43  72  99 130 183 232 284 352 408
#     4  11  24  44  68  97 141 185 233 278 345 413
#     4  11  21  43  70  98 141 182 232 285 343 415
#     4  12  25  44  69 100 142 173 226 297 349 414
#     4  11  26  42  69 101 138 186 230 285 346 421
#     4   9  18  39  69  91 134 171 219 289 339 405
#
# _framework density 24.436636
#
# number of rings (size 3 to 8) (size 9 to 14) (size 15 to 20)
#    0.000    1.250    5.000    2.250    3.500    1.000 
#    2.250    3.750    0.000    0.000    0.000    0.000 
#    0.000    0.000    0.000    0.000    0.000    0.000 
#
# Total GULP energy -89125.403480 kJ/mol
# GULP energy per Si atom -5570.337717 kJ/mol
# Density = 2.438102 g / cm^3
# Si number density = 24.436636 Si / 1000 Ang^3
#
#
#
# Elastic Constant Matrix: (Units=GPa)
#
#
# Indices 1 2 3 4 5 6 
#
# 1 152.5018 21.8633 41.3790 0.9537 25.6428 11.2597
# 2 21.8633 60.7050 12.0210 3.8719 -2.1752 14.5009
# 3 41.3790 12.0210 73.4297 3.0583 23.4648 0.6266
# 4 0.9537 3.8719 3.0583 39.3545 7.9563 10.7212
# 5 25.6428 -2.1752 23.4648 7.9563 55.0648 1.8112
# 6 11.2597 14.5009 0.6266 10.7212 1.8112 27.9104
#
#
#
# Elastic Compliance Matrix: (Units=1/GPa)
#
#
# Indices 1 2 3 4 5 6 
#
# 1 0.008448 -0.001836 -0.003679 0.001544 -0.002570 -0.002798
# 2 -0.001836 0.020289 -0.003281 0.000378 0.003332 -0.010088
# 3 -0.003679 -0.003281 0.018206 -0.000691 -0.006188 0.003447
# 4 0.001544 0.000378 -0.000691 0.029483 -0.004280 -0.011851
# 5 -0.002570 0.003332 -0.006188 -0.004280 0.022757 -0.000388
# 6 -0.002798 -0.010088 0.003447 -0.011851 -0.000388 0.046699
#
#
# Mechanical properties :
#
#
# Convention : Reuss Voigt Hill
#
# Bulk Modulus (GPa) = 34.07197 48.57366 41.32281
# Shear Modulus (GPa) = 28.85873 38.55749 33.70811
#
# Velocity S-wave (km/s) = 3.44024 3.97653 3.71807
# Velocity P-wave (km/s) = 5.45469 6.40346 5.94802
#
# Compressibility (1/GPa) = 0.02934964
#
# Stress axis : x y z
#
# Youngs Moduli (GPa) = 118.37363 49.28696 54.92815
#
# Poissons Ratio (x) = 0.09050 0.20209
# Poissons Ratio (y) = 0.21736 0.18023
# Poissons Ratio (z) = 0.43551 0.16172
#
# Static dielectric constant tensor:
#      x y z
#    x 2.030940 0.019010 -0.024830 
#    y 0.019010 1.992620 0.039770 
#    z -0.024830 0.039770 2.451320 
# 
# From -- ./inp_files/494430.got.cif
#   From: 2010.05.17/outbox.cif.g08.bks.cpg/sg2_248_cif.got.tgz:494430.got - 2010.06.03 11:33:40.
