data_PCOD9032648
_publ_section_title
;
Structure prediction by ZEFSAII (Michael W. Deem and Ramdas Pophale) SiO2 
 PCOD9032648
Probable space group: P -1
;
_chemical_formula_sum "Si O2"
_cell_formula_units_Z 16
_cell_length_a 5.282288
_cell_length_b 7.308264
_cell_length_c 18.803353
_cell_angle_alpha 66.505750
_cell_angle_beta 123.590097
_cell_angle_gamma 101.049201
_cell_volume 554.154770
_symmetry_space_group_name_H-M "P -1"
_symmetry_group_IT_number 2
_symmetry_cell_setting 'triclinic'
loop_
_space_group_symop_operation_xyz
x,y,z
-x,-y,-z
loop_
_atom_site_type_symbol
_atom_site_label
_atom_site_fract_x
_atom_site_fract_y
_atom_site_fract_z
Si Si1 0.417269 0.651867 0.552957
Si Si2 0.158784 0.306718 0.226793
Si Si3 0.833480 0.072097 0.883669
Si Si4 0.218949 0.664738 0.289756
Si Si5 0.375678 0.814513 0.938099
Si Si6 0.273919 0.565636 0.083115
Si Si7 0.975136 0.091188 0.661033
Si Si8 0.069278 0.833458 0.594782
O O1 0.504635 0.416381 0.604217
O O2 0.193100 0.759197 0.445373
O O3 0.288874 0.683548 0.608382
O O4 0.741975 0.745084 0.573626
O O5 0.845143 0.280745 0.139215
O O6 0.120389 0.479720 0.254203
O O7 0.364589 0.393735 0.180875
O O8 0.218314 0.085716 0.304213
O O9 0.684077 0.168332 0.775398
O O10 0.838961 0.254323 0.911145
O O11 0.152349 0.975145 0.920115
O O12 0.371043 0.085981 0.084922
O O13 0.961698 0.764087 0.285391
O O14 0.485935 0.662545 0.041101
O O15 0.000000 0.500000 0.000000
O O16 0.176312 0.945916 0.664222
O O17 0.000000 0.000000 0.500000
#
# Coordination Sequence:
#
# PCOD9032648 Si02
#       8
#     2   2   2   2   2   2   2   2
#     4  11  24  46  71 104 141 196 239 307 354 445
#     4  10  22  45  72 106 149 189 242 307 359 438
#     4  11  24  45  74 108 143 194 236 301 355 439
#     4  11  24  45  71 112 145 191 254 296 370 433
#     4  11  23  48  73 102 146 190 241 292 372 423
#     4   9  21  43  74 109 145 185 243 295 359 434
#     4  11  21  45  74 100 150 189 246 295 379 415
#     4  10  22  43  72  99 137 189 242 293 373 420
#
# _framework density 28.872803000000001
#
# number of rings (size 3 to 8) (size 9 to 14) (size 15 to 20)
#    0.000    1.500    2.500    2.625    0.000    1.000 
#    9.000   18.125    0.000    0.000    0.000    0.000 
#    0.000    0.000    0.000    0.000    0.000    0.000 
#
# Total GULP energy -89539.253068 kJ/mol
# GULP energy per Si atom -5596.203317 kJ/mol
# Density = 2.880709 g / cm^3
# Si number density = 28.872803 Si / 1000 Ang^3
#
#
#
# Elastic Constant Matrix: (Units=GPa)
#
#
# Indices 1 2 3 4 5 6 
#
# 1 157.3642 44.6671 47.5814 0.3333 -30.1125 -16.0274
# 2 44.6671 110.6141 54.5587 26.7672 -15.5900 -23.3256
# 3 47.5814 54.5587 188.5312 -31.5943 -52.2457 5.0593
# 4 0.3333 26.7672 -31.5943 78.7925 -3.8622 -17.2922
# 5 -30.1125 -15.5900 -52.2457 -3.8622 49.2707 -0.1061
# 6 -16.0274 -23.3256 5.0593 -17.2922 -0.1061 57.1274
#
#
#
# Elastic Compliance Matrix: (Units=1/GPa)
#
#
# Indices 1 2 3 4 5 6 
#
# 1 0.008085 -0.002787 0.000205 0.001560 0.004402 0.001593
# 2 -0.002787 0.015010 -0.005928 -0.006814 -0.003766 0.003802
# 3 0.000205 -0.005928 0.011013 0.006655 0.010446 -0.001305
# 4 0.001560 -0.006814 0.006655 0.018623 0.007319 0.002717
# 5 0.004402 -0.003766 0.010446 0.007319 0.033448 0.001050
# 6 0.001593 0.003802 -0.001305 0.002717 0.001050 0.020444
#
#
# Mechanical properties :
#
#
# Convention : Reuss Voigt Hill
#
# Bulk Modulus (GPa) = 58.52229 83.34710 70.93470
# Shear Modulus (GPa) = 38.65816 57.68494 48.17155
#
# Velocity S-wave (km/s) = 3.66308 4.47464 4.08904
# Velocity P-wave (km/s) = 6.18093 7.45829 6.84946
#
# Compressibility (1/GPa) = 0.01708751
#
# Stress axis : x y z
#
# Youngs Moduli (GPa) = 123.68316 66.62406 90.80183
#
# Poissons Ratio (x) = 0.18568 -0.01858
# Poissons Ratio (y) = 0.34470 0.53825
# Poissons Ratio (z) = -0.02530 0.39493
#
# Static dielectric constant tensor:
#      x y z
#    x 2.288990 0.058450 -0.019890 
#    y 0.058450 2.277700 -0.004750 
#    z -0.019890 -0.004750 2.340410 
# 
# From -- ./inp_files/547091.got.cif
#   From: 2010.05.17/outbox.cif.g08.bks.cpg/sg2_274_cif.got.tgz:547091.got - 2010.06.03 11:33:40.
