data_PCOD9032420
_publ_section_title
;
Structure prediction by ZEFSAII (Michael W. Deem and Ramdas Pophale) SiO2 
 PCOD9032420
Probable space group: P -1
;
_chemical_formula_sum "Si O2"
_cell_formula_units_Z 14
_cell_length_a 10.548355
_cell_length_b 17.339728
_cell_length_c 8.057679
_cell_angle_alpha 34.159131
_cell_angle_beta 55.391279
_cell_angle_gamma 44.053381
_cell_volume 574.051383
_symmetry_space_group_name_H-M "P -1"
_symmetry_group_IT_number 2
_symmetry_cell_setting 'triclinic'
loop_
_space_group_symop_operation_xyz
x,y,z
-x,-y,-z
loop_
_atom_site_type_symbol
_atom_site_label
_atom_site_fract_x
_atom_site_fract_y
_atom_site_fract_z
Si Si1 0.261793 0.138229 0.697689
Si Si2 0.783209 0.593819 0.528101
Si Si3 0.313168 0.622151 0.195993
Si Si4 0.346607 0.171529 0.101555
Si Si5 0.691778 0.548597 0.150250
Si Si6 0.013041 0.219919 0.420059
Si Si7 0.964210 0.965845 0.772604
O O1 0.257073 0.298646 0.470270
O O2 0.115564 0.176626 0.595623
O O3 0.461212 0.995805 0.748179
O O4 0.189021 0.077365 0.011366
O O5 0.723238 0.466115 0.770746
O O6 0.000000 0.500000 0.500000
O O7 0.677778 0.727953 0.224230
O O8 0.513905 0.589172 0.109170
O O9 0.298152 0.545989 0.516738
O O10 0.155717 0.811154 0.969004
O O11 0.174337 0.155278 0.281397
O O12 0.329278 0.287085 0.061263
O O13 0.876310 0.413281 0.163418
O O14 0.911537 0.125173 0.635628
O O15 0.000000 0.000000 0.500000
#
# Coordination Sequence:
#
# PCOD9032420 Si02
#       7
#     2   2   2   2   2   2   2
#     4  12  24  45  73 101 141 189 227 288 350 414
#     4  11  22  43  71  98 139 184 233 279 349 412
#     4  10  22  43  71 103 136 184 227 292 343 417
#     4  11  25  44  70 104 141 181 234 288 345 416
#     4  10  22  43  74 103 138 177 239 284 350 406
#     4  12  25  44  73 103 137 185 235 290 341 416
#     4  12  26  45  69 103 142 179 234 287 350 417
#
# _framework density 24.388061
#
# number of rings (size 3 to 8) (size 9 to 14) (size 15 to 20)
#    0.000    0.857    2.857    4.286    6.000    0.000 
#    0.000    2.143    0.000    0.000    0.000    0.000 
#    0.000    0.000    0.000    0.000    0.000    0.000 
#
# Total GULP energy -78486.322554 kJ/mol
# GULP energy per Si atom -5606.165897 kJ/mol
# Density = 2.433255 g / cm^3
# Si number density = 24.388061 Si / 1000 Ang^3
#
#
#
# Elastic Constant Matrix: (Units=GPa)
#
#
# Indices 1 2 3 4 5 6 
#
# 1 91.6290 55.4453 18.7711 -26.7885 -13.1407 3.8717
# 2 55.4453 145.3410 37.3994 -34.5890 2.9630 -15.6707
# 3 18.7711 37.3994 88.9102 -17.8555 -1.1286 -2.4519
# 4 -26.7885 -34.5890 -17.8555 53.0042 0.2641 0.5060
# 5 -13.1407 2.9630 -1.1286 0.2641 36.9393 -7.7094
# 6 3.8717 -15.6707 -2.4519 0.5060 -7.7094 58.6622
#
#
#
# Elastic Compliance Matrix: (Units=1/GPa)
#
#
# Indices 1 2 3 4 5 6 
#
# 1 0.016566 -0.005453 -0.000230 0.004724 0.005909 -0.001824
# 2 -0.005453 0.010800 -0.002665 0.003378 -0.002328 0.002798
# 3 -0.000230 -0.002665 0.012921 0.002496 0.000485 -0.000115
# 4 0.004724 0.003378 0.002496 0.024286 0.001453 0.000677
# 5 0.005909 -0.002328 0.000485 0.001453 0.029977 0.002935
# 6 -0.001824 0.002798 -0.000115 0.000677 0.002935 0.018290
#
#
# Mechanical properties :
#
#
# Convention : Reuss Voigt Hill
#
# Bulk Modulus (GPa) = 42.39155 61.01244 51.70200
# Shear Modulus (GPa) = 36.38967 44.00545 40.19756
#
# Velocity S-wave (km/s) = 3.86697 4.25241 4.06427
# Velocity P-wave (km/s) = 6.11210 7.01301 6.57800
#
# Compressibility (1/GPa) = 0.02358961
#
# Stress axis : x y z
#
# Youngs Moduli (GPa) = 60.36333 92.59401 77.39169
#
# Poissons Ratio (x) = 0.50495 0.01781
# Poissons Ratio (y) = 0.32918 0.20628
# Poissons Ratio (z) = 0.01389 0.24680
#
# Static dielectric constant tensor:
#      x y z
#    x 1.897530 0.061050 0.005200 
#    y 0.061050 1.940160 0.072740 
#    z 0.005200 0.072740 1.965090 
# 
# From -- ./inp_files/157655.got.cif
#   From: 2010.05.17/outbox.cif.g08.bks.cpg/sg2_79_cif.got.tgz:157655.got - 2010.06.03 11:33:40.
