data_PCOD9032058
_publ_section_title
;
Structure prediction by ZEFSAII (Michael W. Deem and Ramdas Pophale) SiO2 
 PCOD9032058
Probable space group: P -1
;
_chemical_formula_sum "Si O2"
_cell_formula_units_Z 16
_cell_length_a 9.488498
_cell_length_b 10.485339
_cell_length_c 9.166147
_cell_angle_alpha 84.773103
_cell_angle_beta 49.657439
_cell_angle_gamma 77.540713
_cell_volume 677.254493
_symmetry_space_group_name_H-M "P -1"
_symmetry_group_IT_number 2
_symmetry_cell_setting 'triclinic'
loop_
_space_group_symop_operation_xyz
x,y,z
-x,-y,-z
loop_
_atom_site_type_symbol
_atom_site_label
_atom_site_fract_x
_atom_site_fract_y
_atom_site_fract_z
Si Si1 0.063501 0.693025 0.854926
Si Si2 0.277771 0.931990 0.212846
Si Si3 0.657141 0.572016 0.325193
Si Si4 0.761341 0.270262 0.992893
Si Si5 0.627582 0.583998 0.817737
Si Si6 0.359984 0.246714 0.927351
Si Si7 0.989398 0.809672 0.592106
Si Si8 0.091201 0.368513 0.593161
O O1 0.081468 0.712812 0.668326
O O2 0.171736 0.545147 0.831094
O O3 0.840257 0.739102 0.017397
O O4 0.146762 0.776393 0.909866
O O5 0.252316 0.844418 0.099077
O O6 0.491206 0.887234 0.131399
O O7 0.150434 0.883826 0.426571
O O8 0.183322 0.082685 0.239006
O O9 0.500000 0.500000 0.500000
O O10 0.555601 0.661735 0.252293
O O11 0.757087 0.643466 0.376216
O O12 0.890575 0.365469 0.816423
O O13 0.544700 0.334535 0.168765
O O14 0.810778 0.537879 0.595978
O O15 0.500000 0.500000 0.000000
O O16 0.679790 0.675488 0.901596
O O17 0.915899 0.746980 0.504809
#
# Coordination Sequence:
#
# PCOD9032058 Si02
#       8
#     2   2   2   2   2   2   2   2
#     4  12  23  40  64  94 131 167 214 264 322 389
#     4   9  22  44  69  93 126 169 218 274 322 381
#     4  12  25  40  64  94 132 173 211 265 325 386
#     4  10  23  41  64  92 129 168 214 268 321 387
#     4  11  23  39  60  93 128 168 219 263 318 388
#     4  11  22  41  61  94 129 164 213 266 321 383
#     4  10  22  43  69  93 127 169 222 268 322 387
#     4  11  23  41  64  92 129 172 215 264 324 383
#
# _framework density 23.624797999999998
#
# number of rings (size 3 to 8) (size 9 to 14) (size 15 to 20)
#    0.000    1.250    2.500    3.375    1.750    4.000 
#    0.000    0.625    2.750    0.000    0.000    0.000 
#    0.000    0.000    0.000    0.000    0.000    0.000 
#
# Total GULP energy -89156.641415 kJ/mol
# GULP energy per Si atom -5572.290088 kJ/mol
# Density = 2.357103 g / cm^3
# Si number density = 23.624798 Si / 1000 Ang^3
#
#
#
# Elastic Constant Matrix: (Units=GPa)
#
#
# Indices 1 2 3 4 5 6 
#
# 1 147.5404 17.1902 47.9154 14.6299 -13.2168 -5.1622
# 2 17.1902 49.0278 12.7342 15.1271 -7.8658 -13.1953
# 3 47.9154 12.7342 130.2571 10.8630 -15.0925 1.3414
# 4 14.6299 15.1271 10.8630 28.2632 -7.6180 -11.0677
# 5 -13.2168 -7.8658 -15.0925 -7.6180 48.0575 -4.3719
# 6 -5.1622 -13.1953 1.3414 -11.0677 -4.3719 25.2342
#
#
#
# Elastic Compliance Matrix: (Units=1/GPa)
#
#
# Indices 1 2 3 4 5 6 
#
# 1 0.008062 -0.001266 -0.002563 -0.002134 0.000898 0.000343
# 2 -0.001266 0.027205 -0.001228 -0.008190 0.003424 0.011033
# 3 -0.002563 -0.001228 0.009097 -0.002028 0.001421 -0.002293
# 4 -0.002134 -0.008190 -0.002028 0.051064 0.007263 0.019043
# 5 0.000898 0.003424 0.001421 0.007263 0.024055 0.009252
# 6 0.000343 0.011033 -0.002293 0.019043 0.009252 0.055546
#
#
# Mechanical properties :
#
#
# Convention : Reuss Voigt Hill
#
# Bulk Modulus (GPa) = 29.19689 53.61165 41.40427
# Shear Modulus (GPa) = 25.43753 36.91003 31.17378
#
# Velocity S-wave (km/s) = 3.28492 3.95694 3.63648
# Velocity P-wave (km/s) = 5.17426 6.60444 5.93261
#
# Compressibility (1/GPa) = 0.03425023
#
# Stress axis : x y z
#
# Youngs Moduli (GPa) = 124.04157 36.75758 109.92099
#
# Poissons Ratio (x) = 0.04654 0.28176
# Poissons Ratio (y) = 0.15705 0.13495
# Poissons Ratio (z) = 0.31796 0.04513
#
# Static dielectric constant tensor:
#      x y z
#    x 1.882590 0.010800 -0.044560 
#    y 0.010800 2.013100 -0.133930 
#    z -0.044560 -0.133930 2.034740 
# 
# From -- ./inp_files/187229.got.cif
#   From: 2010.05.17/outbox.cif.g08.bks.cpg/sg2_94_cif.got.tgz:187229.got - 2010.06.03 11:33:40.
