data_PCOD9032658
_publ_section_title
;
Structure prediction by ZEFSAII (Michael W. Deem and Ramdas Pophale) SiO2 
 PCOD9032658
Probable space group: P -1
;
_chemical_formula_sum "Si O2"
_cell_formula_units_Z 15
_cell_length_a 10.548684
_cell_length_b 20.100743
_cell_length_c 8.645901
_cell_angle_alpha 38.531575
_cell_angle_beta 65.370413
_cell_angle_gamma 39.234839
_cell_volume 633.637059
_symmetry_space_group_name_H-M "P -1"
_symmetry_group_IT_number 2
_symmetry_cell_setting 'triclinic'
loop_
_space_group_symop_operation_xyz
x,y,z
-x,-y,-z
loop_
_atom_site_type_symbol
_atom_site_label
_atom_site_fract_x
_atom_site_fract_y
_atom_site_fract_z
Si Si1 0.045811 0.892127 0.032959
Si Si2 0.408300 0.833570 0.373707
Si Si3 0.390553 0.507338 0.188861
Si Si4 0.137994 0.211984 0.133776
Si Si5 0.867382 0.667692 0.372301
Si Si6 0.500000 0.500000 0.500000
Si Si7 0.321423 0.871737 0.703213
Si Si8 0.172164 0.413951 0.927593
O O1 0.140127 0.909351 0.814556
O O2 0.247191 0.690333 0.338781
O O3 0.806227 0.986299 0.933045
O O4 0.000000 0.000000 0.000000
O O5 0.483838 0.682675 0.516351
O O6 0.640878 0.758984 0.399449
O O7 0.332796 0.846982 0.559513
O O8 0.405726 0.552159 0.267133
O O9 0.500000 0.500000 0.000000
O O10 0.130821 0.644061 0.017102
O O11 0.255241 0.035925 0.460385
O O12 0.214834 0.190983 0.957987
O O13 0.187228 0.288217 0.068561
O O14 0.000000 0.500000 0.500000
O O15 0.055262 0.568981 0.588299
O O16 0.575890 0.698502 0.955112
O O17 0.000000 0.500000 0.000000
#
# Coordination Sequence:
#
# PCOD9032658 Si02
#       8
#     2   2   2   2   2   1   2   2
#     4  12  28  48  75 110 148 194 253 317 377 456
#     4  12  23  49  73 102 150 200 245 312 381 450
#     4  12  24  46  73 108 147 198 254 307 383 454
#     4  11  25  44  68 104 146 194 240 309 381 441
#     4  10  22  43  73 100 143 194 246 302 364 456
#     4  12  28  48  76 112 148 204 252 312 388 456
#     4  12  26  46  72 108 150 189 253 316 380 459
#     4  11  22  45  70 107 139 193 247 304 376 448
#
# _framework density 23.672857
#
# number of rings (size 3 to 8) (size 9 to 14) (size 15 to 20)
#    0.000    0.533    5.333    3.200    5.600    0.533 
#    0.000    0.000    0.000    0.000    0.000    0.000 
#    0.000    0.000    0.000    0.000    0.000    0.000 
#
# Total GULP energy -83731.616421 kJ/mol
# GULP energy per Si atom -5582.107761 kJ/mol
# Density = 2.361898 g / cm^3
# Si number density = 23.672857 Si / 1000 Ang^3
#
#
#
# Elastic Constant Matrix: (Units=GPa)
#
#
# Indices 1 2 3 4 5 6 
#
# 1 83.5123 21.4228 11.3987 -14.3797 20.3072 10.7808
# 2 21.4228 104.5217 0.3791 -9.8263 13.7829 2.0119
# 3 11.3987 0.3791 76.5984 -36.3500 20.8288 -12.8091
# 4 -14.3797 -9.8263 -36.3500 49.4462 -8.4969 1.9375
# 5 20.3072 13.7829 20.8288 -8.4969 48.2156 -3.6877
# 6 10.7808 2.0119 -12.8091 1.9375 -3.6877 40.9763
#
#
#
# Elastic Compliance Matrix: (Units=1/GPa)
#
#
# Indices 1 2 3 4 5 6 
#
# 1 0.014944 -0.001941 0.000089 0.003247 -0.005547 -0.004461
# 2 -0.001941 0.010568 0.002353 0.002787 -0.002702 0.000352
# 3 0.000089 0.002353 0.023962 0.016557 -0.007694 0.005876
# 4 0.003247 0.002787 0.016557 0.033239 -0.003282 0.002317
# 5 -0.005547 -0.002702 -0.007694 -0.003282 0.026728 0.001747
# 6 -0.004461 0.000352 0.005876 0.002317 0.001747 0.027445
#
#
# Mechanical properties :
#
#
# Convention : Reuss Voigt Hill
#
# Bulk Modulus (GPa) = 19.81114 36.78154 28.29634
# Shear Modulus (GPa) = 32.74197 43.15640 37.94919
#
# Velocity S-wave (km/s) = 3.72304 4.27433 4.00818
# Velocity P-wave (km/s) = 5.18346 6.31910 5.77924
#
# Compressibility (1/GPa) = 0.05047665
#
# Stress axis : x y z
#
# Youngs Moduli (GPa) = 66.91768 94.62380 41.73252
#
# Poissons Ratio (x) = 0.18363 -0.00372
# Poissons Ratio (y) = 0.12986 -0.09819
# Poissons Ratio (z) = -0.00596 -0.22264
#
# Static dielectric constant tensor:
#      x y z
#    x 1.938270 0.002810 -0.080190 
#    y 0.002810 1.868510 0.025500 
#    z -0.080190 0.025500 1.974500 
# 
# From -- ./inp_files/284619.got.cif
#   From: 2010.05.17/outbox.cif.g08.bks.cpg/sg2_143_cif.got.tgz:284619.got - 2010.06.03 11:33:40.
