data_PCOD9032543
_publ_section_title
;
Structure prediction by ZEFSAII (Michael W. Deem and Ramdas Pophale) SiO2 
 PCOD9032543
Probable space group: P -1
;
_chemical_formula_sum "Si O2"
_cell_formula_units_Z 11
_cell_length_a 12.700891
_cell_length_b 8.629861
_cell_length_c 8.922997
_cell_angle_alpha 54.772425
_cell_angle_beta 47.490003
_cell_angle_gamma 33.980210
_cell_volume 402.625103
_symmetry_space_group_name_H-M "P -1"
_symmetry_group_IT_number 2
_symmetry_cell_setting 'triclinic'
loop_
_space_group_symop_operation_xyz
x,y,z
-x,-y,-z
loop_
_atom_site_type_symbol
_atom_site_label
_atom_site_fract_x
_atom_site_fract_y
_atom_site_fract_z
Si Si1 0.116698 0.584135 0.817339
Si Si2 0.203202 0.085613 0.508590
Si Si3 0.000000 0.000000 0.000000
Si Si4 0.523154 0.752045 0.137453
Si Si5 0.255470 0.801418 0.141260
Si Si6 0.226135 0.414339 0.493290
O O1 0.238424 0.523319 0.887454
O O2 0.265509 0.393554 0.642800
O O3 0.953437 0.902608 0.749172
O O4 0.000000 0.500000 0.000000
O O5 0.299516 0.160775 0.474116
O O6 0.078107 0.065926 0.748531
O O7 0.026619 0.348511 0.422676
O O8 0.374383 0.832360 0.373196
O O9 0.802085 0.116542 0.021461
O O10 0.442051 0.736943 0.073461
O O11 0.500000 0.000000 0.000000
O O12 0.293771 0.548548 0.287589
#
# Coordination Sequence:
#
# PCOD9032543 Si02
#       6
#     2   2   1   2   2   2
#     4  12  23  43  76 102 144 198 242 307 371 426
#     4  10  22  45  74 108 146 193 246 302 365 442
#     4  10  24  44  80 104 146 198 238 302 376 424
#     4  12  26  45  76 111 145 193 257 299 363 448
#     4  11  24  48  71 107 147 196 248 301 365 443
#     4  10  22  43  72 101 148 195 238 304 372 426
#
# _framework density 27.320699000000001
#
# number of rings (size 3 to 8) (size 9 to 14) (size 15 to 20)
#    0.000    1.091    3.636    1.636    2.545    4.364 
#    0.000    1.818    0.000    0.000    0.000    0.000 
#    0.000    0.000    0.000    0.000    0.000    0.000 
#
# Total GULP energy -61470.800818 kJ/mol
# GULP energy per Si atom -5588.254620 kJ/mol
# Density = 2.725852 g / cm^3
# Si number density = 27.320699 Si / 1000 Ang^3
#
#
#
# Elastic Constant Matrix: (Units=GPa)
#
#
# Indices 1 2 3 4 5 6 
#
# 1 235.0824 29.7154 39.3361 -9.0691 12.7482 -7.1604
# 2 29.7154 120.2516 31.6023 3.5005 -13.9532 -16.1840
# 3 39.3361 31.6023 134.1901 -6.0307 8.8213 3.1892
# 4 -9.0691 3.5005 -6.0307 28.8443 9.2315 -6.4364
# 5 12.7482 -13.9532 8.8213 9.2315 45.6404 -9.8095
# 6 -7.1604 -16.1840 3.1892 -6.4364 -9.8095 48.2049
#
#
#
# Elastic Compliance Matrix: (Units=1/GPa)
#
#
# Indices 1 2 3 4 5 6 
#
# 1 0.004745 -0.001179 -0.000901 0.002108 -0.001881 0.000267
# 2 -0.001179 0.010673 -0.002784 -0.003102 0.005690 0.004336
# 3 -0.000901 -0.002784 0.008741 0.002470 -0.003212 -0.001971
# 4 0.002108 -0.003102 0.002470 0.039832 -0.009537 0.002486
# 5 -0.001881 0.005690 -0.003212 -0.009537 0.028076 0.006283
# 6 0.000267 0.004336 -0.001971 0.002486 0.006283 0.023981
#
#
# Mechanical properties :
#
#
# Convention : Reuss Voigt Hill
#
# Bulk Modulus (GPa) = 69.30238 76.75907 73.03072
# Shear Modulus (GPa) = 38.28853 50.46260 44.37556
#
# Velocity S-wave (km/s) = 3.74765 4.30239 4.03457
# Velocity P-wave (km/s) = 6.64439 7.26893 6.96366
#
# Compressibility (1/GPa) = 0.01442952
#
# Stress axis : x y z
#
# Youngs Moduli (GPa) = 210.74069 93.69312 114.40288
#
# Poissons Ratio (x) = 0.11050 0.10310
# Poissons Ratio (y) = 0.24854 0.31854
# Poissons Ratio (z) = 0.18992 0.26087
#
# Static dielectric constant tensor:
#      x y z
#    x 2.209730 0.151450 0.040590 
#    y 0.151450 2.496660 0.234810 
#    z 0.040590 0.234810 2.133280 
# 
# From -- ./inp_files/152724.got.cif
#   From: 2010.05.17/outbox.cif.g08.bks.cpg/sg2_77_cif.got.tgz:152724.got - 2010.06.03 11:33:40.
