data_PCOD9032410
_publ_section_title
;
Structure prediction by ZEFSAII (Michael W. Deem and Ramdas Pophale) SiO2 
 PCOD9032410
Probable space group: P -1
;
_chemical_formula_sum "Si O2"
_cell_formula_units_Z 14
_cell_length_a 9.058042
_cell_length_b 12.219113
_cell_length_c 15.535791
_cell_angle_alpha 153.122810
_cell_angle_beta 58.966788
_cell_angle_gamma 131.730234
_cell_volume 564.340386
_symmetry_space_group_name_H-M "P -1"
_symmetry_group_IT_number 2
_symmetry_cell_setting 'triclinic'
loop_
_space_group_symop_operation_xyz
x,y,z
-x,-y,-z
loop_
_atom_site_type_symbol
_atom_site_label
_atom_site_fract_x
_atom_site_fract_y
_atom_site_fract_z
Si Si1 0.350301 0.565844 0.450333
Si Si2 0.904602 0.249624 0.782223
Si Si3 0.945056 0.897100 0.662607
Si Si4 0.677058 0.463814 0.235819
Si Si5 0.357559 0.905920 0.847151
Si Si6 0.912138 0.546778 0.717669
Si Si7 0.286702 0.472985 0.058975
O O1 0.558262 0.625684 0.390847
O O2 0.379215 0.801570 0.674626
O O3 0.194508 0.499439 0.374117
O O4 0.243653 0.280259 0.340776
O O5 0.735136 0.280576 0.806489
O O6 0.091126 0.345571 0.728100
O O7 0.868811 0.985353 0.664439
O O8 0.000000 0.500000 0.000000
O O9 0.032362 0.699339 0.471549
O O10 0.116087 0.176598 0.857498
O O11 0.652427 0.298529 0.216247
O O12 0.544266 0.216538 0.031828
O O13 0.129624 0.844911 0.871350
O O14 0.769815 0.523476 0.822084
O O15 0.500000 0.500000 0.000000
#
# Coordination Sequence:
#
# PCOD9032410 Si02
#       7
#     2   2   2   2   2   2   2
#     4  11  25  44  72 108 143 183 239 288 353 421
#     4  10  24  47  69 104 141 183 234 290 358 413
#     4  10  24  47  70 101 149 181 231 300 345 422
#     4  11  23  43  73 102 142 182 236 294 346 420
#     4  10  22  43  71 102 140 183 238 292 348 415
#     4  11  24  47  72 104 146 188 237 289 356 415
#     4  11  25  47  71 103 140 188 237 286 355 423
#
# _framework density 24.807721999999998
#
# number of rings (size 3 to 8) (size 9 to 14) (size 15 to 20)
#    0.000    1.429    1.429    3.000   10.000    4.571 
#    0.000    0.000    0.000    0.000    0.000    0.000 
#    0.000    0.000    0.000    0.000    0.000    0.000 
#
# Total GULP energy -78506.076226 kJ/mol
# GULP energy per Si atom -5607.576873 kJ/mol
# Density = 2.475126 g / cm^3
# Si number density = 24.807722 Si / 1000 Ang^3
#
#
#
# Elastic Constant Matrix: (Units=GPa)
#
#
# Indices 1 2 3 4 5 6 
#
# 1 187.9016 81.3572 55.4435 -15.4651 -0.7501 0.7969
# 2 81.3572 127.8679 43.4195 -14.3415 -15.2126 -6.2188
# 3 55.4435 43.4195 105.0973 -8.4791 15.8161 -3.7909
# 4 -15.4651 -14.3415 -8.4791 39.9787 0.2209 -2.8607
# 5 -0.7501 -15.2126 15.8161 0.2209 51.4180 -13.6940
# 6 0.7969 -6.2188 -3.7909 -2.8607 -13.6940 32.5326
#
#
#
# Elastic Compliance Matrix: (Units=1/GPa)
#
#
# Indices 1 2 3 4 5 6 
#
# 1 0.007961 -0.004394 -0.002228 0.000921 -0.000930 -0.001605
# 2 -0.004394 0.013145 -0.003670 0.002565 0.006292 0.005067
# 3 -0.002228 -0.003670 0.013025 0.000514 -0.005500 -0.001399
# 4 0.000921 0.002565 0.000514 0.026639 0.001424 0.003470
# 5 -0.000930 0.006292 -0.005500 0.001424 0.026097 0.011695
# 6 -0.001605 0.005067 -0.001399 0.003470 0.011695 0.036811
#
#
# Mechanical properties :
#
#
# Convention : Reuss Voigt Hill
#
# Bulk Modulus (GPa) = 73.81505 86.81193 80.31349
# Shear Modulus (GPa) = 33.60712 40.82898 37.21805
#
# Velocity S-wave (km/s) = 3.68462 4.06127 3.87752
# Velocity P-wave (km/s) = 6.92253 7.55392 7.24511
#
# Compressibility (1/GPa) = 0.01354737
#
# Stress axis : x y z
#
# Youngs Moduli (GPa) = 125.61710 76.07335 76.77406
#
# Poissons Ratio (x) = 0.33426 0.17105
# Poissons Ratio (y) = 0.55195 0.28176
# Poissons Ratio (z) = 0.27987 0.27919
#
# Static dielectric constant tensor:
#      x y z
#    x 1.939990 -0.000020 -0.014300 
#    y -0.000020 1.968490 0.054980 
#    z -0.014300 0.054980 2.039670 
# 
# From -- ./inp_files/501083.got.cif
#   From: 2010.05.17/outbox.cif.g08.bks.cpg/sg2_251_cif.got.tgz:501083.got - 2010.06.03 11:33:40.
