data_PCOD9032602
_publ_section_title
;
Structure prediction by ZEFSAII (Michael W. Deem and Ramdas Pophale) SiO2 
 PCOD9032602
Probable space group: P -1
;
_chemical_formula_sum "Si O2"
_cell_formula_units_Z 13
_cell_length_a 4.805511
_cell_length_b 16.725904
_cell_length_c 5.727818
_cell_angle_alpha 106.498740
_cell_angle_beta 86.194696
_cell_angle_gamma 113.660972
_cell_volume 403.723792
_symmetry_space_group_name_H-M "P -1"
_symmetry_group_IT_number 2
_symmetry_cell_setting 'triclinic'
loop_
_space_group_symop_operation_xyz
x,y,z
-x,-y,-z
loop_
_atom_site_type_symbol
_atom_site_label
_atom_site_fract_x
_atom_site_fract_y
_atom_site_fract_z
Si Si1 0.370639 0.544729 0.847887
Si Si2 0.341991 0.918216 0.613996
Si Si3 0.641529 0.269629 0.048414
Si Si4 0.092510 0.367207 0.478686
Si Si5 0.088311 0.167659 0.848058
Si Si6 0.640418 0.775764 0.538627
Si Si7 0.000000 0.000000 0.000000
O O1 0.253202 0.624870 0.945527
O O2 0.105644 0.458163 0.673957
O O3 0.669357 0.593744 0.712326
O O4 0.500000 0.500000 0.000000
O O5 0.556145 0.869314 0.641788
O O6 0.024241 0.849165 0.455962
O O7 0.500000 0.000000 0.500000
O O8 0.227929 0.954491 0.869126
O O9 0.296334 0.215852 0.143908
O O10 0.746371 0.298773 0.374900
O O11 0.849553 0.213002 0.958772
O O12 0.246938 0.311318 0.564358
O O13 0.436585 0.230206 0.767660
O O14 0.074833 0.067591 0.819188
#
# Coordination Sequence:
#
# PCOD9032602 Si02
#       7
#     2   2   2   2   2   2   1
#     4  10  22  43  72 114 158 209 273 333 403 491
#     4  12  28  52  82 114 156 217 273 353 419 489
#     4  11  25  44  76 113 162 217 263 341 411 491
#     4  10  23  45  74 112 161 212 273 331 408 496
#     4  12  27  48  77 115 158 206 279 339 416 497
#     4  11  25  48  75 113 159 211 274 336 416 485
#     4  12  28  54  82 116 158 208 290 344 420 506
#
# _framework density 32.200234000000002
#
# number of rings (size 3 to 8) (size 9 to 14) (size 15 to 20)
#    0.000    0.923    1.538    3.692    2.154    7.385 
#    0.000    0.000    0.000    0.000    0.000    1.077 
#    0.000    0.000    0.000    0.000    0.000    0.000 
#
# Total GULP energy -72720.279461 kJ/mol
# GULP energy per Si atom -5593.867651 kJ/mol
# Density = 3.212694 g / cm^3
# Si number density = 32.200234 Si / 1000 Ang^3
#
#
#
# Elastic Constant Matrix: (Units=GPa)
#
#
# Indices 1 2 3 4 5 6 
#
# 1 292.4039 119.3097 59.2923 8.7482 32.6229 -40.4184
# 2 119.3097 338.0190 82.0721 -29.7997 -9.3858 -50.1507
# 3 59.2923 82.0721 170.0039 -18.0205 -21.5284 -6.7420
# 4 8.7482 -29.7997 -18.0205 104.4147 -6.7989 -2.0951
# 5 32.6229 -9.3858 -21.5284 -6.7989 80.4859 -1.8756
# 6 -40.4184 -50.1507 -6.7420 -2.0951 -1.8756 93.8202
#
#
#
# Elastic Compliance Matrix: (Units=1/GPa)
#
#
# Indices 1 2 3 4 5 6 
#
# 1 0.004719 -0.001327 -0.001400 -0.001156 -0.002513 0.001147
# 2 -0.001327 0.004079 -0.001218 0.001150 0.000821 0.001563
# 3 -0.001400 -0.001218 0.007374 0.001191 0.002483 -0.000648
# 4 -0.001156 0.001150 0.001191 0.010335 0.001805 0.000469
# 5 -0.002513 0.000821 0.002483 0.001805 0.014352 -0.000138
# 6 0.001147 0.001563 -0.000648 0.000469 -0.000138 0.011949
#
#
# Mechanical properties :
#
#
# Convention : Reuss Voigt Hill
#
# Bulk Modulus (GPa) = 120.77882 146.86389 133.82135
# Shear Modulus (GPa) = 78.78994 91.72767 85.25880
#
# Velocity S-wave (km/s) = 4.95196 5.34308 5.15123
# Velocity P-wave (km/s) = 8.38367 9.15277 8.77665
#
# Compressibility (1/GPa) = 0.00827960
#
# Stress axis : x y z
#
# Youngs Moduli (GPa) = 211.91253 245.17271 135.61465
#
# Poissons Ratio (x) = 0.32539 0.18992
# Poissons Ratio (y) = 0.28125 0.16522
# Poissons Ratio (z) = 0.29677 0.29870
#
# Static dielectric constant tensor:
#      x y z
#    x 2.750170 0.614410 0.293310 
#    y 0.614410 2.735990 0.063750 
#    z 0.293310 0.063750 3.598400 
# 
# From -- ./inp_files/4663.got.cif
#   From: 2010.05.17/outbox.cif.g08.bks.cpg/sg2_3_cif.got.tgz:4663.got - 2010.06.03 11:33:40.
