data_PCOD9032285
_publ_section_title
;
Structure prediction by ZEFSAII (Michael W. Deem and Ramdas Pophale) SiO2 
 PCOD9032285
Probable space group: P -1
;
_chemical_formula_sum "Si O2"
_cell_formula_units_Z 16
_cell_length_a 5.728384
_cell_length_b 8.908093
_cell_length_c 18.121934
_cell_angle_alpha 59.204526
_cell_angle_beta 74.397725
_cell_angle_gamma 92.990188
_cell_volume 744.666106
_symmetry_space_group_name_H-M "P -1"
_symmetry_group_IT_number 2
_symmetry_cell_setting 'triclinic'
loop_
_space_group_symop_operation_xyz
x,y,z
-x,-y,-z
loop_
_atom_site_type_symbol
_atom_site_label
_atom_site_fract_x
_atom_site_fract_y
_atom_site_fract_z
Si Si1 0.272891 0.851424 0.524507
Si Si2 0.569530 0.589736 0.551048
Si Si3 0.461807 0.197023 0.926854
Si Si4 0.044175 0.090581 0.744324
Si Si5 0.275642 0.566878 0.040158
Si Si6 0.977624 0.767177 0.936302
Si Si7 0.001219 0.047664 0.596602
Si Si8 0.568505 0.266587 0.729645
O O1 0.328806 0.659996 0.578384
O O2 0.240017 0.895892 0.430217
O O3 0.500000 0.000000 0.500000
O O4 0.042517 0.888266 0.580580
O O5 0.500000 0.500000 0.500000
O O6 0.788650 0.767100 0.476237
O O7 0.639626 0.466310 0.639691
O O8 0.677156 0.360665 0.899977
O O9 0.460800 0.223081 0.832619
O O10 0.219604 0.238978 0.978542
O O11 0.500000 0.000000 0.000000
O O12 0.828744 0.201658 0.725812
O O13 0.020405 0.992650 0.692232
O O14 0.330799 0.183325 0.716934
O O15 0.969117 0.947013 0.850907
O O16 0.063325 0.393517 0.080913
O O17 0.500000 0.500000 0.000000
O O18 0.231180 0.742671 0.957539
#
# Coordination Sequence:
#
# PCOD9032285 Si02
#       8
#     2   2   2   2   2   2   2   2
#     4   9  21  42  65  96 129 177 226 278 342 398
#     4  11  22  43  68  97 138 177 221 286 335 405
#     4  11  22  43  68  97 138 177 221 286 335 405
#     4  12  26  44  68 104 132 184 226 274 342 412
#     4   9  21  42  65  96 129 177 226 278 342 398
#     4  10  22  43  70  92 137 178 227 280 340 405
#     4  10  22  43  70  92 137 178 227 280 340 405
#     4  12  28  42  68 106 136 176 234 274 346 408
#
# _framework density 21.486138
#
# number of rings (size 3 to 8) (size 9 to 14) (size 15 to 20)
#    0.000    1.500    2.500    1.500    7.000    2.000 
#   13.500    0.000    0.000    0.000    0.000    0.000 
#    0.000    0.000    0.000    0.000    0.000    0.000 
#
# Total GULP energy -89069.309468 kJ/mol
# GULP energy per Si atom -5566.831842 kJ/mol
# Density = 2.143723 g / cm^3
# Si number density = 21.486138 Si / 1000 Ang^3
#
#
#
# Elastic Constant Matrix: (Units=GPa)
#
#
# Indices 1 2 3 4 5 6 
#
# 1 81.0216 28.4409 16.2146 -0.4243 33.0346 -7.0253
# 2 28.4409 99.6415 18.1882 4.7652 19.6059 -10.2550
# 3 16.2146 18.1882 78.9340 3.3242 23.5011 -21.2077
# 4 -0.4243 4.7652 3.3242 34.0246 -2.7041 15.4752
# 5 33.0346 19.6059 23.5011 -2.7041 36.7582 -5.6407
# 6 -7.0253 -10.2550 -21.2077 15.4752 -5.6407 38.6028
#
#
#
# Elastic Compliance Matrix: (Units=1/GPa)
#
#
# Indices 1 2 3 4 5 6 
#
# 1 0.020428 -0.002241 0.002771 -0.002516 -0.018671 0.002925
# 2 -0.002241 0.012044 0.000088 -0.003754 -0.004169 0.003736
# 3 0.002771 0.000088 0.020209 -0.009081 -0.014098 0.013210
# 4 -0.002516 -0.003754 -0.009081 0.041374 0.009799 -0.021599
# 5 -0.018671 -0.004169 -0.014098 0.009799 0.054686 -0.008188
# 6 0.002925 0.003736 0.013210 -0.021599 -0.008188 0.042149
#
#
# Mechanical properties :
#
#
# Convention : Reuss Voigt Hill
#
# Bulk Modulus (GPa) = 18.54751 42.80938 30.67844
# Shear Modulus (GPa) = 24.08180 34.99400 29.53790
#
# Velocity S-wave (km/s) = 3.35148 4.04007 3.71177
# Velocity P-wave (km/s) = 4.86082 6.45990 5.71655
#
# Compressibility (1/GPa) = 0.05391559
#
# Stress axis : x y z
#
# Youngs Moduli (GPa) = 48.95329 83.02945 49.48408
#
# Poissons Ratio (x) = 0.18610 -0.13712
# Poissons Ratio (y) = 0.10972 -0.00437
# Poissons Ratio (z) = -0.13565 -0.00732
#
# Static dielectric constant tensor:
#      x y z
#    x 1.947630 0.024170 0.008700 
#    y 0.024170 1.860100 0.015840 
#    z 0.008700 0.015840 1.785880 
# 
# From -- ./inp_files/138070.got.cif
#   From: 2010.05.17/outbox.cif.g08.bks.cpg/sg2_70_cif.got.tgz:138070.got - 2010.06.03 11:33:40.
