data_PCOD9032912
_publ_section_title
;
Structure prediction by ZEFSAII (Michael W. Deem and Ramdas Pophale) SiO2 
 PCOD9032912
Probable space group: P -1
;
_chemical_formula_sum "Si O2"
_cell_formula_units_Z 16
_cell_length_a 8.181574
_cell_length_b 13.014841
_cell_length_c 11.813973
_cell_angle_alpha 131.565423
_cell_angle_beta 134.036591
_cell_angle_gamma 47.533930
_cell_volume 620.797934
_symmetry_space_group_name_H-M "P -1"
_symmetry_group_IT_number 2
_symmetry_cell_setting 'triclinic'
loop_
_space_group_symop_operation_xyz
x,y,z
-x,-y,-z
loop_
_atom_site_type_symbol
_atom_site_label
_atom_site_fract_x
_atom_site_fract_y
_atom_site_fract_z
Si Si1 0.548460 0.467236 0.134128
Si Si2 0.777273 0.691304 0.491230
Si Si3 0.484450 0.014212 0.322787
Si Si4 0.992636 0.794816 0.857849
Si Si5 0.631531 0.084550 0.201335
Si Si6 0.007056 0.195569 0.502728
Si Si7 0.835624 0.685636 0.918414
Si Si8 0.112933 0.619220 0.216304
O O1 0.693001 0.567928 0.316939
O O2 0.719453 0.289505 0.095095
O O3 0.325485 0.527340 0.161519
O O4 0.500000 0.500000 0.000000
O O5 0.553115 0.856381 0.508276
O O6 0.995884 0.698892 0.524781
O O7 0.868891 0.688132 0.661289
O O8 0.585292 0.052041 0.282946
O O9 0.195990 0.047305 0.173086
O O10 0.707197 0.866462 0.363558
O O11 0.955276 0.769302 0.953026
O O12 0.452468 0.254235 0.206652
O O13 0.910389 0.072819 0.320363
O O14 0.500000 0.000000 0.000000
O O15 0.845670 0.276556 0.593172
O O16 0.944032 0.506007 0.832890
O O17 0.891222 0.715799 0.096198
#
# Coordination Sequence:
#
# PCOD9032912 Si02
#       8
#     2   2   2   2   2   2   2   2
#     4  12  23  42  68 101 140 179 222 277 346 400
#     4  10  24  42  69  97 136 182 222 278 332 411
#     4   9  22  44  68  92 135 179 227 271 332 406
#     4   9  21  43  64  91 138 175 223 272 331 398
#     4  11  24  43  68  97 137 176 226 285 338 400
#     4  12  24  44  70 102 133 182 229 275 340 402
#     4  10  22  44  63 102 136 172 228 279 333 396
#     4  11  25  39  72 101 138 177 224 281 336 404
#
# _framework density 25.773282999999999
#
# number of rings (size 3 to 8) (size 9 to 14) (size 15 to 20)
#    0.750    0.750    1.250    3.375    3.500    1.500 
#    0.000    0.625    0.000    0.000    0.000    0.000 
#    0.000    0.000    0.000    0.000    0.000    0.000 
#
# Total GULP energy -89183.641229 kJ/mol
# GULP energy per Si atom -5573.977577 kJ/mol
# Density = 2.571462 g / cm^3
# Si number density = 25.773283 Si / 1000 Ang^3
#
#
#
# Elastic Constant Matrix: (Units=GPa)
#
#
# Indices 1 2 3 4 5 6 
#
# 1 94.3401 11.2473 19.1440 0.7967 -17.5664 -12.3903
# 2 11.2473 69.1139 11.7727 -12.5639 -13.8301 -21.3992
# 3 19.1440 11.7727 93.7168 13.3671 -12.4163 8.0510
# 4 0.7967 -12.5639 13.3671 36.4408 -2.8142 -0.6691
# 5 -17.5664 -13.8301 -12.4163 -2.8142 36.9670 -8.2139
# 6 -12.3903 -21.3992 8.0510 -0.6691 -8.2139 32.8945
#
#
#
# Elastic Compliance Matrix: (Units=1/GPa)
#
#
# Indices 1 2 3 4 5 6 
#
# 1 0.014237 0.004749 -0.003705 0.003696 0.010243 0.011992
# 2 0.004749 0.029718 -0.006718 0.014533 0.018368 0.027648
# 3 -0.003705 -0.006718 0.013905 -0.007703 -0.002395 -0.009924
# 4 0.003696 0.014533 -0.007703 0.036342 0.010975 0.016211
# 5 0.010243 0.018368 -0.002395 0.010975 0.045011 0.027856
# 6 0.011992 0.027648 -0.009924 0.016211 0.027856 0.062618
#
#
# Mechanical properties :
#
#
# Convention : Reuss Voigt Hill
#
# Bulk Modulus (GPa) = 21.49985 37.94432 29.72208
# Shear Modulus (GPa) = 21.86435 35.59424 28.72929
#
# Velocity S-wave (km/s) = 2.91578 3.72028 3.34232
# Velocity P-wave (km/s) = 4.43798 5.76266 5.14315
#
# Compressibility (1/GPa) = 0.04651196
#
# Stress axis : x y z
#
# Youngs Moduli (GPa) = 70.24129 33.64945 71.91611
#
# Poissons Ratio (x) = -0.15979 0.26645
# Poissons Ratio (y) = -0.33356 0.48311
# Poissons Ratio (z) = 0.26025 0.22605
#
# Static dielectric constant tensor:
#      x y z
#    x 2.059930 -0.086120 0.067150 
#    y -0.086120 2.206060 -0.059120 
#    z 0.067150 -0.059120 2.043520 
# 
# From -- ./inp_files/397680.got.cif
#   From: 2010.05.17/outbox.cif.g08.bks.cpg/sg2_199_cif.got.tgz:397680.got - 2010.06.03 11:33:40.
