data_PCOD9032379
_publ_section_title
;
Structure prediction by ZEFSAII (Michael W. Deem and Ramdas Pophale) SiO2 
 PCOD9032379
Probable space group: P -1
;
_chemical_formula_sum "Si O2"
_cell_formula_units_Z 16
_cell_length_a 14.219259
_cell_length_b 14.811050
_cell_length_c 9.673382
_cell_angle_alpha 65.945369
_cell_angle_beta 92.294918
_cell_angle_gamma 148.586654
_cell_volume 739.519329
_symmetry_space_group_name_H-M "P -1"
_symmetry_group_IT_number 2
_symmetry_cell_setting 'triclinic'
loop_
_space_group_symop_operation_xyz
x,y,z
-x,-y,-z
loop_
_atom_site_type_symbol
_atom_site_label
_atom_site_fract_x
_atom_site_fract_y
_atom_site_fract_z
Si Si1 0.883615 0.388756 0.215469
Si Si2 0.858218 0.870940 0.713754
Si Si3 0.732257 0.739509 0.273339
Si Si4 0.285247 0.062625 0.995214
Si Si5 0.549168 0.385659 0.064153
Si Si6 0.752940 0.551392 0.249913
Si Si7 0.363311 0.941886 0.931159
Si Si8 0.463719 0.088672 0.538095
O O1 0.655723 0.231287 0.351914
O O2 0.795391 0.190991 0.361451
O O3 0.000000 0.500000 0.000000
O O4 0.098018 0.651457 0.134488
O O5 0.686167 0.799700 0.758096
O O6 0.684071 0.609525 0.870112
O O7 0.000000 0.000000 0.500000
O O8 0.039410 0.044778 0.746162
O O9 0.500000 0.500000 0.500000
O O10 0.719397 0.831693 0.136495
O O11 0.727591 0.642335 0.229163
O O12 0.382977 0.075093 0.889774
O O13 0.450070 0.221620 0.040403
O O14 0.009405 0.771638 0.187158
O O15 0.732484 0.520397 0.102361
O O16 0.542285 0.276144 0.457116
O O17 0.451025 0.020073 0.728258
O O18 0.500000 0.000000 0.000000
#
# Coordination Sequence:
#
# PCOD9032379 Si02
#       8
#     2   2   2   2   2   2   2   2
#     4   9  20  42  70  97 130 174 228 288 346 411
#     4  11  22  40  63  99 136 183 238 285 334 416
#     4  12  23  41  69  98 144 191 229 282 350 418
#     4  12  24  45  67 100 142 186 232 290 351 423
#     4  11  24  41  64  96 140 177 235 286 344 409
#     4  12  23  44  69 101 143 190 226 288 352 425
#     4  11  25  46  69 101 139 178 235 301 356 418
#     4  10  22  43  71 100 137 180 235 283 359 428
#
# _framework density 21.635676
#
# number of rings (size 3 to 8) (size 9 to 14) (size 15 to 20)
#    0.000    1.000    3.750    4.125    0.000    3.500 
#    2.250    0.000    0.000    0.000    0.000    0.000 
#    0.000    0.000    0.000    0.000    0.000    0.000 
#
# Total GULP energy -89185.751946 kJ/mol
# GULP energy per Si atom -5574.109497 kJ/mol
# Density = 2.158643 g / cm^3
# Si number density = 21.635676 Si / 1000 Ang^3
#
#
#
# Elastic Constant Matrix: (Units=GPa)
#
#
# Indices 1 2 3 4 5 6 
#
# 1 71.6211 31.2899 30.5196 -6.5566 5.9594 -27.9688
# 2 31.2899 136.6837 32.3885 -8.9604 1.9176 -24.3730
# 3 30.5196 32.3885 115.6842 -12.7014 -6.4638 -16.9541
# 4 -6.5566 -8.9604 -12.7014 33.6275 -4.8934 5.2672
# 5 5.9594 1.9176 -6.4638 -4.8934 34.7540 -1.7609
# 6 -27.9688 -24.3730 -16.9541 5.2672 -1.7609 24.9686
#
#
#
# Elastic Compliance Matrix: (Units=1/GPa)
#
#
# Indices 1 2 3 4 5 6 
#
# 1 0.026143 -0.000503 -0.003183 -0.000958 -0.003836 0.026565
# 2 -0.000503 0.009078 -0.001280 0.000671 -0.000190 0.007275
# 3 -0.003183 -0.001280 0.010660 0.003215 0.003151 0.001968
# 4 -0.000958 0.000671 0.003215 0.032418 0.005051 -0.004718
# 5 -0.003836 -0.000190 0.003151 0.005051 0.030676 -0.001244
# 6 0.026565 0.007275 0.001968 -0.004718 -0.001244 0.079152
#
#
# Mechanical properties :
#
#
# Convention : Reuss Voigt Hill
#
# Bulk Modulus (GPa) = 27.81574 56.93167 42.37370
# Shear Modulus (GPa) = 23.80487 33.98944 28.89715
#
# Velocity S-wave (km/s) = 3.32061 3.96787 3.65859
# Velocity P-wave (km/s) = 5.25227 6.88207 6.12165
#
# Compressibility (1/GPa) = 0.03595087
#
# Stress axis : x y z
#
# Youngs Moduli (GPa) = 38.25045 110.15200 93.81176
#
# Poissons Ratio (x) = 0.05537 0.29858
# Poissons Ratio (y) = 0.01923 0.12007
# Poissons Ratio (z) = 0.12174 0.14098
#
# Static dielectric constant tensor:
#      x y z
#    x 1.823430 -0.022640 -0.011710 
#    y -0.022640 1.876530 -0.020000 
#    z -0.011710 -0.020000 1.812940 
# 
# From -- ./inp_files/314961.got.cif
#   From: 2010.05.17/outbox.cif.g08.bks.cpg/sg2_158_cif.got.tgz:314961.got - 2010.06.03 11:33:40.
