data_PCOD9032880
_publ_section_title
;
Structure prediction by ZEFSAII (Michael W. Deem and Ramdas Pophale) SiO2 
 PCOD9032880
Probable space group: P -1
;
_chemical_formula_sum "Si O2"
_cell_formula_units_Z 16
_cell_length_a 10.268207
_cell_length_b 8.906328
_cell_length_c 30.645044
_cell_angle_alpha 51.830918
_cell_angle_beta 41.938541
_cell_angle_gamma 29.979569
_cell_volume 933.022047
_symmetry_space_group_name_H-M "P -1"
_symmetry_group_IT_number 2
_symmetry_cell_setting 'triclinic'
loop_
_space_group_symop_operation_xyz
x,y,z
-x,-y,-z
loop_
_atom_site_type_symbol
_atom_site_label
_atom_site_fract_x
_atom_site_fract_y
_atom_site_fract_z
Si Si1 0.381867 0.988679 0.164469
Si Si2 0.124221 0.299429 0.832672
Si Si3 0.134235 0.824166 0.452630
Si Si4 0.308994 0.152734 0.976218
Si Si5 0.364581 0.891161 0.548337
Si Si6 0.828042 0.160385 0.968605
Si Si7 0.581118 0.157303 0.692878
Si Si8 0.077643 0.853731 0.694560
O O1 0.168629 0.338198 0.161699
O O2 0.163202 0.979009 0.235759
O O3 0.671146 0.789114 0.160793
O O4 0.501380 0.898032 0.101817
O O5 0.346135 0.165078 0.760051
O O6 0.015065 0.168279 0.891272
O O7 0.375421 0.467206 0.460801
O O8 0.302720 0.875980 0.377788
O O9 0.000000 0.000000 0.500000
O O10 0.876812 0.947123 0.460254
O O11 0.000000 0.500000 0.000000
O O12 0.500000 0.000000 0.000000
O O13 0.223733 0.003665 0.010453
O O14 0.196997 0.955974 0.623902
O O15 0.500000 0.000000 0.500000
O O16 0.500000 0.500000 0.000000
O O17 0.000000 0.000000 0.000000
O O18 0.374344 0.500392 0.695680
O O19 0.876150 0.912883 0.694649
#
# Coordination Sequence:
#
# PCOD9032880 Si02
#       8
#     2   2   2   2   2   2   2   2
#     4  10  18  33  54  75  98 133 173 212 251 300
#     4  10  17  32  55  78  95 125 178 226 241 282
#     4  10  19  33  53  79 107 140 169 205 257 315
#     4  12  24  36  52  77 110 137 164 207 269 317
#     4  10  19  33  54  80 105 135 174 217 250 292
#     4  12  21  36  57  80  98 132 180 215 250 301
#     4   8  16  28  49  76 100 126 169 213 250 289
#     4   8  16  29  50  75  97 128 175 211 242 294
#
# _framework density 17.148577
#
# number of rings (size 3 to 8) (size 9 to 14) (size 15 to 20)
#    0.000    2.000    2.500    2.250    0.000    0.000 
#    0.000    0.000    5.500    0.000    0.000    0.000 
#    0.000    0.000    0.000    0.000    0.000    0.000 
#
# Total GULP energy -89158.418952 kJ/mol
# GULP energy per Si atom -5572.401185 kJ/mol
# Density = 1.710955 g / cm^3
# Si number density = 17.148577 Si / 1000 Ang^3
#
#
#
# Elastic Constant Matrix: (Units=GPa)
#
#
# Indices 1 2 3 4 5 6 
#
# 1 77.6227 36.2038 52.2960 -2.7775 -3.8501 -0.4299
# 2 36.2038 105.9239 23.8507 0.8062 0.9092 -12.3636
# 3 52.2960 23.8507 197.8636 -0.6489 -6.3575 16.1772
# 4 -2.7775 0.8062 -0.6489 23.8812 2.6620 1.2270
# 5 -3.8501 0.9092 -6.3575 2.6620 28.2622 -3.6379
# 6 -0.4299 -12.3636 16.1772 1.2270 -3.6379 27.6692
#
#
#
# Elastic Compliance Matrix: (Units=1/GPa)
#
#
# Indices 1 2 3 4 5 6 
#
# 1 0.018326 -0.005292 -0.004188 0.001993 0.001600 0.000490
# 2 -0.005292 0.012036 -0.000527 -0.001282 -0.000384 0.005611
# 3 -0.004188 -0.000527 0.006571 -0.000127 0.000411 -0.004083
# 4 0.001993 -0.001282 -0.000127 0.042754 -0.004117 -0.002905
# 5 0.001600 -0.000384 0.000411 -0.004117 0.036688 0.004619
# 6 0.000490 0.005611 -0.004083 -0.002905 0.004619 0.041779
#
#
# Mechanical properties :
#
#
# Convention : Reuss Voigt Hill
#
# Bulk Modulus (GPa) = 59.10767 67.34569 63.22668
# Shear Modulus (GPa) = 27.20216 33.89982 30.55099
#
# Velocity S-wave (km/s) = 3.98711 4.45098 4.22542
# Velocity P-wave (km/s) = 7.46585 8.11000 7.79458
#
# Compressibility (1/GPa) = 0.01691828
#
# Stress axis : x y z
#
# Youngs Moduli (GPa) = 54.56716 83.08192 152.18346
#
# Poissons Ratio (x) = 0.43970 0.63732
# Poissons Ratio (y) = 0.28879 0.08025
# Poissons Ratio (z) = 0.22852 0.04381
#
# Static dielectric constant tensor:
#      x y z
#    x 1.522110 -0.025210 -0.010570 
#    y -0.025210 1.572570 -0.004800 
#    z -0.010570 -0.004800 1.641000 
# 
# From -- ./inp_files/126350.got.cif
#   From: 2010.05.17/outbox.cif.g08.bks.cpg/sg2_64_cif.got.tgz:126350.got - 2010.06.03 11:33:40.
