data_PCOD9032622
_publ_section_title
;
Structure prediction by ZEFSAII (Michael W. Deem and Ramdas Pophale) SiO2 
 PCOD9032622
Probable space group: P -1
;
_chemical_formula_sum "Si O2"
_cell_formula_units_Z 14
_cell_length_a 7.581465
_cell_length_b 19.263940
_cell_length_c 9.165246
_cell_angle_alpha 46.676968
_cell_angle_beta 101.260120
_cell_angle_gamma 135.354720
_cell_volume 560.873942
_symmetry_space_group_name_H-M "P -1"
_symmetry_group_IT_number 2
_symmetry_cell_setting 'triclinic'
loop_
_space_group_symop_operation_xyz
x,y,z
-x,-y,-z
loop_
_atom_site_type_symbol
_atom_site_label
_atom_site_fract_x
_atom_site_fract_y
_atom_site_fract_z
Si Si1 0.087975 0.719775 0.874197
Si Si2 0.262594 0.575302 0.543979
Si Si3 0.673568 0.848838 0.741882
Si Si4 0.289058 0.912854 0.895696
Si Si5 0.210732 0.500680 0.095895
Si Si6 0.780938 0.249198 0.615344
Si Si7 0.834279 0.859801 0.061224
O O1 0.190096 0.849787 0.806392
O O2 0.901971 0.571388 0.170003
O O3 0.402026 0.808751 0.732577
O O4 0.853912 0.616343 0.850885
O O5 0.373245 0.712755 0.462491
O O6 0.000000 0.500000 0.500000
O O7 0.567073 0.682610 0.348557
O O8 0.696599 0.860539 0.904174
O O9 0.537113 0.689042 0.896051
O O10 0.000000 0.000000 0.500000
O O11 0.252358 0.804518 0.149270
O O12 0.071868 0.894295 0.968374
O O13 0.622279 0.101478 0.702334
O O14 0.104350 0.417381 0.356950
O O15 0.000000 0.500000 0.000000
O O16 0.000000 0.000000 0.000000
#
# Coordination Sequence:
#
# PCOD9032622 Si02
#       7
#     2   2   2   2   2   2   2
#     4  11  24  44  73  99 131 189 226 281 343 407
#     4  12  20  43  72  94 135 180 235 272 343 414
#     4  11  25  44  70 102 136 175 236 283 333 413
#     4  11  26  41  68 106 139 177 230 297 339 395
#     4  10  22  43  72  97 130 190 227 267 341 419
#     4  11  21  43  69  99 141 179 229 280 346 410
#     4  12  26  42  70 102 134 182 230 285 341 408
#
# _framework density 24.961048000000002
#
# number of rings (size 3 to 8) (size 9 to 14) (size 15 to 20)
#    0.000    0.857    7.143    0.000    8.000    1.143 
#    0.000    0.714    0.000    0.000    0.000    0.000 
#    0.000    0.000    0.000    0.000    0.000    0.000 
#
# Total GULP energy -78228.445862 kJ/mol
# GULP energy per Si atom -5587.746133 kJ/mol
# Density = 2.490424 g / cm^3
# Si number density = 24.961048 Si / 1000 Ang^3
#
#
#
# Elastic Constant Matrix: (Units=GPa)
#
#
# Indices 1 2 3 4 5 6 
#
# 1 32.0309 15.1514 18.0311 -13.0124 -14.9671 -12.8596
# 2 15.1514 184.4384 40.1291 -17.4704 -12.3768 -31.4862
# 3 18.0311 40.1291 182.8483 -26.9301 -21.4850 2.1844
# 4 -13.0124 -17.4704 -26.9301 44.9454 3.0598 2.8518
# 5 -14.9671 -12.3768 -21.4850 3.0598 38.3588 1.1845
# 6 -12.8596 -31.4862 2.1844 2.8518 1.1845 38.3041
#
#
#
# Elastic Compliance Matrix: (Units=1/GPa)
#
#
# Indices 1 2 3 4 5 6 
#
# 1 0.051916 0.001428 -0.001691 0.012236 0.018263 0.017224
# 2 0.001428 0.006898 -0.001249 0.001844 0.001750 0.006029
# 3 -0.001691 -0.001249 0.006673 0.002997 0.002506 -0.002276
# 4 0.012236 0.001844 0.002997 0.027777 0.004732 0.003239
# 5 0.018263 0.001750 0.002506 0.004732 0.034601 0.006004
# 6 0.017224 0.006029 -0.002276 0.003239 0.006004 0.036548
#
#
# Mechanical properties :
#
#
# Convention : Reuss Voigt Hill
#
# Bulk Modulus (GPa) = 16.00971 60.66007 38.33489
# Shear Modulus (GPa) = 26.55943 46.05538 36.30740
#
# Velocity S-wave (km/s) = 3.26549 4.30011 3.81801
# Velocity P-wave (km/s) = 4.54376 7.00066 5.90148
#
# Compressibility (1/GPa) = 0.06246208
#
# Stress axis : x y z
#
# Youngs Moduli (GPa) = 19.26206 144.97376 149.85796
#
# Poissons Ratio (x) = -0.20701 0.25335
# Poissons Ratio (y) = -0.02750 0.18724
# Poissons Ratio (z) = 0.03256 0.18114
#
# Static dielectric constant tensor:
#      x y z
#    x 2.158240 0.030850 0.077320 
#    y 0.030850 2.053460 0.051980 
#    z 0.077320 0.051980 2.058430 
# 
# From -- ./inp_files/181761.got.cif
#   From: 2010.05.17/outbox.cif.g08.bks.cpg/sg2_91_cif.got.tgz:181761.got - 2010.06.03 11:33:40.
