data_PCOD9032391
_publ_section_title
;
Structure prediction by ZEFSAII (Michael W. Deem and Ramdas Pophale) SiO2 
 PCOD9032391
Probable space group: P -1
;
_chemical_formula_sum "Si O2"
_cell_formula_units_Z 12
_cell_length_a 9.073573
_cell_length_b 14.603156
_cell_length_c 8.969200
_cell_angle_alpha 49.783000
_cell_angle_beta 108.449784
_cell_angle_gamma 140.220785
_cell_volume 539.925153
_symmetry_space_group_name_H-M "P -1"
_symmetry_group_IT_number 2
_symmetry_cell_setting 'triclinic'
loop_
_space_group_symop_operation_xyz
x,y,z
-x,-y,-z
loop_
_atom_site_type_symbol
_atom_site_label
_atom_site_fract_x
_atom_site_fract_y
_atom_site_fract_z
Si Si1 0.305319 0.599809 0.657079
Si Si2 0.283018 0.145788 0.976413
Si Si3 0.933088 0.255582 0.106837
Si Si4 0.477953 0.117495 0.794476
Si Si5 0.415436 0.459097 0.188723
Si Si6 0.455217 0.847133 0.724908
O O1 0.296250 0.697269 0.427275
O O2 0.510559 0.627382 0.637731
O O3 0.388666 0.711836 0.720037
O O4 0.067000 0.382537 0.865228
O O5 0.415094 0.172785 0.844818
O O6 0.426885 0.347628 0.875125
O O7 0.316195 0.064365 0.199730
O O8 0.000000 0.000000 0.000000
O O9 0.770912 0.264381 0.116843
O O10 0.132037 0.329230 0.214423
O O11 0.749739 0.038734 0.229026
O O12 0.500000 0.000000 0.000000
O O13 0.500000 0.500000 0.000000
O O14 0.500000 0.000000 0.500000
#
# Coordination Sequence:
#
# PCOD9032391 Si02
#       6
#     2   2   2   2   2   2
#     4  11  24  44  73 100 139 189 238 277 351 427
#     4  12  25  45  70 104 150 177 234 302 349 413
#     4  11  23  44  73 102 141 183 236 288 344 423
#     4  12  26  45  67 108 144 179 233 295 356 406
#     4  10  22  43  71 101 133 188 236 280 351 419
#     4  12  23  44  73 107 135 189 239 284 347 422
#
# _framework density 22.225301999999999
#
# number of rings (size 3 to 8) (size 9 to 14) (size 15 to 20)
#    0.000    0.667    6.667    2.500    0.000    3.333 
#    0.000    3.333    0.000    0.000    0.000    0.000 
#    0.000    0.000    0.000    0.000    0.000    0.000 
#
# Total GULP energy -67063.896939 kJ/mol
# GULP energy per Si atom -5588.658078 kJ/mol
# Density = 2.217472 g / cm^3
# Si number density = 22.225302 Si / 1000 Ang^3
#
#
#
# Elastic Constant Matrix: (Units=GPa)
#
#
# Indices 1 2 3 4 5 6 
#
# 1 126.4005 62.7150 29.7718 8.0053 8.5754 -9.6987
# 2 62.7150 140.2281 6.4082 -4.1597 3.6757 -13.6856
# 3 29.7718 6.4082 102.3165 -3.2250 6.0758 3.7013
# 4 8.0053 -4.1597 -3.2250 29.2836 -2.8393 2.0399
# 5 8.5754 3.6757 6.0758 -2.8393 36.4374 5.9885
# 6 -9.6987 -13.6856 3.7013 2.0399 5.9885 52.3417
#
#
#
# Elastic Compliance Matrix: (Units=1/GPa)
#
#
# Indices 1 2 3 4 5 6 
#
# 1 0.011711 -0.005020 -0.003155 -0.004595 -0.002333 0.001527
# 2 -0.005020 0.009551 0.000895 0.002736 0.000053 0.001391
# 3 -0.003155 0.000895 0.010791 0.002178 -0.000796 -0.001108
# 4 -0.004595 0.002736 0.002178 0.036535 0.003639 -0.002130
# 5 -0.002333 0.000053 -0.000796 0.003639 0.029033 -0.003826
# 6 0.001527 0.001391 -0.001108 -0.002130 -0.003826 0.020351
#
#
# Mechanical properties :
#
#
# Convention : Reuss Voigt Hill
#
# Bulk Modulus (GPa) = 57.15952 62.97057 60.06505
# Shear Modulus (GPa) = 36.13691 41.61589 38.87640
#
# Velocity S-wave (km/s) = 4.03666 4.33188 4.18688
# Velocity P-wave (km/s) = 6.89204 7.30853 7.10334
#
# Compressibility (1/GPa) = 0.01749490
#
# Stress axis : x y z
#
# Youngs Moduli (GPa) = 85.38651 104.70250 92.66562
#
# Poissons Ratio (x) = 0.52558 0.29235
# Poissons Ratio (y) = 0.42862 -0.08296
# Poissons Ratio (z) = 0.26939 -0.09373
#
# Static dielectric constant tensor:
#      x y z
#    x 1.863850 0.047310 0.037360 
#    y 0.047310 1.814460 0.015390 
#    z 0.037360 0.015390 1.861020 
# 
# From -- ./inp_files/199827.got.cif
#   From: 2010.05.17/outbox.cif.g08.bks.cpg/sg2_100_cif.got.tgz:199827.got - 2010.06.03 11:33:40.
