data_PCOD9032608
_publ_section_title
;
Structure prediction by ZEFSAII (Michael W. Deem and Ramdas Pophale) SiO2 
 PCOD9032608
Probable space group: P -1
;
_chemical_formula_sum "Si O2"
_cell_formula_units_Z 14
_cell_length_a 8.976307
_cell_length_b 8.022211
_cell_length_c 18.039145
_cell_angle_alpha 105.165442
_cell_angle_beta 31.586105
_cell_angle_gamma 119.403731
_cell_volume 556.732107
_symmetry_space_group_name_H-M "P -1"
_symmetry_group_IT_number 2
_symmetry_cell_setting 'triclinic'
loop_
_space_group_symop_operation_xyz
x,y,z
-x,-y,-z
loop_
_atom_site_type_symbol
_atom_site_label
_atom_site_fract_x
_atom_site_fract_y
_atom_site_fract_z
Si Si1 0.861232 0.627121 0.322120
Si Si2 0.945698 0.807952 0.544000
Si Si3 0.805327 0.421700 0.184327
Si Si4 0.754981 0.357524 0.707103
Si Si5 0.151588 0.985592 0.130105
Si Si6 0.890042 0.174159 0.361348
Si Si7 0.980526 0.763786 0.035828
O O1 0.500000 0.500000 0.500000
O O2 0.914729 0.477196 0.228927
O O3 0.153606 0.732719 0.271728
O O4 0.890062 0.792438 0.270091
O O5 0.569827 0.627413 0.666392
O O6 0.179587 0.732445 0.404796
O O7 0.989295 0.867186 0.617438
O O8 0.000000 0.000000 0.500000
O O9 0.009328 0.616394 0.066838
O O10 0.809463 0.235351 0.123195
O O11 0.390404 0.323163 0.848699
O O12 0.020152 0.597278 0.636453
O O13 0.079144 0.952497 0.069349
O O14 0.108410 0.162598 0.201395
O O15 0.500000 0.000000 0.000000
O O16 0.500000 0.000000 0.500000
#
# Coordination Sequence:
#
# PCOD9032608 Si02
#       7
#     2   2   2   2   2   2   2
#     4  11  23  43  72 102 139 187 235 291 355 423
#     4  12  25  43  69 100 137 185 232 284 352 423
#     4  10  22  43  72  94 135 184 231 273 357 420
#     4  12  25  43  70 104 140 177 241 295 347 416
#     4  11  25  47  72  99 142 189 236 287 359 429
#     4  12  26  41  67 103 141 180 233 297 351 412
#     4  10  23  45  70 100 133 185 231 287 345 422
#
# _framework density 25.146746
#
# number of rings (size 3 to 8) (size 9 to 14) (size 15 to 20)
#    0.000    0.857    2.857    3.857    8.000    0.571 
#    0.000    1.429    0.000    0.000    0.000    0.000 
#    0.000    0.000    0.000    0.000    0.000    0.000 
#
# Total GULP energy -78338.830560 kJ/mol
# GULP energy per Si atom -5595.630754 kJ/mol
# Density = 2.508951 g / cm^3
# Si number density = 25.146746 Si / 1000 Ang^3
#
#
#
# Elastic Constant Matrix: (Units=GPa)
#
#
# Indices 1 2 3 4 5 6 
#
# 1 91.7278 17.0002 14.1765 13.8681 3.3990 25.2196
# 2 17.0002 88.9574 28.6965 19.9299 12.2798 9.3415
# 3 14.1765 28.6965 113.4997 25.3260 -0.0872 12.4420
# 4 13.8681 19.9299 25.3260 49.3446 12.7570 9.3416
# 5 3.3990 12.2798 -0.0872 12.7570 44.5125 2.5722
# 6 25.2196 9.3415 12.4420 9.3416 2.5722 46.8245
#
#
#
# Elastic Compliance Matrix: (Units=1/GPa)
#
#
# Indices 1 2 3 4 5 6 
#
# 1 0.013239 -0.001412 -0.000160 -0.001927 0.000303 -0.006438
# 2 -0.001412 0.013406 -0.002505 -0.002930 -0.002726 -0.000514
# 3 -0.000160 -0.002505 0.010673 -0.004708 0.002156 -0.001429
# 4 -0.001927 -0.002930 -0.004708 0.026482 -0.006525 -0.002051
# 5 0.000303 -0.002726 0.002156 -0.006525 0.025084 -0.000268
# 6 -0.006438 -0.000514 -0.001429 -0.002051 -0.000268 0.025730
#
#
# Mechanical properties :
#
#
# Convention : Reuss Voigt Hill
#
# Bulk Modulus (GPa) = 34.29109 45.99235 40.14172
# Shear Modulus (GPa) = 37.73875 43.75710 40.74793
#
# Velocity S-wave (km/s) = 3.87814 4.17594 4.02979
# Velocity P-wave (km/s) = 5.80683 6.44830 6.13596
#
# Compressibility (1/GPa) = 0.02916210
#
# Stress axis : x y z
#
# Youngs Moduli (GPa) = 75.53680 74.59349 93.69623
#
# Poissons Ratio (x) = 0.10533 0.01503
# Poissons Ratio (y) = 0.10667 0.23472
# Poissons Ratio (z) = 0.01212 0.18686
#
# Static dielectric constant tensor:
#      x y z
#    x 2.023140 0.014510 0.019050 
#    y 0.014510 2.177170 -0.051580 
#    z 0.019050 -0.051580 1.978230 
# 
# From -- ./inp_files/199870.got.cif
#   From: 2010.05.17/outbox.cif.g08.bks.cpg/sg2_100_cif.got.tgz:199870.got - 2010.06.03 11:33:40.
