data_PCOD9032655
_publ_section_title
;
Structure prediction by ZEFSAII (Michael W. Deem and Ramdas Pophale) SiO2 
 PCOD9032655
Probable space group: P -1
;
_chemical_formula_sum "Si O2"
_cell_formula_units_Z 12
_cell_length_a 15.555369
_cell_length_b 10.377844
_cell_length_c 9.754591
_cell_angle_alpha 57.568758
_cell_angle_beta 30.216026
_cell_angle_gamma 42.671704
_cell_volume 513.990602
_symmetry_space_group_name_H-M "P -1"
_symmetry_group_IT_number 2
_symmetry_cell_setting 'triclinic'
loop_
_space_group_symop_operation_xyz
x,y,z
-x,-y,-z
loop_
_atom_site_type_symbol
_atom_site_label
_atom_site_fract_x
_atom_site_fract_y
_atom_site_fract_z
Si Si1 0.891869 0.903855 0.654207
Si Si2 0.906510 0.384763 0.210511
Si Si3 0.150897 0.556012 0.303711
Si Si4 0.532314 0.836221 0.753640
Si Si5 0.588147 0.393225 0.294407
Si Si6 0.774955 0.978556 0.201875
O O1 0.980452 0.734860 0.739206
O O2 0.993859 0.784106 0.441626
O O3 0.000000 0.000000 0.500000
O O4 0.628511 0.057259 0.952926
O O5 0.643134 0.528263 0.500621
O O6 0.000000 0.500000 0.000000
O O7 0.997703 0.222571 0.055905
O O8 0.312548 0.395630 0.290598
O O9 0.000000 0.500000 0.500000
O O10 0.298093 0.538156 0.988184
O O11 0.372761 0.914565 0.795437
O O12 0.672393 0.907093 0.482884
O O13 0.500000 0.500000 0.500000
O O14 0.751987 0.154193 0.206188
#
# Coordination Sequence:
#
# PCOD9032655 Si02
#       6
#     2   2   2   2   2   2
#     4  11  23  42  70  98 132 176 239 290 342 405
#     4  11  23  42  76 101 132 179 234 291 342 413
#     4  12  28  45  68 103 147 188 227 288 357 418
#     4  10  22  43  73 100 134 176 237 287 345 411
#     4  12  28  45  66 103 147 187 231 282 354 421
#     4  10  22  43  73 104 132 179 233 293 342 412
#
# _framework density 23.346730000000001
#
# number of rings (size 3 to 8) (size 9 to 14) (size 15 to 20)
#    0.000    1.000    0.000    8.000    7.000    3.333 
#    3.000    0.000    0.000    0.000    0.000    0.000 
#    0.000    0.000    0.000    0.000    0.000    0.000 
#
# Total GULP energy -67134.766197 kJ/mol
# GULP energy per Si atom -5594.563850 kJ/mol
# Density = 2.329359 g / cm^3
# Si number density = 23.346730 Si / 1000 Ang^3
#
#
#
# Elastic Constant Matrix: (Units=GPa)
#
#
# Indices 1 2 3 4 5 6 
#
# 1 43.8234 22.5153 30.8424 9.5148 7.4581 17.0477
# 2 22.5153 148.0786 70.2595 16.0714 11.2791 17.9837
# 3 30.8424 70.2595 183.2702 7.5045 7.8527 14.5255
# 4 9.5148 16.0714 7.5045 57.6299 -2.2727 1.3285
# 5 7.4581 11.2791 7.8527 -2.2727 35.6619 6.9043
# 6 17.0477 17.9837 14.5255 1.3285 6.9043 31.3528
#
#
#
# Elastic Compliance Matrix: (Units=1/GPa)
#
#
# Indices 1 2 3 4 5 6 
#
# 1 0.033244 -0.000672 -0.003819 -0.004588 -0.003287 -0.015003
# 2 -0.000672 0.008945 -0.002930 -0.001996 -0.001595 -0.002972
# 3 -0.003819 -0.002930 0.007166 0.000510 0.000104 0.000393
# 4 -0.004588 -0.001996 0.000510 0.018640 0.002257 0.002117
# 5 -0.003287 -0.001595 0.000104 0.002257 0.030144 -0.004080
# 6 -0.015003 -0.002972 0.000393 0.002117 -0.004080 0.042384
#
#
# Mechanical properties :
#
#
# Convention : Reuss Voigt Hill
#
# Bulk Modulus (GPa) = 28.97627 69.15627 49.06627
# Shear Modulus (GPa) = 29.96352 41.69926 35.83139
#
# Velocity S-wave (km/s) = 3.58636 4.23080 3.92184
# Velocity P-wave (km/s) = 5.43944 7.31791 6.44746
#
# Compressibility (1/GPa) = 0.03451100
#
# Stress axis : x y z
#
# Youngs Moduli (GPa) = 30.08093 111.79618 139.54652
#
# Poissons Ratio (x) = 0.07517 0.53293
# Poissons Ratio (y) = 0.02023 0.40892
# Poissons Ratio (z) = 0.11488 0.32761
#
# Static dielectric constant tensor:
#      x y z
#    x 1.945960 0.045670 0.048300 
#    y 0.045670 1.842300 0.029300 
#    z 0.048300 0.029300 1.790210 
# 
# From -- ./inp_files/153092.got.cif
#   From: 2010.05.17/outbox.cif.g08.bks.cpg/sg2_77_cif.got.tgz:153092.got - 2010.06.03 11:33:40.
