data_PCOD9032031
_publ_section_title
;
Structure prediction by ZEFSAII (Michael W. Deem and Ramdas Pophale) SiO2 
 PCOD9032031
Probable space group: P -1
;
_chemical_formula_sum "Si O2"
_cell_formula_units_Z 10
_cell_length_a 7.516305
_cell_length_b 8.367060
_cell_length_c 12.258018
_cell_angle_alpha 51.769952
_cell_angle_beta 57.967199
_cell_angle_gamma 37.111036
_cell_volume 364.265492
_symmetry_space_group_name_H-M "P -1"
_symmetry_group_IT_number 2
_symmetry_cell_setting 'triclinic'
loop_
_space_group_symop_operation_xyz
x,y,z
-x,-y,-z
loop_
_atom_site_type_symbol
_atom_site_label
_atom_site_fract_x
_atom_site_fract_y
_atom_site_fract_z
Si Si1 0.043875 0.678948 0.844973
Si Si2 0.691155 0.208306 0.130583
Si Si3 0.913482 0.415406 0.711355
Si Si4 0.836676 0.891809 0.601088
Si Si5 0.450884 0.458464 0.408599
O O1 0.063455 0.830230 0.869369
O O2 0.340699 0.533187 0.738415
O O3 0.795082 0.873412 0.750851
O O4 0.000000 0.500000 0.000000
O O5 0.422262 0.324407 0.245980
O O6 0.500000 0.500000 0.000000
O O7 0.871291 0.887852 0.166587
O O8 0.011490 0.579380 0.629183
O O9 0.855452 0.352800 0.638996
O O10 0.560638 0.148045 0.510811
O O11 0.000000 0.000000 0.500000
O O12 0.500000 0.500000 0.500000
#
# Coordination Sequence:
#
# PCOD9032031 Si02
#       5
#     2   2   2   2   2
#     4  10  22  43  70 102 144 192 245 305 367 436
#     4  11  24  45  71 104 146 192 246 306 374 442
#     4  11  24  44  72 105 143 195 248 305 366 442
#     4  10  22  43  69 107 147 192 244 303 369 442
#     4  10  22  43  71 108 148 193 246 305 371 446
#
# _framework density 27.452501999999999
#
# number of rings (size 3 to 8) (size 9 to 14) (size 15 to 20)
#    0.000    1.600    0.000    3.600    0.000    4.800 
#    0.000   30.000    0.000    0.000    0.000    0.000 
#    0.000    0.000    0.000    0.000    0.000    0.000 
#
# Total GULP energy -55727.121721 kJ/mol
# GULP energy per Si atom -5572.712172 kJ/mol
# Density = 2.739002 g / cm^3
# Si number density = 27.452502 Si / 1000 Ang^3
#
#
#
# Elastic Constant Matrix: (Units=GPa)
#
#
# Indices 1 2 3 4 5 6 
#
# 1 149.4757 42.7941 55.1619 -24.5375 -0.7619 25.5278
# 2 42.7941 157.4198 63.2268 -50.8166 -10.8283 13.6634
# 3 55.1619 63.2268 230.1035 -46.8693 7.0760 18.6312
# 4 -24.5375 -50.8166 -46.8693 62.5424 -0.0228 -3.3178
# 5 -0.7619 -10.8283 7.0760 -0.0228 47.0321 -11.0333
# 6 25.5278 13.6634 18.6312 -3.3178 -11.0333 38.3744
#
#
#
# Elastic Compliance Matrix: (Units=1/GPa)
#
#
# Indices 1 2 3 4 5 6 
#
# 1 0.008441 -0.001082 -0.001003 0.001418 -0.001120 -0.004943
# 2 -0.001082 0.009323 -0.000991 0.006356 0.002051 -0.000979
# 3 -0.001003 -0.000991 0.005660 0.002941 -0.001545 -0.001918
# 4 0.001418 0.006356 0.002941 0.023785 0.000483 -0.002439
# 5 -0.001120 0.002051 -0.001545 0.000483 0.023739 0.007632
# 6 -0.004943 -0.000979 -0.001918 -0.002439 0.007632 0.032610
#
#
# Mechanical properties :
#
#
# Convention : Reuss Voigt Hill
#
# Bulk Modulus (GPa) = 57.89750 95.48497 76.69124
# Shear Modulus (GPa) = 43.30199 54.64419 48.97309
#
# Velocity S-wave (km/s) = 3.97589 4.46634 4.22823
# Velocity P-wave (km/s) = 6.49713 7.83932 7.19957
#
# Compressibility (1/GPa) = 0.01727190
#
# Stress axis : x y z
#
# Youngs Moduli (GPa) = 118.46739 107.26512 176.66484
#
# Poissons Ratio (x) = 0.11608 0.17713
# Poissons Ratio (y) = 0.12820 0.17514
# Poissons Ratio (z) = 0.11878 0.10634
#
# Static dielectric constant tensor:
#      x y z
#    x 2.480970 -0.221830 -0.134960 
#    y -0.221830 2.617400 0.068300 
#    z -0.134960 0.068300 2.323950 
# 
# From -- ./inp_files/373347.got.cif
#   From: 2010.05.17/outbox.cif.g08.bks.cpg/sg2_187_cif.got.tgz:373347.got - 2010.06.03 11:33:40.
