data_PCOD9032584
_publ_section_title
;
Structure prediction by ZEFSAII (Michael W. Deem and Ramdas Pophale) SiO2 
 PCOD9032584
Probable space group: P -1
;
_chemical_formula_sum "Si O2"
_cell_formula_units_Z 14
_cell_length_a 16.867670
_cell_length_b 15.281016
_cell_length_c 9.857635
_cell_angle_alpha 46.729383
_cell_angle_beta 148.703204
_cell_angle_gamma 152.494500
_cell_volume 581.109323
_symmetry_space_group_name_H-M "P -1"
_symmetry_group_IT_number 2
_symmetry_cell_setting 'triclinic'
loop_
_space_group_symop_operation_xyz
x,y,z
-x,-y,-z
loop_
_atom_site_type_symbol
_atom_site_label
_atom_site_fract_x
_atom_site_fract_y
_atom_site_fract_z
Si Si1 0.605110 0.695615 0.986489
Si Si2 0.779633 0.460678 0.610082
Si Si3 0.459621 0.820445 0.788724
Si Si4 0.611324 0.453778 0.639833
Si Si5 0.874188 0.990999 0.698454
Si Si6 0.743797 0.171483 0.268959
Si Si7 0.146226 0.735115 0.172682
O O1 0.489003 0.701346 0.687898
O O2 0.502599 0.705169 0.954491
O O3 0.500000 0.500000 0.000000
O O4 0.903609 0.875491 0.229720
O O5 0.748580 0.537273 0.603537
O O6 0.815174 0.339587 0.811953
O O7 0.009407 0.640303 0.657043
O O8 0.334892 0.778726 0.790734
O O9 0.284056 0.765682 0.471999
O O10 0.722075 0.058043 0.897844
O O11 0.500000 0.500000 0.500000
O O12 0.375577 0.221153 0.507736
O O13 0.852994 0.563512 0.961066
O O14 0.812380 0.090728 0.532297
O O15 0.000000 0.000000 0.000000
O O16 0.500000 0.000000 0.000000
#
# Coordination Sequence:
#
# PCOD9032584 Si02
#       7
#     2   2   2   2   2   2   2
#     4  11  23  47  69 103 143 191 239 304 367 436
#     4  11  23  44  67  99 147 190 231 304 368 426
#     4  10  24  43  76 104 143 195 248 295 371 447
#     4  12  25  42  71 108 143 188 253 301 360 438
#     4  12  26  46  74 101 149 199 244 299 373 439
#     4  12  26  46  71 109 148 193 243 306 372 441
#     4  10  22  43  72 105 143 189 246 304 354 441
#
# _framework density 24.091853
#
# number of rings (size 3 to 8) (size 9 to 14) (size 15 to 20)
#    0.000    0.857    2.857    3.857    6.000    2.286 
#    5.143    1.429    0.000    0.000    0.000    0.000 
#    0.000    0.000    0.000    0.000    0.000    0.000 
#
# Total GULP energy -78265.005903 kJ/mol
# GULP energy per Si atom -5590.357565 kJ/mol
# Density = 2.403702 g / cm^3
# Si number density = 24.091853 Si / 1000 Ang^3
#
#
#
# Elastic Constant Matrix: (Units=GPa)
#
#
# Indices 1 2 3 4 5 6 
#
# 1 175.1498 62.6213 38.1459 -0.4551 43.1596 -29.4621
# 2 62.6213 132.4340 57.2188 12.3733 26.3169 -10.7040
# 3 38.1459 57.2188 127.3620 20.2437 35.9187 -2.6027
# 4 -0.4551 12.3733 20.2437 52.0388 -3.5216 13.9205
# 5 43.1596 26.3169 35.9187 -3.5216 45.4377 -3.9951
# 6 -29.4621 -10.7040 -2.6027 13.9205 -3.9951 43.0678
#
#
#
# Elastic Compliance Matrix: (Units=1/GPa)
#
#
# Indices 1 2 3 4 5 6 
#
# 1 0.009276 -0.002674 0.000962 -0.001665 -0.007663 0.005567
# 2 -0.002674 0.010742 -0.003485 -0.001567 -0.000956 0.001048
# 3 0.000962 -0.003485 0.012502 -0.004992 -0.009049 0.001322
# 4 -0.001665 -0.001567 -0.004992 0.024442 0.007536 -0.009032
# 5 -0.007663 -0.000956 -0.009049 0.007536 0.037137 -0.005017
# 6 0.005567 0.001048 0.001322 -0.009032 -0.005017 0.029821
#
#
# Mechanical properties :
#
#
# Convention : Reuss Voigt Hill
#
# Bulk Modulus (GPa) = 45.19373 83.43531 64.31452
# Shear Modulus (GPa) = 35.28874 46.57285 40.93080
#
# Velocity S-wave (km/s) = 3.83137 4.40152 4.12630
# Velocity P-wave (km/s) = 6.19453 7.78065 7.03245
#
# Compressibility (1/GPa) = 0.02212696
#
# Stress axis : x y z
#
# Youngs Moduli (GPa) = 107.80521 93.09204 79.99022
#
# Poissons Ratio (x) = 0.24891 -0.07699
# Poissons Ratio (y) = 0.28825 0.27877
# Poissons Ratio (z) = -0.10376 0.32443
#
# Static dielectric constant tensor:
#      x y z
#    x 1.977810 0.000850 -0.057070 
#    y 0.000850 1.959600 -0.022170 
#    z -0.057070 -0.022170 1.959840 
# 
# From -- ./inp_files/332457.got.cif
#   From: 2010.05.17/outbox.cif.g08.bks.cpg/sg2_167_cif.got.tgz:332457.got - 2010.06.03 11:33:40.
