data_PCOD9032529
_publ_section_title
;
Structure prediction by ZEFSAII (Michael W. Deem and Ramdas Pophale) SiO2 
 PCOD9032529
Probable space group: P -1
;
_chemical_formula_sum "Si O2"
_cell_formula_units_Z 12
_cell_length_a 8.482914
_cell_length_b 10.546800
_cell_length_c 9.641336
_cell_angle_alpha 111.883333
_cell_angle_beta 131.883603
_cell_angle_gamma 53.320282
_cell_volume 514.543379
_symmetry_space_group_name_H-M "P -1"
_symmetry_group_IT_number 2
_symmetry_cell_setting 'triclinic'
loop_
_space_group_symop_operation_xyz
x,y,z
-x,-y,-z
loop_
_atom_site_type_symbol
_atom_site_label
_atom_site_fract_x
_atom_site_fract_y
_atom_site_fract_z
Si Si1 0.802451 0.949430 0.526854
Si Si2 0.762213 0.988934 0.193525
Si Si3 0.920092 0.357253 0.731415
Si Si4 0.442045 0.283143 0.955768
Si Si5 0.427670 0.553940 0.676780
Si Si6 0.432366 0.240045 0.619482
O O1 0.618924 0.099647 0.573014
O O2 0.060011 0.937879 0.686736
O O3 0.721484 0.982395 0.331752
O O4 0.787831 0.797160 0.506154
O O5 0.939572 0.809024 0.172758
O O6 0.528557 0.120088 0.025686
O O7 0.696391 0.492743 0.741424
O O8 0.779799 0.333957 0.508937
O O9 0.143852 0.381377 0.826100
O O10 0.527719 0.235528 0.829725
O O11 0.552235 0.377926 0.137015
O O12 0.381869 0.406668 0.600605
#
# Coordination Sequence:
#
# PCOD9032529 Si02
#       6
#     2   2   2   2   2   2
#     4  10  22  43  72 100 133 187 227 269 350 395
#     4  11  22  46  71 100 132 178 240 274 320 416
#     4  11  24  47  72  99 133 191 227 274 335 408
#     4  12  26  43  72 106 134 176 232 283 338 400
#     4  11  25  47  69  98 145 177 227 278 340 411
#     4  11  24  43  66 107 139 175 223 287 345 395
#
# _framework density 23.321650999999999
#
# number of rings (size 3 to 8) (size 9 to 14) (size 15 to 20)
#    0.000    1.000    3.333    3.500    2.333    1.333 
#    3.000    0.000    0.000    0.000    0.000    0.000 
#    0.000    0.000    0.000    0.000    0.000    0.000 
#
# Total GULP energy -67055.358327 kJ/mol
# GULP energy per Si atom -5587.946527 kJ/mol
# Density = 2.326857 g / cm^3
# Si number density = 23.321651 Si / 1000 Ang^3
#
#
#
# Elastic Constant Matrix: (Units=GPa)
#
#
# Indices 1 2 3 4 5 6 
#
# 1 76.7310 7.8068 9.4320 -9.6067 -0.5093 -8.4739
# 2 7.8068 70.6092 12.1078 -1.4654 6.6101 4.5053
# 3 9.4320 12.1078 83.8240 -8.0345 14.7417 -27.8121
# 4 -9.6067 -1.4654 -8.0345 45.0325 -3.3183 1.4957
# 5 -0.5093 6.6101 14.7417 -3.3183 31.1229 4.5397
# 6 -8.4739 4.5053 -27.8121 1.4957 4.5397 30.7184
#
#
#
# Elastic Compliance Matrix: (Units=1/GPa)
#
#
# Indices 1 2 3 4 5 6 
#
# 1 0.014009 -0.001841 0.000376 0.002861 0.000117 0.004318
# 2 -0.001841 0.015519 -0.004124 -0.000446 -0.000483 -0.006424
# 3 0.000376 -0.004124 0.022593 0.002262 -0.012928 0.022964
# 4 0.002861 -0.000446 0.002262 0.023250 0.001319 0.001575
# 5 0.000117 -0.000483 -0.012928 0.001319 0.041087 -0.017738
# 6 0.004318 -0.006424 0.022964 0.001575 -0.017738 0.058023
#
#
# Mechanical properties :
#
#
# Convention : Reuss Voigt Hill
#
# Bulk Modulus (GPa) = 24.42345 32.20639 28.31492
# Shear Modulus (GPa) = 25.08701 34.82926 29.95814
#
# Velocity S-wave (km/s) = 3.28334 3.86869 3.58797
# Velocity P-wave (km/s) = 4.98688 5.81337 5.41591
#
# Compressibility (1/GPa) = 0.04094425
#
# Stress axis : x y z
#
# Youngs Moduli (GPa) = 71.38032 64.43714 44.26208
#
# Poissons Ratio (x) = 0.11860 -0.01663
# Poissons Ratio (y) = 0.13138 0.18253
# Poissons Ratio (z) = -0.02682 0.26572
#
# Static dielectric constant tensor:
#      x y z
#    x 1.941750 0.041750 0.057150 
#    y 0.041750 1.927690 0.030220 
#    z 0.057150 0.030220 1.895310 
# 
# From -- ./inp_files/181997.got.cif
#   From: 2010.05.17/outbox.cif.g08.bks.cpg/sg2_91_cif.got.tgz:181997.got - 2010.06.03 11:33:40.
