data_PCOD9032247
_publ_section_title
;
Structure prediction by ZEFSAII (Michael W. Deem and Ramdas Pophale) SiO2 
 PCOD9032247
Probable space group: P -1
;
_chemical_formula_sum "Si O2"
_cell_formula_units_Z 14
_cell_length_a 28.335583
_cell_length_b 15.706170
_cell_length_c 5.368441
_cell_angle_alpha 124.932301
_cell_angle_beta 53.223678
_cell_angle_gamma 162.145052
_cell_volume 586.716509
_symmetry_space_group_name_H-M "P -1"
_symmetry_group_IT_number 2
_symmetry_cell_setting 'triclinic'
loop_
_space_group_symop_operation_xyz
x,y,z
-x,-y,-z
loop_
_atom_site_type_symbol
_atom_site_label
_atom_site_fract_x
_atom_site_fract_y
_atom_site_fract_z
Si Si1 0.946631 0.970611 0.373202
Si Si2 0.414666 0.575543 0.503166
Si Si3 0.804063 0.272970 0.910192
Si Si4 0.405480 0.439086 0.821191
Si Si5 0.857352 0.129967 0.407641
Si Si6 0.379507 0.894807 0.140415
Si Si7 0.935076 0.623480 0.468537
O O1 0.758337 0.671897 0.451852
O O2 0.000000 0.000000 0.500000
O O3 0.028387 0.217207 0.544028
O O4 0.000000 0.000000 0.000000
O O5 0.397452 0.507413 0.730047
O O6 0.539605 0.872856 0.600342
O O7 0.466491 0.580513 0.129511
O O8 0.770530 0.097581 0.671795
O O9 0.668933 0.133142 0.020885
O O10 0.967281 0.560718 0.727232
O O11 0.861755 0.398613 0.209705
O O12 0.500000 0.500000 0.500000
O O13 0.238946 0.109628 0.848686
O O14 0.898323 0.136617 0.541348
O O15 0.208613 0.576775 0.237490
O O16 0.500000 0.000000 0.000000
#
# Coordination Sequence:
#
# PCOD9032247 Si02
#       7
#     2   2   2   2   2   2   2
#     4  12  27  47  76 105 143 190 246 300 359 428
#     4  12  27  48  71 107 147 187 244 297 362 432
#     4  10  23  43  70 100 140 183 238 294 357 429
#     4  12  26  46  74 105 147 189 238 299 369 435
#     4  10  22  43  70 104 136 182 239 296 359 427
#     4  11  27  45  67 103 144 191 240 295 359 431
#     4  11  24  44  73  99 138 184 239 292 362 424
#
# _framework density 23.861606999999999
#
# number of rings (size 3 to 8) (size 9 to 14) (size 15 to 20)
#    0.000    0.857    1.429    4.286   10.000    0.571 
#    0.000    0.000    0.000    0.000    0.000    0.000 
#    0.000    0.000    0.000    0.000    0.000    0.000 
#
# Total GULP energy -78156.496656 kJ/mol
# GULP energy per Si atom -5582.606904 kJ/mol
# Density = 2.380730 g / cm^3
# Si number density = 23.861607 Si / 1000 Ang^3
#
#
#
# Elastic Constant Matrix: (Units=GPa)
#
#
# Indices 1 2 3 4 5 6 
#
# 1 78.3688 10.2324 -12.4650 -10.9593 -17.3548 -10.4537
# 2 10.2324 83.1984 2.5907 18.2753 -5.7186 -13.4426
# 3 -12.4650 2.5907 77.8425 8.6453 -2.2571 -9.6823
# 4 -10.9593 18.2753 8.6453 48.1921 -0.8566 -10.0699
# 5 -17.3548 -5.7186 -2.2571 -0.8566 31.1721 -0.4518
# 6 -10.4537 -13.4426 -9.6823 -10.0699 -0.4518 42.8601
#
#
#
# Elastic Compliance Matrix: (Units=1/GPa)
#
#
# Indices 1 2 3 4 5 6 
#
# 1 0.017164 -0.001804 0.003202 0.005378 0.009687 0.005710
# 2 -0.001804 0.013908 0.000205 -0.005114 0.001462 0.002782
# 3 0.003202 0.000205 0.014022 -0.001019 0.002863 0.003804
# 4 0.005378 -0.005114 -0.001019 0.025282 0.002756 0.005447
# 5 0.009687 0.001462 0.002863 0.002756 0.038090 0.004517
# 6 0.005710 0.002782 0.003804 0.005447 0.004517 0.027784
#
#
# Mechanical properties :
#
#
# Convention : Reuss Voigt Hill
#
# Bulk Modulus (GPa) = 20.70357 26.68066 23.69211
# Shear Modulus (GPa) = 33.52476 40.38162 36.95319
#
# Velocity S-wave (km/s) = 3.75235 4.11825 3.93955
# Velocity P-wave (km/s) = 5.24108 5.81541 5.53570
#
# Compressibility (1/GPa) = 0.04830085
#
# Stress axis : x y z
#
# Youngs Moduli (GPa) = 58.26146 71.89976 71.31791
#
# Poissons Ratio (x) = 0.12968 -0.22838
# Poissons Ratio (y) = 0.10508 -0.01460
# Poissons Ratio (z) = -0.18657 -0.01472
#
# Static dielectric constant tensor:
#      x y z
#    x 1.942190 -0.017100 0.055250 
#    y -0.017100 1.939830 -0.057040 
#    z 0.055250 -0.057040 1.982500 
# 
# From -- ./inp_files/68743.got.cif
#   From: 2010.05.17/outbox.cif.g08.bks.cpg/sg2_35_cif.got.tgz:68743.got - 2010.06.03 11:33:40.
