data_PCOD9032035
_publ_section_title
;
Structure prediction by ZEFSAII (Michael W. Deem and Ramdas Pophale) SiO2 
 PCOD9032035
Probable space group: P -1
;
_chemical_formula_sum "Si O2"
_cell_formula_units_Z 12
_cell_length_a 8.640441
_cell_length_b 8.558112
_cell_length_c 14.298453
_cell_angle_alpha 119.375794
_cell_angle_beta 47.793506
_cell_angle_gamma 142.557466
_cell_volume 473.986143
_symmetry_space_group_name_H-M "P -1"
_symmetry_group_IT_number 2
_symmetry_cell_setting 'triclinic'
loop_
_space_group_symop_operation_xyz
x,y,z
-x,-y,-z
loop_
_atom_site_type_symbol
_atom_site_label
_atom_site_fract_x
_atom_site_fract_y
_atom_site_fract_z
Si Si1 0.701004 0.848546 0.667478
Si Si2 0.705126 0.438706 0.614707
Si Si3 0.865340 0.273984 0.130617
Si Si4 0.271477 0.398250 0.151993
Si Si5 0.472835 0.166236 0.005518
Si Si6 0.310280 0.230921 0.552240
O O1 0.736198 0.663222 0.629331
O O2 0.373223 0.715895 0.783833
O O3 0.736729 0.922607 0.564482
O O4 0.990662 0.121795 0.675194
O O5 0.629503 0.413493 0.747826
O O6 0.452359 0.220661 0.579552
O O7 0.000000 0.500000 0.500000
O O8 0.964514 0.281266 0.197545
O O9 0.188166 0.543789 0.042464
O O10 0.698079 0.002853 0.069931
O O11 0.500000 0.500000 0.000000
O O12 0.260313 0.191947 0.137528
O O13 0.500000 0.000000 0.000000
O O14 0.500000 0.500000 0.500000
#
# Coordination Sequence:
#
# PCOD9032035 Si02
#       6
#     2   2   2   2   2   2
#     4  10  22  43  69 109 141 192 246 313 373 444
#     4  11  23  43  72 106 143 192 250 308 371 446
#     4  11  24  44  74 107 144 197 247 304 376 440
#     4  10  24  49  69 109 153 199 247 308 371 448
#     4  11  24  45  74 107 145 196 252 306 370 443
#     4   9  21  42  70  97 145 183 247 303 377 437
#
# _framework density 25.317195999999999
#
# number of rings (size 3 to 8) (size 9 to 14) (size 15 to 20)
#    0.000    1.667    0.000    3.000    4.667    2.000 
#   21.000    0.000    0.000    0.000    0.000    0.000 
#    0.000    0.000    0.000    0.000    0.000    0.000 
#
# Total GULP energy -66849.802160 kJ/mol
# GULP energy per Si atom -5570.816847 kJ/mol
# Density = 2.525957 g / cm^3
# Si number density = 25.317196 Si / 1000 Ang^3
#
#
#
# Elastic Constant Matrix: (Units=GPa)
#
#
# Indices 1 2 3 4 5 6 
#
# 1 211.4644 41.1151 75.0442 6.8318 -20.8900 32.9662
# 2 41.1151 63.3103 31.9074 -4.3834 -4.4740 14.4358
# 3 75.0442 31.9074 105.2270 8.2621 14.5182 15.1492
# 4 6.8318 -4.3834 8.2621 35.0087 7.8387 0.3631
# 5 -20.8900 -4.4740 14.5182 7.8387 57.9147 11.3549
# 6 32.9662 14.4358 15.1492 0.3631 11.3549 55.5883
#
#
#
# Elastic Compliance Matrix: (Units=1/GPa)
#
#
# Indices 1 2 3 4 5 6 
#
# 1 0.008086 -0.001382 -0.005354 -0.001600 0.005157 -0.004020
# 2 -0.001382 0.020692 -0.005414 0.003574 0.002689 -0.003651
# 3 -0.005354 -0.005414 0.015763 -0.001948 -0.006350 0.001596
# 4 -0.001600 0.003574 -0.001948 0.030713 -0.004207 0.001210
# 5 0.005157 0.002689 -0.006350 -0.004207 0.022801 -0.006656
# 6 -0.004020 -0.003651 0.001596 0.001210 -0.006656 0.022238
#
#
# Mechanical properties :
#
#
# Convention : Reuss Voigt Hill
#
# Bulk Modulus (GPa) = 49.41188 75.12613 62.26901
# Shear Modulus (GPa) = 33.03798 45.16465 39.10132
#
# Velocity S-wave (km/s) = 3.61635 4.22827 3.93422
# Velocity P-wave (km/s) = 6.08250 7.31957 6.72952
#
# Compressibility (1/GPa) = 0.02023805
#
# Stress axis : x y z
#
# Youngs Moduli (GPa) = 123.67643 48.32870 63.43977
#
# Poissons Ratio (x) = 0.06680 0.33968
# Poissons Ratio (y) = 0.17095 0.34349
# Poissons Ratio (z) = 0.66221 0.26168
#
# Static dielectric constant tensor:
#      x y z
#    x 2.124190 0.066200 0.178680 
#    y 0.066200 2.326870 0.075250 
#    z 0.178680 0.075250 2.368890 
# 
# From -- ./inp_files/493345.got.cif
#   From: 2010.05.17/outbox.cif.g08.bks.cpg/sg2_247_cif.got.tgz:493345.got - 2010.06.03 11:33:40.
