data_PCOD9032557
_publ_section_title
;
Structure prediction by ZEFSAII (Michael W. Deem and Ramdas Pophale) SiO2 
 PCOD9032557
Probable space group: P -1
;
_chemical_formula_sum "Si O2"
_cell_formula_units_Z 12
_cell_length_a 14.883272
_cell_length_b 9.672259
_cell_length_c 15.973205
_cell_angle_alpha 44.424127
_cell_angle_beta 161.199834
_cell_angle_gamma 133.042539
_cell_volume 518.481767
_symmetry_space_group_name_H-M "P -1"
_symmetry_group_IT_number 2
_symmetry_cell_setting 'triclinic'
loop_
_space_group_symop_operation_xyz
x,y,z
-x,-y,-z
loop_
_atom_site_type_symbol
_atom_site_label
_atom_site_fract_x
_atom_site_fract_y
_atom_site_fract_z
Si Si1 0.798428 0.968790 0.595185
Si Si2 0.300071 0.741702 0.180615
Si Si3 0.229715 0.626365 0.697254
Si Si4 0.130402 0.158847 0.110356
Si Si5 0.362663 0.562537 0.145883
Si Si6 0.026031 0.236579 0.414358
O O1 0.726870 0.174476 0.403356
O O2 0.610464 0.809077 0.448727
O O3 0.729884 0.953439 0.640026
O O4 0.125095 0.915066 0.905309
O O5 0.302758 0.567412 0.191116
O O6 0.125808 0.726502 0.119628
O O7 0.000000 0.500000 0.500000
O O8 0.121092 0.681340 0.668759
O O9 0.500000 0.500000 0.000000
O O10 0.333873 0.338193 0.183661
O O11 0.000000 0.000000 0.000000
O O12 0.660421 0.672936 0.349488
O O13 0.138868 0.686147 0.844569
O O14 0.000000 0.000000 0.500000
#
# Coordination Sequence:
#
# PCOD9032557 Si02
#       6
#     2   2   2   2   2   2
#     4  10  24  44  73 100 145 187 249 297 370 425
#     4  10  22  43  72 102 142 187 241 297 372 426
#     4  12  26  46  73 105 144 196 244 296 365 436
#     4  10  27  45  73 106 150 191 246 304 373 430
#     4  12  25  45  76 108 146 191 248 299 371 438
#     4  12  28  48  75 110 150 190 249 307 363 438
#
# _framework density 23.144496
#
# number of rings (size 3 to 8) (size 9 to 14) (size 15 to 20)
#    1.000    0.000    0.000    6.000    4.667    2.667 
#    0.000    0.000    0.000    0.000    0.000    0.000 
#    0.000    0.000    0.000    0.000    0.000    0.000 
#
# Total GULP energy -67134.290814 kJ/mol
# GULP energy per Si atom -5594.524235 kJ/mol
# Density = 2.309182 g / cm^3
# Si number density = 23.144496 Si / 1000 Ang^3
#
#
#
# Elastic Constant Matrix: (Units=GPa)
#
#
# Indices 1 2 3 4 5 6 
#
# 1 91.7371 68.2935 44.0650 11.4741 -6.2082 -17.2810
# 2 68.2935 161.9196 65.3925 31.2935 -8.6421 -9.2600
# 3 44.0650 65.3925 166.3983 21.1322 -7.4337 1.2957
# 4 11.4741 31.2935 21.1322 45.3159 -4.9609 -8.4100
# 5 -6.2082 -8.6421 -7.4337 -4.9609 41.1892 3.4230
# 6 -17.2810 -9.2600 1.2957 -8.4100 3.4230 45.1651
#
#
#
# Elastic Compliance Matrix: (Units=1/GPa)
#
#
# Indices 1 2 3 4 5 6 
#
# 1 0.017885 -0.006640 -0.002445 0.002371 0.000653 0.005944
# 2 -0.006640 0.010598 -0.001741 -0.005019 0.000411 -0.001283
# 3 -0.002445 -0.001741 0.007640 -0.002039 0.000560 -0.001934
# 4 0.002371 -0.005019 -0.002039 0.026974 0.001784 0.004824
# 5 0.000653 0.000411 0.000560 0.001784 0.024881 -0.001236
# 6 0.005944 -0.001283 -0.001934 0.004824 -0.001236 0.025200
#
#
# Mechanical properties :
#
#
# Convention : Reuss Voigt Hill
#
# Bulk Modulus (GPa) = 69.09807 86.17299 77.63553
# Shear Modulus (GPa) = 35.80255 42.48764 39.14510
#
# Velocity S-wave (km/s) = 3.93735 4.28922 4.11705
# Velocity P-wave (km/s) = 7.11268 7.86405 7.49778
#
# Compressibility (1/GPa) = 0.01447218
#
# Stress axis : x y z
#
# Youngs Moduli (GPa) = 55.91128 94.35883 130.88243
#
# Poissons Ratio (x) = 0.62650 0.32006
# Poissons Ratio (y) = 0.37123 0.22785
# Poissons Ratio (z) = 0.13672 0.16426
#
# Static dielectric constant tensor:
#      x y z
#    x 1.928190 0.024130 0.028150 
#    y 0.024130 1.875240 -0.014320 
#    z 0.028150 -0.014320 1.843310 
# 
# From -- ./inp_files/80325.got.cif
#   From: 2010.05.17/outbox.cif.g08.bks.cpg/sg2_41_cif.got.tgz:80325.got - 2010.06.03 11:33:40.
