data_PCOD9032340
_publ_section_title
;
Structure prediction by ZEFSAII (Michael W. Deem and Ramdas Pophale) SiO2 
 PCOD9032340
Probable space group: P -1
;
_chemical_formula_sum "Si O2"
_cell_formula_units_Z 14
_cell_length_a 23.768419
_cell_length_b 8.587601
_cell_length_c 7.029861
_cell_angle_alpha 56.041849
_cell_angle_beta 41.025788
_cell_angle_gamma 38.959492
_cell_volume 590.846204
_symmetry_space_group_name_H-M "P -1"
_symmetry_group_IT_number 2
_symmetry_cell_setting 'triclinic'
loop_
_space_group_symop_operation_xyz
x,y,z
-x,-y,-z
loop_
_atom_site_type_symbol
_atom_site_label
_atom_site_fract_x
_atom_site_fract_y
_atom_site_fract_z
Si Si1 0.181213 0.990697 0.832127
Si Si2 0.265541 0.286622 0.525460
Si Si3 0.680220 0.559859 0.084697
Si Si4 0.550539 0.632818 0.738059
Si Si5 0.050310 0.845597 0.779026
Si Si6 0.673111 0.885183 0.122978
Si Si7 0.769975 0.145779 0.647038
O O1 0.221984 0.142002 0.671352
O O2 0.256296 0.724720 0.924514
O O3 0.204179 0.929334 0.590037
O O4 0.051161 0.110117 0.103164
O O5 0.152355 0.548712 0.718720
O O6 0.350900 0.144525 0.581784
O O7 0.323658 0.315993 0.184025
O O8 0.584902 0.625606 0.434764
O O9 0.743641 0.621561 0.017584
O O10 0.665984 0.442901 0.694710
O O11 0.439878 0.921934 0.846162
O O12 0.500000 0.500000 0.000000
O O13 0.120352 0.928869 0.477885
O O14 0.000000 0.000000 0.000000
O O15 0.733126 0.997365 0.916463
#
# Coordination Sequence:
#
# PCOD9032340 Si02
#       7
#     2   2   2   2   2   2   2
#     4  10  22  45  64  96 140 173 224 283 328 395
#     4  12  25  41  69 102 136 176 227 275 338 400
#     4  11  24  44  69  97 141 177 222 282 330 397
#     4   9  20  41  73  97 132 182 223 272 338 397
#     4  10  22  43  70  98 132 181 227 273 338 402
#     4  11  22  42  67  99 135 180 224 276 337 399
#     4   9  19  42  69  95 134 177 226 277 332 397
#
# _framework density 23.69483
#
# number of rings (size 3 to 8) (size 9 to 14) (size 15 to 20)
#    0.000    1.714    1.429    3.429    2.000    1.143 
#    2.571    5.000    0.000    0.000    0.000    0.000 
#    0.000    0.000    0.000    0.000    0.000    0.000 
#
# Total GULP energy -77963.739237 kJ/mol
# GULP energy per Si atom -5568.838517 kJ/mol
# Density = 2.364090 g / cm^3
# Si number density = 23.694830 Si / 1000 Ang^3
#
#
#
# Elastic Constant Matrix: (Units=GPa)
#
#
# Indices 1 2 3 4 5 6 
#
# 1 79.1036 16.7419 35.2599 -10.8308 15.8352 15.3731
# 2 16.7419 89.1096 43.8627 -15.8975 -5.5941 23.6622
# 3 35.2599 43.8627 147.4407 -32.8244 6.4407 5.1120
# 4 -10.8308 -15.8975 -32.8244 48.0609 1.2972 -3.4460
# 5 15.8352 -5.5941 6.4407 1.2972 48.6350 -4.7173
# 6 15.3731 23.6622 5.1120 -3.4460 -4.7173 35.4095
#
#
#
# Elastic Compliance Matrix: (Units=1/GPa)
#
#
# Indices 1 2 3 4 5 6 
#
# 1 0.016895 0.000401 -0.003360 0.001245 -0.005797 -0.007769
# 2 0.000401 0.016337 -0.004254 0.001828 0.001281 -0.010128
# 3 -0.003360 -0.004254 0.009828 0.004797 -0.000506 0.003282
# 4 0.001245 0.001828 0.004797 0.024993 -0.001519 -0.000225
# 5 -0.005797 0.001281 -0.000506 -0.001519 0.023157 0.004671
# 6 -0.007769 -0.010128 0.003282 -0.000225 0.004671 0.038509
#
#
# Mechanical properties :
#
#
# Convention : Reuss Voigt Hill
#
# Bulk Modulus (GPa) = 34.92408 56.37587 45.64997
# Shear Modulus (GPa) = 32.53346 41.07370 36.80358
#
# Velocity S-wave (km/s) = 3.70945 4.16798 3.94538
# Velocity P-wave (km/s) = 5.75480 6.85616 6.32948
#
# Compressibility (1/GPa) = 0.02863354
#
# Stress axis : x y z
#
# Youngs Moduli (GPa) = 59.18870 61.21207 101.75452
#
# Poissons Ratio (x) = -0.02453 0.34189
# Poissons Ratio (y) = -0.02372 0.43283
# Poissons Ratio (z) = 0.19887 0.26038
#
# Static dielectric constant tensor:
#      x y z
#    x 1.907610 0.016240 -0.011910 
#    y 0.016240 1.937240 0.001360 
#    z -0.011910 0.001360 1.955200 
# 
# From -- ./inp_files/351325.got.cif
#   From: 2010.05.17/outbox.cif.g08.bks.cpg/sg2_176_cif.got.tgz:351325.got - 2010.06.03 11:33:40.
