data_PCOD9032771
_publ_section_title
;
Structure prediction by ZEFSAII (Michael W. Deem and Ramdas Pophale) SiO2 
 PCOD9032771
Probable space group: P -1
;
_chemical_formula_sum "Si O2"
_cell_formula_units_Z 15
_cell_length_a 12.559658
_cell_length_b 9.602788
_cell_length_c 7.592773
_cell_angle_alpha 90.541487
_cell_angle_beta 43.546423
_cell_angle_gamma 103.038875
_cell_volume 598.216263
_symmetry_space_group_name_H-M "P -1"
_symmetry_group_IT_number 2
_symmetry_cell_setting 'triclinic'
loop_
_space_group_symop_operation_xyz
x,y,z
-x,-y,-z
loop_
_atom_site_type_symbol
_atom_site_label
_atom_site_fract_x
_atom_site_fract_y
_atom_site_fract_z
Si Si1 0.707512 0.440909 0.001668
Si Si2 0.031636 0.654750 0.142971
Si Si3 0.500000 0.500000 0.000000
Si Si4 0.671574 0.164260 0.459212
Si Si5 0.364185 0.848284 0.109792
Si Si6 0.691191 0.556357 0.404219
Si Si7 0.088492 0.940904 0.243614
Si Si8 0.672050 0.864429 0.308054
O O1 0.886825 0.428750 0.817686
O O2 0.680649 0.547613 0.885754
O O3 0.598582 0.282817 0.043922
O O4 0.651388 0.474474 0.262157
O O5 0.979430 0.787744 0.292054
O O6 0.874868 0.559919 0.226583
O O7 0.184768 0.744355 0.838358
O O8 0.584057 0.496813 0.704176
O O9 0.703713 0.217000 0.620608
O O10 0.495549 0.167919 0.603781
O O11 0.666668 0.994739 0.447734
O O12 0.237277 0.896852 0.147894
O O13 0.500000 0.000000 0.000000
O O14 0.689713 0.720533 0.371047
O O15 0.000000 0.000000 0.500000
O O16 0.170818 0.063665 0.002370
#
# Coordination Sequence:
#
# PCOD9032771 Si02
#       8
#     2   2   1   2   2   2   2   2
#     4  11  28  51  73 110 148 192 257 305 366 450
#     4  10  25  48  74 105 150 197 242 310 378 434
#     4  12  30  50  78 104 146 202 252 310 362 450
#     4  10  22  43  74 109 147 192 245 305 371 448
#     4  11  24  43  75 109 144 194 246 306 375 438
#     4  12  28  50  77 107 154 200 250 309 373 443
#     4  10  23  41  69 114 152 187 246 304 371 453
#     4  10  23  43  73 108 152 196 244 309 371 437
#
# _framework density 25.074541
#
# number of rings (size 3 to 8) (size 9 to 14) (size 15 to 20)
#    0.000    1.333    1.333    1.600   11.200    2.667 
#    2.400    0.000    0.000    0.000    0.000    0.000 
#    0.000    0.000    0.000    0.000    0.000    0.000 
#
# Total GULP energy -83757.581259 kJ/mol
# GULP energy per Si atom -5583.838751 kJ/mol
# Density = 2.501747 g / cm^3
# Si number density = 25.074541 Si / 1000 Ang^3
#
#
#
# Elastic Constant Matrix: (Units=GPa)
#
#
# Indices 1 2 3 4 5 6 
#
# 1 134.1515 17.8974 39.6324 1.9671 26.5575 21.3945
# 2 17.8974 105.6464 40.3357 15.9326 13.4819 11.7339
# 3 39.6324 40.3357 128.7858 18.9864 29.6708 9.9949
# 4 1.9671 15.9326 18.9864 30.2226 9.1595 8.9987
# 5 26.5575 13.4819 29.6708 9.1595 42.8095 9.0227
# 6 21.3945 11.7339 9.9949 8.9987 9.0227 34.7130
#
#
#
# Elastic Compliance Matrix: (Units=1/GPa)
#
#
# Indices 1 2 3 4 5 6 
#
# 1 0.009697 -0.000297 -0.002062 0.003617 -0.004185 -0.005132
# 2 -0.000297 0.011342 -0.002705 -0.003604 -0.000353 -0.001846
# 3 -0.002062 -0.002705 0.010865 -0.004230 -0.004789 0.001398
# 4 0.003617 -0.003604 -0.004230 0.041732 -0.005152 -0.009272
# 5 -0.004185 -0.000353 -0.004789 -0.005152 0.031048 -0.002657
# 6 -0.005132 -0.001846 0.001398 -0.009272 -0.002657 0.035287
#
#
# Mechanical properties :
#
#
# Convention : Reuss Voigt Hill
#
# Bulk Modulus (GPa) = 45.92115 62.70163 54.31139
# Shear Modulus (GPa) = 31.77471 39.59691 35.68581
#
# Velocity S-wave (km/s) = 3.56365 3.97819 3.77661
# Velocity P-wave (km/s) = 5.94024 6.79424 6.38154
#
# Compressibility (1/GPa) = 0.02177646
#
# Stress axis : x y z
#
# Youngs Moduli (GPa) = 103.12440 88.16595 92.03801
#
# Poissons Ratio (x) = 0.02618 0.18977
# Poissons Ratio (y) = 0.03062 0.24898
# Poissons Ratio (z) = 0.21263 0.23850
#
# Static dielectric constant tensor:
#      x y z
#    x 2.006360 -0.017320 -0.007730 
#    y -0.017320 2.144700 -0.004000 
#    z -0.007730 -0.004000 1.973080 
# 
# From -- ./inp_files/302735.got.cif
#   From: 2010.05.17/outbox.cif.g08.bks.cpg/sg2_152_cif.got.tgz:302735.got - 2010.06.03 11:33:40.
