data_PCOD9032383
_publ_section_title
;
Structure prediction by ZEFSAII (Michael W. Deem and Ramdas Pophale) SiO2 
 PCOD9032383
Probable space group: P -1
;
_chemical_formula_sum "Si O2"
_cell_formula_units_Z 16
_cell_length_a 12.544456
_cell_length_b 8.544126
_cell_length_c 15.271809
_cell_angle_alpha 28.374353
_cell_angle_beta 63.724499
_cell_angle_gamma 71.210382
_cell_volume 688.725991
_symmetry_space_group_name_H-M "P -1"
_symmetry_group_IT_number 2
_symmetry_cell_setting 'triclinic'
loop_
_space_group_symop_operation_xyz
x,y,z
-x,-y,-z
loop_
_atom_site_type_symbol
_atom_site_label
_atom_site_fract_x
_atom_site_fract_y
_atom_site_fract_z
Si Si1 0.173553 0.312433 0.790282
Si Si2 0.860127 0.447484 0.819195
Si Si3 0.165112 0.770500 0.732047
Si Si4 0.439993 0.590047 0.563228
Si Si5 0.588528 0.724780 0.600944
Si Si6 0.594311 0.637040 0.823813
Si Si7 0.051692 0.590844 0.535659
Si Si8 0.107112 0.286649 0.135049
O O1 0.149971 0.601461 0.724823
O O2 0.315868 0.344642 0.733955
O O3 0.125263 0.370659 0.680959
O O4 0.128438 0.933047 0.020995
O O5 0.727780 0.546746 0.826323
O O6 0.942584 0.647486 0.614886
O O7 0.899358 0.502291 0.878703
O O8 0.033247 0.821736 0.788814
O O9 0.274024 0.079364 0.545594
O O10 0.188585 0.485269 0.933442
O O11 0.500000 0.500000 0.500000
O O12 0.539497 0.541607 0.622528
O O13 0.407225 0.965386 0.381670
O O14 0.558145 0.501828 0.806808
O O15 0.500000 0.000000 0.500000
O O16 0.500000 0.500000 0.000000
O O17 0.000000 0.500000 0.500000
O O18 0.143108 0.934983 0.320714
#
# Coordination Sequence:
#
# PCOD9032383 Si02
#       8
#     2   2   2   2   2   2   2   2
#     4  12  25  45  68 100 144 185 238 295 353 423
#     4  12  26  44  72 102 147 192 234 297 354 430
#     4  11  23  44  70 103 139 183 238 286 361 427
#     4  11  25  45  72 103 138 190 239 294 356 414
#     4  10  22  43  71 100 138 185 231 294 348 419
#     4  11  24  44  69 105 140 188 239 290 354 423
#     4  12  27  46  70 108 146 184 242 297 361 423
#     4  11  26  40  73 104 139 187 230 290 362 426
#
# _framework density 23.231300000000001
#
# number of rings (size 3 to 8) (size 9 to 14) (size 15 to 20)
#    0.000    0.750    3.750    3.750    8.750    1.000 
#    0.000    3.750    0.000    0.000    0.000    0.000 
#    0.000    0.000    0.000    0.000    0.000    0.000 
#
# Total GULP energy -89183.070203 kJ/mol
# GULP energy per Si atom -5573.941888 kJ/mol
# Density = 2.317842 g / cm^3
# Si number density = 23.231300 Si / 1000 Ang^3
#
#
#
# Elastic Constant Matrix: (Units=GPa)
#
#
# Indices 1 2 3 4 5 6 
#
# 1 119.1535 36.6078 21.4271 15.6456 1.9878 18.6647
# 2 36.6078 93.3498 12.7408 23.4750 0.2151 32.1731
# 3 21.4271 12.7408 110.1983 23.1480 4.3783 17.8726
# 4 15.6456 23.4750 23.1480 41.2190 2.0721 11.0643
# 5 1.9878 0.2151 4.3783 2.0721 20.3992 3.1612
# 6 18.6647 32.1731 17.8726 11.0643 3.1612 44.3696
#
#
#
# Elastic Compliance Matrix: (Units=1/GPa)
#
#
# Indices 1 2 3 4 5 6 
#
# 1 0.009861 -0.003037 -0.001139 -0.001031 -0.000393 -0.001202
# 2 -0.003037 0.016836 0.001609 -0.006745 0.002014 -0.010040
# 3 -0.001139 0.001609 0.010914 -0.005588 -0.001121 -0.003611
# 4 -0.001031 -0.006745 -0.005588 0.031782 -0.001823 -0.000220
# 5 -0.000393 0.002014 -0.001121 -0.001823 0.050078 -0.003956
# 6 -0.001202 -0.010040 -0.003611 -0.000220 -0.003956 0.032115
#
#
# Mechanical properties :
#
#
# Convention : Reuss Voigt Hill
#
# Bulk Modulus (GPa) = 30.79142 51.58368 41.18755
# Shear Modulus (GPa) = 29.84293 37.99264 33.91778
#
# Velocity S-wave (km/s) = 3.58802 4.04840 3.82514
# Velocity P-wave (km/s) = 5.51799 6.64119 6.10547
#
# Compressibility (1/GPa) = 0.03247658
#
# Stress axis : x y z
#
# Youngs Moduli (GPa) = 101.41302 59.39764 91.62670
#
# Poissons Ratio (x) = 0.18039 0.10437
# Poissons Ratio (y) = 0.30800 -0.14745
# Poissons Ratio (z) = 0.11551 -0.09559
#
# Static dielectric constant tensor:
#      x y z
#    x 1.958270 0.018240 0.078870 
#    y 0.018240 1.929320 -0.021900 
#    z 0.078870 -0.021900 1.893610 
# 
# From -- ./inp_files/514806.got.cif
#   From: 2010.05.17/outbox.cif.g08.bks.cpg/sg2_258_cif.got.tgz:514806.got - 2010.06.03 11:33:40.
