data_PCOD9032789
_publ_section_title
;
Structure prediction by ZEFSAII (Michael W. Deem and Ramdas Pophale) SiO2 
 PCOD9032789
Probable space group: P -1
;
_chemical_formula_sum "Si O2"
_cell_formula_units_Z 16
_cell_length_a 12.443391
_cell_length_b 19.645456
_cell_length_c 21.539973
_cell_angle_alpha 15.815851
_cell_angle_beta 149.998672
_cell_angle_gamma 150.699494
_cell_volume 687.831078
_symmetry_space_group_name_H-M "P -1"
_symmetry_group_IT_number 2
_symmetry_cell_setting 'triclinic'
loop_
_space_group_symop_operation_xyz
x,y,z
-x,-y,-z
loop_
_atom_site_type_symbol
_atom_site_label
_atom_site_fract_x
_atom_site_fract_y
_atom_site_fract_z
Si Si1 0.275189 0.984767 0.515848
Si Si2 0.682314 0.500030 0.394054
Si Si3 0.801914 0.754867 0.640365
Si Si4 0.418445 0.245233 0.766445
Si Si5 0.106831 0.306551 0.800321
Si Si6 0.951805 0.985316 0.740862
Si Si7 0.350072 0.275221 0.074979
Si Si8 0.887185 0.499802 0.796053
O O1 0.497973 0.907141 0.710233
O O2 0.071883 0.745395 0.647172
O O3 0.231066 0.225033 0.320404
O O4 0.249740 0.999458 0.417035
O O5 0.451997 0.265730 0.490820
O O6 0.634277 0.734333 0.204485
O O7 0.737907 0.573256 0.286206
O O8 0.897339 0.426761 0.592138
O O9 0.858846 0.520714 0.837952
O O10 0.000000 0.000000 0.500000
O O11 0.642247 0.479215 0.662721
O O12 0.174639 0.225549 0.634559
O O13 0.500000 0.000000 0.000000
O O14 0.248671 0.365974 0.882804
O O15 0.000000 0.000000 0.000000
O O16 0.856582 0.906917 0.829920
O O17 0.034044 0.746144 0.966947
O O18 0.500000 0.500000 0.000000
#
# Coordination Sequence:
#
# PCOD9032789 Si02
#       8
#     2   2   2   2   2   2   2   2
#     4  11  23  40  64  92 129 173 219 266 331 397
#     4  10  22  43  74  99 132 178 222 276 342 400
#     4   9  20  40  66  95 130 168 218 273 332 400
#     4   9  20  40  66  95 130 168 218 273 332 400
#     4  11  25  45  70 100 135 177 230 284 336 404
#     4  11  23  40  64  92 129 173 219 266 331 397
#     4  12  26  43  65  95 136 174 220 281 334 383
#     4   9  20  42  60  92 128 163 216 276 328 383
#
# _framework density 23.261524999999999
#
# number of rings (size 3 to 8) (size 9 to 14) (size 15 to 20)
#    0.000    1.750    1.250    1.875    3.500    2.000 
#    0.000   31.250    0.000    0.000    0.000    0.000 
#    0.000    0.000    0.000    0.000    0.000    0.000 
#
# Total GULP energy -89213.228271 kJ/mol
# GULP energy per Si atom -5575.826767 kJ/mol
# Density = 2.320858 g / cm^3
# Si number density = 23.261525 Si / 1000 Ang^3
#
#
#
# Elastic Constant Matrix: (Units=GPa)
#
#
# Indices 1 2 3 4 5 6 
#
# 1 151.2979 61.7439 52.6953 14.7384 23.9903 -0.9888
# 2 61.7439 119.9723 32.8003 19.4942 4.2589 13.4738
# 3 52.6953 32.8003 51.5158 15.0341 13.2246 -2.2150
# 4 14.7384 19.4942 15.0341 36.9033 -10.2589 -1.4702
# 5 23.9903 4.2589 13.2246 -10.2589 32.9315 3.8975
# 6 -0.9888 13.4738 -2.2150 -1.4702 3.8975 46.6556
#
#
#
# Elastic Compliance Matrix: (Units=1/GPa)
#
#
# Indices 1 2 3 4 5 6 
#
# 1 0.011901 -0.003724 -0.008085 -0.000937 -0.005395 0.001365
# 2 -0.003724 0.012145 -0.003829 -0.002903 0.002255 -0.004048
# 3 -0.008085 -0.003829 0.037719 -0.013714 -0.013438 0.003416
# 4 -0.000937 -0.002903 -0.013714 0.039869 0.019005 -0.000164
# 5 -0.005395 0.002255 -0.013438 0.019005 0.045870 -0.004637
# 6 0.001365 -0.004048 0.003416 -0.000164 -0.004637 0.023176
#
#
# Mechanical properties :
#
#
# Convention : Reuss Voigt Hill
#
# Bulk Modulus (GPa) = 32.80002 68.58500 50.69251
# Shear Modulus (GPa) = 23.57165 35.00117 29.28641
#
# Velocity S-wave (km/s) = 3.18674 3.88323 3.55210
# Velocity P-wave (km/s) = 5.26038 7.04658 6.21795
#
# Compressibility (1/GPa) = 0.03048778
#
# Stress axis : x y z
#
# Youngs Moduli (GPa) = 84.02852 82.33926 26.51189
#
# Poissons Ratio (x) = 0.30661 0.21435
# Poissons Ratio (y) = 0.31290 0.10153
# Poissons Ratio (z) = 0.67939 0.31531
#
# Static dielectric constant tensor:
#      x y z
#    x 1.853740 -0.066860 0.012850 
#    y -0.066860 1.983930 0.004670 
#    z 0.012850 0.004670 1.795900 
# 
# From -- ./inp_files/595984.got.cif
#   From: 2010.05.17/outbox.cif.g08.bks.cpg/sg2_298_cif.got.tgz:595984.got - 2010.06.03 11:33:40.
