data_PCOD9032436
_publ_section_title
;
Structure prediction by ZEFSAII (Michael W. Deem and Ramdas Pophale) SiO2 
 PCOD9032436
Probable space group: P -1
;
_chemical_formula_sum "Si O2"
_cell_formula_units_Z 14
_cell_length_a 5.627088
_cell_length_b 14.593921
_cell_length_c 12.664617
_cell_angle_alpha 37.804745
_cell_angle_beta 67.125818
_cell_angle_gamma 59.208707
_cell_volume 547.402122
_symmetry_space_group_name_H-M "P -1"
_symmetry_group_IT_number 2
_symmetry_cell_setting 'triclinic'
loop_
_space_group_symop_operation_xyz
x,y,z
-x,-y,-z
loop_
_atom_site_type_symbol
_atom_site_label
_atom_site_fract_x
_atom_site_fract_y
_atom_site_fract_z
Si Si1 0.501386 0.146280 0.439514
Si Si2 0.306236 0.700041 0.564872
Si Si3 0.369879 0.879877 0.942837
Si Si4 0.988844 0.767860 0.984119
Si Si5 0.812827 0.389864 0.704097
Si Si6 0.960537 0.795971 0.351284
Si Si7 0.884862 0.547502 0.861696
O O1 0.739576 0.175154 0.443190
O O2 0.283803 0.170468 0.551619
O O3 0.389508 0.299868 0.243478
O O4 0.500000 0.000000 0.500000
O O5 0.605841 0.561225 0.623781
O O6 0.214377 0.790976 0.386911
O O7 0.112734 0.597808 0.714496
O O8 0.690612 0.858691 0.901002
O O9 0.202644 0.856938 0.888408
O O10 0.176854 0.060913 0.838980
O O11 0.355762 0.734391 0.149337
O O12 0.955333 0.696221 0.170105
O O13 0.146558 0.608419 0.038249
O O14 0.930418 0.367632 0.586038
O O15 0.000000 0.500000 0.000000
#
# Coordination Sequence:
#
# PCOD9032436 Si02
#       7
#     2   2   2   2   2   2   2
#     4  11  27  44  66 100 140 183 234 295 355 427
#     4  11  24  47  67 102 142 180 240 292 360 426
#     4  10  23  41  70 101 146 181 239 288 353 417
#     4  10  22  43  71 104 141 183 242 294 346 420
#     4  10  22  44  73 100 144 183 240 289 354 422
#     4  11  26  41  69 107 141 190 226 291 364 422
#     4  11  24  44  70  98 131 188 241 293 351 419
#
# _framework density 25.575348000000002
#
# number of rings (size 3 to 8) (size 9 to 14) (size 15 to 20)
#    0.857    0.571    2.857    0.857    4.000    6.286 
#    0.000    0.000    0.000    0.000    0.000    0.000 
#    0.000    0.000    0.000    0.000    0.000    0.000 
#
# Total GULP energy -78098.183093 kJ/mol
# GULP energy per Si atom -5578.441650 kJ/mol
# Density = 2.551714 g / cm^3
# Si number density = 25.575348 Si / 1000 Ang^3
#
#
#
# Elastic Constant Matrix: (Units=GPa)
#
#
# Indices 1 2 3 4 5 6 
#
# 1 125.8910 32.1324 32.3030 -15.9408 10.4770 14.1557
# 2 32.1324 153.7390 26.4567 -26.5730 1.4026 27.1096
# 3 32.3030 26.4567 71.7577 -2.8188 19.3453 -8.8356
# 4 -15.9408 -26.5730 -2.8188 42.4617 -5.7039 -2.9662
# 5 10.4770 1.4026 19.3453 -5.7039 46.4166 7.6053
# 6 14.1557 27.1096 -8.8356 -2.9662 7.6053 32.0675
#
#
#
# Elastic Compliance Matrix: (Units=1/GPa)
#
#
# Indices 1 2 3 4 5 6 
#
# 1 0.010454 0.000751 -0.006191 0.003735 0.001810 -0.007039
# 2 0.000751 0.010672 -0.006856 0.006361 0.005090 -0.011861
# 3 -0.006191 -0.006856 0.024491 -0.005388 -0.012159 0.017662
# 4 0.003735 0.006361 -0.005388 0.028868 0.005946 -0.007250
# 5 0.001810 0.005090 -0.012159 0.005946 0.029210 -0.014830
# 6 -0.007039 -0.011861 0.017662 -0.007250 -0.014830 0.052031
#
#
# Mechanical properties :
#
#
# Convention : Reuss Voigt Hill
#
# Bulk Modulus (GPa) = 47.56056 59.24132 53.40094
# Shear Modulus (GPa) = 26.69144 41.55554 34.12349
#
# Velocity S-wave (km/s) = 3.23405 4.03529 3.65668
# Velocity P-wave (km/s) = 5.70807 6.70262 6.22524
#
# Compressibility (1/GPa) = 0.02102582
#
# Stress axis : x y z
#
# Youngs Moduli (GPa) = 95.65638 93.70438 40.83092
#
# Poissons Ratio (x) = -0.07034 0.25278
# Poissons Ratio (y) = -0.07181 0.27992
# Poissons Ratio (z) = 0.59219 0.64239
#
# Static dielectric constant tensor:
#      x y z
#    x 2.137620 0.018880 -0.058390 
#    y 0.018880 2.031620 0.027970 
#    z -0.058390 0.027970 2.139170 
# 
# From -- ./inp_files/483513.got.cif
#   From: 2010.05.17/outbox.cif.g08.bks.cpg/sg2_242_cif.got.tgz:483513.got - 2010.06.03 11:33:40.
