data_PCOD9032463
_publ_section_title
;
Structure prediction by ZEFSAII (Michael W. Deem and Ramdas Pophale) SiO2 
 PCOD9032463
Probable space group: P -1
;
_chemical_formula_sum "Si O2"
_cell_formula_units_Z 16
_cell_length_a 13.952155
_cell_length_b 25.456220
_cell_length_c 19.692903
_cell_angle_alpha 158.268783
_cell_angle_beta 31.343586
_cell_angle_gamma 159.662022
_cell_volume 892.208168
_symmetry_space_group_name_H-M "P -1"
_symmetry_group_IT_number 2
_symmetry_cell_setting 'triclinic'
loop_
_space_group_symop_operation_xyz
x,y,z
-x,-y,-z
loop_
_atom_site_type_symbol
_atom_site_label
_atom_site_fract_x
_atom_site_fract_y
_atom_site_fract_z
Si Si1 0.702336 0.073531 0.902591
Si Si2 0.655792 0.940965 0.262372
Si Si3 0.790103 0.592234 0.559446
Si Si4 0.145640 0.195488 0.096448
Si Si5 0.778305 0.838416 0.648115
Si Si6 0.380059 0.069213 0.567867
Si Si7 0.204782 0.913689 0.949155
Si Si8 0.090149 0.462055 0.220839
O O1 0.744767 0.931412 0.717674
O O2 0.514019 0.022029 0.893211
O O3 0.987204 0.318867 0.043507
O O4 0.500000 0.000000 0.000000
O O5 0.584991 0.894419 0.328346
O O6 0.476263 0.964770 0.366931
O O7 0.634839 0.774760 0.041501
O O8 0.976065 0.178430 0.344167
O O9 0.750842 0.624598 0.698908
O O10 0.493460 0.415409 0.490591
O O11 0.912899 0.504494 0.380373
O O12 0.923735 0.126634 0.094157
O O13 0.000000 0.000000 0.000000
O O14 0.062395 0.918346 0.563407
O O15 0.790623 0.942723 0.833889
O O16 0.591814 0.305682 0.692197
O O17 0.999492 0.687385 0.841440
#
# Coordination Sequence:
#
# PCOD9032463 Si02
#       8
#     2   2   2   2   2   2   2   2
#     4   8  15  29  51  80 115 117 168 229 258 303
#     4   9  20  36  48  78 107 143 178 212 258 309
#     4  10  18  34  57  76 109 135 178 220 258 308
#     4  10  21  36  51  77 109 142 174 216 257 314
#     4  10  17  32  54  85 104 132 175 224 261 303
#     4  10  19  32  55  77 111 135 176 219 258 314
#     4  10  17  33  57  81 109 129 176 221 262 307
#     4   9  17  32  54  87 104 136 168 220 269 304
#
# _framework density 17.933033999999999
#
# number of rings (size 3 to 8) (size 9 to 14) (size 15 to 20)
#    0.000    2.750    5.000    0.000    0.000    3.000 
#    0.000    0.625    0.000    3.750    0.000    0.000 
#    0.000    0.000    0.000    0.000    0.000    0.000 
#
# Total GULP energy -89071.328915 kJ/mol
# GULP energy per Si atom -5566.958057 kJ/mol
# Density = 1.789222 g / cm^3
# Si number density = 17.933034 Si / 1000 Ang^3
#
#
#
# Elastic Constant Matrix: (Units=GPa)
#
#
# Indices 1 2 3 4 5 6 
#
# 1 65.3937 7.2739 -5.5406 10.8354 -12.0993 -2.3099
# 2 7.2739 54.2886 0.0206 8.6926 -3.9865 18.6773
# 3 -5.5406 0.0206 30.6779 7.0893 0.0090 -4.8735
# 4 10.8354 8.6926 7.0893 19.5039 3.8979 -0.2805
# 5 -12.0993 -3.9865 0.0090 3.8979 19.0424 -6.2667
# 6 -2.3099 18.6773 -4.8735 -0.2805 -6.2667 23.6727
#
#
#
# Elastic Compliance Matrix: (Units=1/GPa)
#
#
# Indices 1 2 3 4 5 6 
#
# 1 0.025049 -0.002611 0.011571 -0.021579 0.024059 0.012999
# 2 -0.002611 0.028497 -0.001761 -0.010698 -0.001256 -0.023560
# 3 0.011571 -0.001761 0.042789 -0.024385 0.017075 0.015559
# 4 -0.021579 -0.010698 -0.024385 0.083872 -0.035435 -0.007072
# 5 0.024059 -0.001256 0.017075 -0.035435 0.084239 0.028734
# 6 0.012999 -0.023560 0.015559 -0.007072 0.028734 0.072826
#
#
# Mechanical properties :
#
#
# Convention : Reuss Voigt Hill
#
# Bulk Modulus (GPa) = 9.03079 17.09645 13.06362
# Shear Modulus (GPa) = 13.89717 22.35087 18.12402
#
# Velocity S-wave (km/s) = 2.78681 3.53420 3.18252
# Velocity P-wave (km/s) = 3.92452 5.11940 4.56126
#
# Compressibility (1/GPa) = 0.11073223
#
# Stress axis : x y z
#
# Youngs Moduli (GPa) = 39.92182 35.09164 23.37030
#
# Poissons Ratio (x) = 0.09162 -0.27041
# Poissons Ratio (y) = 0.10424 0.04115
# Poissons Ratio (z) = -0.46192 0.06179
#
# Static dielectric constant tensor:
#      x y z
#    x 1.648150 0.014600 -0.007930 
#    y 0.014600 1.632190 -0.002050 
#    z -0.007930 -0.002050 1.658100 
# 
# From -- ./inp_files/508844.got.cif
#   From: 2010.05.17/outbox.cif.g08.bks.cpg/sg2_255_cif.got.tgz:508844.got - 2010.06.03 11:33:40.
