data_PCOD9032752
_publ_section_title
;
Structure prediction by ZEFSAII (Michael W. Deem and Ramdas Pophale) SiO2 
 PCOD9032752
Probable space group: P -1
;
_chemical_formula_sum "Si O2"
_cell_formula_units_Z 16
_cell_length_a 15.434540
_cell_length_b 8.509378
_cell_length_c 11.780199
_cell_angle_alpha 142.383883
_cell_angle_beta 44.537274
_cell_angle_gamma 131.359171
_cell_volume 645.420447
_symmetry_space_group_name_H-M "P -1"
_symmetry_group_IT_number 2
_symmetry_cell_setting 'triclinic'
loop_
_space_group_symop_operation_xyz
x,y,z
-x,-y,-z
loop_
_atom_site_type_symbol
_atom_site_label
_atom_site_fract_x
_atom_site_fract_y
_atom_site_fract_z
Si Si1 0.609423 0.397036 0.905728
Si Si2 0.006662 0.136413 0.217994
Si Si3 0.790960 0.809719 0.549675
Si Si4 0.255909 0.026501 0.879384
Si Si5 0.286737 0.932069 0.564482
Si Si6 0.989604 0.319258 0.587330
Si Si7 0.619350 0.980018 0.993977
Si Si8 0.370689 0.440433 0.654490
O O1 0.688957 0.278248 0.669439
O O2 0.527590 0.167359 0.930334
O O3 0.500000 0.500000 0.000000
O O4 0.697292 0.664793 0.024233
O O5 0.035597 0.208902 0.363893
O O6 0.856513 0.028332 0.289230
O O7 0.033294 0.401341 0.269525
O O8 0.104159 0.962954 0.992260
O O9 0.899535 0.676522 0.423496
O O10 0.734765 0.669417 0.405941
O O11 0.864497 0.111214 0.625525
O O12 0.685293 0.826265 0.752492
O O13 0.303809 0.865740 0.641861
O O14 0.313512 0.007532 0.937937
O O15 0.375526 0.206497 0.602211
O O16 0.641296 0.288871 0.121581
O O17 0.500000 0.500000 0.500000
#
# Coordination Sequence:
#
# PCOD9032752 Si02
#       8
#     2   2   2   2   2   2   2   2
#     4  10  24  44  70 102 137 183 235 292 348 416
#     4  11  22  44  71 106 140 177 245 291 353 415
#     4  11  25  47  72  99 146 188 230 292 357 415
#     4  11  26  45  73 105 139 185 239 292 355 417
#     4  12  26  46  70 105 143 184 237 294 349 420
#     4  10  22  43  74 103 138 188 233 291 353 422
#     4  11  26  45  71 105 138 184 239 284 354 427
#     4  12  28  47  68 104 142 189 235 286 352 423
#
# _framework density 24.790040000000001
#
# number of rings (size 3 to 8) (size 9 to 14) (size 15 to 20)
#    0.000    1.000    3.750    1.875    7.000    2.500 
#    0.000    3.125    0.000    0.000    0.000    0.000 
#    0.000    0.000    0.000    0.000    0.000    0.000 
#
# Total GULP energy -89628.110685 kJ/mol
# GULP energy per Si atom -5601.756918 kJ/mol
# Density = 2.473362 g / cm^3
# Si number density = 24.790040 Si / 1000 Ang^3
#
#
#
# Elastic Constant Matrix: (Units=GPa)
#
#
# Indices 1 2 3 4 5 6 
#
# 1 76.1143 2.7074 42.4919 -28.2109 18.0052 2.0219
# 2 2.7074 94.2864 8.1180 -9.9087 0.5864 9.9104
# 3 42.4919 8.1180 96.1585 -8.9811 20.9981 12.2623
# 4 -28.2109 -9.9087 -8.9811 29.5602 4.0714 -2.4113
# 5 18.0052 0.5864 20.9981 4.0714 31.7462 -11.4273
# 6 2.0219 9.9104 12.2623 -2.4113 -11.4273 33.3544
#
#
#
# Elastic Compliance Matrix: (Units=1/GPa)
#
#
# Indices 1 2 3 4 5 6 
#
# 1 0.035722 0.004110 -0.007180 0.035883 -0.022270 -0.005782
# 2 0.004110 0.011910 -0.000330 0.008124 -0.005114 -0.004831
# 3 -0.007180 -0.000330 0.016936 -0.001155 -0.010328 -0.009315
# 4 0.035883 0.008124 -0.001155 0.074153 -0.032871 -0.010065
# 5 -0.022270 -0.005114 -0.010328 -0.032871 0.064809 0.026494
# 6 -0.005782 -0.004831 -0.009315 -0.010065 0.026494 0.043541
#
#
# Mechanical properties :
#
#
# Convention : Reuss Voigt Hill
#
# Bulk Modulus (GPa) = 17.31122 41.46598 29.38860
# Shear Modulus (GPa) = 18.30657 33.14828 25.72742
#
# Velocity S-wave (km/s) = 2.72042 3.66069 3.22501
# Velocity P-wave (km/s) = 4.10681 5.88479 5.07428
#
# Compressibility (1/GPa) = 0.05776599
#
# Stress axis : x y z
#
# Youngs Moduli (GPa) = 27.99412 83.96466 59.04716
#
# Poissons Ratio (x) = -0.34507 0.42398
# Poissons Ratio (y) = -0.11505 0.01949
# Poissons Ratio (z) = 0.20101 0.02771
#
# Static dielectric constant tensor:
#      x y z
#    x 2.018010 -0.011260 0.012670 
#    y -0.011260 1.997990 0.010960 
#    z 0.012670 0.010960 1.932860 
# 
# From -- ./inp_files/462558.got.cif
#   From: 2010.05.17/outbox.cif.g08.bks.cpg/sg2_232_cif.got.tgz:462558.got - 2010.06.03 11:33:40.
