data_PCOD9032229
_publ_section_title
;
Structure prediction by ZEFSAII (Michael W. Deem and Ramdas Pophale) SiO2 
 PCOD9032229
Probable space group: P -1
;
_chemical_formula_sum "Si O2"
_cell_formula_units_Z 14
_cell_length_a 14.732371
_cell_length_b 8.365142
_cell_length_c 7.401329
_cell_angle_alpha 54.588844
_cell_angle_beta 47.663495
_cell_angle_gamma 57.709794
_cell_volume 533.601171
_symmetry_space_group_name_H-M "P -1"
_symmetry_group_IT_number 2
_symmetry_cell_setting 'triclinic'
loop_
_space_group_symop_operation_xyz
x,y,z
-x,-y,-z
loop_
_atom_site_type_symbol
_atom_site_label
_atom_site_fract_x
_atom_site_fract_y
_atom_site_fract_z
Si Si1 0.753771 0.237418 0.274049
Si Si2 0.510884 0.730285 0.303017
Si Si3 0.242445 0.679044 0.379523
Si Si4 0.330244 0.409202 0.137735
Si Si5 0.866840 0.817133 0.300592
Si Si6 0.749382 0.873403 0.018360
Si Si7 0.984745 0.571750 0.766406
O O1 0.627118 0.152691 0.525720
O O2 0.763599 0.345391 0.380893
O O3 0.725933 0.398031 0.044177
O O4 0.865468 0.038259 0.230016
O O5 0.500000 0.500000 0.500000
O O6 0.551204 0.725134 0.041821
O O7 0.620794 0.800559 0.215640
O O8 0.103835 0.666742 0.502967
O O9 0.344105 0.508023 0.249348
O O10 0.266810 0.895446 0.165231
O O11 0.228919 0.280555 0.394835
O O12 0.806312 0.847918 0.160376
O O13 0.993627 0.636912 0.237241
O O14 0.855033 0.737892 0.834919
O O15 0.000000 0.500000 0.000000
#
# Coordination Sequence:
#
# PCOD9032229 Si02
#       7
#     2   2   2   2   2   2   2
#     4  11  24  46  67 105 139 174 239 273 343 409
#     4  10  25  43  69 101 138 184 227 285 334 410
#     4  11  23  43  74 100 138 183 218 295 336 406
#     4  10  23  43  65 101 137 178 229 274 342 407
#     4  10  22  43  70 102 135 181 225 281 347 406
#     4  11  22  45  72 100 142 179 231 282 340 409
#     4   9  22  41  71 101 136 180 226 279 348 404
#
# _framework density 26.236823000000001
#
# number of rings (size 3 to 8) (size 9 to 14) (size 15 to 20)
#    0.000    1.714    1.429    1.286   12.000    3.429 
#    2.571   10.714    0.000    0.000    0.000    0.000 
#    0.000    0.000    0.000    0.000    0.000    0.000 
#
# Total GULP energy -78422.645619 kJ/mol
# GULP energy per Si atom -5601.617544 kJ/mol
# Density = 2.617711 g / cm^3
# Si number density = 26.236823 Si / 1000 Ang^3
#
#
#
# Elastic Constant Matrix: (Units=GPa)
#
#
# Indices 1 2 3 4 5 6 
#
# 1 88.7514 16.7382 14.7429 1.1255 5.0922 17.7571
# 2 16.7382 115.2416 37.3180 -4.5031 16.7321 7.4988
# 3 14.7429 37.3180 119.9823 -5.1493 -1.4021 2.9986
# 4 1.1255 -4.5031 -5.1493 50.4739 5.5965 -6.1487
# 5 5.0922 16.7321 -1.4021 5.5965 48.4203 4.1000
# 6 17.7571 7.4988 2.9986 -6.1487 4.1000 32.3023
#
#
#
# Elastic Compliance Matrix: (Units=1/GPa)
#
#
# Indices 1 2 3 4 5 6 
#
# 1 0.013111 -0.001080 -0.001159 -0.001336 -0.000287 -0.007067
# 2 -0.001080 0.010460 -0.003100 0.000932 -0.003621 -0.000910
# 3 -0.001159 -0.003100 0.009473 0.000616 0.001361 0.000422
# 4 -0.001336 0.000932 0.000616 0.020906 -0.002988 0.004820
# 5 -0.000287 -0.003621 0.001361 -0.002988 0.022535 -0.002557
# 6 -0.007067 -0.000910 0.000422 0.004820 -0.002557 0.036256
#
#
# Mechanical properties :
#
#
# Convention : Reuss Voigt Hill
#
# Bulk Modulus (GPa) = 44.71200 51.28594 47.99897
# Shear Modulus (GPa) = 38.20440 43.25104 40.72772
#
# Velocity S-wave (km/s) = 3.82008 4.06456 3.94421
# Velocity P-wave (km/s) = 6.04450 6.45115 6.25113
#
# Compressibility (1/GPa) = 0.02236536
#
# Stress axis : x y z
#
# Youngs Moduli (GPa) = 76.27213 95.60667 105.56270
#
# Poissons Ratio (x) = 0.10322 0.12238
# Poissons Ratio (y) = 0.08235 0.32726
# Poissons Ratio (z) = 0.08842 0.29640
#
# Static dielectric constant tensor:
#      x y z
#    x 2.134120 -0.012550 -0.017820 
#    y -0.012550 2.061580 0.054330 
#    z -0.017820 0.054330 2.050730 
# 
# From -- ./inp_files/325701.got.cif
#   From: 2010.05.17/outbox.cif.g08.bks.cpg/sg2_163_cif.got.tgz:325701.got - 2010.06.03 11:33:40.
