data_PCOD9032751
_publ_section_title
;
Structure prediction by ZEFSAII (Michael W. Deem and Ramdas Pophale) SiO2 
 PCOD9032751
Probable space group: P -1
;
_chemical_formula_sum "Si O2"
_cell_formula_units_Z 12
_cell_length_a 5.413470
_cell_length_b 22.149499
_cell_length_c 5.233168
_cell_angle_alpha 102.126538
_cell_angle_beta 100.241389
_cell_angle_gamma 126.594739
_cell_volume 454.367000
_symmetry_space_group_name_H-M "P -1"
_symmetry_group_IT_number 2
_symmetry_cell_setting 'triclinic'
loop_
_space_group_symop_operation_xyz
x,y,z
-x,-y,-z
loop_
_atom_site_type_symbol
_atom_site_label
_atom_site_fract_x
_atom_site_fract_y
_atom_site_fract_z
Si Si1 0.423596 0.592439 0.530001
Si Si2 0.947908 0.166369 0.317189
Si Si3 0.246730 0.255994 0.950721
Si Si4 0.202780 0.444022 0.691057
Si Si5 0.269624 0.134638 0.681676
Si Si6 0.268176 0.018662 0.268184
O O1 0.257878 0.502669 0.525380
O O2 0.739219 0.615265 0.457591
O O3 0.528303 0.650780 0.842822
O O4 0.166854 0.594031 0.323572
O O5 0.437202 0.220284 0.928311
O O6 0.602983 0.076173 0.217435
O O7 0.216388 0.155834 0.409606
O O8 0.998725 0.208015 0.100676
O O9 0.038485 0.225792 0.624890
O O10 0.500000 0.500000 0.000000
O O11 0.347789 0.077508 0.574121
O O12 0.915522 0.069159 0.712016
O O13 0.000000 0.000000 0.000000
#
# Coordination Sequence:
#
# PCOD9032751 Si02
#       6
#     2   2   2   2   2   2
#     4  10  23  44  68 106 139 182 231 286 344 427
#     4  10  24  43  62  89 132 169 225 270 344 401
#     4  10  24  44  63  97 130 178 217 282 350 406
#     4  10  22  43  74 103 138 182 233 278 349 419
#     4   9  23  39  60  93 121 172 221 274 337 394
#     4  11  22  38  65  90 126 172 228 283 336 404
#
# _framework density 26.410367999999998
#
# number of rings (size 3 to 8) (size 9 to 14) (size 15 to 20)
#    1.000    1.000    0.000    2.000    7.000    2.667 
#    3.000    0.000    0.000    0.000    0.000    0.000 
#    0.000    0.000    0.000    0.000    0.000    0.000 
#
# Total GULP energy -66872.602150 kJ/mol
# GULP energy per Si atom -5572.716846 kJ/mol
# Density = 2.635026 g / cm^3
# Si number density = 26.410368 Si / 1000 Ang^3
#
#
#
# Elastic Constant Matrix: (Units=GPa)
#
#
# Indices 1 2 3 4 5 6 
#
# 1 135.4863 9.7819 50.5682 13.0376 0.3672 -21.5598
# 2 9.7819 65.9217 20.4848 3.0659 -11.2495 -14.9428
# 3 50.5682 20.4848 150.5926 15.5754 -9.8544 -17.3390
# 4 13.0376 3.0659 15.5754 54.9135 -11.8181 -9.2422
# 5 0.3672 -11.2495 -9.8544 -11.8181 44.2715 7.2445
# 6 -21.5598 -14.9428 -17.3390 -9.2422 7.2445 20.1452
#
#
#
# Elastic Compliance Matrix: (Units=1/GPa)
#
#
# Indices 1 2 3 4 5 6 
#
# 1 0.009810 0.001191 -0.002408 -0.000502 -0.002056 0.009818
# 2 0.001191 0.018996 -0.001389 0.002014 0.002737 0.014109
# 3 -0.002408 -0.001389 0.008096 -0.001044 0.000764 0.002607
# 4 -0.000502 0.002014 -0.001044 0.020834 0.004539 0.007984
# 5 -0.002056 0.002737 0.000764 0.004539 0.025778 -0.006700
# 6 0.009818 0.014109 0.002607 0.007984 -0.006700 0.078929
#
#
# Mechanical properties :
#
#
# Convention : Reuss Voigt Hill
#
# Bulk Modulus (GPa) = 31.55572 57.07450 44.31511
# Shear Modulus (GPa) = 28.05539 41.94375 34.99957
#
# Velocity S-wave (km/s) = 3.26281 3.98949 3.64431
# Velocity P-wave (km/s) = 5.11554 6.54820 5.87570
#
# Compressibility (1/GPa) = 0.03168997
#
# Stress axis : x y z
#
# Youngs Moduli (GPa) = 101.93766 52.64297 123.51550
#
# Poissons Ratio (x) = -0.06268 0.29745
# Poissons Ratio (y) = -0.12138 0.17150
# Poissons Ratio (z) = 0.24549 0.07310
#
# Static dielectric constant tensor:
#      x y z
#    x 2.265020 0.076930 -0.017700 
#    y 0.076930 2.052820 -0.021820 
#    z -0.017700 -0.021820 2.080570 
# 
# From -- ./inp_files/4877.got.cif
#   From: 2010.05.17/outbox.cif.g08.bks.cpg/sg2_3_cif.got.tgz:4877.got - 2010.06.03 11:33:40.
