data_PCOD9032480
_publ_section_title
;
Structure prediction by ZEFSAII (Michael W. Deem and Ramdas Pophale) SiO2 
 PCOD9032480
Probable space group: P -1
;
_chemical_formula_sum "Si O2"
_cell_formula_units_Z 12
_cell_length_a 18.363058
_cell_length_b 8.857960
_cell_length_c 5.572741
_cell_angle_alpha 58.206269
_cell_angle_beta 104.933115
_cell_angle_gamma 140.962802
_cell_volume 465.395336
_symmetry_space_group_name_H-M "P -1"
_symmetry_group_IT_number 2
_symmetry_cell_setting 'triclinic'
loop_
_space_group_symop_operation_xyz
x,y,z
-x,-y,-z
loop_
_atom_site_type_symbol
_atom_site_label
_atom_site_fract_x
_atom_site_fract_y
_atom_site_fract_z
Si Si1 0.857766 0.531053 0.286631
Si Si2 0.545643 0.285778 0.269021
Si Si3 0.678365 0.077165 0.859439
Si Si4 0.862780 0.215209 0.208333
Si Si5 0.455868 0.619537 0.312510
Si Si6 0.915164 0.942888 0.667936
O O1 0.765196 0.377077 0.555840
O O2 0.842466 0.313112 0.329673
O O3 0.839697 0.651907 0.977318
O O4 0.992939 0.801430 0.273777
O O5 0.604216 0.436788 0.444128
O O6 0.500000 0.000000 0.500000
O O7 0.418514 0.159907 0.226199
O O8 0.608573 0.455491 0.931267
O O9 0.768479 0.098933 0.023262
O O10 0.584217 0.959951 0.086287
O O11 0.850276 0.988688 0.455346
O O12 0.000000 0.500000 0.000000
O O13 0.500000 0.500000 0.500000
O O14 0.000000 0.000000 0.500000
#
# Coordination Sequence:
#
# PCOD9032480 Si02
#       6
#     2   2   2   2   2   2
#     4  11  22  41  61  91 131 175 226 274 323 391
#     4  10  22  43  71  95 130 171 216 275 337 394
#     4  10  24  38  67  92 136 171 221 268 338 392
#     4  12  22  41  65  90 134 180 218 274 329 387
#     4  10  22  44  70  97 133 170 219 275 336 402
#     4  11  23  38  62  89 124 177 229 267 326 385
#
# _framework density 25.78453
#
# number of rings (size 3 to 8) (size 9 to 14) (size 15 to 20)
#    1.000    0.333    3.333    2.500    0.000    0.000 
#    3.000    1.667    0.000    0.000    0.000    0.000 
#    0.000    0.000    0.000    0.000    0.000    0.000 
#
# Total GULP energy -67083.701646 kJ/mol
# GULP energy per Si atom -5590.308471 kJ/mol
# Density = 2.572584 g / cm^3
# Si number density = 25.784530 Si / 1000 Ang^3
#
#
#
# Elastic Constant Matrix: (Units=GPa)
#
#
# Indices 1 2 3 4 5 6 
#
# 1 117.0568 40.1703 71.1562 5.6847 27.6762 0.2302
# 2 40.1703 62.5603 43.7633 6.8850 -1.7553 -7.3542
# 3 71.1562 43.7633 219.9461 22.4451 20.8335 -13.3787
# 4 5.6847 6.8850 22.4451 38.4226 0.6943 -5.7960
# 5 27.6762 -1.7553 20.8335 0.6943 34.9083 -7.3934
# 6 0.2302 -7.3542 -13.3787 -5.7960 -7.3934 49.7368
#
#
#
# Elastic Compliance Matrix: (Units=1/GPa)
#
#
# Indices 1 2 3 4 5 6 
#
# 1 0.016388 -0.009696 -0.002434 0.000358 -0.012890 -0.004039
# 2 -0.009696 0.024959 -0.002523 -0.001072 0.011451 0.004634
# 3 -0.002434 -0.002523 0.006328 -0.002738 -0.001759 0.000760
# 4 0.000358 -0.001072 -0.002738 0.028130 0.001281 0.002572
# 5 -0.012890 0.011451 -0.001759 0.001281 0.042094 0.007686
# 6 -0.004039 0.004634 0.000760 0.002572 0.007686 0.022456
#
#
# Mechanical properties :
#
#
# Convention : Reuss Voigt Hill
#
# Bulk Modulus (GPa) = 54.43614 78.86033 66.64823
# Shear Modulus (GPa) = 28.44395 40.91175 34.67785
#
# Velocity S-wave (km/s) = 3.32496 3.98763 3.67128
# Velocity P-wave (km/s) = 5.99151 7.20086 6.62384
#
# Compressibility (1/GPa) = 0.01837015
#
# Stress axis : x y z
#
# Youngs Moduli (GPa) = 61.02030 40.06522 158.02565
#
# Poissons Ratio (x) = 0.38848 0.38459
# Poissons Ratio (y) = 0.59166 0.39865
# Poissons Ratio (z) = 0.14851 0.10107
#
# Static dielectric constant tensor:
#      x y z
#    x 2.032320 -0.040760 -0.030950 
#    y -0.040760 2.102070 0.037530 
#    z -0.030950 0.037530 2.071830 
# 
# From -- ./inp_files/106320.got.cif
#   From: 2010.05.17/outbox.cif.g08.bks.cpg/sg2_54_cif.got.tgz:106320.got - 2010.06.03 11:33:40.
