data_PCOD9032277
_publ_section_title
;
Structure prediction by ZEFSAII (Michael W. Deem and Ramdas Pophale) SiO2 
 PCOD9032277
Probable space group: P -1
;
_chemical_formula_sum "Si O2"
_cell_formula_units_Z 16
_cell_length_a 12.150366
_cell_length_b 17.165303
_cell_length_c 8.085741
_cell_angle_alpha 121.188416
_cell_angle_beta 126.824847
_cell_angle_gamma 29.233239
_cell_volume 659.194872
_symmetry_space_group_name_H-M "P -1"
_symmetry_group_IT_number 2
_symmetry_cell_setting 'triclinic'
loop_
_space_group_symop_operation_xyz
x,y,z
-x,-y,-z
loop_
_atom_site_type_symbol
_atom_site_label
_atom_site_fract_x
_atom_site_fract_y
_atom_site_fract_z
Si Si1 0.744071 0.134332 0.138600
Si Si2 0.149946 0.194715 0.291288
Si Si3 0.709131 0.133627 0.710040
Si Si4 0.183512 0.360682 0.374671
Si Si5 0.043320 0.362718 0.716992
Si Si6 0.356400 0.503399 0.274737
Si Si7 0.721971 0.335546 0.928197
Si Si8 0.537246 0.062010 0.964505
O O1 0.536511 0.321476 0.195854
O O2 0.711463 0.128141 0.906537
O O3 0.713901 0.055718 0.131458
O O4 0.014294 0.031196 0.284129
O O5 0.111129 0.295807 0.233015
O O6 0.115247 0.264939 0.510300
O O7 0.389409 0.021757 0.239584
O O8 0.950999 0.224704 0.130000
O O9 0.468786 0.212696 0.514566
O O10 0.666718 0.261605 0.762038
O O11 0.000000 0.500000 0.500000
O O12 0.101532 0.467404 0.269175
O O13 0.283581 0.247017 0.907892
O O14 0.862418 0.405231 0.709217
O O15 0.500000 0.500000 0.500000
O O16 0.249764 0.617156 0.151423
O O17 0.500000 0.500000 0.000000
O O18 0.500000 0.000000 0.000000
#
# Coordination Sequence:
#
# PCOD9032277 Si02
#       8
#     2   2   2   2   2   2   2   2
#     4  11  26  44  75 103 148 194 247 299 377 435
#     4  11  24  45  74 103 143 190 247 300 366 438
#     4  11  23  46  74 110 146 192 244 302 369 444
#     4  10  22  43  70 108 142 187 247 301 360 431
#     4  11  26  43  73 103 144 189 243 305 368 428
#     4  12  27  44  68 108 146 189 247 304 367 439
#     4  12  22  43  73 104 144 191 241 304 364 439
#     4  12  27  49  71 109 149 193 245 304 371 439
#
# _framework density 24.272034000000001
#
# number of rings (size 3 to 8) (size 9 to 14) (size 15 to 20)
#    0.000    0.750    2.500    5.625    3.500    1.500 
#    0.000    2.500    0.000    0.000    0.000    0.000 
#    0.000    0.000    0.000    0.000    0.000    0.000 
#
# Total GULP energy -89357.612036 kJ/mol
# GULP energy per Si atom -5584.850752 kJ/mol
# Density = 2.421679 g / cm^3
# Si number density = 24.272034 Si / 1000 Ang^3
#
#
#
# Elastic Constant Matrix: (Units=GPa)
#
#
# Indices 1 2 3 4 5 6 
#
# 1 160.2877 29.1465 31.0944 2.9102 -2.3470 -0.1470
# 2 29.1465 83.7334 32.5726 7.5393 -11.2320 -13.3860
# 3 31.0944 32.5726 65.3130 -5.3875 8.0351 -6.8666
# 4 2.9102 7.5393 -5.3875 43.2695 -4.3044 5.7896
# 5 -2.3470 -11.2320 8.0351 -4.3044 33.9677 -0.0615
# 6 -0.1470 -13.3860 -6.8666 5.7896 -0.0615 46.5061
#
#
#
# Elastic Compliance Matrix: (Units=1/GPa)
#
#
# Indices 1 2 3 4 5 6 
#
# 1 0.007058 -0.001313 -0.002903 -0.000442 0.000683 -0.000728
# 2 -0.001313 0.018037 -0.009174 -0.004028 0.007541 0.004344
# 3 -0.002903 -0.009174 0.022597 0.003774 -0.008101 0.000206
# 4 -0.000442 -0.004028 0.003774 0.024897 0.000893 -0.003702
# 5 0.000683 0.007541 -0.008101 0.000893 0.034012 0.000910
# 6 -0.000728 0.004344 0.000206 -0.003702 0.000910 0.023243
#
#
# Mechanical properties :
#
#
# Convention : Reuss Voigt Hill
#
# Bulk Modulus (GPa) = 47.81355 54.99568 51.40461
# Shear Modulus (GPa) = 30.56378 39.18338 34.87358
#
# Velocity S-wave (km/s) = 3.55240 4.02225 3.79460
# Velocity P-wave (km/s) = 6.04713 6.65421 6.35792
#
# Compressibility (1/GPa) = 0.02091457
#
# Stress axis : x y z
#
# Youngs Moduli (GPa) = 141.68523 55.44208 44.25305
#
# Poissons Ratio (x) = 0.07278 0.12845
# Poissons Ratio (y) = 0.18599 0.40596
# Poissons Ratio (z) = 0.41125 0.50860
#
# Static dielectric constant tensor:
#      x y z
#    x 1.844500 -0.088830 -0.049450 
#    y -0.088830 1.884350 -0.089280 
#    z -0.049450 -0.089280 1.880000 
# 
# From -- ./inp_files/279733.got.cif
#   From: 2010.05.17/outbox.cif.g08.bks.cpg/sg2_140_cif.got.tgz:279733.got - 2010.06.03 11:33:40.
