data_PCOD9032397
_publ_section_title
;
Structure prediction by ZEFSAII (Michael W. Deem and Ramdas Pophale) SiO2 
 PCOD9032397
Probable space group: P -1
;
_chemical_formula_sum "Si O2"
_cell_formula_units_Z 14
_cell_length_a 9.463366
_cell_length_b 15.073424
_cell_length_c 15.898719
_cell_angle_alpha 153.444381
_cell_angle_beta 39.880172
_cell_angle_gamma 141.374795
_cell_volume 613.497260
_symmetry_space_group_name_H-M "P -1"
_symmetry_group_IT_number 2
_symmetry_cell_setting 'triclinic'
loop_
_space_group_symop_operation_xyz
x,y,z
-x,-y,-z
loop_
_atom_site_type_symbol
_atom_site_label
_atom_site_fract_x
_atom_site_fract_y
_atom_site_fract_z
Si Si1 0.779375 0.047229 0.400771
Si Si2 0.408100 0.696403 0.696830
Si Si3 0.201231 0.540230 0.825913
Si Si4 0.847900 0.916571 0.600241
Si Si5 0.341795 0.310812 0.970719
Si Si6 0.724628 0.280900 0.884763
Si Si7 0.018703 0.491890 0.383646
O O1 0.901935 0.274594 0.495309
O O2 0.913719 0.043893 0.423828
O O3 0.500000 0.000000 0.500000
O O4 0.809497 0.869523 0.174730
O O5 0.500000 0.500000 0.500000
O O6 0.267604 0.684986 0.837060
O O7 0.636757 0.892152 0.741986
O O8 0.231208 0.645492 0.656795
O O9 0.224608 0.313427 0.603662
O O10 0.928314 0.480632 0.923101
O O11 0.342820 0.644438 0.931758
O O12 0.833617 0.098712 0.699832
O O13 0.514162 0.215994 0.861916
O O14 0.500000 0.500000 0.000000
O O15 0.201112 0.392247 0.173894
O O16 0.000000 0.500000 0.500000
#
# Coordination Sequence:
#
# PCOD9032397 Si02
#       7
#     2   2   2   2   2   2   2
#     4  12  26  48  79 107 146 198 244 301 375 432
#     4  10  22  47  72  96 145 189 234 288 365 432
#     4  10  22  43  71 101 140 180 239 294 358 409
#     4  11  25  45  73 106 139 187 242 296 356 433
#     4  12  28  48  75 106 152 195 244 300 372 438
#     4  11  26  41  73 109 135 182 248 298 347 431
#     4  12  28  49  74 109 153 194 242 305 368 435
#
# _framework density 22.819987000000001
#
# number of rings (size 3 to 8) (size 9 to 14) (size 15 to 20)
#    0.000    0.857    4.286    2.143   12.000    1.143 
#    0.000    0.000    0.000    0.000    0.000    0.000 
#    0.000    0.000    0.000    0.000    0.000    0.000 
#
# Total GULP energy -78300.860523 kJ/mol
# GULP energy per Si atom -5592.918609 kJ/mol
# Density = 2.276805 g / cm^3
# Si number density = 22.819987 Si / 1000 Ang^3
#
#
#
# Elastic Constant Matrix: (Units=GPa)
#
#
# Indices 1 2 3 4 5 6 
#
# 1 144.6116 32.2421 51.3627 -15.8009 -6.3932 -6.1048
# 2 32.2421 80.9025 15.3411 -22.4390 -6.1042 -5.5578
# 3 51.3627 15.3411 125.9850 -0.5989 14.2694 -10.1225
# 4 -15.8009 -22.4390 -0.5989 39.0911 -4.5464 5.0625
# 5 -6.3932 -6.1042 14.2694 -4.5464 37.3868 -5.1019
# 6 -6.1048 -5.5578 -10.1225 5.0625 -5.1019 31.1942
#
#
#
# Elastic Compliance Matrix: (Units=1/GPa)
#
#
# Indices 1 2 3 4 5 6 
#
# 1 0.009154 -0.001868 -0.003822 0.002897 0.003106 0.000256
# 2 -0.001868 0.016264 -0.001548 0.008878 0.004180 0.001273
# 3 -0.003822 -0.001548 0.010397 -0.003117 -0.004975 0.002042
# 4 0.002897 0.008878 -0.003117 0.032986 0.006721 -0.003117
# 5 0.003106 0.004180 -0.004975 0.006721 0.031189 0.003749
# 6 0.000256 0.001273 0.002042 -0.003117 0.003749 0.034116
#
#
# Mechanical properties :
#
#
# Convention : Reuss Voigt Hill
#
# Bulk Modulus (GPa) = 46.86229 61.04341 53.95285
# Shear Modulus (GPa) = 32.11444 38.37131 35.24288
#
# Velocity S-wave (km/s) = 3.75546 4.10503 3.93413
# Velocity P-wave (km/s) = 6.27574 7.01972 6.65813
#
# Compressibility (1/GPa) = 0.02133912
#
# Stress axis : x y z
#
# Youngs Moduli (GPa) = 109.24590 61.48643 96.18320
#
# Poissons Ratio (x) = 0.11484 0.36760
# Poissons Ratio (y) = 0.20404 0.14889
# Poissons Ratio (z) = 0.41753 0.09518
#
# Static dielectric constant tensor:
#      x y z
#    x 1.827010 0.019070 0.017930 
#    y 0.019070 1.802590 -0.111910 
#    z 0.017930 -0.111910 1.907350 
# 
# From -- ./inp_files/505662.got.cif
#   From: 2010.05.17/outbox.cif.g08.bks.cpg/sg2_253_cif.got.tgz:505662.got - 2010.06.03 11:33:40.
