data_PCOD9032253
_publ_section_title
;
Structure prediction by ZEFSAII (Michael W. Deem and Ramdas Pophale) SiO2 
 PCOD9032253
Probable space group: P -1
;
_chemical_formula_sum "Si O2"
_cell_formula_units_Z 12
_cell_length_a 11.454833
_cell_length_b 10.328941
_cell_length_c 10.213527
_cell_angle_alpha 26.886000
_cell_angle_beta 129.589118
_cell_angle_gamma 126.570048
_cell_volume 419.824335
_symmetry_space_group_name_H-M "P -1"
_symmetry_group_IT_number 2
_symmetry_cell_setting 'triclinic'
loop_
_space_group_symop_operation_xyz
x,y,z
-x,-y,-z
loop_
_atom_site_type_symbol
_atom_site_label
_atom_site_fract_x
_atom_site_fract_y
_atom_site_fract_z
Si Si1 0.477006 0.653387 0.165431
Si Si2 0.268113 0.121049 0.383530
Si Si3 0.597334 0.771281 0.881037
Si Si4 0.741311 0.356235 0.764967
Si Si5 0.112607 0.141237 0.846976
Si Si6 0.952566 0.400287 0.257247
O O1 0.381293 0.356692 0.323990
O O2 0.507299 0.841872 0.886123
O O3 0.632718 0.557475 0.426408
O O4 0.370370 0.783602 0.078870
O O5 0.174973 0.858870 0.627145
O O6 0.348733 0.035484 0.380336
O O7 0.133608 0.314799 0.066111
O O8 0.753372 0.682495 0.137712
O O9 0.500000 0.500000 0.000000
O O10 0.889360 0.541501 0.762188
O O11 0.808265 0.112035 0.944871
O O12 0.022095 0.323612 0.516805
O O13 0.000000 0.000000 0.000000
#
# Coordination Sequence:
#
# PCOD9032253 Si02
#       6
#     2   2   2   2   2   2
#     4  10  25  47  69 109 148 197 234 304 362 447
#     4  11  26  47  74 110 145 190 249 302 365 423
#     4  10  22  43  70 104 144 185 239 296 363 421
#     4  11  25  47  74 105 148 193 246 293 374 431
#     4  12  24  44  75 108 143 191 248 306 353 437
#     4  12  24  47  73 109 142 194 245 300 364 426
#
# _framework density 28.583383999999999
#
# number of rings (size 3 to 8) (size 9 to 14) (size 15 to 20)
#    0.000    1.000    5.000    0.000    2.333    6.000 
#    3.000    5.833    0.000    0.000    0.000    0.000 
#    0.000    0.000    0.000    0.000    0.000    0.000 
#
# Total GULP energy -67331.610671 kJ/mol
# GULP energy per Si atom -5610.967556 kJ/mol
# Density = 2.851833 g / cm^3
# Si number density = 28.583384 Si / 1000 Ang^3
#
#
#
# Elastic Constant Matrix: (Units=GPa)
#
#
# Indices 1 2 3 4 5 6 
#
# 1 235.7851 41.6129 60.2099 -9.9156 3.2374 7.0481
# 2 41.6129 143.8293 26.6951 4.1374 12.5325 43.4261
# 3 60.2099 26.6951 135.3408 -16.2279 4.8750 -9.5946
# 4 -9.9156 4.1374 -16.2279 39.1650 -0.4599 -9.4344
# 5 3.2374 12.5325 4.8750 -0.4599 49.8354 0.5157
# 6 7.0481 43.4261 -9.5946 -9.4344 0.5157 62.5150
#
#
#
# Elastic Compliance Matrix: (Units=1/GPa)
#
#
# Indices 1 2 3 4 5 6 
#
# 1 0.004949 -0.001105 -0.001920 0.000576 0.000150 0.000001
# 2 -0.001105 0.010604 -0.002649 -0.004527 -0.002291 -0.008312
# 3 -0.001920 -0.002649 0.009651 0.004819 -0.000153 0.004266
# 4 0.000576 -0.004527 0.004819 0.030179 0.000822 0.008367
# 5 0.000150 -0.002291 -0.000153 0.000822 0.020640 0.001505
# 6 0.000001 -0.008312 0.004266 0.008367 0.001505 0.023675
#
#
# Mechanical properties :
#
#
# Convention : Reuss Voigt Hill
#
# Bulk Modulus (GPa) = 72.17762 85.77676 78.97719
# Shear Modulus (GPa) = 43.22867 56.06559 49.64713
#
# Velocity S-wave (km/s) = 3.89314 4.43366 4.17216
# Velocity P-wave (km/s) = 6.74649 7.50228 7.13440
#
# Compressibility (1/GPa) = 0.01385471
#
# Stress axis : x y z
#
# Youngs Moduli (GPa) = 202.07764 94.30608 103.61514
#
# Poissons Ratio (x) = 0.10424 0.19891
# Poissons Ratio (y) = 0.22336 0.27451
# Poissons Ratio (z) = 0.38793 0.24985
#
# Static dielectric constant tensor:
#      x y z
#    x 2.320020 0.020210 0.017410 
#    y 0.020210 2.266220 0.055320 
#    z 0.017410 0.055320 2.174370 
# 
# From -- ./inp_files/61882.got.cif
#   From: 2010.05.17/outbox.cif.g08.bks.cpg/sg2_31_cif.got.tgz:61882.got - 2010.06.03 11:33:40.
