data_PCOD9032380
_publ_section_title
;
Structure prediction by ZEFSAII (Michael W. Deem and Ramdas Pophale) SiO2 
 PCOD9032380
Probable space group: P -1
;
_chemical_formula_sum "Si O2"
_cell_formula_units_Z 12
_cell_length_a 8.782048
_cell_length_b 10.421526
_cell_length_c 11.970435
_cell_angle_alpha 51.169673
_cell_angle_beta 142.646471
_cell_angle_gamma 130.681502
_cell_volume 489.770988
_symmetry_space_group_name_H-M "P -1"
_symmetry_group_IT_number 2
_symmetry_cell_setting 'triclinic'
loop_
_space_group_symop_operation_xyz
x,y,z
-x,-y,-z
loop_
_atom_site_type_symbol
_atom_site_label
_atom_site_fract_x
_atom_site_fract_y
_atom_site_fract_z
Si Si1 0.358383 0.953647 0.778759
Si Si2 0.262957 0.540421 0.403874
Si Si3 0.809813 0.452767 0.024665
Si Si4 0.196731 0.388321 0.660688
Si Si5 0.405738 0.106991 0.481483
Si Si6 0.125590 0.012573 0.839006
O O1 0.257859 0.750244 0.866025
O O2 0.304553 0.998669 0.596770
O O3 0.262808 0.039867 0.781794
O O4 0.676624 0.025032 0.937977
O O5 0.500000 0.500000 0.500000
O O6 0.174107 0.373921 0.522467
O O7 0.391142 0.713158 0.456989
O O8 0.012165 0.554741 0.182554
O O9 0.513076 0.467862 0.831589
O O10 0.000000 0.500000 0.000000
O O11 0.093715 0.195787 0.755626
O O12 0.000000 0.500000 0.500000
O O13 0.500000 0.000000 0.500000
O O14 0.150613 0.135648 0.259066
#
# Coordination Sequence:
#
# PCOD9032380 Si02
#       6
#     2   2   2   2   2   2
#     4  10  23  43  73 100 137 186 245 295 350 430
#     4  12  24  41  73 105 139 188 246 295 355 434
#     4  11  24  44  75 106 138 185 246 305 356 421
#     4  11  24  44  69 104 145 183 239 298 364 425
#     4  12  26  43  67 106 150 186 227 295 370 429
#     4  10  22  43  71 100 137 188 241 294 357 421
#
# _framework density 24.501249999999999
#
# number of rings (size 3 to 8) (size 9 to 14) (size 15 to 20)
#    0.000    1.000    1.667    4.500    4.667    1.333 
#    0.000    3.333    0.000    0.000    0.000    0.000 
#    0.000    0.000    0.000    0.000    0.000    0.000 
#
# Total GULP energy -66973.389507 kJ/mol
# GULP energy per Si atom -5581.115792 kJ/mol
# Density = 2.444548 g / cm^3
# Si number density = 24.501250 Si / 1000 Ang^3
#
#
#
# Elastic Constant Matrix: (Units=GPa)
#
#
# Indices 1 2 3 4 5 6 
#
# 1 28.6000 14.1491 7.4935 2.3404 20.6976 1.7541
# 2 14.1491 139.9040 54.6686 21.0157 19.1411 6.1968
# 3 7.4935 54.6686 156.8453 40.0484 38.5732 10.4732
# 4 2.3404 21.0157 40.0484 52.9901 5.4494 7.3650
# 5 20.6976 19.1411 38.5732 5.4494 45.3928 -5.6167
# 6 1.7541 6.1968 10.4732 7.3650 -5.6167 42.4699
#
#
#
# Elastic Compliance Matrix: (Units=1/GPa)
#
#
# Indices 1 2 3 4 5 6 
#
# 1 0.058966 -0.003798 0.007612 -0.002460 -0.032400 -0.007617
# 2 -0.003798 0.008700 -0.002598 -0.001335 0.000408 -0.000186
# 3 0.007612 -0.002598 0.011740 -0.006490 -0.011980 -0.003289
# 4 -0.002460 -0.001335 -0.006490 0.024242 0.004070 -0.001769
# 5 -0.032400 0.000408 -0.011980 0.004070 0.047537 0.009814
# 6 -0.007617 -0.000186 -0.003289 -0.001769 0.009814 0.026304
#
#
# Mechanical properties :
#
#
# Convention : Reuss Voigt Hill
#
# Bulk Modulus (GPa) = 12.21932 53.10797 32.66365
# Shear Modulus (GPa) = 24.71132 44.77308 34.74220
#
# Velocity S-wave (km/s) = 3.17925 4.27942 3.76969
# Velocity P-wave (km/s) = 4.29824 6.79269 5.68399
#
# Compressibility (1/GPa) = 0.08183761
#
# Stress axis : x y z
#
# Youngs Moduli (GPa) = 16.95898 114.94204 85.17543
#
# Poissons Ratio (x) = 0.43655 -0.64832
# Poissons Ratio (y) = 0.06441 0.22128
# Poissons Ratio (z) = -0.12908 0.29861
#
# Static dielectric constant tensor:
#      x y z
#    x 1.951430 0.015680 0.032790 
#    y 0.015680 1.988640 -0.014080 
#    z 0.032790 -0.014080 1.965970 
# 
# From -- ./inp_files/381554.got.cif
#   From: 2010.05.17/outbox.cif.g08.bks.cpg/sg2_191_cif.got.tgz:381554.got - 2010.06.03 11:33:40.
