data_PCOD9032315
_publ_section_title
;
Structure prediction by ZEFSAII (Michael W. Deem and Ramdas Pophale) SiO2 
 PCOD9032315
Probable space group: P -1
;
_chemical_formula_sum "Si O2"
_cell_formula_units_Z 16
_cell_length_a 16.320901
_cell_length_b 8.127070
_cell_length_c 9.473126
_cell_angle_alpha 109.967398
_cell_angle_beta 141.544683
_cell_angle_gamma 70.182452
_cell_volume 728.931313
_symmetry_space_group_name_H-M "P -1"
_symmetry_group_IT_number 2
_symmetry_cell_setting 'triclinic'
loop_
_space_group_symop_operation_xyz
x,y,z
-x,-y,-z
loop_
_atom_site_type_symbol
_atom_site_label
_atom_site_fract_x
_atom_site_fract_y
_atom_site_fract_z
Si Si1 0.146509 0.942019 0.734039
Si Si2 0.082959 0.562207 0.497718
Si Si3 0.765392 0.700872 0.587296
Si Si4 0.586693 0.625103 0.737961
Si Si5 0.138030 0.279967 0.979315
Si Si6 0.460972 0.013298 0.615727
Si Si7 0.456917 0.534896 0.793074
Si Si8 0.608805 0.096195 0.095066
O O1 0.158524 0.729283 0.696980
O O2 0.247192 0.002576 0.770043
O O3 0.000000 0.000000 0.500000
O O4 0.163525 0.067430 0.926825
O O5 0.174680 0.397532 0.500874
O O6 0.000000 0.500000 0.500000
O O7 0.984140 0.638983 0.259154
O O8 0.867766 0.687116 0.851393
O O9 0.689530 0.899677 0.532788
O O10 0.641256 0.597024 0.433116
O O11 0.500000 0.500000 0.500000
O O12 0.731879 0.640957 0.880431
O O13 0.582500 0.554132 0.870455
O O14 0.503709 0.817791 0.672779
O O15 0.500000 0.000000 0.500000
O O16 0.551442 0.127582 0.867433
O O17 0.374496 0.728068 0.747424
O O18 0.500000 0.500000 0.000000
O O19 0.500000 0.000000 0.000000
#
# Coordination Sequence:
#
# PCOD9032315 Si02
#       8
#     2   2   2   2   2   2   2   2
#     4  10  22  43  70  96 137 188 232 292 360 419
#     4  11  27  47  72 102 138 189 250 298 350 430
#     4  12  24  45  69 101 142 188 234 292 363 423
#     4  12  24  43  68 106 143 183 232 293 371 433
#     4  11  23  46  72  98 142 189 236 290 359 434
#     4  12  23  41  66 102 144 180 230 296 364 429
#     4  12  24  38  65 104 137 182 229 290 356 425
#     4  12  22  39  66 101 138 179 236 295 357 422
#
# _framework density 21.949943000000001
#
# number of rings (size 3 to 8) (size 9 to 14) (size 15 to 20)
#    0.000    0.500    7.500    0.375    1.750    2.000 
#    2.250    0.625    0.000    0.000    0.000    0.000 
#    0.000    0.000    0.000    0.000    0.000    0.000 
#
# Total GULP energy -89293.716978 kJ/mol
# GULP energy per Si atom -5580.857311 kJ/mol
# Density = 2.189998 g / cm^3
# Si number density = 21.949943 Si / 1000 Ang^3
#
#
#
# Elastic Constant Matrix: (Units=GPa)
#
#
# Indices 1 2 3 4 5 6 
#
# 1 123.2123 14.3752 12.1021 0.4423 -3.0367 -5.5039
# 2 14.3752 64.9067 2.2773 10.0665 7.6618 -11.2739
# 3 12.1021 2.2773 72.4623 8.4311 -0.5030 3.0626
# 4 0.4423 10.0665 8.4311 41.8281 -3.3025 1.8873
# 5 -3.0367 7.6618 -0.5030 -3.3025 33.3588 -2.0477
# 6 -5.5039 -11.2739 3.0626 1.8873 -2.0477 33.3025
#
#
#
# Elastic Compliance Matrix: (Units=1/GPa)
#
#
# Indices 1 2 3 4 5 6 
#
# 1 0.008562 -0.001956 -0.001485 0.000743 0.001337 0.000930
# 2 -0.001956 0.018150 0.000058 -0.004975 -0.004481 0.005822
# 3 -0.001485 0.000058 0.014438 -0.002869 -0.000301 -0.001409
# 4 0.000743 -0.004975 -0.002869 0.026074 0.003592 -0.002555
# 5 0.001337 -0.004481 -0.000301 0.003592 0.031508 0.000465
# 6 0.000930 0.005822 -0.001409 -0.002555 0.000465 0.032455
#
#
# Mechanical properties :
#
#
# Convention : Reuss Voigt Hill
#
# Bulk Modulus (GPa) = 29.08337 35.34336 32.21337
# Shear Modulus (GPa) = 33.46431 37.15300 35.30865
#
# Velocity S-wave (km/s) = 3.90882 4.11861 4.01509
# Velocity P-wave (km/s) = 5.80090 6.22528 6.01683
#
# Compressibility (1/GPa) = 0.03438391
#
# Stress axis : x y z
#
# Youngs Moduli (GPa) = 116.79639 55.09734 69.26309
#
# Poissons Ratio (x) = 0.10776 0.10285
# Poissons Ratio (y) = 0.22842 -0.00401
# Poissons Ratio (z) = 0.17344 -0.00319
#
# Static dielectric constant tensor:
#      x y z
#    x 1.824890 -0.016470 -0.012070 
#    y -0.016470 1.890890 0.006310 
#    z -0.012070 0.006310 1.838050 
# 
# From -- ./inp_files/299383.got.cif
#   From: 2010.05.17/outbox.cif.g08.bks.cpg/sg2_150_cif.got.tgz:299383.got - 2010.06.03 11:33:40.
