data_PCOD9032093
_publ_section_title
;
Structure prediction by ZEFSAII (Michael W. Deem and Ramdas Pophale) SiO2 
 PCOD9032093
Probable space group: P -1
;
_chemical_formula_sum "Si O2"
_cell_formula_units_Z 12
_cell_length_a 25.481789
_cell_length_b 22.038703
_cell_length_c 11.883894
_cell_angle_alpha 25.419115
_cell_angle_beta 152.354929
_cell_angle_gamma 170.710193
_cell_volume 460.972183
_symmetry_space_group_name_H-M "P -1"
_symmetry_group_IT_number 2
_symmetry_cell_setting 'triclinic'
loop_
_space_group_symop_operation_xyz
x,y,z
-x,-y,-z
loop_
_atom_site_type_symbol
_atom_site_label
_atom_site_fract_x
_atom_site_fract_y
_atom_site_fract_z
Si Si1 0.466677 0.225087 0.575266
Si Si2 0.812301 0.963306 0.838649
Si Si3 0.414474 0.152063 0.989870
Si Si4 0.367051 0.774967 0.925760
Si Si5 0.677365 0.036704 0.630315
Si Si6 0.187058 0.152104 0.307495
O O1 0.217453 0.952329 0.455009
O O2 0.374965 0.247974 0.443286
O O3 0.447374 0.059986 0.887386
O O4 0.842415 0.689541 0.473531
O O5 0.776163 0.000022 0.828427
O O6 0.500000 0.500000 0.000000
O O7 0.087275 0.165550 0.012999
O O8 0.558565 0.247849 0.994420
O O9 0.495982 0.165538 0.239169
O O10 0.582811 0.499997 0.748444
O O11 0.021714 0.689512 0.011548
O O12 0.472443 0.047690 0.614638
O O13 0.000000 0.500000 0.500000
#
# Coordination Sequence:
#
# PCOD9032093 Si02
#       6
#     2   2   2   2   2   2
#     4  11  24  40  62  96 134 170 211 266 330 390
#     4  10  22  43  69  96 129 171 221 269 318 383
#     4  11  22  41  66  94 129 173 223 269 317 380
#     4  11  24  40  62  96 134 170 211 266 330 390
#     4  10  22  43  69  96 129 171 221 269 318 383
#     4  11  22  41  66  94 129 173 223 269 317 380
#
# _framework density 26.031939000000001
#
# number of rings (size 3 to 8) (size 9 to 14) (size 15 to 20)
#    0.000    1.333    0.000    7.000    0.000    7.333 
#    0.000    0.000    0.000   11.000    0.000    0.000 
#    0.000    0.000    0.000    0.000    0.000    0.000 
#
# Total GULP energy -67137.499236 kJ/mol
# GULP energy per Si atom -5594.791603 kJ/mol
# Density = 2.597269 g / cm^3
# Si number density = 26.031939 Si / 1000 Ang^3
#
#
#
# Elastic Constant Matrix: (Units=GPa)
#
#
# Indices 1 2 3 4 5 6 
#
# 1 102.9860 3.7684 70.1761 -0.5246 57.3228 25.7200
# 2 3.7684 80.1183 7.2387 -11.5129 6.9084 29.7645
# 3 70.1761 7.2387 94.1890 51.1990 -76.7107 -29.0528
# 4 -0.5246 -11.5129 51.1990 23.2823 -11.6686 4.3228
# 5 57.3228 6.9084 -76.7107 -11.6686 35.7049 -8.8715
# 6 25.7200 29.7645 -29.0528 4.3228 -8.8715 23.9826
#
#
#
# Elastic Compliance Matrix: (Units=1/GPa)
#
#
# Indices 1 2 3 4 5 6 
#
# 1 0.006117 -0.005412 0.004477 -0.014848 -0.002153 0.007460
# 2 -0.005412 0.017269 0.002175 0.011153 0.010943 -0.010956
# 3 0.004477 0.002175 0.001772 -0.005011 -0.007208 -0.007118
# 4 -0.014848 0.011153 -0.005011 0.077645 0.035041 -0.005022
# 5 -0.002153 0.010943 -0.007208 0.035041 0.020672 -0.018673
# 6 0.007460 -0.010956 -0.007118 -0.005022 -0.018673 0.032669
#
#
# Mechanical properties :
#
#
# Convention : Reuss Voigt Hill
#
# Bulk Modulus (GPa) = 36.18112 48.85110 42.51611
# Shear Modulus (GPa) = 30.69821 29.66798 30.18309
#
# Velocity S-wave (km/s) = 3.43775 3.37957 3.40878
# Velocity P-wave (km/s) = 5.44852 5.83397 5.64454
#
# Compressibility (1/GPa) = 0.02763872
#
# Stress axis : x y z
#
# Youngs Moduli (GPa) = 163.48312 57.90754 564.37249
#
# Poissons Ratio (x) = 0.31338 -2.52682
# Poissons Ratio (y) = 0.88472 -1.22753
# Poissons Ratio (z) = -0.73195 -0.12595
#
# Static dielectric constant tensor:
#      x y z
#    x 1.996480 -0.033450 -0.085840 
#    y -0.033450 2.193950 -0.008510 
#    z -0.085840 -0.008510 2.180270 
# 
# From -- ./inp_files/408531.got.cif
#   From: 2010.05.17/outbox.cif.g08.bks.cpg/sg2_205_cif.got.tgz:408531.got - 2010.06.03 11:33:40.
