data_PCOD9032722
_publ_section_title
;
Structure prediction by ZEFSAII (Michael W. Deem and Ramdas Pophale) SiO2 
 PCOD9032722
Probable space group: P -1
;
_chemical_formula_sum "Si O2"
_cell_formula_units_Z 16
_cell_length_a 5.780055
_cell_length_b 22.746561
_cell_length_c 8.931597
_cell_angle_alpha 53.558050
_cell_angle_beta 126.989693
_cell_angle_gamma 127.543385
_cell_volume 694.119055
_symmetry_space_group_name_H-M "P -1"
_symmetry_group_IT_number 2
_symmetry_cell_setting 'triclinic'
loop_
_space_group_symop_operation_xyz
x,y,z
-x,-y,-z
loop_
_atom_site_type_symbol
_atom_site_label
_atom_site_fract_x
_atom_site_fract_y
_atom_site_fract_z
Si Si1 0.113663 0.285355 0.998554
Si Si2 0.385686 0.099945 0.380040
Si Si3 0.497541 0.229868 0.445438
Si Si4 0.166394 0.267756 0.722384
Si Si5 0.646339 0.056400 0.238944
Si Si6 0.613443 0.437392 0.565141
Si Si7 0.251759 0.465677 0.826916
Si Si8 0.591253 0.839565 0.170091
O O1 0.267309 0.268917 0.234295
O O2 0.258347 0.266161 0.932699
O O3 0.212916 0.379593 0.882647
O O4 0.744352 0.227250 0.922886
O O5 0.558503 0.184403 0.396041
O O6 0.540689 0.093442 0.290638
O O7 0.011157 0.087075 0.273268
O O8 0.426033 0.032581 0.602370
O O9 0.358294 0.170328 0.619861
O O10 0.842127 0.281627 0.564259
O O11 0.406882 0.344546 0.617686
O O12 0.153631 0.185412 0.775173
O O13 0.439305 0.077870 0.001414
O O14 0.500000 0.500000 0.500000
O O15 0.688146 0.469378 0.377366
O O16 0.900986 0.446247 0.772412
O O17 0.500000 0.500000 0.000000
#
# Coordination Sequence:
#
# PCOD9032722 Si02
#       8
#     2   2   2   2   2   2   2   2
#     4  11  23  44  61  93 132 168 214 274 335 397
#     4  10  22  44  70 104 134 184 225 281 334 410
#     4  11  26  39  68 100 131 169 229 271 329 407
#     4  11  25  42  64  93 131 172 217 275 340 397
#     4  10  22  43  73  97 142 181 225 275 348 398
#     4  11  24  45  62  88 129 166 213 276 335 396
#     4  11  26  40  66  91 123 168 220 273 335 403
#     4  11  24  42  66  96 131 178 214 274 335 397
#
# _framework density 23.050802000000001
#
# number of rings (size 3 to 8) (size 9 to 14) (size 15 to 20)
#    0.000    1.250    3.750    0.750    7.000    3.000 
#    0.000    0.625    0.000    0.000    0.000    0.000 
#    0.000    0.000    0.000    0.000    0.000    0.000 
#
# Total GULP energy -89188.248601 kJ/mol
# GULP energy per Si atom -5574.265538 kJ/mol
# Density = 2.299834 g / cm^3
# Si number density = 23.050802 Si / 1000 Ang^3
#
#
#
# Elastic Constant Matrix: (Units=GPa)
#
#
# Indices 1 2 3 4 5 6 
#
# 1 64.9694 -0.0855 20.5643 -0.9889 6.5513 -13.9745
# 2 -0.0855 20.5902 -0.8134 0.1235 1.5386 -3.6428
# 3 20.5643 -0.8134 136.5880 0.3642 -1.2479 7.1317
# 4 -0.9889 0.1235 0.3642 34.9292 2.6424 2.5351
# 5 6.5513 1.5386 -1.2479 2.6424 31.4928 -5.3961
# 6 -13.9745 -3.6428 7.1317 2.5351 -5.3961 30.8603
#
#
#
# Elastic Compliance Matrix: (Units=1/GPa)
#
#
# Indices 1 2 3 4 5 6 
#
# 1 0.018615 0.001719 -0.003283 0.000101 -0.002564 0.008934
# 2 0.001719 0.049835 -0.000314 -0.000470 -0.001654 0.006483
# 3 -0.003283 -0.000314 0.007990 0.000030 0.000448 -0.003294
# 4 0.000101 -0.000470 0.000030 0.029067 -0.002936 -0.002918
# 5 -0.002564 -0.001654 0.000448 -0.002936 0.033424 0.004626
# 6 0.008934 0.006483 -0.003294 -0.002918 0.004626 0.039025
#
#
# Mechanical properties :
#
#
# Convention : Reuss Voigt Hill
#
# Bulk Modulus (GPa) = 13.75817 29.05315 21.40566
# Shear Modulus (GPa) = 24.27897 32.95527 28.61712
#
# Velocity S-wave (km/s) = 3.24895 3.78521 3.52729
# Velocity P-wave (km/s) = 4.47837 5.63339 5.08876
#
# Compressibility (1/GPa) = 0.07268411
#
# Stress axis : x y z
#
# Youngs Moduli (GPa) = 53.72033 20.06622 125.16217
#
# Poissons Ratio (x) = -0.03450 0.41085
# Poissons Ratio (y) = -0.09236 0.03936
# Poissons Ratio (z) = 0.17634 0.00631
#
# Static dielectric constant tensor:
#      x y z
#    x 1.950710 0.044540 0.024900 
#    y 0.044540 1.911610 -0.015170 
#    z 0.024900 -0.015170 1.893230 
# 
# From -- ./inp_files/12740.got.cif
#   From: 2010.05.17/outbox.cif.g08.bks.cpg/sg2_7_cif.got.tgz:12740.got - 2010.06.03 11:33:40.
