data_PCOD9032800
_publ_section_title
;
Structure prediction by ZEFSAII (Michael W. Deem and Ramdas Pophale) SiO2 
 PCOD9032800
Probable space group: P -1
;
_chemical_formula_sum "Si O2"
_cell_formula_units_Z 11
_cell_length_a 15.029350
_cell_length_b 5.538283
_cell_length_c 5.103641
_cell_angle_alpha 91.626435
_cell_angle_beta 88.299225
_cell_angle_gamma 70.199474
_cell_volume 399.185017
_symmetry_space_group_name_H-M "P -1"
_symmetry_group_IT_number 2
_symmetry_cell_setting 'triclinic'
loop_
_space_group_symop_operation_xyz
x,y,z
-x,-y,-z
loop_
_atom_site_type_symbol
_atom_site_label
_atom_site_fract_x
_atom_site_fract_y
_atom_site_fract_z
Si Si1 0.067543 0.928761 0.737507
Si Si2 0.731690 0.491824 0.807561
Si Si3 0.682095 0.247175 0.294560
Si Si4 0.110186 0.396150 0.900411
Si Si5 0.592183 0.986547 0.647948
Si Si6 0.500000 0.500000 0.000000
O O1 0.126956 0.121690 0.757882
O O2 0.113035 0.623059 0.718413
O O3 0.000000 0.000000 0.500000
O O4 0.000000 0.000000 0.000000
O O5 0.726681 0.360732 0.530289
O O6 0.632214 0.731582 0.816297
O O7 0.733708 0.285229 0.025258
O O8 0.815168 0.602025 0.878391
O O9 0.574246 0.428671 0.246050
O O10 0.668846 0.995557 0.420944
O O11 0.000000 0.500000 0.000000
O O12 0.500000 0.000000 0.500000
O O13 0.434579 0.770818 0.152416
#
# Coordination Sequence:
#
# PCOD9032800 Si02
#       6
#     2   2   2   2   2   1
#     4  10  22  43  75 106 144 196 259 320 392 468
#     4  12  29  48  76 113 158 211 263 335 403 480
#     4  12  27  49  72 115 155 199 270 324 396 487
#     4  10  25  50  77 115 157 212 267 334 404 480
#     4  12  27  50  79 111 160 209 262 333 408 484
#     4  12  24  50  76 112 152 204 266 322 398 490
#
# _framework density 27.556145000000001
#
# number of rings (size 3 to 8) (size 9 to 14) (size 15 to 20)
#    0.000    0.727    3.636    2.182    5.091    7.273 
#    3.273    0.000    0.000    0.000    0.000    0.000 
#    0.000    0.000    0.000    0.000    0.000    0.000 
#
# Total GULP energy -61391.520637 kJ/mol
# GULP energy per Si atom -5581.047331 kJ/mol
# Density = 2.749343 g / cm^3
# Si number density = 27.556145 Si / 1000 Ang^3
#
#
#
# Elastic Constant Matrix: (Units=GPa)
#
#
# Indices 1 2 3 4 5 6 
#
# 1 121.0864 28.6756 60.7334 13.0708 24.1834 33.9468
# 2 28.6756 202.8188 79.9924 -9.6826 16.7963 18.5574
# 3 60.7334 79.9924 228.0097 9.5447 31.8215 19.3093
# 4 13.0708 -9.6826 9.5447 54.0616 5.4169 19.4506
# 5 24.1834 16.7963 31.8215 5.4169 70.3495 8.1997
# 6 33.9468 18.5574 19.3093 19.4506 8.1997 42.5542
#
#
#
# Elastic Compliance Matrix: (Units=1/GPa)
#
#
# Indices 1 2 3 4 5 6 
#
# 1 0.012158 0.000211 -0.002298 0.000863 -0.002241 -0.008710
# 2 0.000211 0.006119 -0.001988 0.002521 -0.000479 -0.002995
# 3 -0.002298 -0.001988 0.005868 -0.000965 -0.001403 0.000749
# 4 0.000863 0.002521 -0.000965 0.023246 -0.000876 -0.011806
# 5 -0.002241 -0.000479 -0.001403 -0.000876 0.015803 -0.000011
# 6 -0.008710 -0.002995 0.000749 -0.011806 -0.000011 0.036813
#
#
# Mechanical properties :
#
#
# Convention : Reuss Voigt Hill
#
# Bulk Modulus (GPa) = 62.51983 98.96862 80.74422
# Shear Modulus (GPa) = 44.05764 58.89396 51.47580
#
# Velocity S-wave (km/s) = 4.00288 4.62804 4.32676
# Velocity P-wave (km/s) = 6.64089 8.03440 7.37065
#
# Compressibility (1/GPa) = 0.01599493
#
# Stress axis : x y z
#
# Youngs Moduli (GPa) = 82.25242 163.43126 170.41367
#
# Poissons Ratio (x) = -0.03452 0.39163
# Poissons Ratio (y) = -0.01737 0.33877
# Poissons Ratio (z) = 0.18903 0.32489
#
# Static dielectric constant tensor:
#      x y z
#    x 2.618300 0.167740 -0.203300 
#    y 0.167740 2.225420 -0.080010 
#    z -0.203300 -0.080010 2.177030 
# 
# From -- ./inp_files/101921.got.cif
#   From: 2010.05.17/outbox.cif.g08.bks.cpg/sg2_51_cif.got.tgz:101921.got - 2010.06.03 11:33:40.
