data_PCOD9032367
_publ_section_title
;
Structure prediction by ZEFSAII (Michael W. Deem and Ramdas Pophale) SiO2 
 PCOD9032367
Probable space group: P -1
;
_chemical_formula_sum "Si O2"
_cell_formula_units_Z 13
_cell_length_a 9.608431
_cell_length_b 14.992616
_cell_length_c 11.959896
_cell_angle_alpha 150.577472
_cell_angle_beta 72.287243
_cell_angle_gamma 84.271577
_cell_volume 504.936465
_symmetry_space_group_name_H-M "P -1"
_symmetry_group_IT_number 2
_symmetry_cell_setting 'triclinic'
loop_
_space_group_symop_operation_xyz
x,y,z
-x,-y,-z
loop_
_atom_site_type_symbol
_atom_site_label
_atom_site_fract_x
_atom_site_fract_y
_atom_site_fract_z
Si Si1 0.332045 0.894665 0.205959
Si Si2 0.950251 0.664480 0.061443
Si Si3 0.000000 0.500000 0.500000
Si Si4 0.155960 0.558741 0.309660
Si Si5 0.596779 0.577277 0.332821
Si Si6 0.439693 0.251560 0.237579
Si Si7 0.713614 0.200651 0.549801
O O1 0.142833 0.199173 0.644813
O O2 0.577370 0.698819 0.992965
O O3 0.283157 0.730298 0.059748
O O4 0.382362 0.876738 0.044909
O O5 0.839193 0.930314 0.299220
O O6 0.863776 0.562739 0.918971
O O7 0.224562 0.433255 0.737059
O O8 0.008455 0.619883 0.514671
O O9 0.183433 0.468210 0.483517
O O10 0.123000 0.794418 0.528958
O O11 0.533914 0.637051 0.543723
O O12 0.388146 0.797307 0.535304
O O13 0.500000 0.000000 0.000000
O O14 0.500000 0.500000 0.000000
#
# Coordination Sequence:
#
# PCOD9032367 Si02
#       7
#     2   2   1   2   2   2   2
#     4  10  23  42  69  95 141 179 222 288 348 399
#     4  12  23  46  72 101 143 182 224 298 345 402
#     4  10  22  46  64  98 140 182 226 292 334 412
#     4  10  22  43  70  99 139 181 233 279 344 413
#     4  11  24  44  68 103 135 177 237 282 336 426
#     4  11  25  43  68  99 134 182 234 278 347 416
#     4  11  25  43  70 104 139 184 230 279 358 410
#
# _framework density 25.745811
#
# number of rings (size 3 to 8) (size 9 to 14) (size 15 to 20)
#    0.000    1.231    4.615    1.385    4.308    1.231 
#    0.000    2.308    0.000    0.000    0.000    0.000 
#    0.000    0.000    0.000    0.000    0.000    0.000 
#
# Total GULP energy -72660.635696 kJ/mol
# GULP energy per Si atom -5589.279669 kJ/mol
# Density = 2.568721 g / cm^3
# Si number density = 25.745811 Si / 1000 Ang^3
#
#
#
# Elastic Constant Matrix: (Units=GPa)
#
#
# Indices 1 2 3 4 5 6 
#
# 1 132.3808 43.5927 39.1378 -8.6611 15.0738 -22.7691
# 2 43.5927 160.0134 25.6165 -21.0382 7.7928 -18.4210
# 3 39.1378 25.6165 56.1537 -11.3630 9.4019 -19.3378
# 4 -8.6611 -21.0382 -11.3630 42.5197 0.4411 12.1631
# 5 15.0738 7.7928 9.4019 0.4411 34.4792 -11.2521
# 6 -22.7691 -18.4210 -19.3378 12.1631 -11.2521 46.2074
#
#
#
# Elastic Compliance Matrix: (Units=1/GPa)
#
#
# Indices 1 2 3 4 5 6 
#
# 1 0.010240 -0.001694 -0.005576 -0.000720 -0.001996 0.001740
# 2 -0.001694 0.007387 -0.001315 0.002748 -0.000361 0.000748
# 3 -0.005576 -0.001315 0.025391 0.003330 -0.002300 0.005918
# 4 -0.000720 0.002748 0.003330 0.027350 -0.003495 -0.005916
# 5 -0.001996 -0.000361 -0.002300 -0.003495 0.032859 0.006831
# 6 0.001740 0.000748 0.005918 -0.005916 0.006831 0.028495
#
#
# Mechanical properties :
#
#
# Convention : Reuss Voigt Hill
#
# Bulk Modulus (GPa) = 38.68780 62.80468 50.74624
# Shear Modulus (GPa) = 31.74458 40.65467 36.19963
#
# Velocity S-wave (km/s) = 3.51522 3.97807 3.75379
# Velocity P-wave (km/s) = 5.61562 6.74887 6.20815
#
# Compressibility (1/GPa) = 0.02584794
#
# Stress axis : x y z
#
# Youngs Moduli (GPa) = 97.65675 135.38208 39.38327
#
# Poissons Ratio (x) = 0.22934 0.21962
# Poissons Ratio (y) = 0.16544 0.05177
# Poissons Ratio (z) = 0.54457 0.17797
#
# Static dielectric constant tensor:
#      x y z
#    x 1.974930 -0.018730 -0.012150 
#    y -0.018730 2.051470 0.012610 
#    z -0.012150 0.012610 2.055030 
# 
# From -- ./inp_files/236741.got.cif
#   From: 2010.05.17/outbox.cif.g08.bks.cpg/sg2_119_cif.got.tgz:236741.got - 2010.06.03 11:33:40.
