data_PCOD9032368
_publ_section_title
;
Structure prediction by ZEFSAII (Michael W. Deem and Ramdas Pophale) SiO2 
 PCOD9032368
Probable space group: P -1
;
_chemical_formula_sum "Si O2"
_cell_formula_units_Z 14
_cell_length_a 8.634186
_cell_length_b 9.729263
_cell_length_c 12.882933
_cell_angle_alpha 135.594317
_cell_angle_beta 122.875364
_cell_angle_gamma 65.746981
_cell_volume 635.507066
_symmetry_space_group_name_H-M "P -1"
_symmetry_group_IT_number 2
_symmetry_cell_setting 'triclinic'
loop_
_space_group_symop_operation_xyz
x,y,z
-x,-y,-z
loop_
_atom_site_type_symbol
_atom_site_label
_atom_site_fract_x
_atom_site_fract_y
_atom_site_fract_z
Si Si1 0.633279 0.968739 0.127545
Si Si2 0.314797 0.598350 0.535709
Si Si3 0.972285 0.716156 0.150488
Si Si4 0.389044 0.693009 0.023348
Si Si5 0.029248 0.227897 0.601441
Si Si6 0.716027 0.556909 0.331924
Si Si7 0.626525 0.176680 0.682563
O O1 0.829807 0.860400 0.115639
O O2 0.656141 0.179309 0.299289
O O3 0.526888 0.835644 0.095948
O O4 0.500000 0.000000 0.000000
O O5 0.500000 0.500000 0.500000
O O6 0.151802 0.634519 0.413320
O O7 0.250161 0.494536 0.563061
O O8 0.885522 0.691496 0.219208
O O9 0.172364 0.807923 0.285341
O O10 0.000000 0.500000 0.000000
O O11 0.261466 0.617998 0.840538
O O12 0.500000 0.500000 0.000000
O O13 0.329012 0.807920 0.169267
O O14 0.161152 0.269523 0.574778
O O15 0.000000 0.000000 0.500000
O O16 0.502099 0.631696 0.289183
O O17 0.500000 0.000000 0.500000
#
# Coordination Sequence:
#
# PCOD9032368 Si02
#       7
#     2   2   2   2   2   2   2
#     4  12  26  48  73 103 148 191 237 300 369 436
#     4  12  28  46  71 106 148 189 241 304 369 428
#     4  12  25  45  75 108 141 188 249 297 358 442
#     4  10  22  43  70  99 139 193 233 288 361 434
#     4  12  25  46  75 103 142 193 247 302 361 430
#     4  11  23  46  69 101 148 192 236 296 374 434
#     4  11  24  40  71 108 144 183 248 304 351 427
#
# _framework density 22.029651000000001
#
# number of rings (size 3 to 8) (size 9 to 14) (size 15 to 20)
#    0.000    0.571    2.857    6.429    6.000    0.000 
#    0.000    0.714    0.000    0.000    0.000    0.000 
#    0.000    0.000    0.000    0.000    0.000    0.000 
#
# Total GULP energy -78124.308369 kJ/mol
# GULP energy per Si atom -5580.307741 kJ/mol
# Density = 2.197951 g / cm^3
# Si number density = 22.029651 Si / 1000 Ang^3
#
#
#
# Elastic Constant Matrix: (Units=GPa)
#
#
# Indices 1 2 3 4 5 6 
#
# 1 123.4419 72.4406 21.3566 1.1265 2.9179 1.8797
# 2 72.4406 140.5172 37.3108 -12.5454 -4.5014 3.5035
# 3 21.3566 37.3108 99.2874 5.0379 -15.6148 -2.3776
# 4 1.1265 -12.5454 5.0379 50.2597 0.3831 4.3101
# 5 2.9179 -4.5014 -15.6148 0.3831 35.2581 -4.1516
# 6 1.8797 3.5035 -2.3776 4.3101 -4.1516 56.6129
#
#
#
# Elastic Compliance Matrix: (Units=1/GPa)
#
#
# Indices 1 2 3 4 5 6 
#
# 1 0.011900 -0.006239 -0.000435 -0.001762 -0.001959 -0.000037
# 2 -0.006239 0.011494 -0.003095 0.003389 0.000475 -0.000857
# 3 -0.000435 -0.003095 0.012295 -0.002144 0.005259 0.001271
# 4 -0.001762 0.003389 -0.002144 0.021167 -0.000826 -0.001913
# 5 -0.001959 0.000475 0.005259 -0.000826 0.031230 0.002610
# 6 -0.000037 -0.000857 0.001271 -0.001913 0.002610 0.018109
#
#
# Mechanical properties :
#
#
# Convention : Reuss Voigt Hill
#
# Bulk Modulus (GPa) = 61.91354 69.49583 65.70469
# Shear Modulus (GPa) = 38.13425 43.90204 41.01815
#
# Velocity S-wave (km/s) = 4.16509 4.46899 4.31972
# Velocity P-wave (km/s) = 7.16214 7.63179 7.40069
#
# Compressibility (1/GPa) = 0.01615156
#
# Stress axis : x y z
#
# Youngs Moduli (GPa) = 84.03193 87.00408 81.33618
#
# Poissons Ratio (x) = 0.54278 0.03537
# Poissons Ratio (y) = 0.52424 0.25174
# Poissons Ratio (z) = 0.03655 0.26928
#
# Static dielectric constant tensor:
#      x y z
#    x 1.737490 -0.675790 0.517440 
#    y -0.675790 -3.661300 4.123580 
#    z 0.517440 4.123580 -1.310200 
# 
# From -- ./inp_files/381206.got.cif
#   From: 2010.05.17/outbox.cif.g08.bks.cpg/sg2_191_cif.got.tgz:381206.got - 2010.06.03 11:33:40.
