data_PCOD9032571
_publ_section_title
;
Structure prediction by ZEFSAII (Michael W. Deem and Ramdas Pophale) SiO2 
 PCOD9032571
Probable space group: P -1
;
_chemical_formula_sum "Si O2"
_cell_formula_units_Z 16
_cell_length_a 16.702335
_cell_length_b 18.829493
_cell_length_c 8.919616
_cell_angle_alpha 37.317924
_cell_angle_beta 139.524666
_cell_angle_gamma 157.402599
_cell_volume 649.236631
_symmetry_space_group_name_H-M "P -1"
_symmetry_group_IT_number 2
_symmetry_cell_setting 'triclinic'
loop_
_space_group_symop_operation_xyz
x,y,z
-x,-y,-z
loop_
_atom_site_type_symbol
_atom_site_label
_atom_site_fract_x
_atom_site_fract_y
_atom_site_fract_z
Si Si1 0.185390 0.370633 0.301228
Si Si2 0.923589 0.393225 0.829317
Si Si3 0.673267 0.131263 0.660112
Si Si4 0.880138 0.076668 0.619540
Si Si5 0.295867 0.805019 0.843140
Si Si6 0.642142 0.750079 0.348737
Si Si7 0.340133 0.312926 0.195024
Si Si8 0.049420 0.852635 0.053608
O O1 0.413212 0.602518 0.204799
O O2 0.245093 0.284148 0.484362
O O3 0.087995 0.276786 0.487813
O O4 0.014276 0.328353 0.057974
O O5 0.791800 0.319980 0.614037
O O6 0.126442 0.620526 0.795479
O O7 0.767969 0.284316 0.932548
O O8 0.866420 0.211878 0.728689
O O9 0.500000 0.000000 0.500000
O O10 0.531971 0.958097 0.876306
O O11 0.728283 0.072610 0.400713
O O12 0.914347 0.078703 0.839510
O O13 0.784803 0.887323 0.728619
O O14 0.585036 0.690753 0.540626
O O15 0.811071 0.971820 0.162610
O O16 0.500000 0.500000 0.000000
O O17 0.188882 0.300789 0.056386
#
# Coordination Sequence:
#
# PCOD9032571 Si02
#       8
#     2   2   2   2   2   2   2   2
#     4  10  22  43  72 103 145 186 245 301 369 443
#     4  10  23  45  76 101 144 194 249 305 366 448
#     4  12  25  46  69 108 146 193 246 306 370 435
#     4  11  24  46  68  99 150 190 239 305 367 440
#     4  10  23  48  70 106 139 197 248 304 372 436
#     4  11  24  41  72 109 139 187 243 301 376 445
#     4  12  27  45  71 108 145 193 244 302 375 449
#     4  12  25  45  71 102 148 191 241 305 374 435
#
# _framework density 24.644327000000001
#
# number of rings (size 3 to 8) (size 9 to 14) (size 15 to 20)
#    0.000    1.000    2.500    3.375    7.000    0.500 
#   11.250    0.000    0.000    0.000    0.000    0.000 
#    0.000    0.000    0.000    0.000    0.000    0.000 
#
# Total GULP energy -89309.601577 kJ/mol
# GULP energy per Si atom -5581.850099 kJ/mol
# Density = 2.458824 g / cm^3
# Si number density = 24.644327 Si / 1000 Ang^3
#
#
#
# Elastic Constant Matrix: (Units=GPa)
#
#
# Indices 1 2 3 4 5 6 
#
# 1 103.1073 49.1992 24.1125 8.3402 5.3245 12.1712
# 2 49.1992 110.9287 25.7408 -4.1572 -11.8586 20.6829
# 3 24.1125 25.7408 61.8774 -1.3792 -7.1870 9.4262
# 4 8.3402 -4.1572 -1.3792 42.1029 0.1914 -12.2272
# 5 5.3245 -11.8586 -7.1870 0.1914 26.8099 -3.8721
# 6 12.1712 20.6829 9.4262 -12.2272 -3.8721 43.5639
#
#
#
# Elastic Compliance Matrix: (Units=1/GPa)
#
#
# Indices 1 2 3 4 5 6 
#
# 1 0.014350 -0.005998 -0.003649 -0.004144 -0.006760 -0.002136
# 2 -0.005998 0.013473 -0.002017 0.001457 0.006118 -0.003332
# 3 -0.003649 -0.002017 0.019229 0.000676 0.004756 -0.001571
# 4 -0.004144 0.001457 0.000676 0.027096 0.002633 0.008159
# 5 -0.006760 0.006118 0.004756 0.002633 0.042967 0.002513
# 6 -0.002136 -0.003332 -0.001571 0.008159 0.002513 0.027987
#
#
# Mechanical properties :
#
#
# Convention : Reuss Voigt Hill
#
# Bulk Modulus (GPa) = 42.15029 52.66871 47.40950
# Shear Modulus (GPa) = 28.35477 34.28605 31.32041
#
# Velocity S-wave (km/s) = 3.39567 3.73397 3.56883
# Velocity P-wave (km/s) = 5.70216 6.32519 6.02174
#
# Compressibility (1/GPa) = 0.02372463
#
# Stress axis : x y z
#
# Youngs Moduli (GPa) = 69.68495 74.22426 52.00532
#
# Poissons Ratio (x) = 0.44516 0.18978
# Poissons Ratio (y) = 0.41794 0.10489
# Poissons Ratio (z) = 0.25430 0.14970
#
# Static dielectric constant tensor:
#      x y z
#    x 2.008460 -0.081090 -0.007410 
#    y -0.081090 1.965670 0.050640 
#    z -0.007410 0.050640 2.050920 
# 
# From -- ./inp_files/338094.got.cif
#   From: 2010.05.17/outbox.cif.g08.bks.cpg/sg2_170_cif.got.tgz:338094.got - 2010.06.03 11:33:40.
