data_PCOD9032876
_publ_section_title
;
Structure prediction by ZEFSAII (Michael W. Deem and Ramdas Pophale) SiO2 
 PCOD9032876
Probable space group: P -1
;
_chemical_formula_sum "Si O2"
_cell_formula_units_Z 13
_cell_length_a 5.577442
_cell_length_b 20.368640
_cell_length_c 4.882736
_cell_angle_alpha 79.448067
_cell_angle_beta 104.999659
_cell_angle_gamma 101.696753
_cell_volume 519.646470
_symmetry_space_group_name_H-M "P -1"
_symmetry_group_IT_number 2
_symmetry_cell_setting 'triclinic'
loop_
_space_group_symop_operation_xyz
x,y,z
-x,-y,-z
loop_
_atom_site_type_symbol
_atom_site_label
_atom_site_fract_x
_atom_site_fract_y
_atom_site_fract_z
Si Si1 0.000000 0.000000 0.000000
Si Si2 0.087144 0.129223 0.072452
Si Si3 0.022065 0.441670 0.768928
Si Si4 0.528902 0.397447 0.930335
Si Si5 0.640985 0.324875 0.530856
Si Si6 0.590276 0.179232 0.891325
Si Si7 0.638721 0.954241 0.383349
O O1 0.015239 0.919090 0.174903
O O2 0.253318 0.004240 0.880440
O O3 0.353850 0.173889 0.036645
O O4 0.866341 0.166875 0.087039
O O5 0.157158 0.064827 0.315446
O O6 0.000000 0.500000 0.500000
O O7 0.911267 0.369290 0.645796
O O8 0.306564 0.435378 0.930015
O O9 0.806777 0.442036 0.937510
O O10 0.568756 0.337431 0.191463
O O11 0.467626 0.364905 0.639029
O O12 0.623785 0.249414 0.685697
O O13 0.497457 0.118301 0.702273
O O14 0.500000 0.000000 0.500000
#
# Coordination Sequence:
#
# PCOD9032876 Si02
#       7
#     1   2   2   2   2   2   2
#     4  10  22  44  62 100 128 170 226 286 350 426
#     4  11  24  43  67  95 129 176 220 286 348 413
#     4  10  24  44  72 106 141 186 234 287 346 415
#     4  10  25  43  72 100 143 186 234 288 349 412
#     4  10  27  45  70 102 145 185 236 290 348 423
#     4  11  27  42  67 100 133 175 236 278 349 421
#     4  11  24  44  72  96 137 178 230 294 360 424
#
# _framework density 25.017009000000002
#
# number of rings (size 3 to 8) (size 9 to 14) (size 15 to 20)
#    0.923    0.615    0.000    2.769    6.462    7.385 
#    0.000    2.308    0.000    0.000    0.000    0.000 
#    0.000    0.000    0.000    0.000    0.000    0.000 
#
# Total GULP energy -72407.793698 kJ/mol
# GULP energy per Si atom -5569.830284 kJ/mol
# Density = 2.496007 g / cm^3
# Si number density = 25.017009 Si / 1000 Ang^3
#
#
#
# Elastic Constant Matrix: (Units=GPa)
#
#
# Indices 1 2 3 4 5 6 
#
# 1 231.3803 62.4839 74.2816 -31.5312 14.3691 19.0517
# 2 62.4839 114.0035 26.0860 -33.6383 -2.6345 25.4612
# 3 74.2816 26.0860 98.7859 -28.7667 -8.0245 17.0614
# 4 -31.5312 -33.6383 -28.7667 52.7140 -2.5741 -12.6664
# 5 14.3691 -2.6345 -8.0245 -2.5741 45.7199 0.5601
# 6 19.0517 25.4612 17.0614 -12.6664 0.5601 30.0925
#
#
#
# Elastic Compliance Matrix: (Units=1/GPa)
#
#
# Indices 1 2 3 4 5 6 
#
# 1 0.006741 -0.002992 -0.004817 -0.000454 -0.003173 0.000864
# 2 -0.002992 0.013677 0.002085 0.006207 0.002546 -0.008295
# 3 -0.004817 0.002085 0.016373 0.006320 0.004930 -0.005429
# 4 -0.000454 0.006207 0.006320 0.026914 0.003092 0.002723
# 5 -0.003173 0.002546 0.004930 0.003092 0.024081 -0.002087
# 6 0.000864 -0.008295 -0.005429 0.002723 -0.002087 0.043965
#
#
# Mechanical properties :
#
#
# Convention : Reuss Voigt Hill
#
# Bulk Modulus (GPa) = 39.45933 85.54139 62.50036
# Shear Modulus (GPa) = 32.97099 44.45984 38.71541
#
# Velocity S-wave (km/s) = 3.63429 4.22024 3.93818
# Velocity P-wave (km/s) = 5.78083 7.61674 6.76139
#
# Compressibility (1/GPa) = 0.02534255
#
# Stress axis : x y z
#
# Youngs Moduli (GPa) = 148.35567 73.11308 61.07485
#
# Poissons Ratio (x) = 0.21877 0.29422
# Poissons Ratio (y) = 0.44391 -0.12735
# Poissons Ratio (z) = 0.71469 -0.15245
#
# Static dielectric constant tensor:
#      x y z
#    x 2.131240 -0.063170 -0.022430 
#    y -0.063170 1.630280 -0.381030 
#    z -0.022430 -0.381030 1.409440 
# 
# From -- ./inp_files/12856.got.cif
#   From: 2010.05.17/outbox.cif.g08.bks.cpg/sg2_7_cif.got.tgz:12856.got - 2010.06.03 11:33:40.
