data_PCOD9032202
_publ_section_title
;
Structure prediction by ZEFSAII (Michael W. Deem and Ramdas Pophale) SiO2 
 PCOD9032202
Probable space group: P -1
;
_chemical_formula_sum "Si O2"
_cell_formula_units_Z 14
_cell_length_a 5.087473
_cell_length_b 7.290638
_cell_length_c 16.237379
_cell_angle_alpha 85.707866
_cell_angle_beta 55.157166
_cell_angle_gamma 78.263380
_cell_volume 483.311747
_symmetry_space_group_name_H-M "P -1"
_symmetry_group_IT_number 2
_symmetry_cell_setting 'triclinic'
loop_
_space_group_symop_operation_xyz
x,y,z
-x,-y,-z
loop_
_atom_site_type_symbol
_atom_site_label
_atom_site_fract_x
_atom_site_fract_y
_atom_site_fract_z
Si Si1 0.350322 0.465749 0.841099
Si Si2 0.420931 0.157395 0.172062
Si Si3 0.829180 0.822294 0.215456
Si Si4 0.146599 0.536410 0.367071
Si Si5 0.289844 0.698553 0.628605
Si Si6 0.678654 0.158339 0.553545
Si Si7 0.488869 0.287820 0.977537
O O1 0.374082 0.678518 0.846978
O O2 0.161271 0.399522 0.800740
O O3 0.713943 0.384956 0.743148
O O4 0.256403 0.349111 0.938752
O O5 0.050141 0.202797 0.271553
O O6 0.603556 0.968187 0.188589
O O7 0.406886 0.178725 0.075194
O O8 0.632813 0.868669 0.334762
O O9 0.190503 0.828140 0.120100
O O10 0.420605 0.359105 0.355846
O O11 0.825312 0.472485 0.395092
O O12 0.822447 0.322473 0.570126
O O13 0.406206 0.808143 0.528130
O O14 0.000000 0.000000 0.500000
O O15 0.500000 0.500000 0.000000
#
# Coordination Sequence:
#
# PCOD9032202 Si02
#       7
#     2   2   2   2   2   2   2
#     4   9  23  42  67 100 132 189 229 295 347 433
#     4  10  22  43  70 100 145 175 247 286 363 426
#     4  11  23  45  68 101 142 184 235 300 361 423
#     4  10  24  43  76  96 150 183 246 287 370 421
#     4  11  23  49  67 111 134 199 233 300 352 445
#     4  11  23  43  70 103 142 184 240 296 359 427
#     4  10  23  43  70 103 136 187 236 298 354 437
#
# _framework density 28.966809000000001
#
# number of rings (size 3 to 8) (size 9 to 14) (size 15 to 20)
#    0.000    1.714    1.429    1.286   12.000    2.857 
#   10.286    2.857    0.000    0.000    0.000    0.000 
#    0.000    0.000    0.000    0.000    0.000    0.000 
#
# Total GULP energy -78340.621446 kJ/mol
# GULP energy per Si atom -5595.758675 kJ/mol
# Density = 2.890088 g / cm^3
# Si number density = 28.966809 Si / 1000 Ang^3
#
#
#
# Elastic Constant Matrix: (Units=GPa)
#
#
# Indices 1 2 3 4 5 6 
#
# 1 125.6860 41.9068 65.5794 -2.6357 5.8859 -10.7580
# 2 41.9068 119.3981 85.6368 2.6236 -7.2301 -14.3765
# 3 65.5794 85.6368 294.2063 -7.3359 10.5092 -34.8015
# 4 -2.6357 2.6236 -7.3359 57.8630 -16.7118 -13.8627
# 5 5.8859 -7.2301 10.5092 -16.7118 61.6701 -0.7124
# 6 -10.7580 -14.3765 -34.8015 -13.8627 -0.7124 62.4648
#
#
#
# Elastic Compliance Matrix: (Units=1/GPa)
#
#
# Indices 1 2 3 4 5 6 
#
# 1 0.009536 -0.002395 -0.001347 0.000201 -0.000902 0.000375
# 2 -0.002395 0.011421 -0.002794 -0.000260 0.001980 0.000624
# 3 -0.001347 -0.002794 0.004799 0.000939 -0.000739 0.001998
# 4 0.000201 -0.000260 0.000939 0.020162 0.005312 0.005033
# 5 -0.000902 0.001980 -0.000739 0.005312 0.018114 0.001274
# 6 0.000375 0.000624 0.001998 0.005033 0.001274 0.018462
#
#
# Mechanical properties :
#
#
# Convention : Reuss Voigt Hill
#
# Bulk Modulus (GPa) = 78.83810 102.83737 90.83774
# Shear Modulus (GPa) = 50.10361 59.47739 54.79050
#
# Velocity S-wave (km/s) = 4.16347 4.53625 4.35385
# Velocity P-wave (km/s) = 7.09848 7.93823 7.53007
#
# Compressibility (1/GPa) = 0.01268422
#
# Stress axis : x y z
#
# Youngs Moduli (GPa) = 104.86318 87.56157 208.39292
#
# Poissons Ratio (x) = 0.20970 0.28069
# Poissons Ratio (y) = 0.25114 0.58220
# Poissons Ratio (z) = 0.14124 0.24463
#
# Static dielectric constant tensor:
#      x y z
#    x 2.289050 0.038590 -0.017570 
#    y 0.038590 2.349670 -0.025230 
#    z -0.017570 -0.025230 2.283590 
# 
# From -- ./inp_files/547949.got.cif
#   From: 2010.05.17/outbox.cif.g08.bks.cpg/sg2_274_cif.got.tgz:547949.got - 2010.06.03 11:33:40.
