data_PCOD9032404
_publ_section_title
;
Structure prediction by ZEFSAII (Michael W. Deem and Ramdas Pophale) SiO2 
 PCOD9032404
Probable space group: P -1
;
_chemical_formula_sum "Si O2"
_cell_formula_units_Z 16
_cell_length_a 5.076557
_cell_length_b 22.747816
_cell_length_c 8.425006
_cell_angle_alpha 126.356691
_cell_angle_beta 52.499787
_cell_angle_gamma 116.364558
_cell_volume 616.327150
_symmetry_space_group_name_H-M "P -1"
_symmetry_group_IT_number 2
_symmetry_cell_setting 'triclinic'
loop_
_space_group_symop_operation_xyz
x,y,z
-x,-y,-z
loop_
_atom_site_type_symbol
_atom_site_label
_atom_site_fract_x
_atom_site_fract_y
_atom_site_fract_z
Si Si1 0.628740 0.350115 0.375937
Si Si2 0.373573 0.899735 0.297547
Si Si3 0.263825 0.431382 0.399690
Si Si4 0.682601 0.287323 0.588634
Si Si5 0.991165 0.766174 0.097040
Si Si6 0.681950 0.448074 0.966783
Si Si7 0.347855 0.971593 0.770226
Si Si8 0.916683 0.155230 0.135557
O O1 0.343345 0.369099 0.393707
O O2 0.524173 0.303395 0.497867
O O3 0.871659 0.420357 0.476386
O O4 0.857397 0.308975 0.107109
O O5 0.332286 0.935543 0.542415
O O6 0.127197 0.824272 0.272262
O O7 0.353030 0.961728 0.265253
O O8 0.734473 0.876063 0.079085
O O9 0.500000 0.500000 0.500000
O O10 0.434779 0.423522 0.158820
O O11 0.400456 0.251604 0.757309
O O12 0.779299 0.370386 0.748508
O O13 0.924096 0.225533 0.363439
O O14 0.136917 0.810995 0.961108
O O15 0.500000 0.500000 0.000000
O O16 0.000000 0.500000 0.000000
O O17 0.364760 0.907394 0.790954
O O18 0.000000 0.000000 0.000000
#
# Coordination Sequence:
#
# PCOD9032404 Si02
#       8
#     2   2   2   2   2   2   2   2
#     4  11  26  45  70 106 144 192 248 309 378 449
#     4  10  22  43  71 101 147 192 244 304 373 451
#     4  12  24  47  73 103 147 189 247 313 380 457
#     4  11  25  47  69 105 145 192 251 313 383 457
#     4  11  25  44  66 103 139 188 243 306 374 447
#     4  12  26  48  74 110 148 199 255 316 387 456
#     4   9  20  42  71 107 145 191 243 301 371 455
#     4  10  23  44  69 104 143 188 244 303 374 445
#
# _framework density 25.960238
#
# number of rings (size 3 to 8) (size 9 to 14) (size 15 to 20)
#    0.000    1.250    1.250    3.375    3.500    5.500 
#    4.500    8.750    0.000    0.000    0.000    0.000 
#    0.000    0.000    0.000    0.000    0.000    0.000 
#
# Total GULP energy -89264.780958 kJ/mol
# GULP energy per Si atom -5579.048810 kJ/mol
# Density = 2.590115 g / cm^3
# Si number density = 25.960238 Si / 1000 Ang^3
#
#
#
# Elastic Constant Matrix: (Units=GPa)
#
#
# Indices 1 2 3 4 5 6 
#
# 1 84.8210 28.9669 23.3480 -2.5068 4.3775 -2.6923
# 2 28.9669 92.9750 58.4685 -5.3420 10.0270 6.9496
# 3 23.3480 58.4685 193.3569 2.5757 -3.4273 3.3320
# 4 -2.5068 -5.3420 2.5757 53.4819 2.1374 16.1973
# 5 4.3775 10.0270 -3.4273 2.1374 27.8397 2.1346
# 6 -2.6923 6.9496 3.3320 16.1973 2.1346 38.8193
#
#
#
# Elastic Compliance Matrix: (Units=1/GPa)
#
#
# Indices 1 2 3 4 5 6 
#
# 1 0.013353 -0.003923 -0.000469 -0.000262 -0.000864 0.001826
# 2 -0.003923 0.015761 -0.004367 0.002923 -0.005543 -0.003634
# 3 -0.000469 -0.004367 0.006599 -0.001018 0.002501 0.000470
# 4 -0.000262 0.002923 -0.001018 0.021992 -0.002096 -0.009515
# 5 -0.000864 -0.005543 0.002501 -0.002096 0.038562 -0.000528
# 6 0.001826 -0.003634 0.000470 -0.009515 -0.000528 0.030496
#
#
# Mechanical properties :
#
#
# Convention : Reuss Voigt Hill
#
# Bulk Modulus (GPa) = 54.96227 65.85774 60.41001
# Shear Modulus (GPa) = 33.25629 41.38616 37.32122
#
# Velocity S-wave (km/s) = 3.58305 3.99709 3.79572
# Velocity P-wave (km/s) = 6.19156 6.83565 6.52156
#
# Compressibility (1/GPa) = 0.01819430
#
# Stress axis : x y z
#
# Youngs Moduli (GPa) = 74.88716 63.44589 151.54427
#
# Poissons Ratio (x) = 0.24893 0.07112
# Poissons Ratio (y) = 0.29382 0.66177
# Poissons Ratio (z) = 0.03515 0.27706
#
# Static dielectric constant tensor:
#      x y z
#    x 2.123710 0.019660 0.010330 
#    y 0.019660 2.209570 0.072890 
#    z 0.010330 0.072890 2.078720 
# 
# From -- ./inp_files/142635.got.cif
#   From: 2010.05.17/outbox.cif.g08.bks.cpg/sg2_72_cif.got.tgz:142635.got - 2010.06.03 11:33:40.
