data_PCOD9032005
_publ_section_title
;
Structure prediction by ZEFSAII (Michael W. Deem and Ramdas Pophale) SiO2 
 PCOD9032005
Probable space group: P -1
;
_chemical_formula_sum "Si O2"
_cell_formula_units_Z 12
_cell_length_a 12.611285
_cell_length_b 13.424284
_cell_length_c 5.526745
_cell_angle_alpha 55.703171
_cell_angle_beta 110.463289
_cell_angle_gamma 140.097501
_cell_volume 489.784449
_symmetry_space_group_name_H-M "P -1"
_symmetry_group_IT_number 2
_symmetry_cell_setting 'triclinic'
loop_
_space_group_symop_operation_xyz
x,y,z
-x,-y,-z
loop_
_atom_site_type_symbol
_atom_site_label
_atom_site_fract_x
_atom_site_fract_y
_atom_site_fract_z
Si Si1 0.126657 0.210927 0.318554
Si Si2 0.763589 0.347484 0.629598
Si Si3 0.331840 0.346774 0.802354
Si Si4 0.895036 0.344903 0.330508
Si Si5 0.815331 0.122634 0.193723
Si Si6 0.532998 0.730572 0.304579
O O1 0.218573 0.282906 0.556072
O O2 0.006333 0.231741 0.169375
O O3 0.234230 0.281739 0.063371
O O4 0.000000 0.000000 0.500000
O O5 0.757059 0.323347 0.369203
O O6 0.621932 0.301909 0.729171
O O7 0.942392 0.554837 0.514415
O O8 0.771092 0.212919 0.900905
O O9 0.471235 0.560393 0.620548
O O10 0.414994 0.281773 0.899131
O O11 0.806957 0.156933 0.419661
O O12 0.000000 0.500000 0.000000
O O13 0.691144 0.921625 0.285150
#
# Coordination Sequence:
#
# PCOD9032005 Si02
#       6
#     2   2   2   2   2   2
#     4  12  26  50  78 104 143 195 256 294 351 441
#     4  10  22  43  69 103 143 186 238 303 368 433
#     4  11  28  51  74 109 146 202 238 301 366 431
#     4   9  21  40  66 101 136 190 240 290 364 431
#     4  11  24  42  71 108 137 193 241 302 362 428
#     4  11  25  46  69 108 152 187 239 305 370 434
#
# _framework density 24.500571999999998
#
# number of rings (size 3 to 8) (size 9 to 14) (size 15 to 20)
#    0.000    1.333    1.667    2.000    9.333    3.333 
#    9.000    0.000    0.000    0.000    0.000    0.000 
#    0.000    0.000    0.000    0.000    0.000    0.000 
#
# Total GULP energy -66971.919437 kJ/mol
# GULP energy per Si atom -5580.993286 kJ/mol
# Density = 2.444481 g / cm^3
# Si number density = 24.500572 Si / 1000 Ang^3
#
#
#
# Elastic Constant Matrix: (Units=GPa)
#
#
# Indices 1 2 3 4 5 6 
#
# 1 187.3584 28.1280 41.9870 23.3973 -8.9522 -16.8981
# 2 28.1280 154.3516 40.9352 -1.6374 -2.6401 -23.2984
# 3 41.9870 40.9352 86.4965 12.3994 -6.8440 -3.2307
# 4 23.3973 -1.6374 12.3994 30.8449 -13.9957 -1.0785
# 5 -8.9522 -2.6401 -6.8440 -13.9957 31.5387 3.9657
# 6 -16.8981 -23.2984 -3.2307 -1.0785 3.9657 39.7748
#
#
#
# Elastic Compliance Matrix: (Units=1/GPa)
#
#
# Indices 1 2 3 4 5 6 
#
# 1 0.006654 -0.000253 -0.002461 -0.004408 -0.000931 0.002452
# 2 -0.000253 0.008282 -0.003967 0.002528 0.000322 0.004458
# 3 -0.002461 -0.003967 0.015207 -0.004228 0.000685 -0.002317
# 4 -0.004408 0.002528 -0.004228 0.046002 0.018626 -0.001345
# 5 -0.000931 0.000322 0.000685 0.018626 0.040345 -0.003669
# 6 0.002452 0.004458 -0.002317 -0.001345 -0.003669 0.028936
#
#
# Mechanical properties :
#
#
# Convention : Reuss Voigt Hill
#
# Bulk Modulus (GPa) = 59.58805 72.25633 65.92219
# Shear Modulus (GPa) = 30.41706 41.57543 35.99624
#
# Velocity S-wave (km/s) = 3.52729 4.12383 3.83717
# Velocity P-wave (km/s) = 6.40023 7.22706 6.82617
#
# Compressibility (1/GPa) = 0.01678189
#
# Stress axis : x y z
#
# Youngs Moduli (GPa) = 150.28818 120.74073 65.75984
#
# Poissons Ratio (x) = 0.03049 0.16181
# Poissons Ratio (y) = 0.03795 0.26090
# Poissons Ratio (z) = 0.36979 0.47903
#
# Static dielectric constant tensor:
#      x y z
#    x 2.057270 0.000200 0.000130 
#    y 0.000200 2.072080 0.239470 
#    z 0.000130 0.239470 2.216790 
# 
# From -- ./inp_files/65910.got.cif
#   From: 2010.05.17/outbox.cif.g08.bks.cpg/sg2_33_cif.got.tgz:65910.got - 2010.06.03 11:33:40.
