data_PCOD9032101
_publ_section_title
;
Structure prediction by ZEFSAII (Michael W. Deem and Ramdas Pophale) SiO2 
 PCOD9032101
Probable space group: P -1
;
_chemical_formula_sum "Si O2"
_cell_formula_units_Z 16
_cell_length_a 8.997295
_cell_length_b 15.396677
_cell_length_c 20.994515
_cell_angle_alpha 160.856289
_cell_angle_beta 131.002792
_cell_angle_gamma 45.290165
_cell_volume 677.361787
_symmetry_space_group_name_H-M "P -1"
_symmetry_group_IT_number 2
_symmetry_cell_setting 'triclinic'
loop_
_space_group_symop_operation_xyz
x,y,z
-x,-y,-z
loop_
_atom_site_type_symbol
_atom_site_label
_atom_site_fract_x
_atom_site_fract_y
_atom_site_fract_z
Si Si1 0.065388 0.592335 0.192538
Si Si2 0.979397 0.826918 0.466578
Si Si3 0.448398 0.618794 0.789328
Si Si4 0.663725 0.422795 0.933817
Si Si5 0.453753 0.906230 0.111269
Si Si6 0.792382 0.501040 0.477982
Si Si7 0.674935 0.841173 0.489117
Si Si8 0.713950 0.253423 0.403909
O O1 0.953666 0.747193 0.332943
O O2 0.303056 0.431309 0.172266
O O3 0.085530 0.833106 0.316563
O O4 0.888630 0.468545 0.033705
O O5 0.211014 0.717555 0.484175
O O6 0.862602 0.694023 0.391868
O O7 0.343174 0.628624 0.697242
O O8 0.404865 0.349745 0.620286
O O9 0.351853 0.860611 0.983866
O O10 0.715879 0.093266 0.711382
O O11 0.500000 0.500000 0.000000
O O12 0.532412 0.622624 0.978210
O O13 0.325030 0.178046 0.306238
O O14 0.663243 0.968940 0.193106
O O15 0.851069 0.300126 0.417160
O O16 0.000000 0.500000 0.500000
O O17 0.500000 0.000000 0.500000
O O18 0.500000 0.500000 0.500000
#
# Coordination Sequence:
#
# PCOD9032101 Si02
#       8
#     2   2   2   2   2   2   2   2
#     4  11  24  39  68 109 140 184 233 294 357 441
#     4  11  22  39  68  96 141 183 234 287 366 416
#     4  12  26  47  73 108 144 189 244 294 360 435
#     4  12  25  41  67 109 153 188 235 287 368 439
#     4  11  24  44  74 100 144 189 237 298 355 426
#     4  11  26  50  74 104 142 188 243 307 359 418
#     4  12  23  41  66 101 146 187 227 290 360 430
#     4  10  22  43  69  96 134 187 236 295 349 410
#
# _framework density 23.621055999999999
#
# number of rings (size 3 to 8) (size 9 to 14) (size 15 to 20)
#    0.000    0.750    3.750    3.750    5.250    2.000 
#    0.000    0.000    0.000    0.000    0.000    0.000 
#    0.000    0.000    0.000    0.000    0.000    0.000 
#
# Total GULP energy -89278.761900 kJ/mol
# GULP energy per Si atom -5579.922619 kJ/mol
# Density = 2.356729 g / cm^3
# Si number density = 23.621056 Si / 1000 Ang^3
#
#
#
# Elastic Constant Matrix: (Units=GPa)
#
#
# Indices 1 2 3 4 5 6 
#
# 1 109.7883 -0.3341 30.1300 -1.4624 2.2152 0.7433
# 2 -0.3341 84.8479 10.7376 -20.2005 -15.0200 -3.2336
# 3 30.1300 10.7376 91.4272 -27.9620 -8.9551 -4.8192
# 4 -1.4624 -20.2005 -27.9620 35.2466 7.1012 8.0947
# 5 2.2152 -15.0200 -8.9551 7.1012 36.6522 1.0584
# 6 0.7433 -3.2336 -4.8192 8.0947 1.0584 41.8408
#
#
#
# Elastic Compliance Matrix: (Units=1/GPa)
#
#
# Indices 1 2 3 4 5 6 
#
# 1 0.010299 -0.000338 -0.004392 -0.002973 -0.001255 -0.000108
# 2 -0.000338 0.014454 0.001479 0.008620 0.004649 -0.000492
# 3 -0.004392 0.001479 0.016517 0.013430 0.002321 -0.000562
# 4 -0.002973 0.008620 0.013430 0.045678 -0.001668 -0.006529
# 5 -0.001255 0.004649 0.002321 -0.001668 0.030149 0.000209
# 6 -0.000108 -0.000492 -0.000562 -0.006529 0.000209 0.025057
#
#
# Mechanical properties :
#
#
# Convention : Reuss Voigt Hill
#
# Bulk Modulus (GPa) = 28.76186 40.79228 34.77707
# Shear Modulus (GPa) = 31.20228 39.11657 35.15943
#
# Velocity S-wave (km/s) = 3.63843 4.07382 3.86227
# Velocity P-wave (km/s) = 5.46386 6.27972 5.88594
#
# Compressibility (1/GPa) = 0.03476827
#
# Stress axis : x y z
#
# Youngs Moduli (GPa) = 97.09385 69.18666 60.54490
#
# Poissons Ratio (x) = 0.02336 0.26594
# Poissons Ratio (y) = 0.03279 -0.08957
# Poissons Ratio (z) = 0.42648 -0.10236
#
# Static dielectric constant tensor:
#      x y z
#    x 2.223940 -0.110140 -0.092180 
#    y -0.110140 1.924100 -0.005220 
#    z -0.092180 -0.005220 1.932190 
# 
# From -- ./inp_files/590570.got.cif
#   From: 2010.05.17/outbox.cif.g08.bks.cpg/sg2_296_cif.got.tgz:590570.got - 2010.06.03 11:33:40.
