data_PCOD9032977
_publ_section_title
;
Structure prediction by ZEFSAII (Michael W. Deem and Ramdas Pophale) SiO2 
 PCOD9032977
Probable space group: P -1
;
_chemical_formula_sum "Si O2"
_cell_formula_units_Z 15
_cell_length_a 18.347034
_cell_length_b 9.177594
_cell_length_c 21.145103
_cell_angle_alpha 142.002004
_cell_angle_beta 160.280643
_cell_angle_gamma 48.025649
_cell_volume 692.383178
_symmetry_space_group_name_H-M "P -1"
_symmetry_group_IT_number 2
_symmetry_cell_setting 'triclinic'
loop_
_space_group_symop_operation_xyz
x,y,z
-x,-y,-z
loop_
_atom_site_type_symbol
_atom_site_label
_atom_site_fract_x
_atom_site_fract_y
_atom_site_fract_z
Si Si1 0.827131 0.508377 0.051646
Si Si2 0.817079 0.759649 0.733847
Si Si3 0.327645 0.196305 0.506352
Si Si4 0.500000 0.500000 0.500000
Si Si5 0.921353 0.325701 0.814186
Si Si6 0.369328 0.623483 0.887381
Si Si7 0.878202 0.500861 0.481184
Si Si8 0.212213 0.055031 0.739728
O O1 0.783520 0.716346 0.132363
O O2 0.031655 0.420933 0.215813
O O3 0.896329 0.614220 0.073380
O O4 0.590452 0.270933 0.768573
O O5 0.723617 0.845204 0.623426
O O6 0.602477 0.632908 0.560705
O O7 0.000000 0.000000 0.000000
O O8 0.250024 0.429280 0.541815
O O9 0.160716 0.959961 0.327468
O O10 0.705627 0.383812 0.630333
O O11 0.000000 0.500000 0.000000
O O12 0.237140 0.448655 0.660522
O O13 0.152051 0.654547 0.756704
O O14 0.500000 0.500000 0.000000
O O15 0.559779 0.856952 0.087982
O O16 0.829633 0.202303 0.344335
O O17 0.000000 0.000000 0.500000
#
# Coordination Sequence:
#
# PCOD9032977 Si02
#       8
#     2   2   2   1   2   2   2   2
#     4  11  26  43  68  99 137 181 231 281 350 415
#     4  11  24  44  68  97 133 177 224 285 344 409
#     4  12  25  43  72 102 137 178 236 281 346 415
#     4  10  22  44  64  92 132 168 214 270 344 400
#     4  11  25  44  70 100 132 175 225 288 348 410
#     4  11  24  44  69  96 141 185 231 287 348 407
#     4  11  26  43  69 102 139 189 234 285 349 413
#     4  12  24  45  69  99 146 187 233 289 348 412
#
# _framework density 21.664304999999999
#
# number of rings (size 3 to 8) (size 9 to 14) (size 15 to 20)
#    0.000    0.800    2.667    4.400    3.733    1.600 
#    0.000    5.333    0.000    0.000    0.000    0.000 
#    0.000    0.000    0.000    0.000    0.000    0.000 
#
# Total GULP energy -83595.170722 kJ/mol
# GULP energy per Si atom -5573.011381 kJ/mol
# Density = 2.161500 g / cm^3
# Si number density = 21.664305 Si / 1000 Ang^3
#
#
#
# Elastic Constant Matrix: (Units=GPa)
#
#
# Indices 1 2 3 4 5 6 
#
# 1 60.6518 10.4295 18.5296 -4.7659 6.1743 13.5895
# 2 10.4295 56.6495 15.1297 2.8611 -7.9881 6.8069
# 3 18.5296 15.1297 90.8550 -13.1333 10.0809 1.6387
# 4 -4.7659 2.8611 -13.1333 34.8480 1.9523 -1.1638
# 5 6.1743 -7.9881 10.0809 1.9523 50.0366 -3.7588
# 6 13.5895 6.8069 1.6387 -1.1638 -3.7588 34.8451
#
#
#
# Elastic Compliance Matrix: (Units=1/GPa)
#
#
# Indices 1 2 3 4 5 6 
#
# 1 0.019898 -0.002484 -0.002941 0.001732 -0.002882 -0.007390
# 2 -0.002484 0.020222 -0.003835 -0.003767 0.004269 -0.002467
# 3 -0.002941 -0.003835 0.013305 0.005135 -0.003047 0.001113
# 4 0.001732 -0.003767 0.005135 0.031365 -0.003033 0.000539
# 5 -0.002882 0.004269 -0.003047 -0.003033 0.021958 0.002701
# 6 -0.007390 -0.002467 0.001113 0.000539 0.002701 0.032319
#
#
# Mechanical properties :
#
#
# Convention : Reuss Voigt Hill
#
# Bulk Modulus (GPa) = 28.64784 32.92598 30.78691
# Shear Modulus (GPa) = 29.54679 34.88377 32.21528
#
# Velocity S-wave (km/s) = 3.69704 4.01708 3.86038
# Velocity P-wave (km/s) = 5.61038 6.06194 5.84053
#
# Compressibility (1/GPa) = 0.03490665
#
# Stress axis : x y z
#
# Youngs Moduli (GPa) = 50.25524 49.44995 75.15866
#
# Poissons Ratio (x) = 0.12282 0.22106
# Poissons Ratio (y) = 0.12482 0.28821
# Poissons Ratio (z) = 0.14781 0.18963
#
# Static dielectric constant tensor:
#      x y z
#    x 1.803180 0.002250 -0.001160 
#    y 0.002250 1.813570 -0.002040 
#    z -0.001160 -0.002040 1.801010 
# 
# From -- ./inp_files/599664.got.cif
#   From: 2010.05.17/outbox.cif.g08.bks.cpg/sg2_300_cif.got.tgz:599664.got - 2010.06.03 11:33:40.
