data_PCOD9032143
_publ_section_title
;
Structure prediction by ZEFSAII (Michael W. Deem and Ramdas Pophale) SiO2 
 PCOD9032143
Probable space group: P -1
;
_chemical_formula_sum "Si O2"
_cell_formula_units_Z 16
_cell_length_a 8.877442
_cell_length_b 11.623204
_cell_length_c 14.703904
_cell_angle_alpha 151.586421
_cell_angle_beta 84.487374
_cell_angle_gamma 82.839640
_cell_volume 644.749030
_symmetry_space_group_name_H-M "P -1"
_symmetry_group_IT_number 2
_symmetry_cell_setting 'triclinic'
loop_
_space_group_symop_operation_xyz
x,y,z
-x,-y,-z
loop_
_atom_site_type_symbol
_atom_site_label
_atom_site_fract_x
_atom_site_fract_y
_atom_site_fract_z
Si Si1 0.183028 0.978827 0.949594
Si Si2 0.804543 0.655045 0.644146
Si Si3 0.645450 0.699830 0.306418
Si Si4 0.831733 0.242485 0.502053
Si Si5 0.882255 0.890474 0.482279
Si Si6 0.620523 0.432818 0.831730
Si Si7 0.389799 0.360219 0.520414
Si Si8 0.750564 0.877345 0.147379
O O1 0.320490 0.672632 0.716441
O O2 0.175630 0.141467 0.971132
O O3 0.235739 0.098224 0.115529
O O4 0.000000 0.000000 0.000000
O O5 0.771136 0.443059 0.559992
O O6 0.703773 0.741800 0.617558
O O7 0.000000 0.500000 0.500000
O O8 0.825095 0.710379 0.294950
O O9 0.574614 0.511456 0.128830
O O10 0.652042 0.647810 0.377569
O O11 0.500000 0.000000 0.500000
O O12 0.696783 0.346843 0.664664
O O13 0.864074 0.944773 0.259723
O O14 0.003747 0.243973 0.530817
O O15 0.714094 0.164174 0.700248
O O16 0.000000 0.000000 0.500000
O O17 0.685628 0.650421 0.009472
O O18 0.581984 0.155863 0.356633
#
# Coordination Sequence:
#
# PCOD9032143 Si02
#       8
#     2   2   2   2   2   2   2   2
#     4  12  26  44  68 104 146 190 236 293 353 423
#     4  12  24  42  68  99 143 186 237 291 351 424
#     4  10  22  45  71  98 138 182 237 293 354 416
#     4  11  21  42  68  98 146 181 236 295 347 416
#     4   9  21  40  74  98 132 191 235 293 358 412
#     4  10  22  43  69  98 139 188 233 297 347 417
#     4  12  26  42  72 102 142 190 233 291 358 422
#     4  12  25  42  71 108 147 187 243 287 355 428
#
# _framework density 24.815857000000001
#
# number of rings (size 3 to 8) (size 9 to 14) (size 15 to 20)
#    0.000    1.000    5.000    1.125    1.750    1.000 
#    0.000    2.500   11.000    0.000    0.000    0.000 
#    0.000    0.000    0.000    0.000    0.000    0.000 
#
# Total GULP energy -89429.258069 kJ/mol
# GULP energy per Si atom -5589.328629 kJ/mol
# Density = 2.475938 g / cm^3
# Si number density = 24.815857 Si / 1000 Ang^3
#
#
#
# Elastic Constant Matrix: (Units=GPa)
#
#
# Indices 1 2 3 4 5 6 
#
# 1 111.1733 -8.8909 15.5971 3.5980 32.1993 -5.7176
# 2 -8.8909 63.7087 -6.8806 3.8726 -6.8838 0.5021
# 3 15.5971 -6.8806 111.8777 -1.8887 29.6630 1.5791
# 4 3.5980 3.8726 -1.8887 31.2565 6.0925 3.6985
# 5 32.1993 -6.8838 29.6630 6.0925 38.0684 -3.8849
# 6 -5.7176 0.5021 1.5791 3.6985 -3.8849 37.5785
#
#
#
# Elastic Compliance Matrix: (Units=1/GPa)
#
#
# Indices 1 2 3 4 5 6 
#
# 1 0.012115 0.000570 0.001333 0.000743 -0.011246 0.000544
# 2 0.000570 0.016254 0.000117 -0.002675 0.002837 0.000421
# 3 0.001333 0.000117 0.011712 0.002858 -0.010862 -0.001695
# 4 0.000743 -0.002675 0.002858 0.034749 -0.009345 -0.004357
# 5 -0.011246 0.002837 -0.010862 -0.009345 0.046708 0.004456
# 6 0.000544 0.000421 -0.001695 -0.004357 0.004456 0.027649
#
#
# Mechanical properties :
#
#
# Convention : Reuss Voigt Hill
#
# Bulk Modulus (GPa) = 22.66546 31.82345 27.24445
# Shear Modulus (GPa) = 31.27849 40.50962 35.89405
#
# Velocity S-wave (km/s) = 3.55410 4.04469 3.80730
# Velocity P-wave (km/s) = 5.09857 5.88765 5.50726
#
# Compressibility (1/GPa) = 0.04411999
#
# Stress axis : x y z
#
# Youngs Moduli (GPa) = 82.54505 61.52154 85.38305
#
# Poissons Ratio (x) = -0.03507 -0.11378
# Poissons Ratio (y) = -0.04705 -0.00998
# Poissons Ratio (z) = -0.11000 -0.00719
#
# Static dielectric constant tensor:
#      x y z
#    x 2.110460 0.010950 0.066000 
#    y 0.010950 1.981580 0.007740 
#    z 0.066000 0.007740 1.991060 
# 
# From -- ./inp_files/501172.got.cif
#   From: 2010.05.17/outbox.cif.g08.bks.cpg/sg2_251_cif.got.tgz:501172.got - 2010.06.03 11:33:40.
