data_PCOD9032895
_publ_section_title
;
Structure prediction by ZEFSAII (Michael W. Deem and Ramdas Pophale) SiO2 
 PCOD9032895
Probable space group: P -1
;
_chemical_formula_sum "Si O2"
_cell_formula_units_Z 16
_cell_length_a 25.068937
_cell_length_b 9.432744
_cell_length_c 13.332455
_cell_angle_alpha 36.111383
_cell_angle_beta 24.601906
_cell_angle_gamma 42.830948
_cell_volume 773.526872
_symmetry_space_group_name_H-M "P -1"
_symmetry_group_IT_number 2
_symmetry_cell_setting 'triclinic'
loop_
_space_group_symop_operation_xyz
x,y,z
-x,-y,-z
loop_
_atom_site_type_symbol
_atom_site_label
_atom_site_fract_x
_atom_site_fract_y
_atom_site_fract_z
Si Si1 0.552336 0.261804 0.282424
Si Si2 0.109725 0.459907 0.705900
Si Si3 0.801036 0.654014 0.792773
Si Si4 0.395663 0.552206 0.234919
Si Si5 0.001086 0.076369 0.255023
Si Si6 0.617268 0.328599 0.365591
Si Si7 0.454749 0.046865 0.939449
Si Si8 0.835432 0.356025 0.706334
O O1 0.445867 0.438565 0.318761
O O2 0.589199 0.267022 0.333325
O O3 0.500000 0.000000 0.500000
O O4 0.684004 0.324510 0.965132
O O5 0.257006 0.457608 0.493417
O O6 0.045222 0.700195 0.725881
O O7 0.105783 0.506053 0.567601
O O8 0.045714 0.215957 0.997955
O O9 0.851714 0.515842 0.687427
O O10 0.892069 0.873364 0.540822
O O11 0.757955 0.448121 0.064404
O O12 0.659717 0.763931 0.955997
O O13 0.500000 0.500000 0.000000
O O14 0.391187 0.833761 0.105993
O O15 0.110307 0.911380 0.213388
O O16 0.500000 0.500000 0.500000
O O17 0.584072 0.111210 0.619924
O O18 0.500000 0.000000 0.000000
#
# Coordination Sequence:
#
# PCOD9032895 Si02
#       8
#     2   2   2   2   2   2   2   2
#     4  11  22  38  62  96 127 171 217 265 334 390
#     4  11  25  44  66 101 130 174 227 272 330 389
#     4  10  22  44  62  93 129 171 223 267 327 396
#     4  12  22  39  66  95 133 168 213 280 332 384
#     4  11  24  46  67  92 136 175 224 274 322 396
#     4   9  20  37  59  90 127 163 211 257 320 395
#     4  11  22  40  62  96 135 166 209 271 330 397
#     4  11  23  43  66  94 133 173 226 272 326 392
#
# _framework density 20.684479
#
# number of rings (size 3 to 8) (size 9 to 14) (size 15 to 20)
#    0.000    1.250    2.500    4.500    0.000    1.500 
#    2.250    3.750    0.000    0.000    0.000    0.000 
#    0.000    0.000    0.000    0.000    0.000    0.000 
#
# Total GULP energy -89218.591447 kJ/mol
# GULP energy per Si atom -5576.161965 kJ/mol
# Density = 2.063740 g / cm^3
# Si number density = 20.684479 Si / 1000 Ang^3
#
#
#
# Elastic Constant Matrix: (Units=GPa)
#
#
# Indices 1 2 3 4 5 6 
#
# 1 48.2137 19.5153 36.0285 -0.3248 14.8419 -1.4672
# 2 19.5153 62.3355 22.4630 4.8945 -2.5266 -2.9314
# 3 36.0285 22.4630 135.2069 -14.2492 17.3847 17.2042
# 4 -0.3248 4.8945 -14.2492 30.0538 8.0315 -3.0501
# 5 14.8419 -2.5266 17.3847 8.0315 37.7235 -3.8048
# 6 -1.4672 -2.9314 17.2042 -3.0501 -3.8048 31.2671
#
#
#
# Elastic Compliance Matrix: (Units=1/GPa)
#
#
# Indices 1 2 3 4 5 6 
#
# 1 0.031847 -0.008281 -0.005922 0.001981 -0.010485 0.002894
# 2 -0.008281 0.020977 -0.003556 -0.006986 0.008177 0.003848
# 3 -0.005922 -0.003556 0.011931 0.006942 -0.005609 -0.007182
# 4 0.001981 -0.006986 0.006942 0.041102 -0.013399 -0.002003
# 5 -0.010485 0.008177 -0.005609 -0.013399 0.037284 0.006591
# 6 0.002894 0.003848 -0.007182 -0.002003 0.006591 0.037037
#
#
# Mechanical properties :
#
#
# Convention : Reuss Voigt Hill
#
# Bulk Modulus (GPa) = 34.20119 44.64108 39.42114
# Shear Modulus (GPa) = 22.17863 30.99217 26.58540
#
# Velocity S-wave (km/s) = 3.27805 3.87503 3.58897
# Velocity P-wave (km/s) = 5.55861 6.45367 6.02279
#
# Compressibility (1/GPa) = 0.02923875
#
# Stress axis : x y z
#
# Youngs Moduli (GPa) = 31.39999 47.67123 83.81187
#
# Poissons Ratio (x) = 0.39476 0.49632
# Poissons Ratio (y) = 0.26002 0.29802
# Poissons Ratio (z) = 0.18594 0.16951
#
# Static dielectric constant tensor:
#      x y z
#    x 1.714370 -0.094410 0.044490 
#    y -0.094410 1.866900 -0.118090 
#    z 0.044490 -0.118090 1.876430 
# 
# From -- ./inp_files/474080.got.cif
#   From: 2010.05.17/outbox.cif.g08.bks.cpg/sg2_238_cif.got.tgz:474080.got - 2010.06.03 11:33:40.
