data_PCOD9032072
_publ_section_title
;
Structure prediction by ZEFSAII (Michael W. Deem and Ramdas Pophale) SiO2 
 PCOD9032072
Probable space group: P -1
;
_chemical_formula_sum "Si O2"
_cell_formula_units_Z 16
_cell_length_a 7.911887
_cell_length_b 12.203935
_cell_length_c 14.269256
_cell_angle_alpha 98.073176
_cell_angle_beta 145.958067
_cell_angle_gamma 69.105197
_cell_volume 688.146619
_symmetry_space_group_name_H-M "P -1"
_symmetry_group_IT_number 2
_symmetry_cell_setting 'triclinic'
loop_
_space_group_symop_operation_xyz
x,y,z
-x,-y,-z
loop_
_atom_site_type_symbol
_atom_site_label
_atom_site_fract_x
_atom_site_fract_y
_atom_site_fract_z
Si Si1 0.026562 0.905699 0.125362
Si Si2 0.786689 0.316671 0.683653
Si Si3 0.109780 0.516121 0.451285
Si Si4 0.270025 0.089205 0.542176
Si Si5 0.576114 0.868223 0.790131
Si Si6 0.228539 0.868603 0.831247
Si Si7 0.301230 0.725211 0.564587
Si Si8 0.644649 0.604170 0.084504
O O1 0.058083 0.783863 0.177995
O O2 0.396457 0.894121 0.295937
O O3 0.800018 0.029291 0.093598
O O4 0.888225 0.896557 0.958511
O O5 0.384235 0.391368 0.517096
O O6 0.829878 0.242097 0.597415
O O7 0.998515 0.398546 0.791047
O O8 0.330732 0.590710 0.569673
O O9 0.000000 0.500000 0.500000
O O10 0.766309 0.591879 0.246502
O O11 0.136828 0.098612 0.376498
O O12 0.984151 0.194331 0.484014
O O13 0.348761 0.963833 0.619032
O O14 0.411084 0.879574 0.819359
O O15 0.624747 0.741398 0.749437
O O16 0.386521 0.734091 0.936304
O O17 0.500000 0.500000 0.000000
#
# Coordination Sequence:
#
# PCOD9032072 Si02
#       8
#     2   2   2   2   2   2   2   2
#     4  12  24  41  71 107 145 180 243 301 363 413
#     4  11  24  49  73 102 141 192 238 293 363 433
#     4  11  26  48  76 101 140 188 237 299 359 429
#     4  11  24  42  67 103 147 187 235 294 362 424
#     4  11  23  42  69 102 142 184 235 297 351 426
#     4  11  24  45  71 103 148 191 233 294 361 432
#     4  10  22  43  69  94 136 189 236 282 357 421
#     4  11  26  46  72 106 144 193 245 292 350 425
#
# _framework density 23.250858999999998
#
# number of rings (size 3 to 8) (size 9 to 14) (size 15 to 20)
#    0.000    1.000    1.250    6.375    8.750    0.000 
#    4.500    1.250    0.000    0.000    0.000    0.000 
#    0.000    0.000    0.000    0.000    0.000    0.000 
#
# Total GULP energy -89208.740702 kJ/mol
# GULP energy per Si atom -5575.546294 kJ/mol
# Density = 2.319794 g / cm^3
# Si number density = 23.250859 Si / 1000 Ang^3
#
#
#
# Elastic Constant Matrix: (Units=GPa)
#
#
# Indices 1 2 3 4 5 6 
#
# 1 45.5257 12.3222 39.6187 -3.1666 -6.5537 15.6806
# 2 12.3222 91.8005 58.4042 13.8204 -13.0512 14.0972
# 3 39.6187 58.4042 173.3375 16.1123 -11.4699 12.5461
# 4 -3.1666 13.8204 16.1123 49.7649 16.7159 -4.6577
# 5 -6.5537 -13.0512 -11.4699 16.7159 31.2730 0.3021
# 6 15.6806 14.0972 12.5461 -4.6577 0.3021 33.8655
#
#
#
# Elastic Compliance Matrix: (Units=1/GPa)
#
#
# Indices 1 2 3 4 5 6 
#
# 1 0.033039 0.002985 -0.007250 0.000524 0.005364 -0.013831
# 2 0.002985 0.017102 -0.004541 -0.007193 0.010018 -0.007898
# 3 -0.007250 -0.004541 0.009155 -0.002436 0.001231 0.001510
# 4 0.000524 -0.007193 -0.002436 0.030425 -0.020126 0.008018
# 5 0.005364 0.010018 0.001231 -0.020126 0.048590 -0.010311
# 6 -0.013831 -0.007898 0.001510 0.008018 -0.010311 0.039855
#
#
# Mechanical properties :
#
#
# Convention : Reuss Voigt Hill
#
# Bulk Modulus (GPa) = 23.99025 59.03935 41.51480
# Shear Modulus (GPa) = 23.84653 36.33526 30.09090
#
# Velocity S-wave (km/s) = 3.20600 3.95745 3.60138
# Velocity P-wave (km/s) = 4.90357 6.80657 5.93188
#
# Compressibility (1/GPa) = 0.04168361
#
# Stress axis : x y z
#
# Youngs Moduli (GPa) = 30.26681 58.47348 109.22928
#
# Poissons Ratio (x) = -0.17456 0.79194
# Poissons Ratio (y) = -0.09036 0.49605
# Poissons Ratio (z) = 0.21944 0.26555
#
# Static dielectric constant tensor:
#      x y z
#    x 1.900860 0.063630 0.069600 
#    y 0.063630 1.980600 0.032840 
#    z 0.069600 0.032840 1.938540 
# 
# From -- ./inp_files/500484.got.cif
#   From: 2010.05.17/outbox.cif.g08.bks.cpg/sg2_251_cif.got.tgz:500484.got - 2010.06.03 11:33:40.
