data_PCOD9032678
_publ_section_title
;
Structure prediction by ZEFSAII (Michael W. Deem and Ramdas Pophale) SiO2 
 PCOD9032678
Probable space group: P -1
;
_chemical_formula_sum "Si O2"
_cell_formula_units_Z 16
_cell_length_a 9.613401
_cell_length_b 10.135318
_cell_length_c 19.035058
_cell_angle_alpha 52.391720
_cell_angle_beta 27.358920
_cell_angle_gamma 49.583618
_cell_volume 645.781370
_symmetry_space_group_name_H-M "P -1"
_symmetry_group_IT_number 2
_symmetry_cell_setting 'triclinic'
loop_
_space_group_symop_operation_xyz
x,y,z
-x,-y,-z
loop_
_atom_site_type_symbol
_atom_site_label
_atom_site_fract_x
_atom_site_fract_y
_atom_site_fract_z
Si Si1 0.750549 0.698738 0.321916
Si Si2 0.369366 0.404531 0.851838
Si Si3 0.734449 0.115834 0.329191
Si Si4 0.440342 0.320482 0.251398
Si Si5 0.338546 0.982356 0.167073
Si Si6 0.498307 0.469718 0.397245
Si Si7 0.155368 0.042768 0.485538
Si Si8 0.745828 0.161013 0.021760
O O1 0.637197 0.584286 0.351044
O O2 0.768796 0.587560 0.420899
O O3 0.108541 0.021766 0.189527
O O4 0.063769 0.734264 0.142079
O O5 0.558281 0.485846 0.796169
O O6 0.417073 0.202426 0.897078
O O7 0.515098 0.438726 0.701074
O O8 0.000000 0.500000 0.000000
O O9 0.631138 0.205656 0.270247
O O10 0.711944 0.275768 0.341251
O O11 0.500000 0.000000 0.500000
O O12 0.148873 0.242815 0.413934
O O13 0.570041 0.269265 0.132116
O O14 0.069519 0.963277 0.348061
O O15 0.491692 0.889655 0.385940
O O16 0.513613 0.101129 0.092110
O O17 0.000000 0.000000 0.500000
O O18 0.000000 0.000000 0.000000
#
# Coordination Sequence:
#
# PCOD9032678 Si02
#       8
#     2   2   2   2   2   2   2   2
#     4  11  22  41  75 103 147 193 248 307 377 430
#     4  11  25  46  72 107 151 189 244 309 378 443
#     4  11  23  46  71 105 154 197 246 302 372 444
#     4  11  23  41  74 101 154 192 241 304 377 429
#     4  12  25  45  79 111 145 198 255 302 373 451
#     4  10  22  43  73 102 143 199 242 305 374 430
#     4  12  21  40  72 109 139 187 255 302 355 443
#     4  12  23  43  75 111 141 195 250 307 372 433
#
# _framework density 24.776187
#
# number of rings (size 3 to 8) (size 9 to 14) (size 15 to 20)
#    0.000    0.750    5.000    3.000    0.000    0.500 
#    2.250    6.250    2.750    0.000    0.000    0.875 
#    0.000    0.000    0.000    0.000    0.000    0.000 
#
# Total GULP energy -89358.501294 kJ/mol
# GULP energy per Si atom -5584.906331 kJ/mol
# Density = 2.471979 g / cm^3
# Si number density = 24.776187 Si / 1000 Ang^3
#
#
#
# Elastic Constant Matrix: (Units=GPa)
#
#
# Indices 1 2 3 4 5 6 
#
# 1 69.7073 19.5718 40.9836 4.6350 0.9915 12.8640
# 2 19.5718 133.2757 63.9147 -0.1115 4.0209 28.4491
# 3 40.9836 63.9147 202.7290 -25.0233 9.0526 9.8440
# 4 4.6350 -0.1115 -25.0233 42.0403 4.8613 -0.4735
# 5 0.9915 4.0209 9.0526 4.8613 33.0834 -6.9050
# 6 12.8640 28.4491 9.8440 -0.4735 -6.9050 40.6237
#
#
#
# Elastic Compliance Matrix: (Units=1/GPa)
#
#
# Indices 1 2 3 4 5 6 
#
# 1 0.017819 0.000365 -0.004031 -0.004435 0.000144 -0.004949
# 2 0.000365 0.010530 -0.003205 -0.001813 -0.001610 -0.007007
# 3 -0.004031 -0.003205 0.007403 0.005085 -0.001959 0.001453
# 4 -0.004435 -0.001813 0.005085 0.027879 -0.004941 0.000927
# 5 0.000144 -0.001610 -0.001959 -0.004941 0.033170 0.007137
# 6 -0.004949 -0.007007 0.001453 0.000927 0.007137 0.031962
#
#
# Mechanical properties :
#
#
# Convention : Reuss Voigt Hill
#
# Bulk Modulus (GPa) = 45.43614 72.73913 59.08763
# Shear Modulus (GPa) = 33.36852 41.89895 37.63373
#
# Velocity S-wave (km/s) = 3.67386 4.11676 3.90160
# Velocity P-wave (km/s) = 6.03115 7.21243 6.64808
#
# Compressibility (1/GPa) = 0.02200891
#
# Stress axis : x y z
#
# Youngs Moduli (GPa) = 56.11888 94.97058 135.08839
#
# Poissons Ratio (x) = -0.03462 0.54452
# Poissons Ratio (y) = -0.02046 0.43295
# Poissons Ratio (z) = 0.22621 0.30438
#
# Static dielectric constant tensor:
#      x y z
#    x 2.394630 -0.344560 -0.147910 
#    y -0.344560 2.214160 0.103900 
#    z -0.147910 0.103900 1.993240 
# 
# From -- ./inp_files/277429.got.cif
#   From: 2010.05.17/outbox.cif.g08.bks.cpg/sg2_139_cif.got.tgz:277429.got - 2010.06.03 11:33:40.
