data_PCOD9032620
_publ_section_title
;
Structure prediction by ZEFSAII (Michael W. Deem and Ramdas Pophale) SiO2 
 PCOD9032620
Probable space group: P -1
;
_chemical_formula_sum "Si O2"
_cell_formula_units_Z 16
_cell_length_a 11.900754
_cell_length_b 8.801827
_cell_length_c 14.055509
_cell_angle_alpha 73.945706
_cell_angle_beta 148.790510
_cell_angle_gamma 97.123674
_cell_volume 714.182706
_symmetry_space_group_name_H-M "P -1"
_symmetry_group_IT_number 2
_symmetry_cell_setting 'triclinic'
loop_
_space_group_symop_operation_xyz
x,y,z
-x,-y,-z
loop_
_atom_site_type_symbol
_atom_site_label
_atom_site_fract_x
_atom_site_fract_y
_atom_site_fract_z
Si Si1 0.133525 0.524307 0.251609
Si Si2 0.261550 0.484621 0.790240
Si Si3 0.661920 0.317248 0.355765
Si Si4 0.421901 0.556956 0.280162
Si Si5 0.030623 0.737249 0.726580
Si Si6 0.374221 0.867601 0.060242
Si Si7 0.240568 0.998766 0.630413
Si Si8 0.915691 0.783859 0.193864
O O1 0.221349 0.556297 0.206720
O O2 0.351746 0.479118 0.486402
O O3 0.020378 0.371307 0.204712
O O4 0.973469 0.678814 0.158281
O O5 0.257173 0.540966 0.668587
O O6 0.079234 0.616420 0.693168
O O7 0.220106 0.311527 0.818338
O O8 0.500000 0.500000 0.000000
O O9 0.456420 0.412376 0.252375
O O10 0.637408 0.179840 0.286163
O O11 0.853882 0.228588 0.581027
O O12 0.403986 0.725832 0.184032
O O13 0.251027 0.803352 0.894643
O O14 0.824671 0.882710 0.527857
O O15 0.606204 0.920263 0.205027
O O16 0.207878 0.032797 0.944523
O O17 0.000000 0.000000 0.500000
#
# Coordination Sequence:
#
# PCOD9032620 Si02
#       8
#     2   2   2   2   2   2   2   2
#     4   9  21  46  70  95 133 173 222 274 328 387
#     4  11  22  39  61  93 131 173 216 267 321 395
#     4  11  22  42  64  93 134 175 220 264 332 386
#     4  10  22  43  72  97 129 178 222 270 328 396
#     4  11  23  43  66  98 133 171 221 269 328 387
#     4  12  25  42  67 101 132 172 223 269 331 390
#     4  12  25  43  65  97 138 174 215 274 325 391
#     4  10  23  39  65  98 131 170 219 273 326 392
#
# _framework density 22.403230000000001
#
# number of rings (size 3 to 8) (size 9 to 14) (size 15 to 20)
#    0.000    1.250    3.750    1.875    0.000    4.500 
#    0.000    1.875    0.000    0.000    0.000    0.000 
#    0.000    0.000    0.000    0.000    0.000    0.000 
#
# Total GULP energy -89543.279665 kJ/mol
# GULP energy per Si atom -5596.454979 kJ/mol
# Density = 2.235224 g / cm^3
# Si number density = 22.403230 Si / 1000 Ang^3
#
#
#
# Elastic Constant Matrix: (Units=GPa)
#
#
# Indices 1 2 3 4 5 6 
#
# 1 104.4554 43.9870 9.3395 -11.1708 6.9712 -12.2616
# 2 43.9870 129.4933 36.1291 -9.1782 3.5767 -12.0191
# 3 9.3395 36.1291 82.4006 -4.4044 -0.8373 -4.0180
# 4 -11.1708 -9.1782 -4.4044 54.9338 4.1224 3.4924
# 5 6.9712 3.5767 -0.8373 4.1224 18.7862 0.2673
# 6 -12.2616 -12.0191 -4.0180 3.4924 0.2673 21.6070
#
#
#
# Elastic Compliance Matrix: (Units=1/GPa)
#
#
# Indices 1 2 3 4 5 6 
#
# 1 0.012065 -0.003539 0.000473 0.001921 -0.004271 0.004708
# 2 -0.003539 0.010379 -0.003985 0.000584 -0.001010 0.002942
# 3 0.000473 -0.003985 0.013890 0.000426 0.001101 0.000552
# 4 0.001921 0.000584 0.000426 0.019199 -0.004996 -0.001547
# 5 -0.004271 -0.001010 0.001101 -0.004996 0.056191 -0.002668
# 6 0.004708 0.002942 0.000552 -0.001547 -0.002668 0.050975
#
#
# Mechanical properties :
#
#
# Convention : Reuss Voigt Hill
#
# Bulk Modulus (GPa) = 44.98074 55.02894 50.00484
# Shear Modulus (GPa) = 27.14259 34.19165 30.66712
#
# Velocity S-wave (km/s) = 3.48451 3.91089 3.70384
# Velocity P-wave (km/s) = 6.02581 6.70893 6.37652
#
# Compressibility (1/GPa) = 0.02223174
#
# Stress axis : x y z
#
# Youngs Moduli (GPa) = 82.88684 96.35041 71.99213
#
# Poissons Ratio (x) = 0.34099 -0.03406
# Poissons Ratio (y) = 0.29334 0.28690
# Poissons Ratio (z) = -0.03922 0.38397
#
# Static dielectric constant tensor:
#      x y z
#    x 1.796320 0.004420 -0.012670 
#    y 0.004420 1.837160 0.034820 
#    z -0.012670 0.034820 1.879200 
# 
# From -- ./inp_files/272554.got.cif
#   From: 2010.05.17/outbox.cif.g08.bks.cpg/sg2_137_cif.got.tgz:272554.got - 2010.06.03 11:33:40.
