data_PCOD9032811
_publ_section_title
;
Structure prediction by ZEFSAII (Michael W. Deem and Ramdas Pophale) SiO2 
 PCOD9032811
Probable space group: P -1
;
_chemical_formula_sum "Si O2"
_cell_formula_units_Z 16
_cell_length_a 5.563597
_cell_length_b 29.131672
_cell_length_c 26.260634
_cell_angle_alpha 8.607882
_cell_angle_beta 103.609959
_cell_angle_gamma 102.766213
_cell_volume 617.148130
_symmetry_space_group_name_H-M "P -1"
_symmetry_group_IT_number 2
_symmetry_cell_setting 'triclinic'
loop_
_space_group_symop_operation_xyz
x,y,z
-x,-y,-z
loop_
_atom_site_type_symbol
_atom_site_label
_atom_site_fract_x
_atom_site_fract_y
_atom_site_fract_z
Si Si1 0.958148 0.366569 0.588941
Si Si2 0.524288 0.107350 0.244270
Si Si3 0.460469 0.154912 0.082584
Si Si4 0.106937 0.655084 0.624577
Si Si5 0.974872 0.304821 0.102931
Si Si6 0.361832 0.205575 0.612764
Si Si7 0.733790 0.298817 0.254232
Si Si8 0.423325 0.259351 0.669580
O O1 0.170460 0.442929 0.475631
O O2 0.000000 0.500000 0.500000
O O3 0.671118 0.441415 0.478211
O O4 0.000000 0.000000 0.000000
O O5 0.630941 0.056175 0.249033
O O6 0.367189 0.828469 0.557865
O O7 0.714887 0.161817 0.239001
O O8 0.345378 0.415642 0.892379
O O9 0.209188 0.992196 0.259928
O O10 0.567594 0.021805 0.180809
O O11 0.455573 0.520044 0.679915
O O12 0.910337 0.650794 0.574074
O O13 0.989369 0.521361 0.816334
O O14 0.176257 0.010983 0.431446
O O15 0.037278 0.501514 0.939267
O O16 0.371637 0.104875 0.782303
O O17 0.500000 0.500000 0.000000
O O18 0.500000 0.000000 0.000000
#
# Coordination Sequence:
#
# PCOD9032811 Si02
#       8
#     2   2   2   2   2   2   2   2
#     4  10  22  43  75  98 137 188 241 286 351 436
#     4  11  25  43  74 100 140 188 233 297 363 428
#     4  12  25  44  67 104 139 178 242 292 367 422
#     4  11  24  44  70 100 142 178 241 292 368 425
#     4  11  24  41  72  95 140 185 232 292 362 418
#     4  12  29  43  72 107 143 184 240 304 363 441
#     4  11  26  44  67 105 141 185 237 288 353 432
#     4  10  25  50  73 108 150 196 244 304 377 452
#
# _framework density 25.925702000000001
#
# number of rings (size 3 to 8) (size 9 to 14) (size 15 to 20)
#    0.000    1.000    3.750    0.750    7.000    5.000 
#    2.250    0.000    0.000    0.000    0.000    0.000 
#    0.000    0.000    0.000    0.000    0.000    0.000 
#
# Total GULP energy -89590.673752 kJ/mol
# GULP energy per Si atom -5599.417110 kJ/mol
# Density = 2.586669 g / cm^3
# Si number density = 25.925702 Si / 1000 Ang^3
#
#
#
# Elastic Constant Matrix: (Units=GPa)
#
#
# Indices 1 2 3 4 5 6 
#
# 1 113.2069 16.1930 10.7298 -11.2175 -1.8600 12.5678
# 2 16.1930 135.5643 33.2782 -16.2594 -5.5792 2.0731
# 3 10.7298 33.2782 87.1597 -3.5366 2.4218 0.6797
# 4 -11.2175 -16.2594 -3.5366 43.9920 -1.5024 2.6019
# 5 -1.8600 -5.5792 2.4218 -1.5024 30.2132 -9.7990
# 6 12.5678 2.0731 0.6797 2.6019 -9.7990 49.4375
#
#
#
# Elastic Compliance Matrix: (Units=1/GPa)
#
#
# Indices 1 2 3 4 5 6 
#
# 1 0.009504 -0.000632 -0.000812 0.002268 -0.000175 -0.002532
# 2 -0.000632 0.008650 -0.003165 0.002844 0.001981 0.000084
# 3 -0.000812 -0.003165 0.012815 -0.000396 -0.001733 -0.000160
# 4 0.002268 0.002844 -0.000396 0.024477 0.001359 -0.001709
# 5 -0.000175 0.001981 -0.001733 0.001359 0.035942 0.007038
# 6 -0.002532 0.000084 -0.000160 -0.001709 0.007038 0.022355
#
#
# Mechanical properties :
#
#
# Convention : Reuss Voigt Hill
#
# Bulk Modulus (GPa) = 45.97645 50.70365 48.34005
# Shear Modulus (GPa) = 38.39887 43.11051 40.75469
#
# Velocity S-wave (km/s) = 3.85270 4.08223 3.96912
# Velocity P-wave (km/s) = 6.12890 6.46678 6.30011
#
# Compressibility (1/GPa) = 0.02175026
#
# Stress axis : x y z
#
# Youngs Moduli (GPa) = 105.22107 115.60057 78.03367
#
# Poissons Ratio (x) = 0.07310 0.06335
# Poissons Ratio (y) = 0.06654 0.24700
# Poissons Ratio (z) = 0.08543 0.36591
#
# Static dielectric constant tensor:
#      x y z
#    x 2.095870 -0.018380 0.008020 
#    y -0.018380 2.022560 0.038970 
#    z 0.008020 0.038970 2.111330 
# 
# From -- ./inp_files/14434.got.cif
#   From: 2010.05.17/outbox.cif.g08.bks.cpg/sg2_8_cif.got.tgz:14434.got - 2010.06.03 11:33:40.
