data_PCOD9032832
_publ_section_title
;
Structure prediction by ZEFSAII (Michael W. Deem and Ramdas Pophale) SiO2 
 PCOD9032832
Probable space group: P -1
;
_chemical_formula_sum "Si O2"
_cell_formula_units_Z 11
_cell_length_a 9.657954
_cell_length_b 7.159177
_cell_length_c 6.977026
_cell_angle_alpha 117.549935
_cell_angle_beta 88.494631
_cell_angle_gamma 105.394984
_cell_volume 409.726972
_symmetry_space_group_name_H-M "P -1"
_symmetry_group_IT_number 2
_symmetry_cell_setting 'triclinic'
loop_
_space_group_symop_operation_xyz
x,y,z
-x,-y,-z
loop_
_atom_site_type_symbol
_atom_site_label
_atom_site_fract_x
_atom_site_fract_y
_atom_site_fract_z
Si Si1 0.000000 0.000000 0.000000
Si Si2 0.597687 0.351616 0.790498
Si Si3 0.827889 0.123884 0.665298
Si Si4 0.895587 0.693953 0.514073
Si Si5 0.681113 0.821056 0.069276
Si Si6 0.251354 0.731841 0.886522
O O1 0.054247 0.224711 0.237833
O O2 0.854964 0.900639 0.108887
O O3 0.690893 0.198456 0.635905
O O4 0.430246 0.241808 0.779931
O O5 0.634402 0.600386 0.834373
O O6 0.668389 0.379309 0.016306
O O7 0.966496 0.253719 0.605995
O O8 0.809547 0.867133 0.538916
O O9 0.857281 0.183302 0.923457
O O10 0.811428 0.443986 0.356392
O O11 0.652187 0.038189 0.084698
#
# Coordination Sequence:
#
# PCOD9032832 Si02
#       6
#     1   2   2   2   2   2
#     4  12  26  42  68 104 146 174 238 292 334 430
#     4   9  23  45  73  96 149 183 228 297 349 418
#     4   9  22  43  71  99 140 187 229 288 354 409
#     4  11  23  42  71 109 139 186 236 288 355 415
#     4  11  23  44  67 109 140 184 236 284 357 422
#     4  10  22  43  76  97 139 188 235 290 347 415
#
# _framework density 26.847145000000001
#
# number of rings (size 3 to 8) (size 9 to 14) (size 15 to 20)
#    1.091    0.727    1.818    1.091    7.636    0.727 
#    0.000    4.545    0.000    0.000    0.000    0.000 
#    0.000    0.000    0.000    0.000    0.000    0.000 
#
# Total GULP energy -61268.902199 kJ/mol
# GULP energy per Si atom -5569.900200 kJ/mol
# Density = 2.678604 g / cm^3
# Si number density = 26.847145 Si / 1000 Ang^3
#
#
#
# Elastic Constant Matrix: (Units=GPa)
#
#
# Indices 1 2 3 4 5 6 
#
# 1 127.2372 42.5103 55.2405 16.2826 -35.1499 28.7126
# 2 42.5103 136.9763 69.9275 23.5144 -16.1285 13.9020
# 3 55.2405 69.9275 178.3377 28.4199 2.9395 -2.4094
# 4 16.2826 23.5144 28.4199 42.1081 -18.5607 -10.7904
# 5 -35.1499 -16.1285 2.9395 -18.5607 41.9743 6.1914
# 6 28.7126 13.9020 -2.4094 -10.7904 6.1914 43.2410
#
#
#
# Elastic Compliance Matrix: (Units=1/GPa)
#
#
# Indices 1 2 3 4 5 6 
#
# 1 0.020177 0.001651 -0.007713 0.001479 0.021237 -0.017030
# 2 0.001651 0.010872 -0.004496 -0.002856 0.005548 -0.006349
# 3 -0.007713 -0.004496 0.010935 -0.005438 -0.012479 0.007606
# 4 0.001479 -0.002856 -0.005438 0.037187 0.015988 0.006624
# 5 0.021237 0.005548 -0.012479 0.015988 0.054696 -0.020423
# 6 -0.017030 -0.006349 0.007606 0.006624 -0.020423 0.041477
#
#
# Mechanical properties :
#
#
# Convention : Reuss Voigt Hill
#
# Bulk Modulus (GPa) = 47.92395 86.43419 67.17907
# Shear Modulus (GPa) = 24.58029 43.78955 34.18492
#
# Velocity S-wave (km/s) = 3.02911 4.04303 3.57223
# Velocity P-wave (km/s) = 5.48848 7.35252 6.48780
#
# Compressibility (1/GPa) = 0.02086639
#
# Stress axis : x y z
#
# Youngs Moduli (GPa) = 49.56125 91.98336 91.45350
#
# Poissons Ratio (x) = -0.15185 0.70537
# Poissons Ratio (y) = -0.08182 0.41120
# Poissons Ratio (z) = 0.38226 0.41358
#
# Static dielectric constant tensor:
#      x y z
#    x 1.851200 0.013530 -0.098130 
#    y 0.013530 2.041410 -0.051250 
#    z -0.098130 -0.051250 2.104880 
# 
# From -- ./inp_files/241304.got.cif
#   From: 2010.05.17/outbox.cif.g08.bks.cpg/sg2_121_cif.got.tgz:241304.got - 2010.06.03 11:33:40.
