data_PCOD9032818
_publ_section_title
;
Structure prediction by ZEFSAII (Michael W. Deem and Ramdas Pophale) SiO2 
 PCOD9032818
Probable space group: P -1
;
_chemical_formula_sum "Si O2"
_cell_formula_units_Z 12
_cell_length_a 5.132891
_cell_length_b 5.667328
_cell_length_c 19.455618
_cell_angle_alpha 115.552880
_cell_angle_beta 114.465593
_cell_angle_gamma 85.338514
_cell_volume 461.476069
_symmetry_space_group_name_H-M "P -1"
_symmetry_group_IT_number 2
_symmetry_cell_setting 'triclinic'
loop_
_space_group_symop_operation_xyz
x,y,z
-x,-y,-z
loop_
_atom_site_type_symbol
_atom_site_label
_atom_site_fract_x
_atom_site_fract_y
_atom_site_fract_z
Si Si1 0.159068 0.428410 0.940116
Si Si2 0.253184 0.849813 0.538032
Si Si3 0.269191 0.864500 0.903210
Si Si4 0.981276 0.384216 0.372557
Si Si5 0.644034 0.569794 0.242905
Si Si6 0.223590 0.910554 0.299141
O O1 0.088503 0.633693 0.899177
O O2 0.121006 0.110045 0.886945
O O3 0.500000 0.500000 0.000000
O O4 0.000000 0.500000 0.000000
O O5 0.232035 0.597853 0.454782
O O6 0.154133 0.762045 0.593185
O O7 0.561308 0.016739 0.603107
O O8 0.000000 0.000000 0.500000
O O9 0.415868 0.697702 0.840629
O O10 0.500000 0.000000 0.000000
O O11 0.724535 0.501861 0.320578
O O12 0.113743 0.192028 0.309400
O O13 0.404187 0.768643 0.245153
O O14 0.939829 0.723579 0.265762
#
# Coordination Sequence:
#
# PCOD9032818 Si02
#       6
#     2   2   2   2   2   2
#     4  10  22  43  76 105 143 182 247 307 369 443
#     4  11  23  47  75 104 147 192 251 299 371 454
#     4  10  25  50  76 113 148 201 255 312 380 455
#     4  11  25  45  74 106 146 199 242 307 376 444
#     4  12  29  46  73 106 153 192 246 315 374 445
#     4  12  26  48  68 110 146 190 247 303 377 440
#
# _framework density 26.003513000000002
#
# number of rings (size 3 to 8) (size 9 to 14) (size 15 to 20)
#    0.000    1.000    3.333    1.000    4.667    8.000 
#    0.000    1.667    0.000    0.000    0.000    0.000 
#    0.000    0.000    0.000    0.000    0.000    0.000 
#
# Total GULP energy -67190.423033 kJ/mol
# GULP energy per Si atom -5599.201919 kJ/mol
# Density = 2.594433 g / cm^3
# Si number density = 26.003513 Si / 1000 Ang^3
#
#
#
# Elastic Constant Matrix: (Units=GPa)
#
#
# Indices 1 2 3 4 5 6 
#
# 1 136.3394 52.6878 41.5882 16.0661 -7.3894 -7.5437
# 2 52.6878 161.2434 31.0475 29.3921 -15.5470 -13.5807
# 3 41.5882 31.0475 142.1573 53.1994 -9.1559 -12.7695
# 4 16.0661 29.3921 53.1994 49.7186 -10.1466 -10.4925
# 5 -7.3894 -15.5470 -9.1559 -10.1466 47.8564 4.2278
# 6 -7.5437 -13.5807 -12.7695 -10.4925 4.2278 41.6663
#
#
#
# Elastic Compliance Matrix: (Units=1/GPa)
#
#
# Indices 1 2 3 4 5 6 
#
# 1 0.009008 -0.002673 -0.002592 0.001580 0.000333 0.000330
# 2 -0.002673 0.007903 0.000797 -0.004146 0.001326 0.001158
# 3 -0.002592 0.000797 0.012496 -0.013033 -0.000549 0.000394
# 4 0.001580 -0.004146 -0.013033 0.037671 0.004036 0.004017
# 5 0.000333 0.001326 -0.000549 0.004036 0.022209 -0.000913
# 6 0.000330 0.001158 0.000394 0.004017 -0.000913 0.025662
#
#
# Mechanical properties :
#
#
# Convention : Reuss Voigt Hill
#
# Bulk Modulus (GPa) = 48.84739 76.70968 62.77853
# Shear Modulus (GPa) = 38.25307 48.80938 43.53123
#
# Velocity S-wave (km/s) = 3.83962 4.33717 4.09596
# Velocity P-wave (km/s) = 6.20343 7.39224 6.82377
#
# Compressibility (1/GPa) = 0.02047192
#
# Stress axis : x y z
#
# Youngs Moduli (GPa) = 111.01078 126.53844 80.02437
#
# Poissons Ratio (x) = 0.33818 0.20741
# Poissons Ratio (y) = 0.29668 -0.06376
# Poissons Ratio (z) = 0.28772 -0.10082
#
# Static dielectric constant tensor:
#      x y z
#    x 2.004710 0.013930 -0.000550 
#    y 0.013930 2.112490 0.027010 
#    z -0.000550 0.027010 2.058330 
# 
# From -- ./inp_files/5127.got.cif
#   From: 2010.05.17/outbox.cif.g08.bks.cpg/sg2_3_cif.got.tgz:5127.got - 2010.06.03 11:33:40.
