data_PCOD9032865
_publ_section_title
;
Structure prediction by ZEFSAII (Michael W. Deem and Ramdas Pophale) SiO2 
 PCOD9032865
Probable space group: P -1
;
_chemical_formula_sum "Si O2"
_cell_formula_units_Z 15
_cell_length_a 8.381161
_cell_length_b 18.038366
_cell_length_c 15.452995
_cell_angle_alpha 23.189341
_cell_angle_beta 56.123170
_cell_angle_gamma 43.849395
_cell_volume 587.719482
_symmetry_space_group_name_H-M "P -1"
_symmetry_group_IT_number 2
_symmetry_cell_setting 'triclinic'
loop_
_space_group_symop_operation_xyz
x,y,z
-x,-y,-z
loop_
_atom_site_type_symbol
_atom_site_label
_atom_site_fract_x
_atom_site_fract_y
_atom_site_fract_z
Si Si1 0.382659 0.198063 0.053344
Si Si2 0.500000 0.500000 0.000000
Si Si3 0.061612 0.603675 0.254657
Si Si4 0.827988 0.389695 0.586742
Si Si5 0.357204 0.880645 0.118043
Si Si6 0.351251 0.948529 0.480891
Si Si7 0.113159 0.252896 0.392191
Si Si8 0.308699 0.789228 0.906252
O O1 0.533664 0.098639 0.025063
O O2 0.543944 0.228117 0.037433
O O3 0.120021 0.465236 0.828505
O O4 0.331653 0.037478 0.293433
O O5 0.674481 0.255860 0.273765
O O6 0.480831 0.674031 0.893764
O O7 0.036117 0.396857 0.474337
O O8 0.156906 0.586975 0.340467
O O9 0.217979 0.631269 0.112598
O O10 0.789202 0.870988 0.051023
O O11 0.569434 0.639605 0.364554
O O12 0.832563 0.169356 0.797299
O O13 0.635785 0.822615 0.559031
O O14 0.167882 0.175288 0.358054
O O15 0.084684 0.069763 0.646326
#
# Coordination Sequence:
#
# PCOD9032865 Si02
#       8
#     2   1   2   2   2   2   2   2
#     4  11  22  39  65  96 124 172 218 265 326 393
#     4  10  22  44  60  94 132 154 210 276 322 386
#     4  11  23  43  65  94 133 179 222 268 332 394
#     4  10  24  41  64  94 135 174 224 276 321 389
#     4  11  24  41  65  99 133 174 225 274 325 392
#     4   9  20  40  64  89 122 166 207 260 323 393
#     4   9  20  39  63  87 122 162 215 262 315 387
#     4  10  23  40  64  91 127 173 214 270 329 388
#
# _framework density 25.522379000000001
#
# number of rings (size 3 to 8) (size 9 to 14) (size 15 to 20)
#    0.000    1.867    1.333    2.000    3.733    4.267 
#    0.000    6.000    0.000    0.000    0.000    0.000 
#    0.000    0.000    0.000    0.000    0.000    0.000 
#
# Total GULP energy -83763.764264 kJ/mol
# GULP energy per Si atom -5584.250951 kJ/mol
# Density = 2.546429 g / cm^3
# Si number density = 25.522379 Si / 1000 Ang^3
#
#
#
# Elastic Constant Matrix: (Units=GPa)
#
#
# Indices 1 2 3 4 5 6 
#
# 1 65.7340 4.6231 25.0881 7.7813 -5.1561 4.7593
# 2 4.6231 67.1910 3.5157 3.4744 -6.6627 4.1906
# 3 25.0881 3.5157 135.6697 16.2461 -3.6818 -8.4529
# 4 7.7813 3.4744 16.2461 40.3318 -4.0641 -5.0497
# 5 -5.1561 -6.6627 -3.6818 -4.0641 45.4588 2.4547
# 6 4.7593 4.1906 -8.4529 -5.0497 2.4547 25.9351
#
#
#
# Elastic Compliance Matrix: (Units=1/GPa)
#
#
# Indices 1 2 3 4 5 6 
#
# 1 0.017200 -0.000432 -0.003126 -0.002447 0.001672 -0.004740
# 2 -0.000432 0.015400 -0.000291 -0.001272 0.002231 -0.002963
# 3 -0.003126 -0.000291 0.008424 -0.002410 -0.000087 0.002905
# 4 -0.002447 -0.001272 -0.002410 0.027125 0.001495 0.005009
# 5 0.001672 0.002231 -0.000087 0.001495 0.022779 -0.002561
# 6 -0.004740 -0.002963 0.002905 0.005009 -0.002561 0.042071
#
#
# Mechanical properties :
#
#
# Convention : Reuss Voigt Hill
#
# Bulk Modulus (GPa) = 30.00730 37.22761 33.61746
# Shear Modulus (GPa) = 32.93681 38.03632 35.48657
#
# Velocity S-wave (km/s) = 3.59626 3.86464 3.73287
# Velocity P-wave (km/s) = 5.38766 5.87638 5.63732
#
# Compressibility (1/GPa) = 0.03332522
#
# Stress axis : x y z
#
# Youngs Moduli (GPa) = 58.13797 64.93648 118.71172
#
# Poissons Ratio (x) = 0.02805 0.37115
# Poissons Ratio (y) = 0.02511 0.03453
# Poissons Ratio (z) = 0.18177 0.01889
#
# Static dielectric constant tensor:
#      x y z
#    x 2.037450 -0.069000 -0.011650 
#    y -0.069000 2.058400 0.060250 
#    z -0.011650 0.060250 2.032170 
# 
# From -- ./inp_files/562504.got.cif
#   From: 2010.05.17/outbox.cif.g08.bks.cpg/sg2_282_cif.got.tgz:562504.got - 2010.06.03 11:33:40.
