data_PCOD9032837
_publ_section_title
;
Structure prediction by ZEFSAII (Michael W. Deem and Ramdas Pophale) SiO2 
 PCOD9032837
Probable space group: P -1
;
_chemical_formula_sum "Si O2"
_cell_formula_units_Z 14
_cell_length_a 17.643341
_cell_length_b 12.362577
_cell_length_c 11.917990
_cell_angle_alpha 144.231619
_cell_angle_beta 151.632136
_cell_angle_gamma 27.034920
_cell_volume 556.789125
_symmetry_space_group_name_H-M "P -1"
_symmetry_group_IT_number 2
_symmetry_cell_setting 'triclinic'
loop_
_space_group_symop_operation_xyz
x,y,z
-x,-y,-z
loop_
_atom_site_type_symbol
_atom_site_label
_atom_site_fract_x
_atom_site_fract_y
_atom_site_fract_z
Si Si1 0.625363 0.521365 0.358128
Si Si2 0.716732 0.503086 0.726562
Si Si3 0.813745 0.019954 0.825985
Si Si4 0.638966 0.105987 0.047266
Si Si5 0.204156 0.259344 0.615959
Si Si6 0.716561 0.079643 0.381833
Si Si7 0.135928 0.301191 0.182180
O O1 0.653333 0.521447 0.529900
O O2 0.696847 0.263176 0.205235
O O3 0.757503 0.592907 0.543396
O O4 0.385703 0.715450 0.176182
O O5 0.777464 0.248078 0.628428
O O6 0.525178 0.731059 0.736441
O O7 0.913925 0.483406 0.989051
O O8 0.729301 0.947938 0.558692
O O9 0.884564 0.831741 0.857473
O O10 0.000000 0.000000 0.000000
O O11 0.735309 0.028282 0.231302
O O12 0.392125 0.264353 0.875561
O O13 0.717663 0.894067 0.886759
O O14 0.000000 0.500000 0.500000
O O15 0.177561 0.161033 0.612193
#
# Coordination Sequence:
#
# PCOD9032837 Si02
#       7
#     2   2   2   2   2   2   2
#     4  11  24  47  73 103 149 192 241 307 368 434
#     4  10  22  43  77 106 144 196 247 299 370 437
#     4  12  26  48  72 103 150 197 245 296 365 444
#     4  11  26  46  73 109 146 190 245 308 368 433
#     4  12  25  45  71 111 147 194 250 300 364 440
#     4  10  22  45  75 107 147 189 248 308 360 436
#     4  12  26  47  72 110 151 192 241 303 375 436
#
# _framework density 25.144168000000001
#
# number of rings (size 3 to 8) (size 9 to 14) (size 15 to 20)
#    0.000    0.857    2.857    3.000    6.000    2.857 
#    7.714    0.000    0.000    0.000    0.000    0.000 
#    0.000    0.000    0.000    0.000    0.000    0.000 
#
# Total GULP energy -78495.310675 kJ/mol
# GULP energy per Si atom -5606.807905 kJ/mol
# Density = 2.508694 g / cm^3
# Si number density = 25.144168 Si / 1000 Ang^3
#
#
#
# Elastic Constant Matrix: (Units=GPa)
#
#
# Indices 1 2 3 4 5 6 
#
# 1 103.6980 44.0665 33.5916 -2.0036 13.7805 25.9541
# 2 44.0665 118.1884 58.5291 11.9246 32.6163 25.8127
# 3 33.5916 58.5291 96.5899 -8.5918 17.1258 15.6120
# 4 -2.0036 11.9246 -8.5918 32.0395 -2.7527 -0.1274
# 5 13.7805 32.6163 17.1258 -2.7527 38.2470 5.7122
# 6 25.9541 25.8127 15.6120 -0.1274 5.7122 46.0904
#
#
#
# Elastic Compliance Matrix: (Units=1/GPa)
#
#
# Indices 1 2 3 4 5 6 
#
# 1 0.012725 -0.002770 -0.001722 0.001292 -0.000619 -0.004951
# 2 -0.002770 0.019100 -0.008758 -0.010630 -0.011419 -0.004785
# 3 -0.001722 -0.008758 0.016731 0.007737 0.001141 0.000087
# 4 0.001292 -0.010630 0.007737 0.037984 0.007605 0.001768
# 5 -0.000619 -0.011419 0.001141 0.007605 0.035854 0.001935
# 6 -0.004951 -0.004785 0.000087 0.001768 0.001935 0.026899
#
#
# Mechanical properties :
#
#
# Convention : Reuss Voigt Hill
#
# Bulk Modulus (GPa) = 45.34072 65.65011 55.49542
# Shear Modulus (GPa) = 27.30103 35.42798 31.36451
#
# Velocity S-wave (km/s) = 3.29869 3.75773 3.53567
# Velocity P-wave (km/s) = 5.70788 6.70772 6.22790
#
# Compressibility (1/GPa) = 0.02205523
#
# Stress axis : x y z
#
# Youngs Moduli (GPa) = 78.58826 52.35704 59.77104
#
# Poissons Ratio (x) = 0.14502 0.10293
# Poissons Ratio (y) = 0.21768 0.52347
# Poissons Ratio (z) = 0.13533 0.45854
#
# Static dielectric constant tensor:
#      x y z
#    x 2.022710 0.015930 0.025920 
#    y 0.015930 2.006410 0.016390 
#    z 0.025920 0.016390 1.937130 
# 
# From -- ./inp_files/465153.got.cif
#   From: 2010.05.17/outbox.cif.g08.bks.cpg/sg2_233_cif.got.tgz:465153.got - 2010.06.03 11:33:40.
