data_PCOD9032467
_publ_section_title
;
Structure prediction by ZEFSAII (Michael W. Deem and Ramdas Pophale) SiO2 
 PCOD9032467
Probable space group: P -1
;
_chemical_formula_sum "Si O2"
_cell_formula_units_Z 16
_cell_length_a 10.898498
_cell_length_b 12.350653
_cell_length_c 6.092766
_cell_angle_alpha 121.259072
_cell_angle_beta 96.532088
_cell_angle_gamma 86.415900
_cell_volume 696.495843
_symmetry_space_group_name_H-M "P -1"
_symmetry_group_IT_number 2
_symmetry_cell_setting 'triclinic'
loop_
_space_group_symop_operation_xyz
x,y,z
-x,-y,-z
loop_
_atom_site_type_symbol
_atom_site_label
_atom_site_fract_x
_atom_site_fract_y
_atom_site_fract_z
Si Si1 0.574383 0.160703 0.760477
Si Si2 0.829037 0.542994 0.888484
Si Si3 0.012276 0.059928 0.318226
Si Si4 0.276791 0.065762 0.222780
Si Si5 0.605969 0.998169 0.208195
Si Si6 0.733835 0.662519 0.607937
Si Si7 0.006253 0.338031 0.587149
Si Si8 0.626070 0.448041 0.074794
O O1 0.437975 0.113278 0.754319
O O2 0.605303 0.302261 0.976861
O O3 0.660631 0.056638 0.786089
O O4 0.597334 0.127640 0.476179
O O5 0.745044 0.643108 0.847863
O O6 0.740559 0.463858 0.947107
O O7 0.901512 0.444160 0.642624
O O8 0.929872 0.620867 0.127959
O O9 0.157889 0.086962 0.365251
O O10 0.949631 0.198402 0.442787
O O11 0.000000 0.000000 0.500000
O O12 0.000000 0.000000 0.000000
O O13 0.328843 0.208238 0.352918
O O14 0.267609 0.026886 0.920974
O O15 0.500000 0.000000 0.000000
O O16 0.877450 0.662547 0.556017
O O17 0.662944 0.541639 0.375717
O O18 0.500000 0.500000 0.000000
#
# Coordination Sequence:
#
# PCOD9032467 Si02
#       8
#     2   2   2   2   2   2   2   2
#     4  10  23  42  65  92 136 170 224 293 333 422
#     4  10  22  43  71  91 133 178 225 291 341 428
#     4  11  27  43  68 108 146 180 226 298 353 424
#     4  10  24  42  71  95 129 182 228 279 350 418
#     4   9  21  39  66  93 119 174 226 268 344 404
#     4  10  23  42  67  97 128 178 227 283 345 419
#     4   9  22  43  69 100 128 175 234 275 357 414
#     4  11  27  40  60  99 135 174 224 283 354 404
#
# _framework density 22.97214
#
# number of rings (size 3 to 8) (size 9 to 14) (size 15 to 20)
#    0.000    2.000    0.000    0.375   14.000    4.500 
#    0.000    0.000    0.000    0.000    0.000    0.000 
#    0.000    0.000    0.000    0.000    0.000    0.000 
#
# Total GULP energy -89120.984157 kJ/mol
# GULP energy per Si atom -5570.061510 kJ/mol
# Density = 2.291985 g / cm^3
# Si number density = 22.972140 Si / 1000 Ang^3
#
#
#
# Elastic Constant Matrix: (Units=GPa)
#
#
# Indices 1 2 3 4 5 6 
#
# 1 37.9190 18.6253 5.9463 8.1751 -10.9187 -4.6000
# 2 18.6253 152.0289 63.6658 31.4309 10.6628 -18.0226
# 3 5.9463 63.6658 81.7889 12.9889 -3.8180 5.1314
# 4 8.1751 31.4309 12.9889 40.5176 2.2474 -2.3391
# 5 -10.9187 10.6628 -3.8180 2.2474 34.1264 -0.7136
# 6 -4.6000 -18.0226 5.1314 -2.3391 -0.7136 34.5665
#
#
#
# Elastic Compliance Matrix: (Units=1/GPa)
#
#
# Indices 1 2 3 4 5 6 
#
# 1 0.033210 -0.005061 0.002719 -0.004279 0.012821 0.001352
# 2 -0.005061 0.014220 -0.010581 -0.005797 -0.006702 0.007781
# 3 0.002719 -0.010581 0.021060 0.000086 0.006356 -0.008145
# 4 -0.004279 -0.005797 0.000086 0.030007 -0.001558 -0.001606
# 5 0.012821 -0.006702 0.006356 -0.001558 0.036269 -0.002088
# 6 0.001352 0.007781 -0.008145 -0.001606 -0.002088 0.034224
#
#
# Mechanical properties :
#
#
# Convention : Reuss Voigt Hill
#
# Bulk Modulus (GPa) = 23.45143 49.80127 36.62635
# Shear Modulus (GPa) = 23.91760 34.07540 28.99650
#
# Velocity S-wave (km/s) = 3.23020 3.85559 3.55666
# Velocity P-wave (km/s) = 4.91356 6.44568 5.73105
#
# Compressibility (1/GPa) = 0.04264133
#
# Stress axis : x y z
#
# Youngs Moduli (GPa) = 30.11132 70.32445 47.48397
#
# Poissons Ratio (x) = 0.35594 -0.12909
# Poissons Ratio (y) = 0.15241 0.50245
# Poissons Ratio (z) = -0.08186 0.74413
#
# Static dielectric constant tensor:
#      x y z
#    x 2.053640 -0.021630 -0.005730 
#    y -0.021630 1.868420 -0.061240 
#    z -0.005730 -0.061240 1.947960 
# 
# From -- ./inp_files/72321.got.cif
#   From: 2010.05.17/outbox.cif.g08.bks.cpg/sg2_37_cif.got.tgz:72321.got - 2010.06.03 11:33:40.
