data_PCOD9032394
_publ_section_title
;
Structure prediction by ZEFSAII (Michael W. Deem and Ramdas Pophale) SiO2 
 PCOD9032394
Probable space group: P -1
;
_chemical_formula_sum "Si O2"
_cell_formula_units_Z 13
_cell_length_a 14.780200
_cell_length_b 7.731011
_cell_length_c 8.494785
_cell_angle_alpha 50.908249
_cell_angle_beta 139.564339
_cell_angle_gamma 112.393214
_cell_volume 479.090940
_symmetry_space_group_name_H-M "P -1"
_symmetry_group_IT_number 2
_symmetry_cell_setting 'triclinic'
loop_
_space_group_symop_operation_xyz
x,y,z
-x,-y,-z
loop_
_atom_site_type_symbol
_atom_site_label
_atom_site_fract_x
_atom_site_fract_y
_atom_site_fract_z
Si Si1 0.611340 0.084699 0.808633
Si Si2 0.500000 0.500000 0.500000
Si Si3 0.128901 0.129594 0.326293
Si Si4 0.104925 0.597381 0.342795
Si Si5 0.295905 0.193257 0.223016
Si Si6 0.905361 0.318552 0.361657
Si Si7 0.353334 0.339441 0.679919
O O1 0.660248 0.312396 0.790987
O O2 0.445995 0.226160 0.480670
O O3 0.670223 0.957125 0.801714
O O4 0.601586 0.890920 0.029972
O O5 0.479615 0.387088 0.714856
O O6 0.216822 0.063333 0.318248
O O7 0.221044 0.301329 0.420160
O O8 0.131078 0.927084 0.567539
O O9 0.975358 0.253095 0.990042
O O10 0.058903 0.708341 0.387751
O O11 0.274131 0.533602 0.581720
O O12 0.036922 0.369110 0.404684
O O13 0.207431 0.444135 0.930900
#
# Coordination Sequence:
#
# PCOD9032394 Si02
#       7
#     2   1   2   2   2   2   2
#     4  11  25  44  68  95 138 183 229 276 334 404
#     4  12  28  44  70  98 138 184 222 288 332 402
#     4  11  24  41  72 103 138 175 227 282 338 410
#     4  10  23  44  68 103 135 176 230 278 338 411
#     4  10  23  44  66 102 132 178 235 271 333 413
#     4  10  22  43  71 101 136 176 224 286 335 400
#     4  12  26  46  67 103 141 178 227 281 345 400
#
# _framework density 27.134723000000001
#
# number of rings (size 3 to 8) (size 9 to 14) (size 15 to 20)
#    0.000    1.231    3.077    1.385    4.308    1.846 
#    0.000    3.077    0.000    0.000    0.000    0.000 
#    0.000    0.000    0.000    0.000    0.000    0.000 
#
# Total GULP energy -72619.464320 kJ/mol
# GULP energy per Si atom -5586.112640 kJ/mol
# Density = 2.707296 g / cm^3
# Si number density = 27.134723 Si / 1000 Ang^3
#
#
#
# Elastic Constant Matrix: (Units=GPa)
#
#
# Indices 1 2 3 4 5 6 
#
# 1 167.2278 33.7063 30.5330 -26.4049 -10.3602 -5.7931
# 2 33.7063 72.9423 26.5161 -32.8889 2.9926 -2.2969
# 3 30.5330 26.5161 140.2199 -24.0073 -9.7649 1.0728
# 4 -26.4049 -32.8889 -24.0073 41.9147 7.0145 -4.9144
# 5 -10.3602 2.9926 -9.7649 7.0145 39.4386 -5.9739
# 6 -5.7931 -2.2969 1.0728 -4.9144 -5.9739 42.6721
#
#
#
# Elastic Compliance Matrix: (Units=1/GPa)
#
#
# Indices 1 2 3 4 5 6 
#
# 1 0.007018 -0.001940 -0.000645 0.002421 0.001608 0.001368
# 2 -0.001940 0.023239 -0.001387 0.017383 -0.005364 0.002273
# 3 -0.000645 -0.001387 0.008138 0.002944 0.001454 0.000176
# 4 0.002421 0.017383 0.002944 0.042436 -0.006724 0.005136
# 5 0.001608 -0.005364 0.001454 -0.006724 0.028206 0.003067
# 6 0.001368 0.002273 0.000176 0.005136 0.003067 0.024759
#
#
# Mechanical properties :
#
#
# Convention : Reuss Voigt Hill
#
# Bulk Modulus (GPa) = 32.83913 62.43342 47.63628
# Shear Modulus (GPa) = 32.91819 44.11406 38.51613
#
# Velocity S-wave (km/s) = 3.48679 4.03642 3.77163
# Velocity P-wave (km/s) = 5.32342 6.69195 6.04653
#
# Compressibility (1/GPa) = 0.03045147
#
# Stress axis : x y z
#
# Youngs Moduli (GPa) = 142.49264 43.03024 122.87440
#
# Poissons Ratio (x) = 0.08347 0.07930
# Poissons Ratio (y) = 0.27639 0.17043
# Poissons Ratio (z) = 0.09196 0.05969
#
# Static dielectric constant tensor:
#      x y z
#    x 2.097720 -0.017970 0.035820 
#    y -0.017970 4.103680 -0.238450 
#    z 0.035820 -0.238450 2.157900 
# 
# From -- ./inp_files/23045.got.cif
#   From: 2010.05.17/outbox.cif.g08.bks.cpg/sg2_12_cif.got.tgz:23045.got - 2010.06.03 11:33:40.
