data_PCOD9032762
_publ_section_title
;
Structure prediction by ZEFSAII (Michael W. Deem and Ramdas Pophale) SiO2 
 PCOD9032762
Probable space group: P -1
;
_chemical_formula_sum "Si O2"
_cell_formula_units_Z 14
_cell_length_a 11.160544
_cell_length_b 9.311259
_cell_length_c 8.913053
_cell_angle_alpha 128.028192
_cell_angle_beta 77.653467
_cell_angle_gamma 126.736384
_cell_volume 566.880315
_symmetry_space_group_name_H-M "P -1"
_symmetry_group_IT_number 2
_symmetry_cell_setting 'triclinic'
loop_
_space_group_symop_operation_xyz
x,y,z
-x,-y,-z
loop_
_atom_site_type_symbol
_atom_site_label
_atom_site_fract_x
_atom_site_fract_y
_atom_site_fract_z
Si Si1 0.038777 0.619174 0.297830
Si Si2 0.215779 0.991019 0.296023
Si Si3 0.652560 0.232580 0.538675
Si Si4 0.784715 0.669132 0.289103
Si Si5 0.100307 0.885388 0.947906
Si Si6 0.453140 0.789582 0.773739
Si Si7 0.234764 0.316509 0.053486
O O1 0.182137 0.717299 0.437544
O O2 0.928912 0.693567 0.343278
O O3 0.917773 0.347677 0.180977
O O4 0.146484 0.730960 0.191076
O O5 0.210761 0.119634 0.520745
O O6 0.387877 0.141269 0.289674
O O7 0.121528 0.976678 0.170441
O O8 0.638597 0.236573 0.367177
O O9 0.651885 0.436053 0.743209
O O10 0.500000 0.000000 0.500000
O O11 0.636748 0.437996 0.250451
O O12 0.777208 0.657472 0.103460
O O13 0.926085 0.777038 0.880554
O O14 0.233317 0.099282 0.950962
O O15 0.500000 0.000000 0.000000
#
# Coordination Sequence:
#
# PCOD9032762 Si02
#       7
#     2   2   2   2   2   2   2
#     4  11  24  45  80 105 148 196 250 307 370 445
#     4  12  24  47  73 106 155 197 246 311 374 446
#     4  11  23  46  76 109 153 194 252 310 375 440
#     4  12  26  46  74 113 151 200 249 300 380 449
#     4  10  22  43  74 106 148 195 252 303 370 432
#     4  12  27  48  75 107 149 200 251 309 378 447
#     4  10  23  43  73 111 152 196 243 313 366 444
#
# _framework density 24.696573000000001
#
# number of rings (size 3 to 8) (size 9 to 14) (size 15 to 20)
#    0.000    0.857    2.857    3.857    4.000    0.571 
#    5.143    1.429    0.000    0.000    0.000    0.000 
#    0.000    0.000    0.000    0.000    0.000    0.000 
#
# Total GULP energy -78184.951939 kJ/mol
# GULP energy per Si atom -5584.639424 kJ/mol
# Density = 2.464036 g / cm^3
# Si number density = 24.696573 Si / 1000 Ang^3
#
#
#
# Elastic Constant Matrix: (Units=GPa)
#
#
# Indices 1 2 3 4 5 6 
#
# 1 35.8996 38.9531 49.6790 -1.7250 12.2800 -4.9336
# 2 38.9531 236.0946 86.3117 23.7195 5.8705 -8.4243
# 3 49.6790 86.3117 152.2793 8.5412 18.0758 -14.8657
# 4 -1.7250 23.7195 8.5412 41.6777 -7.5438 10.8878
# 5 12.2800 5.8705 18.0758 -7.5438 32.2891 -6.0100
# 6 -4.9336 -8.4243 -14.8657 10.8878 -6.0100 42.8535
#
#
#
# Elastic Compliance Matrix: (Units=1/GPa)
#
#
# Indices 1 2 3 4 5 6 
#
# 1 0.058431 -0.004329 -0.015923 0.006851 -0.011479 -0.002998
# 2 -0.004329 0.005947 -0.001792 -0.003284 0.000991 0.001022
# 3 -0.015923 -0.001792 0.013443 -0.003469 -0.001365 0.003168
# 4 0.006851 -0.003284 -0.003469 0.029906 0.005451 -0.007894
# 5 -0.011479 0.000991 -0.001365 0.005451 0.037619 0.002291
# 6 -0.002998 0.001022 0.003168 -0.007894 0.002291 0.026617
#
#
# Mechanical properties :
#
#
# Convention : Reuss Voigt Hill
#
# Bulk Modulus (GPa) = 29.64483 86.01789 57.83136
# Shear Modulus (GPa) = 21.99775 39.98604 30.99190
#
# Velocity S-wave (km/s) = 2.98773 4.02816 3.54631
# Velocity P-wave (km/s) = 4.89201 7.51933 6.34319
#
# Compressibility (1/GPa) = 0.03373269
#
# Stress axis : x y z
#
# Youngs Moduli (GPa) = 17.11409 168.15997 74.38801
#
# Poissons Ratio (x) = 0.72801 1.18448
# Poissons Ratio (y) = 0.07409 0.13330
# Poissons Ratio (z) = 0.27251 0.30133
#
# Static dielectric constant tensor:
#      x y z
#    x 2.130990 -0.092920 -0.031810 
#    y -0.092920 2.099640 0.047480 
#    z -0.031810 0.047480 1.994900 
# 
# From -- ./inp_files/245493.got.cif
#   From: 2010.05.17/outbox.cif.g08.bks.cpg/sg2_123_cif.got.tgz:245493.got - 2010.06.03 11:33:40.
