data_PCOD9032619
_publ_section_title
;
Structure prediction by ZEFSAII (Michael W. Deem and Ramdas Pophale) SiO2 
 PCOD9032619
Probable space group: P -1
;
_chemical_formula_sum "Si O2"
_cell_formula_units_Z 16
_cell_length_a 18.798021
_cell_length_b 14.510396
_cell_length_c 12.434829
_cell_angle_alpha 140.849652
_cell_angle_beta 30.583043
_cell_angle_gamma 155.612892
_cell_volume 711.947567
_symmetry_space_group_name_H-M "P -1"
_symmetry_group_IT_number 2
_symmetry_cell_setting 'triclinic'
loop_
_space_group_symop_operation_xyz
x,y,z
-x,-y,-z
loop_
_atom_site_type_symbol
_atom_site_label
_atom_site_fract_x
_atom_site_fract_y
_atom_site_fract_z
Si Si1 0.011815 0.684642 0.134969
Si Si2 0.696017 0.562748 0.257175
Si Si3 0.858757 0.707405 0.810274
Si Si4 0.259752 0.685728 0.332909
Si Si5 0.916523 0.588817 0.403130
Si Si6 0.330894 0.891525 0.727559
Si Si7 0.652435 0.216925 0.926429
Si Si8 0.089620 0.931906 0.931444
O O1 0.831150 0.607901 0.223370
O O2 0.977515 0.718220 0.330342
O O3 0.000000 0.500000 0.000000
O O4 0.230511 0.873985 0.955352
O O5 0.500000 0.500000 0.500000
O O6 0.862507 0.770114 0.144947
O O7 0.605297 0.348674 0.121761
O O8 0.708583 0.463616 0.834698
O O9 0.908427 0.683287 0.604852
O O10 0.044065 0.863707 0.803011
O O11 0.785644 0.816517 0.994185
O O12 0.417696 0.875906 0.387921
O O13 0.342044 0.819494 0.237280
O O14 0.000000 0.500000 0.500000
O O15 0.106622 0.623299 0.205572
O O16 0.717717 0.320821 0.404294
O O17 0.203383 0.890294 0.806940
O O18 0.500000 0.000000 0.000000
#
# Coordination Sequence:
#
# PCOD9032619 Si02
#       8
#     2   2   2   2   2   2   2   2
#     4   9  18  41  69 100 140 181 232 296 347 425
#     4  11  23  42  69 102 140 188 238 290 366 423
#     4  11  24  44  69  97 140 187 239 287 354 426
#     4  12  25  43  70 108 140 178 238 301 359 421
#     4  11  21  43  71 104 137 186 243 289 348 435
#     4  10  22  43  72  96 143 189 229 300 360 412
#     4  12  24  41  71 104 143 182 236 299 358 421
#     4  10  23  49  68  94 147 191 233 292 353 432
#
# _framework density 22.473565000000001
#
# number of rings (size 3 to 8) (size 9 to 14) (size 15 to 20)
#    0.000    1.250    6.250    0.750    3.500    1.000 
#    2.250    2.500    0.000    0.000    0.000    0.000 
#    0.000    0.000    0.000    0.000    0.000    0.000 
#
# Total GULP energy -89280.816565 kJ/mol
# GULP energy per Si atom -5580.051035 kJ/mol
# Density = 2.242241 g / cm^3
# Si number density = 22.473565 Si / 1000 Ang^3
#
#
#
# Elastic Constant Matrix: (Units=GPa)
#
#
# Indices 1 2 3 4 5 6 
#
# 1 102.1749 10.2016 42.4636 -13.6019 23.2419 -2.6783
# 2 10.2016 95.3166 30.2007 2.7856 -3.9899 -3.1892
# 3 42.4636 30.2007 112.7355 -5.1178 21.1293 2.6923
# 4 -13.6019 2.7856 -5.1178 37.8605 -1.9765 5.2967
# 5 23.2419 -3.9899 21.1293 -1.9765 45.1552 -9.8000
# 6 -2.6783 -3.1892 2.6923 5.2967 -9.8000 41.7515
#
#
#
# Elastic Compliance Matrix: (Units=1/GPa)
#
#
# Indices 1 2 3 4 5 6 
#
# 1 0.013010 -0.000606 -0.003593 0.004065 -0.005038 -0.000678
# 2 -0.000606 0.012029 -0.003789 -0.001734 0.003544 0.002176
# 3 -0.003593 -0.003789 0.012216 0.000744 -0.004713 -0.002508
# 4 0.004065 -0.001734 0.000744 0.028554 -0.002226 -0.004065
# 5 -0.005038 0.003544 -0.004713 -0.002226 0.028740 0.007280
# 6 -0.000678 0.002176 -0.002508 -0.004065 0.007280 0.026460
#
#
# Mechanical properties :
#
#
# Convention : Reuss Voigt Hill
#
# Bulk Modulus (GPa) = 46.99710 52.88430 49.94070
# Shear Modulus (GPa) = 34.70336 40.11084 37.40710
#
# Velocity S-wave (km/s) = 3.93388 4.22927 4.08425
# Velocity P-wave (km/s) = 6.44914 6.88708 6.67170
#
# Compressibility (1/GPa) = 0.02127791
#
# Stress axis : x y z
#
# Youngs Moduli (GPa) = 76.86181 83.13509 81.86123
#
# Poissons Ratio (x) = 0.05041 0.29414
# Poissons Ratio (y) = 0.04661 0.31017
# Poissons Ratio (z) = 0.27617 0.31499
#
# Static dielectric constant tensor:
#      x y z
#    x 1.897760 0.018680 0.085390 
#    y 0.018680 1.894620 -0.031970 
#    z 0.085390 -0.031970 1.917930 
# 
# From -- ./inp_files/471763.got.cif
#   From: 2010.05.17/outbox.cif.g08.bks.cpg/sg2_236_cif.got.tgz:471763.got - 2010.06.03 11:33:40.
