data_PCOD9032873
_publ_section_title
;
Structure prediction by ZEFSAII (Michael W. Deem and Ramdas Pophale) SiO2 
 PCOD9032873
Probable space group: P -1
;
_chemical_formula_sum "Si O2"
_cell_formula_units_Z 16
_cell_length_a 7.555102
_cell_length_b 13.203347
_cell_length_c 16.717488
_cell_angle_alpha 32.052640
_cell_angle_beta 104.354896
_cell_angle_gamma 123.821858
_cell_volume 633.431786
_symmetry_space_group_name_H-M "P -1"
_symmetry_group_IT_number 2
_symmetry_cell_setting 'triclinic'
loop_
_space_group_symop_operation_xyz
x,y,z
-x,-y,-z
loop_
_atom_site_type_symbol
_atom_site_label
_atom_site_fract_x
_atom_site_fract_y
_atom_site_fract_z
Si Si1 0.383144 0.896427 0.289386
Si Si2 0.501923 0.650737 0.070105
Si Si3 0.608025 0.704486 0.228325
Si Si4 0.951635 0.566960 0.333719
Si Si5 0.862253 0.387429 0.281354
Si Si6 0.995061 0.834384 0.923379
Si Si7 0.764047 0.843936 0.406733
Si Si8 0.698530 0.875513 0.565319
O O1 0.213116 0.731352 0.457678
O O2 0.571286 0.856143 0.337813
O O3 0.184927 0.751399 0.293162
O O4 0.536141 0.196725 0.093626
O O5 0.533930 0.725382 0.117802
O O6 0.311070 0.340880 0.252263
O O7 0.764538 0.754232 0.000848
O O8 0.782721 0.638754 0.275397
O O9 0.362949 0.452063 0.413419
O O10 0.767110 0.946904 0.142147
O O11 0.024615 0.580892 0.242299
O O12 0.582117 0.247203 0.369935
O O13 0.867111 0.164416 0.423301
O O14 0.943912 0.570891 0.091719
O O15 0.005988 0.953444 0.760515
O O16 0.761427 0.894041 0.466579
#
# Coordination Sequence:
#
# PCOD9032873 Si02
#       8
#     2   2   2   2   2   2   2   2
#     4  10  19  31  54  81 113 134 166 221 275 314
#     4  10  18  33  58  78 101 140 190 218 244 314
#     4  10  17  34  53  76 106 145 175 213 248 324
#     4  10  17  32  55  78 107 137 176 214 262 310
#     4  10  18  34  58  77  97 145 194 212 246 312
#     4  11  19  30  57  83 104 137 182 219 257 316
#     4  10  21  35  51  82 118 136 162 222 282 308
#     4   9  19  36  57  73 103 143 189 218 249 308
#
# _framework density 25.259229999999999
#
# number of rings (size 3 to 8) (size 9 to 14) (size 15 to 20)
#    0.000    2.000    6.250    1.500    0.000    0.500 
#    0.000    3.125    2.750    0.750    0.000    0.000 
#    0.000    0.000    0.000    0.000    0.000    0.000 
#
# Total GULP energy -89477.385007 kJ/mol
# GULP energy per Si atom -5592.336563 kJ/mol
# Density = 2.520174 g / cm^3
# Si number density = 25.259230 Si / 1000 Ang^3
#
#
#
# Elastic Constant Matrix: (Units=GPa)
#
#
# Indices 1 2 3 4 5 6 
#
# 1 52.4241 0.4924 30.7925 -1.7804 -7.1475 3.3896
# 2 0.4924 46.2439 42.1787 -8.7483 -6.5645 -14.9834
# 3 30.7925 42.1787 219.9958 9.6566 2.5469 -29.2194
# 4 -1.7804 -8.7483 9.6566 27.6009 -3.2612 1.5530
# 5 -7.1475 -6.5645 2.5469 -3.2612 30.9307 4.7316
# 6 3.3896 -14.9834 -29.2194 1.5530 4.7316 24.3096
#
#
#
# Elastic Compliance Matrix: (Units=1/GPa)
#
#
# Indices 1 2 3 4 5 6 
#
# 1 0.024852 0.004694 -0.006159 0.006953 0.009552 -0.010279
# 2 0.004694 0.034990 -0.006750 0.014250 0.009019 0.010133
# 3 -0.006159 -0.006750 0.008096 -0.006453 -0.005411 0.007896
# 4 0.006953 0.014250 -0.006453 0.044987 0.010654 -0.004890
# 5 0.009552 0.009019 -0.005411 0.010654 0.039653 -0.010675
# 6 -0.010279 0.010133 0.007896 -0.004890 -0.010675 0.060695
#
#
# Mechanical properties :
#
#
# Convention : Reuss Voigt Hill
#
# Bulk Modulus (GPa) = 19.41417 51.73233 35.57325
# Shear Modulus (GPa) = 20.25327 32.91492 26.58410
#
# Velocity S-wave (km/s) = 2.83471 3.61374 3.24767
# Velocity P-wave (km/s) = 4.29147 6.15932 5.30820
#
# Compressibility (1/GPa) = 0.05150877
#
# Stress axis : x y z
#
# Youngs Moduli (GPa) = 40.23817 28.57960 123.51347
#
# Poissons Ratio (x) = -0.13416 0.76078
# Poissons Ratio (y) = -0.18889 0.83366
# Poissons Ratio (z) = 0.24785 0.19290
#
# Static dielectric constant tensor:
#      x y z
#    x 2.036940 0.002940 -0.013160 
#    y 0.002940 1.950020 0.000360 
#    z -0.013160 0.000360 2.077630 
# 
# From -- ./inp_files/217870.got.cif
#   From: 2010.05.17/outbox.cif.g08.bks.cpg/sg2_109_cif.got.tgz:217870.got - 2010.06.03 11:33:40.
