data_PCOD9032521
_publ_section_title
;
Structure prediction by ZEFSAII (Michael W. Deem and Ramdas Pophale) SiO2 
 PCOD9032521
Probable space group: P -1
;
_chemical_formula_sum "Si O2"
_cell_formula_units_Z 16
_cell_length_a 9.271642
_cell_length_b 8.919482
_cell_length_c 19.822037
_cell_angle_alpha 57.545487
_cell_angle_beta 123.347410
_cell_angle_gamma 148.735714
_cell_volume 702.201671
_symmetry_space_group_name_H-M "P -1"
_symmetry_group_IT_number 2
_symmetry_cell_setting 'triclinic'
loop_
_space_group_symop_operation_xyz
x,y,z
-x,-y,-z
loop_
_atom_site_type_symbol
_atom_site_label
_atom_site_fract_x
_atom_site_fract_y
_atom_site_fract_z
Si Si1 0.219128 0.033440 0.077302
Si Si2 0.444601 0.613053 0.287702
Si Si3 0.534099 0.386807 0.860730
Si Si4 0.764988 0.532377 0.177758
Si Si5 0.262369 0.899524 0.539800
Si Si6 0.115928 0.770593 0.685100
Si Si7 0.307238 0.562940 0.569752
Si Si8 0.106520 0.785074 0.971599
O O1 0.069955 0.830119 0.153643
O O2 0.534820 0.349951 0.101581
O O3 0.223100 0.897748 0.049806
O O4 0.000000 0.000000 0.000000
O O5 0.362205 0.560867 0.200892
O O6 0.535795 0.485073 0.355316
O O7 0.202870 0.473812 0.311256
O O8 0.706304 0.956421 0.286478
O O9 0.336848 0.400118 0.812952
O O10 0.810891 0.647128 0.915039
O O11 0.345990 0.069698 0.917316
O O12 0.777992 0.344657 0.253661
O O13 0.163574 0.865783 0.597188
O O14 0.312545 0.728994 0.584411
O O15 0.014965 0.742000 0.460503
O O16 0.540009 0.230607 0.507064
O O17 0.000000 0.500000 0.000000
#
# Coordination Sequence:
#
# PCOD9032521 Si02
#       8
#     2   2   2   2   2   2   2   2
#     4  12  23  44  69  97 123 168 227 274 328 392
#     4  12  27  43  65  98 139 173 215 269 336 386
#     4  12  25  47  65  94 132 176 219 267 334 396
#     4  12  25  44  70  92 131 173 222 275 323 394
#     4  10  22  43  71  99 131 172 226 258 320 389
#     4  12  27  43  65 101 133 176 216 272 327 388
#     4  10  22  43  71  99 131 176 214 270 317 392
#     4  12  27  42  68  98 128 171 214 279 337 395
#
# _framework density 22.785475999999999
#
# number of rings (size 3 to 8) (size 9 to 14) (size 15 to 20)
#    0.000    0.500    2.500    5.250    5.250    3.000 
#    0.000    7.500    0.000    0.000    0.000    0.000 
#    0.000    0.000    0.000    0.000    0.000    0.000 
#
# Total GULP energy -89591.525574 kJ/mol
# GULP energy per Si atom -5599.470348 kJ/mol
# Density = 2.273362 g / cm^3
# Si number density = 22.785476 Si / 1000 Ang^3
#
#
#
# Elastic Constant Matrix: (Units=GPa)
#
#
# Indices 1 2 3 4 5 6 
#
# 1 80.5409 -5.4597 27.6499 -7.0428 -3.2914 2.0559
# 2 -5.4597 71.3171 -4.4161 -5.3949 5.6276 4.8135
# 3 27.6499 -4.4161 46.2084 -5.9078 -0.4233 -2.5846
# 4 -7.0428 -5.3949 -5.9078 19.6535 2.6410 -0.5308
# 5 -3.2914 5.6276 -0.4233 2.6410 38.3506 1.2608
# 6 2.0559 4.8135 -2.5846 -0.5308 1.2608 37.4535
#
#
#
# Elastic Compliance Matrix: (Units=1/GPa)
#
#
# Indices 1 2 3 4 5 6 
#
# 1 0.015971 0.000918 -0.009161 0.003046 0.000978 -0.001617
# 2 0.000918 0.014869 0.001407 0.005108 -0.002383 -0.001712
# 3 -0.009161 0.001407 0.028118 0.005776 -0.001158 0.002383
# 4 0.003046 0.005108 0.005776 0.055700 -0.004277 0.000508
# 5 0.000978 -0.002383 -0.001158 -0.004277 0.026817 -0.000791
# 6 -0.001617 -0.001712 0.002383 0.000508 -0.000791 0.027207
#
#
# Mechanical properties :
#
#
# Convention : Reuss Voigt Hill
#
# Bulk Modulus (GPa) = 22.08145 25.95718 24.01932
# Shear Modulus (GPa) = 25.32308 31.11101 28.21704
#
# Velocity S-wave (km/s) = 3.33734 3.69912 3.52288
# Velocity P-wave (km/s) = 4.95606 5.44623 5.20691
#
# Compressibility (1/GPa) = 0.04528688
#
# Stress axis : x y z
#
# Youngs Moduli (GPa) = 62.61435 67.25303 35.56409
#
# Poissons Ratio (x) = -0.06172 0.32579
# Poissons Ratio (y) = -0.05746 -0.05005
# Poissons Ratio (z) = 0.57359 -0.09465
#
# Static dielectric constant tensor:
#      x y z
#    x 1.875190 -0.007520 0.023750 
#    y -0.007520 1.775720 0.009960 
#    z 0.023750 0.009960 1.845810 
# 
# From -- ./inp_files/217768.got.cif
#   From: 2010.05.17/outbox.cif.g08.bks.cpg/sg2_109_cif.got.tgz:217768.got - 2010.06.03 11:33:40.
