data_PCOD9032120
_publ_section_title
;
Structure prediction by ZEFSAII (Michael W. Deem and Ramdas Pophale) SiO2 
 PCOD9032120
Probable space group: P -1
;
_chemical_formula_sum "Si O2"
_cell_formula_units_Z 14
_cell_length_a 18.780893
_cell_length_b 12.026354
_cell_length_c 9.413183
_cell_angle_alpha 45.818043
_cell_angle_beta 39.780398
_cell_angle_gamma 25.892329
_cell_volume 593.937431
_symmetry_space_group_name_H-M "P -1"
_symmetry_group_IT_number 2
_symmetry_cell_setting 'triclinic'
loop_
_space_group_symop_operation_xyz
x,y,z
-x,-y,-z
loop_
_atom_site_type_symbol
_atom_site_label
_atom_site_fract_x
_atom_site_fract_y
_atom_site_fract_z
Si Si1 0.901518 0.729446 0.146091
Si Si2 0.815833 0.266543 0.616807
Si Si3 0.606345 0.848713 0.614982
Si Si4 0.145494 0.873414 0.011067
Si Si5 0.552887 0.582159 0.249456
Si Si6 0.298710 0.365533 0.781826
Si Si7 0.630991 0.152623 0.956223
O O1 0.805821 0.699712 0.412609
O O2 0.113216 0.479221 0.004203
O O3 0.871095 0.927974 0.095658
O O4 0.786856 0.883820 0.038869
O O5 0.876604 0.205496 0.742895
O O6 0.747410 0.480312 0.427189
O O7 0.668747 0.288874 0.817233
O O8 0.000000 0.000000 0.500000
O O9 0.500000 0.000000 0.500000
O O10 0.486139 0.067320 0.725265
O O11 0.557691 0.722391 0.819846
O O12 0.331529 0.625748 0.867380
O O13 0.000000 0.000000 0.000000
O O14 0.500000 0.500000 0.500000
O O15 0.661256 0.577857 0.189087
O O16 0.378591 0.846457 0.200243
#
# Coordination Sequence:
#
# PCOD9032120 Si02
#       7
#     2   2   2   2   2   2   2
#     4  10  22  43  69  97 138 176 229 272 341 410
#     4  11  21  41  68 104 130 175 233 279 337 407
#     4  10  25  45  65  97 140 180 228 278 336 411
#     4  11  22  38  66 101 137 169 222 288 339 394
#     4  12  24  39  67 102 137 173 226 286 349 391
#     4  12  23  44  71  98 136 183 226 282 341 406
#     4  10  23  41  65  98 133 178 223 278 337 400
#
# _framework density 23.571505999999999
#
# number of rings (size 3 to 8) (size 9 to 14) (size 15 to 20)
#    0.000    1.143    5.714    0.857    4.000    4.000 
#    0.000    0.714    0.000    0.000    0.000    0.000 
#    0.000    0.000    0.000    0.000    0.000    0.000 
#
# Total GULP energy -78128.274778 kJ/mol
# GULP energy per Si atom -5580.591056 kJ/mol
# Density = 2.351786 g / cm^3
# Si number density = 23.571506 Si / 1000 Ang^3
#
#
#
# Elastic Constant Matrix: (Units=GPa)
#
#
# Indices 1 2 3 4 5 6 
#
# 1 141.0566 38.2095 51.2061 7.4588 10.0878 -16.1123
# 2 38.2095 68.2557 45.7745 15.7466 -1.9238 0.4275
# 3 51.2061 45.7745 166.1235 17.0518 -12.1404 -8.3425
# 4 7.4588 15.7466 17.0518 34.2134 -0.5356 9.5589
# 5 10.0878 -1.9238 -12.1404 -0.5356 51.6258 1.4445
# 6 -16.1123 0.4275 -8.3425 9.5589 1.4445 39.1647
#
#
#
# Elastic Compliance Matrix: (Units=1/GPa)
#
#
# Indices 1 2 3 4 5 6 
#
# 1 0.009472 -0.004146 -0.001733 -0.000382 -0.002522 0.003759
# 2 -0.004146 0.021107 -0.003880 -0.006534 0.000650 -0.001192
# 3 -0.001733 -0.003880 0.008080 -0.002258 0.002028 0.001527
# 4 -0.000382 -0.006534 -0.002258 0.036060 -0.000064 -0.009366
# 5 -0.002522 0.000650 0.002028 -0.000064 0.020401 -0.001350
# 6 0.003759 -0.001192 0.001527 -0.009366 -0.001350 0.029753
#
#
# Mechanical properties :
#
#
# Convention : Reuss Voigt Hill
#
# Bulk Modulus (GPa) = 52.24729 71.75733 62.00231
# Shear Modulus (GPa) = 33.16295 41.01717 37.09006
#
# Velocity S-wave (km/s) = 3.75495 4.17600 3.97106
# Velocity P-wave (km/s) = 6.40414 7.33215 6.88380
#
# Compressibility (1/GPa) = 0.01913975
#
# Stress axis : x y z
#
# Youngs Moduli (GPa) = 105.57773 47.37845 123.76902
#
# Poissons Ratio (x) = 0.19644 0.21454
# Poissons Ratio (y) = 0.43774 0.48016
# Poissons Ratio (z) = 0.18301 0.18380
#
# Static dielectric constant tensor:
#      x y z
#    x 1.881970 -0.013020 -0.051420 
#    y -0.013020 2.024610 -0.040250 
#    z -0.051420 -0.040250 1.914860 
# 
# From -- ./inp_files/332819.got.cif
#   From: 2010.05.17/outbox.cif.g08.bks.cpg/sg2_167_cif.got.tgz:332819.got - 2010.06.03 11:33:40.
