data_PCOD9032435
_publ_section_title
;
Structure prediction by ZEFSAII (Michael W. Deem and Ramdas Pophale) SiO2 
 PCOD9032435
Probable space group: P -1
;
_chemical_formula_sum "Si O2"
_cell_formula_units_Z 16
_cell_length_a 12.351620
_cell_length_b 8.883194
_cell_length_c 7.808440
_cell_angle_alpha 94.801356
_cell_angle_beta 65.519672
_cell_angle_gamma 65.728349
_cell_volume 676.671961
_symmetry_space_group_name_H-M "P -1"
_symmetry_group_IT_number 2
_symmetry_cell_setting 'triclinic'
loop_
_space_group_symop_operation_xyz
x,y,z
-x,-y,-z
loop_
_atom_site_type_symbol
_atom_site_label
_atom_site_fract_x
_atom_site_fract_y
_atom_site_fract_z
Si Si1 0.277555 0.663110 0.088435
Si Si2 0.326698 0.166706 0.070184
Si Si3 0.836894 0.028964 0.271517
Si Si4 0.432903 0.382140 0.206734
Si Si5 0.913014 0.298490 0.075657
Si Si6 0.162526 0.033667 0.342287
Si Si7 0.450956 0.903402 0.651246
Si Si8 0.022233 0.380525 0.310193
O O1 0.311090 0.566888 0.241738
O O2 0.198405 0.868658 0.188055
O O3 0.425379 0.616492 0.909427
O O4 0.188704 0.622055 0.010353
O O5 0.415021 0.255428 0.071773
O O6 0.604945 0.975069 0.133092
O O7 0.174734 0.315230 0.134195
O O8 0.286488 0.078729 0.245477
O O9 0.866762 0.173813 0.188508
O O10 0.860967 0.999943 0.453980
O O11 0.679287 0.095775 0.344217
O O12 0.935312 0.841624 0.102849
O O13 0.440550 0.290298 0.373545
O O14 0.921908 0.428635 0.219768
O O15 0.036167 0.204266 0.364665
O O16 0.500000 0.000000 0.500000
O O17 0.000000 0.500000 0.500000
#
# Coordination Sequence:
#
# PCOD9032435 Si02
#       8
#     2   2   2   2   2   2   2   2
#     4  11  24  44  73 104 144 200 237 314 370 441
#     4  10  22  45  69 100 145 194 245 303 367 442
#     4  11  22  40  71 110 138 193 249 305 370 441
#     4  11  23  44  69 103 147 193 251 294 377 436
#     4  11  22  44  70 105 152 177 250 312 371 444
#     4  10  22  43  71 104 140 194 249 291 384 435
#     4  12  23  42  76 110 149 197 252 304 367 446
#     4  10  23  45  74 102 143 192 244 314 372 444
#
# _framework density 23.645136000000001
#
# number of rings (size 3 to 8) (size 9 to 14) (size 15 to 20)
#    0.750    0.500    3.750    2.625    1.750    4.000 
#    2.250    3.125    0.000    0.000    0.000    0.000 
#    0.000    0.000    0.000    0.000    0.000    0.000 
#
# Total GULP energy -89426.036653 kJ/mol
# GULP energy per Si atom -5589.127291 kJ/mol
# Density = 2.359132 g / cm^3
# Si number density = 23.645136 Si / 1000 Ang^3
#
#
#
# Elastic Constant Matrix: (Units=GPa)
#
#
# Indices 1 2 3 4 5 6 
#
# 1 126.6891 41.6226 18.7288 3.2701 24.0268 -17.5678
# 2 41.6226 114.9804 34.5072 -20.6552 5.0562 -9.0318
# 3 18.7288 34.5072 56.7371 -7.4457 0.1562 -3.8114
# 4 3.2701 -20.6552 -7.4457 40.7116 5.3390 6.8249
# 5 24.0268 5.0562 0.1562 5.3390 29.8333 -3.4361
# 6 -17.5678 -9.0318 -3.8114 6.8249 -3.4361 24.7615
#
#
#
# Elastic Compliance Matrix: (Units=1/GPa)
#
#
# Indices 1 2 3 4 5 6 
#
# 1 0.011693 -0.003428 -0.001720 -0.003114 -0.007510 0.006597
# 2 -0.003428 0.012731 -0.005876 0.005775 -0.000440 -0.000345
# 3 -0.001720 -0.005876 0.021879 0.000871 0.002117 0.000058
# 4 -0.003114 0.005775 0.000871 0.030039 -0.004879 -0.008925
# 5 -0.007510 -0.000440 0.002117 -0.004879 0.040716 0.001832
# 6 0.006597 -0.000345 0.000058 -0.008925 0.001832 0.047663
#
#
# Mechanical properties :
#
#
# Convention : Reuss Voigt Hill
#
# Bulk Modulus (GPa) = 41.22583 54.23598 47.73090
# Shear Modulus (GPa) = 25.66040 32.63115 29.14577
#
# Velocity S-wave (km/s) = 3.29786 3.71891 3.51470
# Velocity P-wave (km/s) = 5.65457 6.43644 6.05813
#
# Compressibility (1/GPa) = 0.02425664
#
# Stress axis : x y z
#
# Youngs Moduli (GPa) = 85.51909 78.54858 45.70637
#
# Poissons Ratio (x) = 0.26924 0.07862
# Poissons Ratio (y) = 0.29313 0.26855
# Poissons Ratio (z) = 0.14710 0.46152
#
# Static dielectric constant tensor:
#      x y z
#    x 1.933640 -0.028000 -0.004090 
#    y -0.028000 1.953680 -0.029690 
#    z -0.004090 -0.029690 1.874350 
# 
# From -- ./inp_files/244515.got.cif
#   From: 2010.05.17/outbox.cif.g08.bks.cpg/sg2_123_cif.got.tgz:244515.got - 2010.06.03 11:33:40.
