data_PCOD9032386
_publ_section_title
;
Structure prediction by ZEFSAII (Michael W. Deem and Ramdas Pophale) SiO2 
 PCOD9032386
Probable space group: P -1
;
_chemical_formula_sum "Si O2"
_cell_formula_units_Z 16
_cell_length_a 16.176390
_cell_length_b 12.116759
_cell_length_c 15.470486
_cell_angle_alpha 123.853857
_cell_angle_beta 33.858096
_cell_angle_gamma 149.347639
_cell_volume 717.146365
_symmetry_space_group_name_H-M "P -1"
_symmetry_group_IT_number 2
_symmetry_cell_setting 'triclinic'
loop_
_space_group_symop_operation_xyz
x,y,z
-x,-y,-z
loop_
_atom_site_type_symbol
_atom_site_label
_atom_site_fract_x
_atom_site_fract_y
_atom_site_fract_z
Si Si1 0.696247 0.831090 0.784789
Si Si2 0.922987 0.039267 0.006234
Si Si3 0.778095 0.174362 0.468854
Si Si4 0.954656 0.592922 0.844476
Si Si5 0.233536 0.569114 0.683103
Si Si6 0.272501 0.566481 0.327208
Si Si7 0.132805 0.312851 0.500742
Si Si8 0.835441 0.730826 0.287669
O O1 0.693406 0.679628 0.683947
O O2 0.376795 0.638497 0.997883
O O3 0.834820 0.026586 0.673154
O O4 0.929205 0.020549 0.743432
O O5 0.952399 0.209729 0.093178
O O6 0.593817 0.759473 0.141148
O O7 0.106724 0.178454 0.819915
O O8 0.000000 0.000000 0.000000
O O9 0.706389 0.257781 0.615013
O O10 0.830787 0.243327 0.352500
O O11 0.088027 0.369208 0.322439
O O12 0.528820 0.877168 0.574153
O O13 0.999774 0.494432 0.817738
O O14 0.281817 0.502525 0.533588
O O15 0.132003 0.402430 0.779433
O O16 0.099294 0.390242 0.486456
O O17 0.500000 0.500000 0.500000
#
# Coordination Sequence:
#
# PCOD9032386 Si02
#       8
#     2   2   2   2   2   2   2   2
#     4  10  25  44  69 104 141 184 240 292 353 426
#     4  12  28  45  73 106 144 186 243 294 352 430
#     4  11  24  42  69 104 144 186 232 297 351 423
#     4  12  24  43  73 106 144 185 245 291 357 418
#     4  11  24  47  72 102 143 189 233 298 353 422
#     4  11  23  44  68 101 142 187 237 284 360 420
#     4  10  22  43  71 100 139 187 239 286 358 419
#     4  11  29  48  72 104 146 191 238 294 361 422
#
# _framework density 22.310649000000002
#
# number of rings (size 3 to 8) (size 9 to 14) (size 15 to 20)
#    0.000    1.000    2.500    2.625   12.250    2.500 
#    4.500    2.500    0.000    0.000    0.000    0.000 
#    0.000    0.000    0.000    0.000    0.000    0.000 
#
# Total GULP energy -89507.836368 kJ/mol
# GULP energy per Si atom -5594.239773 kJ/mol
# Density = 2.225987 g / cm^3
# Si number density = 22.310649 Si / 1000 Ang^3
#
#
#
# Elastic Constant Matrix: (Units=GPa)
#
#
# Indices 1 2 3 4 5 6 
#
# 1 130.8539 37.5102 43.6124 -9.6448 1.0829 -2.8925
# 2 37.5102 118.4577 30.5141 -8.1680 -11.8012 -9.3917
# 3 43.6124 30.5141 80.5530 -16.8631 -5.6321 14.1293
# 4 -9.6448 -8.1680 -16.8631 26.0097 3.9449 -7.4085
# 5 1.0829 -11.8012 -5.6321 3.9449 44.2447 -10.6095
# 6 -2.8925 -9.3917 14.1293 -7.4085 -10.6095 31.9346
#
#
#
# Elastic Compliance Matrix: (Units=1/GPa)
#
#
# Indices 1 2 3 4 5 6 
#
# 1 0.009935 -0.001654 -0.005112 0.000703 -0.000779 0.002580
# 2 -0.001654 0.010937 -0.003760 0.001618 0.003867 0.006390
# 3 -0.005112 -0.003760 0.019616 0.007270 -0.001175 -0.008952
# 4 0.000703 0.001618 0.007270 0.046278 -0.000928 0.007750
# 5 -0.000779 0.003867 -0.001175 -0.000928 0.025984 0.010004
# 6 0.002580 0.006390 -0.008952 0.007750 0.010004 0.042509
#
#
# Mechanical properties :
#
#
# Convention : Reuss Voigt Hill
#
# Bulk Modulus (GPa) = 51.44752 61.45978 56.45365
# Shear Modulus (GPa) = 27.35357 34.98633 31.16995
#
# Velocity S-wave (km/s) = 3.50527 3.96428 3.74182
# Velocity P-wave (km/s) = 6.28429 6.96858 6.63526
#
# Compressibility (1/GPa) = 0.01943728
#
# Stress axis : x y z
#
# Youngs Moduli (GPa) = 100.65002 91.42906 50.97803
#
# Poissons Ratio (x) = 0.15120 0.26062
# Poissons Ratio (y) = 0.16645 0.19166
# Poissons Ratio (z) = 0.51457 0.34375
#
# Static dielectric constant tensor:
#      x y z
#    x 1.852640 0.003240 -0.023280 
#    y 0.003240 1.812440 0.002450 
#    z -0.023280 0.002450 1.834900 
# 
# From -- ./inp_files/532594.got.cif
#   From: 2010.05.17/outbox.cif.g08.bks.cpg/sg2_267_cif.got.tgz:532594.got - 2010.06.03 11:33:40.
