data_PCOD9032310
_publ_section_title
;
Structure prediction by ZEFSAII (Michael W. Deem and Ramdas Pophale) SiO2 
 PCOD9032310
Probable space group: P -1
;
_chemical_formula_sum "Si O2"
_cell_formula_units_Z 16
_cell_length_a 11.884611
_cell_length_b 5.311539
_cell_length_c 21.984828
_cell_angle_alpha 70.538361
_cell_angle_beta 149.824997
_cell_angle_gamma 120.583712
_cell_volume 581.994368
_symmetry_space_group_name_H-M "P -1"
_symmetry_group_IT_number 2
_symmetry_cell_setting 'triclinic'
loop_
_space_group_symop_operation_xyz
x,y,z
-x,-y,-z
loop_
_atom_site_type_symbol
_atom_site_label
_atom_site_fract_x
_atom_site_fract_y
_atom_site_fract_z
Si Si1 0.460484 0.959477 0.294771
Si Si2 0.140393 0.351096 0.712738
Si Si3 0.794577 0.090253 0.125162
Si Si4 0.084136 0.336114 0.986283
Si Si5 0.382668 0.699896 0.509128
Si Si6 0.590964 0.699288 0.964763
Si Si7 0.451996 0.365831 0.741780
Si Si8 0.710482 0.456455 0.652436
O O1 0.621373 0.868472 0.329817
O O2 0.453024 0.879253 0.369364
O O3 0.179521 0.722955 0.160843
O O4 0.516270 0.303599 0.288301
O O5 0.248863 0.277077 0.708505
O O6 0.879185 0.358804 0.578602
O O7 0.128094 0.112736 0.777962
O O8 0.348077 0.665637 0.815953
O O9 0.992107 0.424028 0.208972
O O10 0.801197 0.016578 0.063114
O O11 0.500000 0.000000 0.000000
O O12 0.277158 0.405672 0.015231
O O13 0.274307 0.568495 0.106360
O O14 0.000000 0.000000 0.000000
O O15 0.616570 0.638628 0.640066
O O16 0.291917 0.468677 0.425864
O O17 0.500000 0.000000 0.500000
O O18 0.500000 0.500000 0.000000
#
# Coordination Sequence:
#
# PCOD9032310 Si02
#       8
#     2   2   2   2   2   2   2   2
#     4  11  25  42  69  98 141 185 239 288 348 424
#     4  10  22  43  70  95 144 184 232 288 358 423
#     4  11  23  36  64 108 139 179 226 295 359 426
#     4   9  20  36  61  93 137 189 226 275 342 432
#     4  11  24  48  69 100 133 181 237 294 361 412
#     4   9  20  35  59  97 137 175 222 284 353 415
#     4  10  24  44  65 101 137 192 231 287 350 425
#     4  11  27  41  72 103 136 182 234 296 352 422
#
# _framework density 27.491676999999999
#
# number of rings (size 3 to 8) (size 9 to 14) (size 15 to 20)
#    0.000    1.750    1.250    1.125   14.000    4.000 
#    0.000    1.250    0.000    0.000    0.000    0.000 
#    0.000    0.000    0.000    0.000    0.000    0.000 
#
# Total GULP energy -89296.522564 kJ/mol
# GULP energy per Si atom -5581.032660 kJ/mol
# Density = 2.742910 g / cm^3
# Si number density = 27.491677 Si / 1000 Ang^3
#
#
#
# Elastic Constant Matrix: (Units=GPa)
#
#
# Indices 1 2 3 4 5 6 
#
# 1 119.6338 -11.8729 2.7313 -7.7743 -3.8215 12.8007
# 2 -11.8729 51.0146 -14.5207 -20.4587 5.1004 11.5976
# 3 2.7313 -14.5207 84.9827 -2.8586 32.4956 11.0477
# 4 -7.7743 -20.4587 -2.8586 37.7615 1.5405 -3.3541
# 5 -3.8215 5.1004 32.4956 1.5405 38.8361 -4.5365
# 6 12.8007 11.5976 11.0477 -3.3541 -4.5365 31.4164
#
#
#
# Elastic Compliance Matrix: (Units=1/GPa)
#
#
# Indices 1 2 3 4 5 6 
#
# 1 0.010473 0.009395 0.004936 0.007005 -0.005727 -0.009550
# 2 0.009395 0.053781 0.027798 0.031475 -0.034749 -0.035114
# 3 0.004936 0.027798 0.034181 0.017672 -0.035686 -0.027559
# 4 0.007005 0.031475 0.017672 0.045532 -0.022262 -0.019042
# 5 -0.005727 -0.034749 -0.035686 -0.022262 0.064540 0.034653
# 6 -0.009550 -0.035114 -0.027559 -0.019042 0.034653 0.061347
#
#
# Mechanical properties :
#
#
# Convention : Reuss Voigt Hill
#
# Bulk Modulus (GPa) = 5.47366 23.14517 14.30941
# Shear Modulus (GPa) = 20.28466 40.22235 30.25351
#
# Velocity S-wave (km/s) = 2.71928 3.82916 3.32092
# Velocity P-wave (km/s) = 3.44306 5.29030 4.46329
#
# Compressibility (1/GPa) = 0.18269302
#
# Stress axis : x y z
#
# Youngs Moduli (GPa) = 95.48576 18.59394 29.25620
#
# Poissons Ratio (x) = -0.17470 -0.14440
# Poissons Ratio (y) = -0.89713 -0.81327
# Poissons Ratio (z) = -0.47129 -0.51688
#
# Static dielectric constant tensor:
#      x y z
#    x 2.330680 -0.261250 -0.133780 
#    y -0.261250 2.610440 0.079900 
#    z -0.133780 0.079900 2.436380 
# 
# From -- ./inp_files/609170.got.cif
#   From: 2010.05.17/outbox.cif.g08.bks.cpg/sg2_305_cif.got.tgz:609170.got - 2010.06.03 11:33:40.
