data_PCOD9032651
_publ_section_title
;
Structure prediction by ZEFSAII (Michael W. Deem and Ramdas Pophale) SiO2 
 PCOD9032651
Probable space group: P -1
;
_chemical_formula_sum "Si O2"
_cell_formula_units_Z 12
_cell_length_a 8.574585
_cell_length_b 8.749480
_cell_length_c 10.938511
_cell_angle_alpha 58.324938
_cell_angle_beta 44.854591
_cell_angle_gamma 80.984896
_cell_volume 459.731392
_symmetry_space_group_name_H-M "P -1"
_symmetry_group_IT_number 2
_symmetry_cell_setting 'triclinic'
loop_
_space_group_symop_operation_xyz
x,y,z
-x,-y,-z
loop_
_atom_site_type_symbol
_atom_site_label
_atom_site_fract_x
_atom_site_fract_y
_atom_site_fract_z
Si Si1 0.200202 0.897001 0.299744
Si Si2 0.527771 0.686615 0.325952
Si Si3 0.220411 0.377883 0.239525
Si Si4 0.901819 0.665877 0.947594
Si Si5 0.304298 0.963904 0.729945
Si Si6 0.651552 0.219199 0.973382
O O1 0.321299 0.759423 0.359529
O O2 0.253187 0.898663 0.125994
O O3 0.921626 0.806509 0.521587
O O4 0.365147 0.111181 0.163507
O O5 0.500000 0.500000 0.500000
O O6 0.666605 0.855322 0.275174
O O7 0.649974 0.639569 0.156890
O O8 0.090794 0.333427 0.201152
O O9 0.194872 0.564090 0.239841
O O10 0.500000 0.500000 0.000000
O O11 0.064307 0.865950 0.832083
O O12 0.000000 0.500000 0.000000
O O13 0.688789 0.192084 0.106797
O O14 0.500000 0.000000 0.500000
#
# Coordination Sequence:
#
# PCOD9032651 Si02
#       6
#     2   2   2   2   2   2
#     4  10  23  46  70 103 144 186 246 301 364 432
#     4  11  24  42  71 107 138 189 242 295 362 428
#     4  12  25  43  71 106 143 191 241 298 373 433
#     4  12  23  43  68 101 145 183 238 297 356 435
#     4  11  23  44  71 104 142 189 239 302 363 430
#     4  10  22  43  72  99 142 190 237 301 365 432
#
# _framework density 26.102197
#
# number of rings (size 3 to 8) (size 9 to 14) (size 15 to 20)
#    0.000    1.000    1.667    6.000    0.000    0.667 
#    0.000    5.000    0.000    0.000    0.000    0.000 
#    0.000    0.000    0.000    0.000    0.000    0.000 
#
# Total GULP energy -67016.660532 kJ/mol
# GULP energy per Si atom -5584.721711 kJ/mol
# Density = 2.604279 g / cm^3
# Si number density = 26.102197 Si / 1000 Ang^3
#
#
#
# Elastic Constant Matrix: (Units=GPa)
#
#
# Indices 1 2 3 4 5 6 
#
# 1 86.8837 41.3023 34.9307 -4.3965 11.5952 14.1385
# 2 41.3023 99.3615 27.1400 -8.9740 -4.9048 5.9681
# 3 34.9307 27.1400 168.3430 8.2547 14.1680 9.6285
# 4 -4.3965 -8.9740 8.2547 57.7173 6.5148 1.8539
# 5 11.5952 -4.9048 14.1680 6.5148 36.5079 -3.1797
# 6 14.1385 5.9681 9.6285 1.8539 -3.1797 61.1061
#
#
#
# Elastic Compliance Matrix: (Units=1/GPa)
#
#
# Indices 1 2 3 4 5 6 
#
# 1 0.016690 -0.006425 -0.001799 0.001312 -0.005988 -0.003302
# 2 -0.006425 0.013368 -0.001266 0.001284 0.004147 0.000557
# 3 -0.001799 -0.001266 0.006780 -0.001047 -0.002096 -0.000606
# 4 0.001312 0.001284 -0.001047 0.018164 -0.003164 -0.000980
# 5 -0.005988 0.004147 -0.002096 -0.003164 0.031493 0.003045
# 6 -0.003302 0.000557 -0.000606 -0.000980 0.003045 0.017358
#
#
# Mechanical properties :
#
#
# Convention : Reuss Voigt Hill
#
# Bulk Modulus (GPa) = 55.99592 62.37046 59.18319
# Shear Modulus (GPa) = 38.82420 47.81395 43.31907
#
# Velocity S-wave (km/s) = 3.86086 4.28459 4.07823
# Velocity P-wave (km/s) = 6.43227 6.95871 6.70066
#
# Compressibility (1/GPa) = 0.01785844
#
# Stress axis : x y z
#
# Youngs Moduli (GPa) = 59.91636 74.80542 147.49323
#
# Poissons Ratio (x) = 0.48063 0.26531
# Poissons Ratio (y) = 0.38497 0.18671
# Poissons Ratio (z) = 0.10778 0.09469
#
# Static dielectric constant tensor:
#      x y z
#    x 2.099410 -0.190900 -0.050960 
#    y -0.190900 2.310230 -0.009610 
#    z -0.050960 -0.009610 2.137270 
# 
# From -- ./inp_files/381165.got.cif
#   From: 2010.05.17/outbox.cif.g08.bks.cpg/sg2_191_cif.got.tgz:381165.got - 2010.06.03 11:33:40.
