data_PCOD9032731
_publ_section_title
;
Structure prediction by ZEFSAII (Michael W. Deem and Ramdas Pophale) SiO2 
 PCOD9032731
Probable space group: P -1
;
_chemical_formula_sum "Si O2"
_cell_formula_units_Z 16
_cell_length_a 11.504074
_cell_length_b 8.720944
_cell_length_c 9.132766
_cell_angle_alpha 94.692885
_cell_angle_beta 64.281003
_cell_angle_gamma 116.285009
_cell_volume 733.193591
_symmetry_space_group_name_H-M "P -1"
_symmetry_group_IT_number 2
_symmetry_cell_setting 'triclinic'
loop_
_space_group_symop_operation_xyz
x,y,z
-x,-y,-z
loop_
_atom_site_type_symbol
_atom_site_label
_atom_site_fract_x
_atom_site_fract_y
_atom_site_fract_z
Si Si1 0.812509 0.484383 0.828392
Si Si2 0.613036 0.620864 0.102647
Si Si3 0.377403 0.467750 0.446133
Si Si4 0.323670 0.766054 0.391393
Si Si5 0.095364 0.813201 0.699825
Si Si6 0.884414 0.255337 0.986627
Si Si7 0.579713 0.940120 0.072320
Si Si8 0.842092 0.800981 0.255125
O O1 0.751015 0.343001 0.722917
O O2 0.868293 0.406899 0.923585
O O3 0.944237 0.661743 0.713871
O O4 0.692063 0.530816 0.964594
O O5 0.462179 0.487255 0.249309
O O6 0.584162 0.758897 0.036220
O O7 0.724140 0.730254 0.182022
O O8 0.500000 0.500000 0.500000
O O9 0.336595 0.625648 0.479079
O O10 0.239920 0.295616 0.559253
O O11 0.224117 0.840700 0.522229
O O12 0.483333 0.908063 0.269652
O O13 0.094577 0.993989 0.746695
O O14 0.121969 0.744157 0.834920
O O15 0.029775 0.246619 0.858396
O O16 0.743005 0.083112 0.005368
O O17 0.500000 0.000000 0.000000
#
# Coordination Sequence:
#
# PCOD9032731 Si02
#       8
#     2   2   2   2   2   2   2   2
#     4  12  25  44  69 103 140 184 223 279 344 415
#     4  10  22  43  73  99 135 180 227 280 340 398
#     4   9  22  42  69 100 138 174 227 281 336 407
#     4  11  26  46  63 101 144 179 222 280 346 407
#     4  12  25  42  71 101 137 178 228 287 339 400
#     4  12  24  42  75 101 135 181 235 282 336 408
#     4  11  23  47  68 100 139 179 226 282 344 407
#     4  11  22  45  69 105 131 174 236 288 332 396
#
# _framework density 21.822343
#
# number of rings (size 3 to 8) (size 9 to 14) (size 15 to 20)
#    0.000    1.000    3.750    2.625    3.500    3.500 
#    2.250    1.250    0.000    0.000    0.000    0.000 
#    0.000    0.000    0.000    0.000    0.000    0.000 
#
# Total GULP energy -89501.931413 kJ/mol
# GULP energy per Si atom -5593.870713 kJ/mol
# Density = 2.177267 g / cm^3
# Si number density = 21.822343 Si / 1000 Ang^3
#
#
#
# Elastic Constant Matrix: (Units=GPa)
#
#
# Indices 1 2 3 4 5 6 
#
# 1 96.7712 36.4764 40.2747 -1.7747 -8.9128 -16.8817
# 2 36.4764 79.1219 45.4490 -18.0629 -1.3174 -6.4494
# 3 40.2747 45.4490 80.4603 0.3665 -26.2695 -17.8971
# 4 -1.7747 -18.0629 0.3665 40.8028 -6.8100 -8.7774
# 5 -8.9128 -1.3174 -26.2695 -6.8100 40.6640 -5.8954
# 6 -16.8817 -6.4494 -17.8971 -8.7774 -5.8954 39.5398
#
#
#
# Elastic Compliance Matrix: (Units=1/GPa)
#
#
# Indices 1 2 3 4 5 6 
#
# 1 0.014161 -0.004321 -0.003302 -0.000173 0.001384 0.004015
# 2 -0.004321 0.025676 -0.016817 0.008565 -0.010254 -0.004896
# 3 -0.003302 -0.016817 0.034272 -0.000957 0.022821 0.014550
# 4 -0.000173 0.008565 -0.000957 0.031198 0.006111 0.008727
# 5 0.001384 -0.010254 0.022821 0.006111 0.042791 0.016984
# 6 0.004015 -0.004896 0.014550 0.008727 0.016984 0.037262
#
#
# Mechanical properties :
#
#
# Convention : Reuss Voigt Hill
#
# Bulk Modulus (GPa) = 39.63562 55.63929 47.63745
# Shear Modulus (GPa) = 20.60586 33.14488 26.87537
#
# Velocity S-wave (km/s) = 3.07621 3.90147 3.51316
# Velocity P-wave (km/s) = 5.55155 6.77105 6.19140
#
# Compressibility (1/GPa) = 0.02522983
#
# Stress axis : x y z
#
# Youngs Moduli (GPa) = 70.61486 38.94706 29.17838
#
# Poissons Ratio (x) = 0.16828 0.09635
# Poissons Ratio (y) = 0.30512 0.49068
# Poissons Ratio (z) = 0.23318 0.65496
#
# Static dielectric constant tensor:
#      x y z
#    x 1.808460 0.042300 0.014390 
#    y 0.042300 1.810820 -0.027860 
#    z 0.014390 -0.027860 1.804470 
# 
# From -- ./inp_files/244440.got.cif
#   From: 2010.05.17/outbox.cif.g08.bks.cpg/sg2_123_cif.got.tgz:244440.got - 2010.06.03 11:33:40.
