data_PCOD9032860
_publ_section_title
;
Structure prediction by ZEFSAII (Michael W. Deem and Ramdas Pophale) SiO2 
 PCOD9032860
Probable space group: P -1
;
_chemical_formula_sum "Si O2"
_cell_formula_units_Z 16
_cell_length_a 16.935366
_cell_length_b 10.077326
_cell_length_c 6.740713
_cell_angle_alpha 41.767213
_cell_angle_beta 90.828170
_cell_angle_gamma 90.019048
_cell_volume 766.108208
_symmetry_space_group_name_H-M "P -1"
_symmetry_group_IT_number 2
_symmetry_cell_setting 'triclinic'
loop_
_space_group_symop_operation_xyz
x,y,z
-x,-y,-z
loop_
_atom_site_type_symbol
_atom_site_label
_atom_site_fract_x
_atom_site_fract_y
_atom_site_fract_z
Si Si1 0.430346 0.237195 0.055204
Si Si2 0.351592 0.158173 0.746825
Si Si3 0.689418 0.522568 0.947194
Si Si4 0.914312 0.210033 0.431467
Si Si5 0.140031 0.368681 0.000539
Si Si6 0.185313 0.060960 0.025815
Si Si7 0.602621 0.144070 0.257500
Si Si8 0.920808 0.970719 0.326514
O O1 0.372435 0.397299 0.978438
O O2 0.520953 0.266106 0.086580
O O3 0.408819 0.021146 0.388065
O O4 0.415742 0.227595 0.831025
O O5 0.324945 0.338330 0.401004
O O6 0.276255 0.084496 0.949486
O O7 0.380959 0.982077 0.800086
O O8 0.776841 0.557931 0.991175
O O9 0.670523 0.296808 0.142598
O O10 0.916860 0.440373 0.225921
O O11 0.988973 0.085267 0.659186
O O12 0.916529 0.167235 0.243977
O O13 0.836047 0.115954 0.627534
O O14 0.155676 0.261074 0.912511
O O15 0.106734 0.204979 0.331703
O O16 0.136440 0.022387 0.868316
#
# Coordination Sequence:
#
# PCOD9032860 Si02
#       8
#     2   2   2   2   2   2   2   2
#     4  10  22  44  60  88 123 152 198 251 294 346
#     4  11  23  39  61  89 124 156 195 249 293 347
#     4  11  23  38  60  90 121 157 199 243 295 350
#     4  10  24  39  66  88 116 161 199 241 298 355
#     4  11  23  38  60  90 121 157 199 243 295 350
#     4  11  23  39  61  89 124 156 195 249 293 347
#     4  10  24  39  66  88 116 161 199 241 298 355
#     4  10  22  44  60  88 123 152 198 251 294 346
#
# _framework density 20.884777
#
# number of rings (size 3 to 8) (size 9 to 14) (size 15 to 20)
#    0.000    1.500    2.500    1.500    3.500    4.000 
#    0.000    0.000    0.000    0.000    0.000    0.000 
#    0.000    0.000    0.000    0.000    0.000    0.000 
#
# Total GULP energy -89477.656089 kJ/mol
# GULP energy per Si atom -5592.353506 kJ/mol
# Density = 2.083724 g / cm^3
# Si number density = 20.884777 Si / 1000 Ang^3
#
#
#
# Elastic Constant Matrix: (Units=GPa)
#
#
# Indices 1 2 3 4 5 6 
#
# 1 45.1254 -4.4419 -1.2248 5.4622 -4.6113 6.4723
# 2 -4.4419 54.0332 14.6118 8.8084 7.1205 9.1771
# 3 -1.2248 14.6118 20.3869 6.5700 2.7888 -5.4411
# 4 5.4622 8.8084 6.5700 21.0956 10.4824 4.4727
# 5 -4.6113 7.1205 2.7888 10.4824 28.2770 5.5629
# 6 6.4723 9.1771 -5.4411 4.4727 5.5629 34.6299
#
#
#
# Elastic Compliance Matrix: (Units=1/GPa)
#
#
# Indices 1 2 3 4 5 6 
#
# 1 0.025577 0.003880 -0.000370 -0.011119 0.008492 -0.005795
# 2 0.003880 0.026834 -0.020699 -0.003099 -0.000858 -0.010550
# 3 -0.000370 -0.020699 0.075231 -0.019388 0.001042 0.019712
# 4 -0.011119 -0.003099 -0.019388 0.070843 -0.024322 -0.005390
# 5 0.008492 -0.000858 0.001042 -0.024322 0.046981 -0.005602
# 6 -0.005795 -0.010550 0.019712 -0.005390 -0.005602 0.037449
#
#
# Mechanical properties :
#
#
# Convention : Reuss Voigt Hill
#
# Bulk Modulus (GPa) = 10.72210 15.27064 12.99637
# Shear Modulus (GPa) = 14.35216 24.17387 19.26302
#
# Velocity S-wave (km/s) = 2.62431 3.40588 3.04031
# Velocity P-wave (km/s) = 3.78520 4.77435 4.30826
#
# Compressibility (1/GPa) = 0.09326531
#
# Stress axis : x y z
#
# Youngs Moduli (GPa) = 39.09726 37.26632 13.29243
#
# Poissons Ratio (x) = -0.14460 0.00491
# Poissons Ratio (y) = -0.15171 0.27514
# Poissons Ratio (z) = 0.01445 0.77138
#
# Static dielectric constant tensor:
#      x y z
#    x 1.745490 -0.013980 -0.012570 
#    y -0.013980 1.721550 -0.001720 
#    z -0.012570 -0.001720 1.718630 
# 
# From -- ./inp_files/13329.got.cif
#   From: 2010.05.17/outbox.cif.g08.bks.cpg/sg2_7_cif.got.tgz:13329.got - 2010.06.03 11:33:40.
