data_PCOD9032841
_publ_section_title
;
Structure prediction by ZEFSAII (Michael W. Deem and Ramdas Pophale) SiO2 
 PCOD9032841
Probable space group: P -1
;
_chemical_formula_sum "Si O2"
_cell_formula_units_Z 11
_cell_length_a 10.350689
_cell_length_b 7.752493
_cell_length_c 9.721857
_cell_angle_alpha 133.290663
_cell_angle_beta 45.277919
_cell_angle_gamma 111.026649
_cell_volume 391.751949
_symmetry_space_group_name_H-M "P -1"
_symmetry_group_IT_number 2
_symmetry_cell_setting 'triclinic'
loop_
_space_group_symop_operation_xyz
x,y,z
-x,-y,-z
loop_
_atom_site_type_symbol
_atom_site_label
_atom_site_fract_x
_atom_site_fract_y
_atom_site_fract_z
Si Si1 0.892349 0.512655 0.229328
Si Si2 0.014836 0.251016 0.268661
Si Si3 0.621000 0.185668 0.247916
Si Si4 0.609117 0.282545 0.618664
Si Si5 0.434611 0.819489 0.095117
Si Si6 0.000000 0.000000 0.500000
O O1 0.697346 0.430960 0.304497
O O2 0.992770 0.320619 0.164051
O O3 0.905298 0.770914 0.421369
O O4 0.000000 0.500000 0.000000
O O5 0.000000 0.500000 0.500000
O O6 0.830589 0.168377 0.408912
O O7 0.192046 0.032960 0.037908
O O8 0.560291 0.192018 0.457603
O O9 0.487144 0.080849 0.189436
O O10 0.524764 0.233183 0.799415
O O11 0.566758 0.575816 0.798815
O O12 0.219430 0.822194 0.225262
#
# Coordination Sequence:
#
# PCOD9032841 Si02
#       6
#     2   2   2   2   2   1
#     4  11  28  46  75 114 159 206 246 317 402 461
#     4  11  22  46  84 115 152 199 264 324 379 459
#     4  11  25  47  83 113 147 202 268 318 372 468
#     4  10  22  43  77 115 148 194 265 316 382 449
#     4  11  25  46  76 112 153 202 258 322 376 465
#     4  12  30  46  72 106 166 202 244 312 406 446
#
# _framework density 28.078992
#
# number of rings (size 3 to 8) (size 9 to 14) (size 15 to 20)
#    0.000    1.091    1.818    3.818   10.182    2.182 
#    0.000    6.364    0.000    0.000    0.000    0.000 
#    0.000    0.000    0.000    0.000    0.000    0.000 
#
# Total GULP energy -61393.771144 kJ/mol
# GULP energy per Si atom -5581.251922 kJ/mol
# Density = 2.801508 g / cm^3
# Si number density = 28.078992 Si / 1000 Ang^3
#
#
#
# Elastic Constant Matrix: (Units=GPa)
#
#
# Indices 1 2 3 4 5 6 
#
# 1 120.1785 38.8878 49.7510 -5.1396 5.2361 45.8610
# 2 38.8878 115.2638 27.8207 18.3347 12.4698 25.6641
# 3 49.7510 27.8207 132.7318 22.8522 13.9643 27.8567
# 4 -5.1396 18.3347 22.8522 42.2201 12.8422 19.7656
# 5 5.2361 12.4698 13.9643 12.8422 67.8767 -7.0383
# 6 45.8610 25.6641 27.8567 19.7656 -7.0383 70.8078
#
#
#
# Elastic Compliance Matrix: (Units=1/GPa)
#
#
# Indices 1 2 3 4 5 6 
#
# 1 0.016399 -0.003491 -0.004860 0.012333 -0.003118 -0.011196
# 2 -0.003491 0.010780 0.000037 -0.004645 -0.000887 -0.000452
# 3 -0.004860 0.000037 0.010333 -0.006449 -0.000452 0.000825
# 4 0.012333 -0.004645 -0.006449 0.040607 -0.008104 -0.015908
# 5 -0.003118 -0.000887 -0.000452 -0.008104 0.017438 0.006514
# 6 -0.011196 -0.000452 0.000825 -0.015908 0.006514 0.026302
#
#
# Mechanical properties :
#
#
# Convention : Reuss Voigt Hill
#
# Bulk Modulus (GPa) = 47.88684 66.78812 57.33748
# Shear Modulus (GPa) = 34.37663 52.96188 43.66925
#
# Velocity S-wave (km/s) = 3.50277 4.34772 3.94792
# Velocity P-wave (km/s) = 5.78365 7.00293 6.42229
#
# Compressibility (1/GPa) = 0.02088256
#
# Stress axis : x y z
#
# Youngs Moduli (GPa) = 60.98106 92.76336 96.77918
#
# Poissons Ratio (x) = 0.32383 0.47038
# Poissons Ratio (y) = 0.21288 -0.00357
# Poissons Ratio (z) = 0.29639 -0.00342
#
# Static dielectric constant tensor:
#      x y z
#    x 2.214950 -0.038080 0.016080 
#    y -0.038080 2.265820 -0.060330 
#    z 0.016080 -0.060330 2.174590 
# 
# From -- ./inp_files/415858.got.cif
#   From: 2010.05.17/outbox.cif.g08.bks.cpg/sg2_208_cif.got.tgz:415858.got - 2010.06.03 11:33:40.
