data_PCOD9032401
_publ_section_title
;
Structure prediction by ZEFSAII (Michael W. Deem and Ramdas Pophale) SiO2 
 PCOD9032401
Probable space group: P -1
;
_chemical_formula_sum "Si O2"
_cell_formula_units_Z 16
_cell_length_a 10.801788
_cell_length_b 5.016326
_cell_length_c 11.930391
_cell_angle_alpha 75.552157
_cell_angle_beta 93.492989
_cell_angle_gamma 97.162534
_cell_volume 620.823509
_symmetry_space_group_name_H-M "P -1"
_symmetry_group_IT_number 2
_symmetry_cell_setting 'triclinic'
loop_
_space_group_symop_operation_xyz
x,y,z
-x,-y,-z
loop_
_atom_site_type_symbol
_atom_site_label
_atom_site_fract_x
_atom_site_fract_y
_atom_site_fract_z
Si Si1 0.099871 0.338512 0.781797
Si Si2 0.104494 0.733143 0.937664
Si Si3 0.101346 0.484428 0.408838
Si Si4 0.670522 0.236588 0.899055
Si Si5 0.672983 0.834546 0.315151
Si Si6 0.544584 0.219440 0.115913
Si Si7 0.736007 0.010251 0.537200
Si Si8 0.549574 0.568451 0.688139
O O1 0.154100 0.567636 0.851413
O O2 0.205115 0.306944 0.696931
O O3 0.974938 0.436021 0.712328
O O4 0.070168 0.029703 0.863783
O O5 0.196161 0.792102 0.041423
O O6 0.000000 0.500000 0.000000
O O7 0.153046 0.189371 0.429406
O O8 0.000000 0.500000 0.500000
O O9 0.216808 0.706883 0.428314
O O10 0.658821 0.416912 0.769215
O O11 0.589403 0.947933 0.899786
O O12 0.601202 0.352777 0.991580
O O13 0.707471 0.033562 0.401597
O O14 0.550601 0.629871 0.366619
O O15 0.631405 0.984317 0.184826
O O16 0.532364 0.378702 0.212801
O O17 0.615288 0.842702 0.606218
#
# Coordination Sequence:
#
# PCOD9032401 Si02
#       8
#     2   2   2   2   2   2   2   2
#     4  12  27  48  76 102 146 189 250 292 364 433
#     4  12  28  46  72 106 145 190 239 306 359 425
#     4  12  28  50  77 105 143 195 245 297 358 428
#     4  10  23  41  69 100 142 187 241 281 364 425
#     4  11  25  45  73 107 142 192 243 295 360 437
#     4  10  22  43  71 101 142 187 239 290 356 438
#     4  12  29  47  78 108 147 188 243 304 364 431
#     4  11  26  43  71 107 149 187 234 304 368 425
#
# _framework density 25.772224000000001
#
# number of rings (size 3 to 8) (size 9 to 14) (size 15 to 20)
#    0.000    0.750    2.500    3.000   12.250    0.500 
#    0.000    0.000    0.000    0.000    0.000    0.000 
#    0.000    0.000    0.000    0.000    0.000    0.000 
#
# Total GULP energy -89682.665479 kJ/mol
# GULP energy per Si atom -5605.166592 kJ/mol
# Density = 2.571357 g / cm^3
# Si number density = 25.772224 Si / 1000 Ang^3
#
#
#
# Elastic Constant Matrix: (Units=GPa)
#
#
# Indices 1 2 3 4 5 6 
#
# 1 71.3712 9.2746 42.0036 -6.5779 17.9658 16.2348
# 2 9.2746 97.2619 39.8961 -0.5816 13.0840 4.9347
# 3 42.0036 39.8961 107.6232 2.7290 10.5267 11.6700
# 4 -6.5779 -0.5816 2.7290 40.8106 3.4000 -3.9362
# 5 17.9658 13.0840 10.5267 3.4000 55.9728 7.8451
# 6 16.2348 4.9347 11.6700 -3.9362 7.8451 44.6093
#
#
#
# Elastic Compliance Matrix: (Units=1/GPa)
#
#
# Indices 1 2 3 4 5 6 
#
# 1 0.021363 0.002350 -0.008284 0.004046 -0.005456 -0.004551
# 2 0.002350 0.012633 -0.005331 0.001116 -0.002733 -0.000279
# 3 -0.008284 -0.005331 0.014499 -0.002564 0.001427 -0.000666
# 4 0.004046 0.001116 -0.002564 0.025764 -0.002903 0.001859
# 5 -0.005456 -0.002733 0.001427 -0.002903 0.020435 -0.001935
# 6 -0.004551 -0.000279 -0.000666 0.001859 -0.001935 0.024782
#
#
# Mechanical properties :
#
#
# Convention : Reuss Voigt Hill
#
# Bulk Modulus (GPa) = 38.51464 50.95611 44.73538
# Shear Modulus (GPa) = 33.18722 40.61735 36.90228
#
# Velocity S-wave (km/s) = 3.59236 3.97421 3.78810
# Velocity P-wave (km/s) = 5.67305 6.39326 6.04389
#
# Compressibility (1/GPa) = 0.02596415
#
# Stress axis : x y z
#
# Youngs Moduli (GPa) = 46.81016 79.16012 68.97217
#
# Poissons Ratio (x) = -0.18603 0.57138
# Poissons Ratio (y) = -0.11001 0.36768
# Poissons Ratio (z) = 0.38779 0.42199
#
# Static dielectric constant tensor:
#      x y z
#    x 2.097300 -0.076590 -0.022040 
#    y -0.076590 2.003260 -0.037670 
#    z -0.022040 -0.037670 2.006520 
# 
# From -- ./inp_files/94637.got.cif
#   From: 2010.05.17/outbox.cif.g08.bks.cpg/sg2_48_cif.got.tgz:94637.got - 2010.06.03 11:33:40.
