data_PCOD9032988
_publ_section_title
;
Structure prediction by ZEFSAII (Michael W. Deem and Ramdas Pophale) SiO2 
 PCOD9032988
Probable space group: P -1
;
_chemical_formula_sum "Si O2"
_cell_formula_units_Z 16
_cell_length_a 18.608310
_cell_length_b 9.505283
_cell_length_c 8.312400
_cell_angle_alpha 85.335190
_cell_angle_beta 89.043834
_cell_angle_gamma 149.579675
_cell_volume 730.930268
_symmetry_space_group_name_H-M "P -1"
_symmetry_group_IT_number 2
_symmetry_cell_setting 'triclinic'
loop_
_space_group_symop_operation_xyz
x,y,z
-x,-y,-z
loop_
_atom_site_type_symbol
_atom_site_label
_atom_site_fract_x
_atom_site_fract_y
_atom_site_fract_z
Si Si1 0.414112 0.239260 0.928689
Si Si2 0.869833 0.202146 0.203982
Si Si3 0.089597 0.427584 0.947032
Si Si4 0.648373 0.174563 0.526478
Si Si5 0.489720 0.647049 0.439928
Si Si6 0.057094 0.193862 0.691218
Si Si7 0.840310 0.901090 0.445175
Si Si8 0.364993 0.853343 0.092580
O O1 0.488667 0.309757 0.756645
O O2 0.265959 0.053028 0.884849
O O3 0.500000 0.500000 0.000000
O O4 0.389474 0.062763 0.057524
O O5 0.881372 0.390282 0.191652
O O6 0.850488 0.081756 0.378125
O O7 0.005667 0.363275 0.097544
O O8 0.015383 0.182997 0.866382
O O9 0.230959 0.600752 0.002988
O O10 0.791553 0.476646 0.404699
O O11 0.666172 0.228707 0.711989
O O12 0.500000 0.000000 0.500000
O O13 0.608034 0.944954 0.497704
O O14 0.500000 0.500000 0.500000
O O15 0.328010 0.420859 0.506037
O O16 0.088241 0.080281 0.691845
O O17 0.930654 0.019545 0.589186
O O18 0.500000 0.000000 0.000000
#
# Coordination Sequence:
#
# PCOD9032988 Si02
#       8
#     2   2   2   2   2   2   2   2
#     4  11  24  41  63  95 133 169 217 269 330 390
#     4  10  22  44  64  93 133 171 219 275 324 395
#     4  10  23  44  67  95 131 174 220 271 332 396
#     4  12  23  44  69  95 132 177 221 268 328 403
#     4  12  24  43  69  99 134 176 221 278 332 391
#     4  11  25  43  67  97 133 177 222 274 331 396
#     4  11  25  43  65  99 136 171 224 276 328 392
#     4  11  24  40  66  96 128 170 219 270 325 390
#
# _framework density 21.889914000000001
#
# number of rings (size 3 to 8) (size 9 to 14) (size 15 to 20)
#    0.000    1.000    2.500    4.500    1.750    1.000 
#    2.250    0.000    0.000    0.000    0.000    0.000 
#    0.000    0.000    0.000    0.000    0.000    0.000 
#
# Total GULP energy -89438.510863 kJ/mol
# GULP energy per Si atom -5589.906929 kJ/mol
# Density = 2.184009 g / cm^3
# Si number density = 21.889914 Si / 1000 Ang^3
#
#
#
# Elastic Constant Matrix: (Units=GPa)
#
#
# Indices 1 2 3 4 5 6 
#
# 1 88.2606 11.1351 16.0651 14.3857 11.4058 19.5048
# 2 11.1351 30.2762 -21.8596 10.0093 4.5109 -1.8395
# 3 16.0651 -21.8596 50.3320 -0.0785 -4.2471 -11.2511
# 4 14.3857 10.0093 -0.0785 34.2744 -8.2936 -7.3286
# 5 11.4058 4.5109 -4.2471 -8.2936 33.9304 -2.2790
# 6 19.5048 -1.8395 -11.2511 -7.3286 -2.2790 38.7886
#
#
#
# Elastic Compliance Matrix: (Units=1/GPa)
#
#
# Indices 1 2 3 4 5 6 
#
# 1 0.031593 -0.027550 -0.030150 -0.015682 -0.016571 -0.029875
# 2 -0.027550 0.084123 0.053137 -0.004466 0.005837 0.032755
# 3 -0.030150 0.053137 0.062521 0.009327 0.015763 0.038504
# 4 -0.015682 -0.004466 0.009327 0.046178 0.019681 0.020260
# 5 -0.016571 0.005837 0.015763 0.019681 0.042352 0.019389
# 6 -0.029875 0.032755 0.038504 0.020260 0.019389 0.058493
#
#
# Mechanical properties :
#
#
# Convention : Reuss Voigt Hill
#
# Bulk Modulus (GPa) = 5.91329 19.95000 12.93164
# Shear Modulus (GPa) = 12.79563 32.30056 22.54809
#
# Velocity S-wave (km/s) = 2.42036 3.84551 3.21295
# Velocity P-wave (km/s) = 3.24316 5.37130 4.43672
#
# Compressibility (1/GPa) = 0.16911062
#
# Stress axis : x y z
#
# Youngs Moduli (GPa) = 31.65227 11.88729 15.99461
#
# Poissons Ratio (x) = 0.32749 0.48224
# Poissons Ratio (y) = 0.87202 -0.84990
# Poissons Ratio (z) = 0.95432 -0.63165
#
# Static dielectric constant tensor:
#      x y z
#    x 1.820490 -0.008340 -0.004970 
#    y -0.008340 1.899800 -0.077660 
#    z -0.004970 -0.077660 1.816950 
# 
# From -- ./inp_files/207805.got.cif
#   From: 2010.05.17/outbox.cif.g08.bks.cpg/sg2_104_cif.got.tgz:207805.got - 2010.06.03 11:33:40.
