data_PCOD9032956
_publ_section_title
;
Structure prediction by ZEFSAII (Michael W. Deem and Ramdas Pophale) SiO2 
 PCOD9032956
Probable space group: P -1
;
_chemical_formula_sum "Si O2"
_cell_formula_units_Z 15
_cell_length_a 11.983033
_cell_length_b 18.510815
_cell_length_c 12.181308
_cell_angle_alpha 151.684485
_cell_angle_beta 139.457552
_cell_angle_gamma 31.646932
_cell_volume 671.854461
_symmetry_space_group_name_H-M "P -1"
_symmetry_group_IT_number 2
_symmetry_cell_setting 'triclinic'
loop_
_space_group_symop_operation_xyz
x,y,z
-x,-y,-z
loop_
_atom_site_type_symbol
_atom_site_label
_atom_site_fract_x
_atom_site_fract_y
_atom_site_fract_z
Si Si1 0.500000 0.000000 0.000000
Si Si2 0.267423 0.434397 0.362004
Si Si3 0.122717 0.889496 0.101271
Si Si4 0.536927 0.490366 0.811064
Si Si5 0.868059 0.819173 0.642441
Si Si6 0.521899 0.003056 0.274292
Si Si7 0.850283 0.095207 0.621048
Si Si8 0.758016 0.571018 0.908433
O O1 0.665133 0.776455 0.863906
O O2 0.567210 0.940426 0.840275
O O3 0.420346 0.444144 0.572412
O O4 0.282230 0.484491 0.314438
O O5 0.029922 0.600077 0.442278
O O6 0.033574 0.929766 0.211927
O O7 0.146635 0.050938 0.293577
O O8 0.354001 0.688501 0.994599
O O9 0.968456 0.873773 0.886203
O O10 0.672057 0.315120 0.758513
O O11 0.701825 0.500756 0.876816
O O12 0.652020 0.862992 0.585854
O O13 0.725463 0.004836 0.426675
O O14 0.597155 0.796700 0.089065
O O15 0.000000 0.000000 0.500000
O O16 0.000000 0.500000 0.000000
#
# Coordination Sequence:
#
# PCOD9032956 Si02
#       8
#     1   2   2   2   2   2   2   2
#     4  10  22  44  64 102 134 172 224 280 334 402
#     4  10  23  42  72  95 137 178 231 275 343 412
#     4  10  24  45  69 101 139 175 232 278 340 409
#     4  11  22  47  66  98 132 190 223 278 345 405
#     4  10  23  44  73 100 130 187 228 282 333 413
#     4  11  24  44  67  99 137 178 224 282 344 401
#     4  12  27  42  68 102 141 182 223 284 346 405
#     4  11  24  41  66 101 136 178 231 284 337 404
#
# _framework density 22.326263999999998
#
# number of rings (size 3 to 8) (size 9 to 14) (size 15 to 20)
#    0.000    1.333    2.667    1.600    5.600    2.133 
#    0.000    0.000    0.000    0.000    0.000    0.000 
#    0.000    0.000    0.000    0.000    0.000    0.000 
#
# Total GULP energy -83651.708138 kJ/mol
# GULP energy per Si atom -5576.780543 kJ/mol
# Density = 2.227545 g / cm^3
# Si number density = 22.326264 Si / 1000 Ang^3
#
#
#
# Elastic Constant Matrix: (Units=GPa)
#
#
# Indices 1 2 3 4 5 6 
#
# 1 59.0765 -4.6001 40.5631 -22.3189 -31.6426 -10.5765
# 2 -4.6001 39.5799 24.9631 -6.5767 -26.4068 -2.3938
# 3 40.5631 24.9631 43.7925 15.0316 -11.1918 5.6218
# 4 -22.3189 -6.5767 15.0316 19.4589 -6.5706 -13.9027
# 5 -31.6426 -26.4068 -11.1918 -6.5706 12.4137 -13.1996
# 6 -10.5765 -2.3938 5.6218 -13.9027 -13.1996 41.1119
#
#
#
# Elastic Compliance Matrix: (Units=1/GPa)
#
#
# Indices 1 2 3 4 5 6 
#
# 1 0.005958 -0.010032 -0.001552 -0.004660 -0.015880 -0.005514
# 2 -0.010032 0.017271 0.005798 -0.015716 -0.000140 -0.007727
# 3 -0.001552 0.005798 0.033065 -0.006846 0.041344 0.006376
# 4 -0.004660 -0.015716 -0.006846 0.031936 -0.036965 -0.002246
# 5 -0.015880 -0.000140 0.041344 -0.036965 0.051368 -0.005755
# 6 -0.005514 -0.007727 0.006376 -0.002246 -0.005755 0.018976
#
#
# Mechanical properties :
#
#
# Convention : Reuss Voigt Hill
#
# Bulk Modulus (GPa) = 22.36026 29.36681 25.86354
# Shear Modulus (GPa) = 27.01938 20.03174 23.52556
#
# Velocity S-wave (km/s) = 3.48258 2.99863 3.24962
# Velocity P-wave (km/s) = 5.11938 5.01708 5.06849
#
# Compressibility (1/GPa) = 0.04472219
#
# Stress axis : x y z
#
# Youngs Moduli (GPa) = 167.83962 57.90127 30.24375
#
# Poissons Ratio (x) = 0.58085 0.04693
# Poissons Ratio (y) = 1.68371 -0.17534
# Poissons Ratio (z) = 0.26041 -0.33569
#
# Static dielectric constant tensor:
#      x y z
#    x 1.793850 -0.001030 -0.019960 
#    y -0.001030 1.809950 -0.034590 
#    z -0.019960 -0.034590 1.854090 
# 
# From -- ./inp_files/185018.got.cif
#   From: 2010.05.17/outbox.cif.g08.bks.cpg/sg2_93_cif.got.tgz:185018.got - 2010.06.03 11:33:40.
