data_PCOD9032701
_publ_section_title
;
Structure prediction by ZEFSAII (Michael W. Deem and Ramdas Pophale) SiO2 
 PCOD9032701
Probable space group: P -1
;
_chemical_formula_sum "Si O2"
_cell_formula_units_Z 14
_cell_length_a 7.528610
_cell_length_b 13.099092
_cell_length_c 9.081994
_cell_angle_alpha 116.559300
_cell_angle_beta 84.777394
_cell_angle_gamma 132.596301
_cell_volume 558.464369
_symmetry_space_group_name_H-M "P -1"
_symmetry_group_IT_number 2
_symmetry_cell_setting 'triclinic'
loop_
_space_group_symop_operation_xyz
x,y,z
-x,-y,-z
loop_
_atom_site_type_symbol
_atom_site_label
_atom_site_fract_x
_atom_site_fract_y
_atom_site_fract_z
Si Si1 0.554776 0.248360 0.823092
Si Si2 0.058853 0.445477 0.104837
Si Si3 0.872883 0.085245 0.222989
Si Si4 0.228261 0.024187 0.179366
Si Si5 0.261582 0.411467 0.569459
Si Si6 0.183449 0.283155 0.817742
Si Si7 0.219681 0.646408 0.678700
O O1 0.357983 0.262823 0.856884
O O2 0.730155 0.361810 0.741506
O O3 0.380514 0.062243 0.757838
O O4 0.803099 0.363550 0.982678
O O5 0.926907 0.337983 0.189868
O O6 0.199939 0.408237 0.986230
O O7 0.012459 0.256370 0.397805
O O8 0.801591 0.041017 0.026210
O O9 0.080153 0.077562 0.223678
O O10 0.100251 0.890342 0.231204
O O11 0.523690 0.182085 0.287112
O O12 0.500000 0.500000 0.500000
O O13 0.247122 0.336357 0.676957
O O14 0.287735 0.557479 0.698551
O O15 0.000000 0.500000 0.500000
#
# Coordination Sequence:
#
# PCOD9032701 Si02
#       7
#     2   2   2   2   2   2   2
#     4  10  22  43  73 108 144 198 244 301 372 431
#     4  11  24  45  72 110 156 186 253 308 361 462
#     4  10  22  43  77 105 151 193 245 314 362 445
#     4  10  23  47  74 108 145 199 253 293 380 448
#     4  12  27  48  73 111 149 188 252 310 371 442
#     4  11  27  44  80 108 144 202 250 305 376 441
#     4  12  28  47  72 110 153 197 243 314 381 432
#
# _framework density 25.068743000000001
#
# number of rings (size 3 to 8) (size 9 to 14) (size 15 to 20)
#    0.000    1.143    2.857    2.143    4.000    6.286 
#    0.000    2.143    0.000    0.000    0.000    0.000 
#    0.000    0.000    0.000    0.000    0.000    0.000 
#
# Total GULP energy -78098.407452 kJ/mol
# GULP energy per Si atom -5578.457675 kJ/mol
# Density = 2.501169 g / cm^3
# Si number density = 25.068743 Si / 1000 Ang^3
#
#
#
# Elastic Constant Matrix: (Units=GPa)
#
#
# Indices 1 2 3 4 5 6 
#
# 1 47.5241 29.2995 22.8173 0.4769 2.4747 3.0970
# 2 29.2995 239.6092 53.0395 33.8457 7.6137 33.3841
# 3 22.8173 53.0395 74.3714 7.1638 4.2601 10.6144
# 4 0.4769 33.8457 7.1638 46.1757 1.6749 8.2849
# 5 2.4747 7.6137 4.2601 1.6749 28.6899 9.5398
# 6 3.0970 33.3841 10.6144 8.2849 9.5398 49.0997
#
#
#
# Elastic Compliance Matrix: (Units=1/GPa)
#
#
# Indices 1 2 3 4 5 6 
#
# 1 0.025467 -0.002060 -0.006639 0.002122 -0.001152 0.001095
# 2 -0.002060 0.005916 -0.002880 -0.003384 0.000139 -0.002726
# 3 -0.006639 -0.002880 0.017796 -0.000326 -0.000872 -0.001246
# 4 0.002122 -0.003384 -0.000326 0.024506 -0.000039 -0.001890
# 5 -0.001152 0.000139 -0.000872 -0.000039 0.037409 -0.007095
# 6 0.001095 -0.002726 -0.001246 -0.001890 -0.007095 0.024118
#
#
# Mechanical properties :
#
#
# Convention : Reuss Voigt Hill
#
# Bulk Modulus (GPa) = 38.43077 63.53528 50.98303
# Shear Modulus (GPa) = 29.93214 41.88296 35.90755
#
# Velocity S-wave (km/s) = 3.45918 4.09188 3.78876
# Velocity P-wave (km/s) = 5.59625 6.90827 6.28658
#
# Compressibility (1/GPa) = 0.02602082
#
# Stress axis : x y z
#
# Youngs Moduli (GPa) = 39.26669 169.02129 56.19237
#
# Poissons Ratio (x) = 0.34825 0.37304
# Poissons Ratio (y) = 0.08090 0.16184
# Poissons Ratio (z) = 0.26068 0.48681
#
# Static dielectric constant tensor:
#      x y z
#    x 2.247060 -0.431160 0.299840 
#    y -0.431160 2.734600 -0.571910 
#    z 0.299840 -0.571910 2.449520 
# 
# From -- ./inp_files/197580.got.cif
#   From: 2010.05.17/outbox.cif.g08.bks.cpg/sg2_99_cif.got.tgz:197580.got - 2010.06.03 11:33:40.
