data_PCOD9032289
_publ_section_title
;
Structure prediction by ZEFSAII (Michael W. Deem and Ramdas Pophale) SiO2 
 PCOD9032289
Probable space group: P -1
;
_chemical_formula_sum "Si O2"
_cell_formula_units_Z 16
_cell_length_a 12.292464
_cell_length_b 14.417666
_cell_length_c 14.730776
_cell_angle_alpha 151.540898
_cell_angle_beta 42.683323
_cell_angle_gamma 118.187999
_cell_volume 710.784064
_symmetry_space_group_name_H-M "P -1"
_symmetry_group_IT_number 2
_symmetry_cell_setting 'triclinic'
loop_
_space_group_symop_operation_xyz
x,y,z
-x,-y,-z
loop_
_atom_site_type_symbol
_atom_site_label
_atom_site_fract_x
_atom_site_fract_y
_atom_site_fract_z
Si Si1 0.051854 0.245081 0.348239
Si Si2 0.124124 0.734440 0.227266
Si Si3 0.261980 0.556543 0.649762
Si Si4 0.723671 0.778481 0.976681
Si Si5 0.387110 0.743767 0.226794
Si Si6 0.857618 0.960166 0.203965
Si Si7 0.615381 0.350280 0.158049
Si Si8 0.785286 0.830289 0.615499
O O1 0.226983 0.182408 0.120805
O O2 0.125197 0.180958 0.350575
O O3 0.893441 0.516351 0.671197
O O4 0.948569 0.114507 0.267336
O O5 0.242436 0.729630 0.236764
O O6 0.964706 0.685547 0.313105
O O7 0.273289 0.593065 0.934598
O O8 0.000000 0.000000 0.500000
O O9 0.391817 0.532472 0.464321
O O10 0.300608 0.662444 0.804637
O O11 0.324369 0.298959 0.417838
O O12 0.041589 0.706164 0.890223
O O13 0.529549 0.788635 0.121898
O O14 0.743284 0.945993 0.177992
O O15 0.273333 0.939744 0.540724
O O16 0.500000 0.500000 0.000000
O O17 0.660725 0.095435 0.889353
#
# Coordination Sequence:
#
# PCOD9032289 Si02
#       8
#     2   2   2   2   2   2   2   2
#     4  11  22  42  65  96 134 169 220 274 336 394
#     4  10  22  43  70  94 130 177 217 272 332 387
#     4  11  23  39  67  95 127 173 217 273 335 390
#     4  11  25  40  67  97 128 175 222 268 335 398
#     4  12  24  45  70  97 135 176 221 278 332 397
#     4  12  22  44  66  91 136 172 220 278 336 394
#     4  10  23  42  63  96 129 167 225 272 320 399
#     4  11  20  42  67  89 130 177 211 272 336 389
#
# _framework density 22.510352999999999
#
# number of rings (size 3 to 8) (size 9 to 14) (size 15 to 20)
#    0.000    1.000    5.000    1.875    1.750    0.500 
#    2.250    0.000    0.000    0.000    0.000    0.000 
#    0.000    0.000    0.000    0.000    0.000    0.000 
#
# Total GULP energy -89494.196904 kJ/mol
# GULP energy per Si atom -5593.387306 kJ/mol
# Density = 2.245912 g / cm^3
# Si number density = 22.510353 Si / 1000 Ang^3
#
#
#
# Elastic Constant Matrix: (Units=GPa)
#
#
# Indices 1 2 3 4 5 6 
#
# 1 29.3091 3.1823 17.0829 3.1024 -5.1801 1.8473
# 2 3.1823 91.1017 23.0933 -32.9194 8.9890 8.7283
# 3 17.0829 23.0933 88.1680 -40.6388 8.8396 -8.1470
# 4 3.1024 -32.9194 -40.6388 56.6864 -1.6063 5.4916
# 5 -5.1801 8.9890 8.8396 -1.6063 26.8255 3.8427
# 6 1.8473 8.7283 -8.1470 5.4916 3.8427 35.3528
#
#
#
# Elastic Compliance Matrix: (Units=1/GPa)
#
#
# Indices 1 2 3 4 5 6 
#
# 1 0.051399 -0.004834 -0.019497 -0.018615 0.017572 -0.005004
# 2 -0.004834 0.015564 0.002142 0.011088 -0.005587 -0.004212
# 3 -0.019497 0.002142 0.025263 0.019628 -0.012291 0.004599
# 4 -0.018615 0.011088 0.019628 0.039058 -0.011139 -0.002098
# 5 0.017572 -0.005587 -0.012291 -0.011139 0.046746 -0.005722
# 6 -0.005004 -0.004212 0.004599 -0.002098 -0.005722 0.031595
#
#
# Mechanical properties :
#
#
# Convention : Reuss Voigt Hill
#
# Bulk Modulus (GPa) = 20.89945 32.81063 26.85504
# Shear Modulus (GPa) = 18.52168 34.78762 26.65465
#
# Velocity S-wave (km/s) = 2.87157 3.93543 3.44482
# Velocity P-wave (km/s) = 4.50545 5.93781 5.27052
#
# Compressibility (1/GPa) = 0.04784814
#
# Stress axis : x y z
#
# Youngs Moduli (GPa) = 19.45553 64.24981 39.58367
#
# Poissons Ratio (x) = 0.31060 0.77176
# Poissons Ratio (y) = 0.09405 -0.08479
# Poissons Ratio (z) = 0.37932 -0.13762
#
# Static dielectric constant tensor:
#      x y z
#    x 1.782330 0.008740 0.002970 
#    y 0.008740 1.844700 -0.017150 
#    z 0.002970 -0.017150 1.852930 
# 
# From -- ./inp_files/457697.got.cif
#   From: 2010.05.17/outbox.cif.g08.bks.cpg/sg2_229_cif.got.tgz:457697.got - 2010.06.03 11:33:40.
