data_PCOD9032295
_publ_section_title
;
Structure prediction by ZEFSAII (Michael W. Deem and Ramdas Pophale) SiO2 
 PCOD9032295
Probable space group: P -1
;
_chemical_formula_sum "Si O2"
_cell_formula_units_Z 13
_cell_length_a 7.628181
_cell_length_b 11.785650
_cell_length_c 5.640896
_cell_angle_alpha 83.707897
_cell_angle_beta 100.121970
_cell_angle_gamma 89.927332
_cell_volume 496.124157
_symmetry_space_group_name_H-M "P -1"
_symmetry_group_IT_number 2
_symmetry_cell_setting 'triclinic'
loop_
_space_group_symop_operation_xyz
x,y,z
-x,-y,-z
loop_
_atom_site_type_symbol
_atom_site_label
_atom_site_fract_x
_atom_site_fract_y
_atom_site_fract_z
Si Si1 0.238046 0.053692 0.388816
Si Si2 0.100726 0.471399 0.273748
Si Si3 0.681414 0.363045 0.488826
Si Si4 0.441001 0.856171 0.292516
Si Si5 0.500000 0.500000 0.000000
Si Si6 0.945698 0.759605 0.483146
Si Si7 0.653456 0.754155 0.999954
O O1 0.391458 0.065057 0.623962
O O2 0.061625 0.113407 0.441289
O O3 0.268441 0.932455 0.298691
O O4 0.291769 0.149509 0.191696
O O5 0.280028 0.548068 0.306134
O O6 0.124696 0.336140 0.328444
O O7 0.000000 0.500000 0.500000
O O8 0.000000 0.500000 0.000000
O O9 0.543813 0.264758 0.535904
O O10 0.638356 0.442911 0.241847
O O11 0.859730 0.287209 0.520239
O O12 0.467203 0.810459 0.045968
O O13 0.610724 0.622022 0.990453
O O14 0.813054 0.754895 0.231568
#
# Coordination Sequence:
#
# PCOD9032295 Si02
#       7
#     2   2   2   2   1   2   2
#     4  10  22  43  70  94 137 190 228 290 358 429
#     4  10  23  42  69 101 146 191 231 292 370 437
#     4  11  24  45  68 109 140 183 238 300 360 431
#     4  10  23  43  67 100 136 179 240 293 349 428
#     4  12  24  42  72 104 144 178 236 296 362 426
#     4  10  24  41  68 101 139 185 233 289 363 428
#     4  11  23  43  68 101 136 187 234 288 361 433
#
# _framework density 26.203118
#
# number of rings (size 3 to 8) (size 9 to 14) (size 15 to 20)
#    0.000    1.538    3.077    0.462    4.308    4.923 
#    0.000    0.769    0.000    0.000    0.000    0.000 
#    0.000    0.000    0.000    0.000    0.000    0.000 
#
# Total GULP energy -72420.805995 kJ/mol
# GULP energy per Si atom -5570.831230 kJ/mol
# Density = 2.614348 g / cm^3
# Si number density = 26.203118 Si / 1000 Ang^3
#
#
#
# Elastic Constant Matrix: (Units=GPa)
#
#
# Indices 1 2 3 4 5 6 
#
# 1 57.2858 30.5328 2.8028 6.6927 11.0579 -22.3581
# 2 30.5328 204.4280 50.6102 -21.6324 -7.9993 -22.1917
# 3 2.8028 50.6102 111.9935 -11.7968 24.5434 1.8121
# 4 6.6927 -21.6324 -11.7968 27.8461 -0.0246 -7.1237
# 5 11.0579 -7.9993 24.5434 -0.0246 31.3526 -2.9046
# 6 -22.3581 -22.1917 1.8121 -7.1237 -2.9046 51.9495
#
#
#
# Elastic Compliance Matrix: (Units=1/GPa)
#
#
# Indices 1 2 3 4 5 6 
#
# 1 0.026200 -0.005286 0.003686 -0.007008 -0.012812 0.007212
# 2 -0.005286 0.008074 -0.004602 0.006273 0.007775 0.002630
# 3 0.003686 -0.004602 0.014036 0.001095 -0.013598 -0.001479
# 4 -0.007008 0.006273 0.001095 0.044454 0.003800 0.005933
# 5 -0.012812 0.007775 -0.013598 0.003800 0.049189 0.001553
# 6 0.007212 0.002630 -0.001479 0.005933 0.001553 0.024429
#
#
# Mechanical properties :
#
#
# Convention : Reuss Voigt Hill
#
# Bulk Modulus (GPa) = 27.85093 60.17766 44.01429
# Shear Modulus (GPa) = 26.21175 41.54707 33.87941
#
# Velocity S-wave (km/s) = 3.16623 3.98625 3.59967
# Velocity P-wave (km/s) = 4.90088 6.64851 5.84043
#
# Compressibility (1/GPa) = 0.03590544
#
# Stress axis : x y z
#
# Youngs Moduli (GPa) = 38.16819 123.85491 71.24640
#
# Poissons Ratio (x) = 0.65465 -0.26259
# Poissons Ratio (y) = 0.20174 0.32789
# Poissons Ratio (z) = -0.14068 0.57000
#
# Static dielectric constant tensor:
#      x y z
#    x 2.366170 -0.095020 -0.334720 
#    y -0.095020 2.095660 0.227540 
#    z -0.334720 0.227540 2.470440 
# 
# From -- ./inp_files/24326.got.cif
#   From: 2010.05.17/outbox.cif.g08.bks.cpg/sg2_13_cif.got.tgz:24326.got - 2010.06.03 11:33:40.
