data_PCOD9032607
_publ_section_title
;
Structure prediction by ZEFSAII (Michael W. Deem and Ramdas Pophale) SiO2 
 PCOD9032607
Probable space group: P -1
;
_chemical_formula_sum "Si O2"
_cell_formula_units_Z 14
_cell_length_a 24.807709
_cell_length_b 5.040291
_cell_length_c 8.284054
_cell_angle_alpha 105.390858
_cell_angle_beta 134.436241
_cell_angle_gamma 55.220515
_cell_volume 591.420680
_symmetry_space_group_name_H-M "P -1"
_symmetry_group_IT_number 2
_symmetry_cell_setting 'triclinic'
loop_
_space_group_symop_operation_xyz
x,y,z
-x,-y,-z
loop_
_atom_site_type_symbol
_atom_site_label
_atom_site_fract_x
_atom_site_fract_y
_atom_site_fract_z
Si Si1 0.257598 0.869790 0.448468
Si Si2 0.359933 0.242612 0.344077
Si Si3 0.043738 0.201294 0.669455
Si Si4 0.925859 0.022872 0.964874
Si Si5 0.555195 0.664166 0.766044
Si Si6 0.198884 0.238305 0.050640
Si Si7 0.585172 0.199511 0.031969
O O1 0.318332 0.495768 0.447532
O O2 0.318776 0.904233 0.709417
O O3 0.238984 0.089238 0.286271
O O4 0.157187 0.962201 0.297470
O O5 0.388696 0.395176 0.289072
O O6 0.278956 0.208967 0.111884
O O7 0.449348 0.904366 0.536788
O O8 0.000000 0.500000 0.500000
O O9 0.031316 0.252269 0.846773
O O10 0.151095 0.059576 0.856671
O O11 0.000000 0.000000 0.500000
O O12 0.876882 0.372438 0.015844
O O13 0.000000 0.000000 0.000000
O O14 0.573974 0.355425 0.857219
O O15 0.576776 0.888843 0.956236
O O16 0.500000 0.500000 0.000000
#
# Coordination Sequence:
#
# PCOD9032607 Si02
#       7
#     2   2   2   2   2   2   2
#     4  10  23  40  70  93 137 179 223 272 340 406
#     4  10  23  43  66  97 133 184 227 270 332 404
#     4  11  22  44  68  99 129 170 220 277 342 397
#     4  10  23  45  70  99 132 179 226 276 343 414
#     4  11  26  41  68  98 139 178 228 277 325 396
#     4  10  22  43  72  94 134 179 223 269 348 401
#     4  12  24  43  65 103 137 177 223 280 338 385
#
# _framework density 23.671814000000001
#
# number of rings (size 3 to 8) (size 9 to 14) (size 15 to 20)
#    0.000    1.429    2.857    1.286    6.000    3.429 
#    5.143    0.000    0.000    0.000    0.000    0.000 
#    0.000    0.000    0.000    0.000    0.000    0.000 
#
# Total GULP energy -78336.416221 kJ/mol
# GULP energy per Si atom -5595.458302 kJ/mol
# Density = 2.361794 g / cm^3
# Si number density = 23.671814 Si / 1000 Ang^3
#
#
#
# Elastic Constant Matrix: (Units=GPa)
#
#
# Indices 1 2 3 4 5 6 
#
# 1 139.5697 25.2680 59.9329 -18.0465 32.5973 5.7371
# 2 25.2680 62.7733 22.7352 2.7496 10.3862 10.8663
# 3 59.9329 22.7352 173.8436 5.2035 17.1740 7.0010
# 4 -18.0465 2.7496 5.2035 42.7626 17.8592 -0.8481
# 5 32.5973 10.3862 17.1740 17.8592 42.0258 -4.0252
# 6 5.7371 10.8663 7.0010 -0.8481 -4.0252 38.4760
#
#
#
# Elastic Compliance Matrix: (Units=1/GPa)
#
#
# Indices 1 2 3 4 5 6 
#
# 1 0.014168 -0.002230 -0.003444 0.012590 -0.014582 -0.002104
# 2 -0.002230 0.018561 -0.001191 -0.001093 -0.002382 -0.004966
# 3 -0.003444 -0.001191 0.007073 -0.002750 0.001208 -0.000371
# 4 0.012590 -0.001093 -0.002750 0.039703 -0.025518 -0.002862
# 5 -0.014582 -0.002382 0.001208 -0.025518 0.046710 0.006951
# 6 -0.002104 -0.004966 -0.000371 -0.002862 0.006951 0.028438
#
#
# Mechanical properties :
#
#
# Convention : Reuss Voigt Hill
#
# Bulk Modulus (GPa) = 38.35497 65.78432 52.06964
# Shear Modulus (GPa) = 28.23683 42.53625 35.38654
#
# Velocity S-wave (km/s) = 3.45751 4.24360 3.87056
# Velocity P-wave (km/s) = 5.67249 7.20148 6.48222
#
# Compressibility (1/GPa) = 0.02607224
#
# Stress axis : x y z
#
# Youngs Moduli (GPa) = 70.58315 53.87702 141.37643
#
# Poissons Ratio (x) = 0.12015 0.48693
# Poissons Ratio (y) = 0.15740 0.16832
# Poissons Ratio (z) = 0.24310 0.06414
#
# Static dielectric constant tensor:
#      x y z
#    x 1.913770 -0.017680 0.024330 
#    y -0.017680 1.997350 0.027730 
#    z 0.024330 0.027730 1.906290 
# 
# From -- ./inp_files/105167.got.cif
#   From: 2010.05.17/outbox.cif.g08.bks.cpg/sg2_53_cif.got.tgz:105167.got - 2010.06.03 11:33:40.
