data_PCOD9032807
_publ_section_title
;
Structure prediction by ZEFSAII (Michael W. Deem and Ramdas Pophale) SiO2 
 PCOD9032807
Probable space group: P -1
;
_chemical_formula_sum "Si O2"
_cell_formula_units_Z 16
_cell_length_a 12.528363
_cell_length_b 11.534476
_cell_length_c 4.989198
_cell_angle_alpha 97.059813
_cell_angle_beta 92.193127
_cell_angle_gamma 58.788489
_cell_volume 611.675530
_symmetry_space_group_name_H-M "P -1"
_symmetry_group_IT_number 2
_symmetry_cell_setting 'triclinic'
loop_
_space_group_symop_operation_xyz
x,y,z
-x,-y,-z
loop_
_atom_site_type_symbol
_atom_site_label
_atom_site_fract_x
_atom_site_fract_y
_atom_site_fract_z
Si Si1 0.441288 0.689184 0.476657
Si Si2 0.671315 0.385165 0.060235
Si Si3 0.357529 0.347395 0.106432
Si Si4 0.802901 0.918487 0.919476
Si Si5 0.081194 0.492796 0.255020
Si Si6 0.451022 0.921813 0.291757
Si Si7 0.024344 0.207280 0.585322
Si Si8 0.887735 0.114878 0.852999
O O1 0.410178 0.635443 0.185493
O O2 0.372862 0.647627 0.677416
O O3 0.573294 0.639497 0.621898
O O4 0.402164 0.845850 0.464502
O O5 0.665341 0.526745 0.050576
O O6 0.813882 0.263782 0.013823
O O7 0.223717 0.373478 0.193204
O O8 0.446109 0.205817 0.915576
O O9 0.903213 0.811435 0.687479
O O10 0.660439 0.964040 0.870758
O O11 0.797218 0.057031 0.861949
O O12 0.866279 0.863678 0.198027
O O13 0.000000 0.500000 0.500000
O O14 0.072958 0.636375 0.320499
O O15 0.000000 0.500000 0.000000
O O16 0.500000 0.000000 0.500000
O O17 0.942595 0.136016 0.589797
O O18 0.000000 0.000000 0.000000
#
# Coordination Sequence:
#
# PCOD9032807 Si02
#       8
#     2   2   2   2   2   2   2   2
#     4  12  27  48  80 120 157 209 259 336 411 481
#     4  12  26  48  82 122 165 197 267 338 418 490
#     4  12  29  54  83 119 164 213 269 344 408 477
#     4  11  25  46  77 107 156 196 262 322 388 470
#     4  12  30  52  80 114 155 210 272 324 395 480
#     4  12  31  52  80 115 162 223 278 327 397 479
#     4  11  25  48  75 111 148 206 251 325 398 467
#     4  10  22  43  75 117 151 201 251 321 406 479
#
# _framework density 26.15766
#
# number of rings (size 3 to 8) (size 9 to 14) (size 15 to 20)
#    0.000    0.500    3.750    1.875   10.500    3.500 
#    0.000    0.000    0.000    0.000    0.000    0.000 
#    0.000    0.000    0.000    0.000    0.000    0.000 
#
# Total GULP energy -89533.396368 kJ/mol
# GULP energy per Si atom -5595.837273 kJ/mol
# Density = 2.609812 g / cm^3
# Si number density = 26.157660 Si / 1000 Ang^3
#
#
#
# Elastic Constant Matrix: (Units=GPa)
#
#
# Indices 1 2 3 4 5 6 
#
# 1 370.3119 160.2857 87.9990 107.7027 24.0474 -41.9082
# 2 160.2857 189.5227 52.1145 71.2076 14.0495 -19.4980
# 3 87.9990 52.1145 166.6838 24.6935 -0.5588 -6.6756
# 4 107.7027 71.2076 24.6935 90.7912 18.6341 -14.8178
# 5 24.0474 14.0495 -0.5588 18.6341 34.3889 -0.3774
# 6 -41.9082 -19.4980 -6.6756 -14.8178 -0.3774 62.7873
#
#
#
# Elastic Compliance Matrix: (Units=1/GPa)
#
#
# Indices 1 2 3 4 5 6 
#
# 1 0.005501 -0.002654 -0.001474 -0.003572 -0.000831 0.001843
# 2 -0.002654 0.009213 -0.000905 -0.003852 0.000165 0.000086
# 3 -0.001474 -0.000905 0.007019 0.000184 0.001410 -0.000467
# 4 -0.003572 -0.003852 0.000184 0.019754 -0.006618 0.001061
# 5 -0.000831 0.000165 0.001410 -0.006618 0.033183 -0.001716
# 6 0.001843 0.000086 -0.000467 0.001061 -0.001716 0.017374
#
#
# Mechanical properties :
#
#
# Convention : Reuss Voigt Hill
#
# Bulk Modulus (GPa) = 85.70581 147.47965 116.59273
# Shear Modulus (GPa) = 47.17034 66.00143 56.58588
#
# Velocity S-wave (km/s) = 4.25115 5.02861 4.65613
# Velocity P-wave (km/s) = 7.54537 9.49839 8.57764
#
# Compressibility (1/GPa) = 0.01166782
#
# Stress axis : x y z
#
# Youngs Moduli (GPa) = 181.79704 108.53910 142.46183
#
# Poissons Ratio (x) = 0.28801 0.21002
# Poissons Ratio (y) = 0.48240 0.12894
# Poissons Ratio (z) = 0.26800 0.09823
#
# Static dielectric constant tensor:
#      x y z
#    x 2.159750 0.026270 -0.002460 
#    y 0.026270 2.121350 0.042040 
#    z -0.002460 0.042040 2.061380 
# 
# From -- ./inp_files/70448.got.cif
#   From: 2010.05.17/outbox.cif.g08.bks.cpg/sg2_36_cif.got.tgz:70448.got - 2010.06.03 11:33:40.
