data_PCOD9032585
_publ_section_title
;
Structure prediction by ZEFSAII (Michael W. Deem and Ramdas Pophale) SiO2 
 PCOD9032585
Probable space group: P -1
;
_chemical_formula_sum "Si O2"
_cell_formula_units_Z 14
_cell_length_a 13.859030
_cell_length_b 5.044068
_cell_length_c 9.084039
_cell_angle_alpha 73.770279
_cell_angle_beta 109.147847
_cell_angle_gamma 120.983359
_cell_volume 509.478911
_symmetry_space_group_name_H-M "P -1"
_symmetry_group_IT_number 2
_symmetry_cell_setting 'triclinic'
loop_
_space_group_symop_operation_xyz
x,y,z
-x,-y,-z
loop_
_atom_site_type_symbol
_atom_site_label
_atom_site_fract_x
_atom_site_fract_y
_atom_site_fract_z
Si Si1 0.662785 0.947251 0.796883
Si Si2 0.785791 0.622239 0.216245
Si Si3 0.937755 0.209800 0.900376
Si Si4 0.249992 0.527633 0.463453
Si Si5 0.024565 0.003620 0.336075
Si Si6 0.333442 0.965256 0.904140
Si Si7 0.450071 0.364666 0.656410
O O1 0.797226 0.022555 0.872350
O O2 0.670462 0.151835 0.626022
O O3 0.556849 0.609867 0.769699
O O4 0.629881 0.068107 0.909442
O O5 0.793148 0.455530 0.397746
O O6 0.687739 0.731296 0.136477
O O7 0.901260 0.947867 0.225134
O O8 0.771882 0.373368 0.126256
O O9 0.957267 0.244191 0.722877
O O10 0.000000 0.500000 0.000000
O O11 0.000000 0.000000 0.000000
O O12 0.326857 0.361107 0.568142
O O13 0.145222 0.317284 0.335559
O O14 0.000000 0.000000 0.500000
O O15 0.407843 0.043966 0.778762
O O16 0.500000 0.500000 0.500000
#
# Coordination Sequence:
#
# PCOD9032585 Si02
#       7
#     2   2   2   2   2   2   2
#     4  12  25  44  73 106 144 193 242 300 369 439
#     4  10  23  46  71 103 145 189 237 300 364 433
#     4  12  26  46  70 105 146 187 236 300 369 437
#     4  10  23  44  71 106 146 191 245 300 362 435
#     4  10  22  43  72 105 143 193 245 297 362 436
#     4  11  25  46  71 105 143 188 242 300 364 437
#     4  11  24  45  70 104 144 191 244 301 360 433
#
# _framework density 27.479058999999999
#
# number of rings (size 3 to 8) (size 9 to 14) (size 15 to 20)
#    0.000    1.143    0.000    5.143    0.000    6.857 
#    0.000   15.000    0.000    0.000    0.000    0.000 
#    0.000    0.000    0.000    0.000    0.000    0.000 
#
# Total GULP energy -77998.078064 kJ/mol
# GULP energy per Si atom -5571.291290 kJ/mol
# Density = 2.741652 g / cm^3
# Si number density = 27.479059 Si / 1000 Ang^3
#
#
#
# Elastic Constant Matrix: (Units=GPa)
#
#
# Indices 1 2 3 4 5 6 
#
# 1 86.6038 29.9909 48.0719 4.5049 17.4693 5.5893
# 2 29.9909 152.6718 36.7090 31.9513 1.5244 8.9387
# 3 48.0719 36.7090 122.9389 23.0373 -30.0932 -1.4691
# 4 4.5049 31.9513 23.0373 65.6234 9.8331 0.0204
# 5 17.4693 1.5244 -30.0932 9.8331 54.5202 1.9717
# 6 5.5893 8.9387 -1.4691 0.0204 1.9717 47.5764
#
#
#
# Elastic Compliance Matrix: (Units=1/GPa)
#
#
# Indices 1 2 3 4 5 6 
#
# 1 0.022638 -0.002374 -0.013218 0.006580 -0.015598 -0.001978
# 2 -0.002374 0.007983 -0.000552 -0.003670 0.000941 -0.001275
# 3 -0.013218 -0.000552 0.018883 -0.007856 0.016033 0.001579
# 4 0.006580 -0.003670 -0.007856 0.020846 -0.010104 0.000084
# 5 -0.015598 0.000941 0.016033 -0.010104 0.033958 0.000748
# 6 -0.001978 -0.001275 0.001579 0.000084 0.000748 0.021509
#
#
# Mechanical properties :
#
#
# Convention : Reuss Voigt Hill
#
# Bulk Modulus (GPa) = 58.09015 65.75090 61.92053
# Shear Modulus (GPa) = 30.51715 50.04019 40.27867
#
# Velocity S-wave (km/s) = 3.33612 4.27198 3.83272
# Velocity P-wave (km/s) = 6.00211 6.95073 6.49377
#
# Compressibility (1/GPa) = 0.01721462
#
# Stress axis : x y z
#
# Youngs Moduli (GPa) = 44.17428 125.27213 52.95796
#
# Poissons Ratio (x) = 0.29744 0.69998
# Poissons Ratio (y) = 0.10489 0.02925
# Poissons Ratio (z) = 0.58388 0.06919
#
# Static dielectric constant tensor:
#      x y z
#    x 2.346760 0.034040 -0.162370 
#    y 0.034040 2.101740 -0.103860 
#    z -0.162370 -0.103860 2.327690 
# 
# From -- ./inp_files/287007.got.cif
#   From: 2010.05.17/outbox.cif.g08.bks.cpg/sg2_144_cif.got.tgz:287007.got - 2010.06.03 11:33:40.
