data_PCOD9032199
_publ_section_title
;
Structure prediction by ZEFSAII (Michael W. Deem and Ramdas Pophale) SiO2 
 PCOD9032199
Probable space group: P -1
;
_chemical_formula_sum "Si O2"
_cell_formula_units_Z 12
_cell_length_a 10.618378
_cell_length_b 11.195899
_cell_length_c 5.911151
_cell_angle_alpha 90.853063
_cell_angle_beta 127.159727
_cell_angle_gamma 112.213173
_cell_volume 489.491896
_symmetry_space_group_name_H-M "P -1"
_symmetry_group_IT_number 2
_symmetry_cell_setting 'triclinic'
loop_
_space_group_symop_operation_xyz
x,y,z
-x,-y,-z
loop_
_atom_site_type_symbol
_atom_site_label
_atom_site_fract_x
_atom_site_fract_y
_atom_site_fract_z
Si Si1 0.387966 0.225244 0.072187
Si Si2 0.057027 0.971223 0.815287
Si Si3 0.428643 0.857498 0.046385
Si Si4 0.034131 0.688030 0.713078
Si Si5 0.683113 0.543429 0.056859
Si Si6 0.698735 0.328876 0.729660
O O1 0.428774 0.194167 0.864372
O O2 0.590451 0.312150 0.387159
O O3 0.270037 0.077423 0.047196
O O4 0.284781 0.311123 0.000291
O O5 0.004227 0.813880 0.749221
O O6 0.000000 0.000000 0.500000
O O7 0.000000 0.000000 0.000000
O O8 0.215038 0.756607 0.751925
O O9 0.402690 0.827331 0.283327
O O10 0.500000 0.000000 0.000000
O O11 0.856392 0.575509 0.397309
O O12 0.096817 0.635963 0.998604
O O13 0.500000 0.500000 0.000000
O O14 0.665345 0.434765 0.847904
#
# Coordination Sequence:
#
# PCOD9032199 Si02
#       6
#     2   2   2   2   2   2
#     4  12  24  44  74 105 142 193 246 307 373 443
#     4  12  28  46  76 114 152 190 249 317 380 441
#     4  10  22  43  70 100 142 178 244 300 374 425
#     4  10  24  45  71 103 143 191 243 304 371 439
#     4  12  23  45  71  98 150 192 245 303 369 446
#     4  10  25  43  67 102 138 188 242 300 362 439
#
# _framework density 24.515215999999999
#
# number of rings (size 3 to 8) (size 9 to 14) (size 15 to 20)
#    1.000    0.000    5.000    1.000    4.667    4.000 
#    0.000    1.667    0.000    0.000    0.000    0.000 
#    0.000    0.000    0.000    0.000    0.000    0.000 
#
# Total GULP energy -66808.162237 kJ/mol
# GULP energy per Si atom -5567.346853 kJ/mol
# Density = 2.445942 g / cm^3
# Si number density = 24.515216 Si / 1000 Ang^3
#
#
#
# Elastic Constant Matrix: (Units=GPa)
#
#
# Indices 1 2 3 4 5 6 
#
# 1 86.1835 6.9904 19.7127 7.8265 2.9077 2.6203
# 2 6.9904 106.4019 3.1529 -2.4052 -8.1140 2.1023
# 3 19.7127 3.1529 116.2356 0.7142 21.7450 5.0999
# 4 7.8265 -2.4052 0.7142 36.6627 -3.0337 10.8105
# 5 2.9077 -8.1140 21.7450 -3.0337 30.5205 7.0718
# 6 2.6203 2.1023 5.0999 10.8105 7.0718 42.3627
#
#
#
# Elastic Compliance Matrix: (Units=1/GPa)
#
#
# Indices 1 2 3 4 5 6 
#
# 1 0.012386 -0.000846 -0.002015 -0.002767 -0.000308 0.000276
# 2 -0.000846 0.009821 -0.000766 0.001546 0.003705 -0.001356
# 3 -0.002015 -0.000766 0.010362 -0.000535 -0.007519 0.000307
# 4 -0.002767 0.001546 -0.000535 0.031087 0.006186 -0.008807
# 5 -0.000308 0.003705 -0.007519 0.006186 0.041553 -0.007775
# 6 0.000276 -0.001356 0.000307 -0.008807 -0.007775 0.027164
#
#
# Mechanical properties :
#
#
# Convention : Reuss Voigt Hill
#
# Bulk Modulus (GPa) = 39.50164 40.94808 40.22486
# Shear Modulus (GPa) = 33.76897 40.50683 37.13790
#
# Velocity S-wave (km/s) = 3.71545 4.06928 3.89638
# Velocity P-wave (km/s) = 5.87828 6.23041 6.05691
#
# Compressibility (1/GPa) = 0.02531541
#
# Stress axis : x y z
#
# Youngs Moduli (GPa) = 80.73672 101.82395 96.50513
#
# Poissons Ratio (x) = 0.08609 0.19447
# Poissons Ratio (y) = 0.06826 0.07394
# Poissons Ratio (z) = 0.16269 0.07801
#
# Static dielectric constant tensor:
#      x y z
#    x 2.001880 -0.002460 0.003560 
#    y -0.002460 2.012930 -0.027050 
#    z 0.003560 -0.027050 2.052250 
# 
# From -- ./inp_files/66971.got.cif
#   From: 2010.05.17/outbox.cif.g08.bks.cpg/sg2_34_cif.got.tgz:66971.got - 2010.06.03 11:33:40.
