data_PCOD9032160
_publ_section_title
;
Structure prediction by ZEFSAII (Michael W. Deem and Ramdas Pophale) SiO2 
 PCOD9032160
Probable space group: P -1
;
_chemical_formula_sum "Si O2"
_cell_formula_units_Z 16
_cell_length_a 9.243845
_cell_length_b 8.843223
_cell_length_c 14.630357
_cell_angle_alpha 120.616848
_cell_angle_beta 107.893240
_cell_angle_gamma 112.823789
_cell_volume 731.750186
_symmetry_space_group_name_H-M "P -1"
_symmetry_group_IT_number 2
_symmetry_cell_setting 'triclinic'
loop_
_space_group_symop_operation_xyz
x,y,z
-x,-y,-z
loop_
_atom_site_type_symbol
_atom_site_label
_atom_site_fract_x
_atom_site_fract_y
_atom_site_fract_z
Si Si1 0.300857 0.107071 0.837337
Si Si2 0.834527 0.223190 0.904786
Si Si3 0.624099 0.448985 0.563357
Si Si4 0.178167 0.291261 0.717893
Si Si5 0.289898 0.110042 0.537997
Si Si6 0.024342 0.051448 0.128685
Si Si7 0.628846 0.111945 0.358934
Si Si8 0.659673 0.235110 0.046161
O O1 0.260111 0.236808 0.801298
O O2 0.261088 0.895752 0.708449
O O3 0.532916 0.261656 0.960051
O O4 0.172923 0.033450 0.881605
O O5 0.919171 0.095220 0.863139
O O6 0.614505 0.071876 0.766518
O O7 0.792146 0.211431 0.001222
O O8 0.000000 0.500000 0.000000
O O9 0.500000 0.500000 0.500000
O O10 0.462591 0.237779 0.535368
O O11 0.798954 0.676229 0.726244
O O12 0.697227 0.357700 0.477929
O O13 0.285557 0.288522 0.649293
O O14 0.216897 0.528193 0.800273
O O15 0.936424 0.078000 0.603325
O O16 0.328096 0.985377 0.579173
O O17 0.000000 0.000000 0.000000
O O18 0.500000 0.000000 0.000000
#
# Coordination Sequence:
#
# PCOD9032160 Si02
#       8
#     2   2   2   2   2   2   2   2
#     4  10  23  45  68  98 138 184 232 280 345 425
#     4  11  25  43  68  99 136 184 231 283 344 420
#     4  12  25  44  70  98 145 181 223 296 349 416
#     4  10  22  43  69  99 134 184 236 278 348 415
#     4  10  24  41  70 100 133 180 237 290 333 418
#     4  12  27  43  69 107 142 181 228 288 363 406
#     4  10  24  46  69 100 130 184 243 279 347 412
#     4  11  24  40  68  99 138 178 226 290 346 409
#
# _framework density 21.865386000000001
#
# number of rings (size 3 to 8) (size 9 to 14) (size 15 to 20)
#    0.000    1.250    1.250    3.000    7.000    3.500 
#    0.000    0.000    0.000    0.000    0.000    0.000 
#    0.000    0.000    0.000    0.000    0.000    0.000 
#
# Total GULP energy -89452.356017 kJ/mol
# GULP energy per Si atom -5590.772251 kJ/mol
# Density = 2.181562 g / cm^3
# Si number density = 21.865386 Si / 1000 Ang^3
#
#
#
# Elastic Constant Matrix: (Units=GPa)
#
#
# Indices 1 2 3 4 5 6 
#
# 1 97.3909 12.9782 29.2991 7.5549 -32.2485 -4.7903
# 2 12.9782 45.9878 24.7898 -1.1197 -17.9053 1.2027
# 3 29.2991 24.7898 116.6273 10.9272 -30.9874 -5.0449
# 4 7.5549 -1.1197 10.9272 23.6500 -7.3538 0.1466
# 5 -32.2485 -17.9053 -30.9874 -7.3538 39.5766 -8.8977
# 6 -4.7903 1.2027 -5.0449 0.1466 -8.8977 38.6019
#
#
#
# Elastic Compliance Matrix: (Units=1/GPa)
#
#
# Indices 1 2 3 4 5 6 
#
# 1 0.014936 0.000973 -0.000099 -0.000497 0.013551 0.004936
# 2 0.000973 0.028314 -0.003497 0.006503 0.012438 0.001624
# 3 -0.000099 -0.003497 0.011868 -0.003210 0.007812 0.003461
# 4 -0.000497 0.006503 -0.003210 0.047036 0.009038 0.001221
# 5 0.013551 0.012438 0.007812 0.009038 0.052991 0.014495
# 6 0.004936 0.001624 0.003461 0.001221 0.014495 0.030256
#
#
# Mechanical properties :
#
#
# Convention : Reuss Voigt Hill
#
# Bulk Modulus (GPa) = 20.05092 43.79336 31.92214
# Shear Modulus (GPa) = 24.12295 33.22829 28.67562
#
# Velocity S-wave (km/s) = 3.32512 3.90253 3.62534
# Velocity P-wave (km/s) = 4.89203 6.35440 5.67056
#
# Compressibility (1/GPa) = 0.04987303
#
# Stress axis : x y z
#
# Youngs Moduli (GPa) = 66.95111 35.31824 84.25731
#
# Poissons Ratio (x) = -0.03436 0.00831
# Poissons Ratio (y) = -0.06513 0.29465
# Poissons Ratio (z) = 0.00660 0.12351
#
# Static dielectric constant tensor:
#      x y z
#    x 1.810360 -0.032330 -0.034620 
#    y -0.032330 1.787290 -0.013430 
#    z -0.034620 -0.013430 1.835850 
# 
# From -- ./inp_files/495743.got.cif
#   From: 2010.05.17/outbox.cif.g08.bks.cpg/sg2_248_cif.got.tgz:495743.got - 2010.06.03 11:33:40.
