data_PCOD9032952
_publ_section_title
;
Structure prediction by ZEFSAII (Michael W. Deem and Ramdas Pophale) SiO2 
 PCOD9032952
Probable space group: P -1
;
_chemical_formula_sum "Si O2"
_cell_formula_units_Z 16
_cell_length_a 17.310625
_cell_length_b 6.292837
_cell_length_c 18.174757
_cell_angle_alpha 119.629782
_cell_angle_beta 151.431340
_cell_angle_gamma 48.686148
_cell_volume 690.732374
_symmetry_space_group_name_H-M "P -1"
_symmetry_group_IT_number 2
_symmetry_cell_setting 'triclinic'
loop_
_space_group_symop_operation_xyz
x,y,z
-x,-y,-z
loop_
_atom_site_type_symbol
_atom_site_label
_atom_site_fract_x
_atom_site_fract_y
_atom_site_fract_z
Si Si1 0.548163 0.853771 0.096303
Si Si2 0.927380 0.226061 0.545563
Si Si3 0.783830 0.625116 0.895365
Si Si4 0.849200 0.899216 0.868996
Si Si5 0.671933 0.253115 0.651330
Si Si6 0.203267 0.832940 0.839722
Si Si7 0.880781 0.827816 0.627827
Si Si8 0.610556 0.180476 0.324445
O O1 0.676725 0.508073 0.137226
O O2 0.648257 0.963956 0.251910
O O3 0.354671 0.924818 0.988252
O O4 0.500000 0.000000 0.000000
O O5 0.948531 0.500068 0.607934
O O6 0.703898 0.352233 0.400324
O O7 0.000000 0.000000 0.500000
O O8 0.062831 0.022312 0.689213
O O9 0.772594 0.884487 0.883104
O O10 0.775677 0.420590 0.790123
O O11 0.609199 0.682438 0.811237
O O12 0.992768 0.440652 0.077086
O O13 0.668071 0.111751 0.702001
O O14 0.000000 0.000000 0.000000
O O15 0.500000 0.500000 0.500000
O O16 0.774321 0.965459 0.637905
O O17 0.061686 0.863136 0.789863
O O18 0.734494 0.019677 0.473017
#
# Coordination Sequence:
#
# PCOD9032952 Si02
#       8
#     2   2   2   2   2   2   2   2
#     4  11  23  41  67  98 133 180 221 287 343 420
#     4  11  23  43  68  97 134 173 222 285 347 410
#     4  10  22  44  64 100 138 181 231 287 340 417
#     4   9  22  41  68  94 137 185 227 286 352 400
#     4  11  23  44  67  99 137 180 231 285 340 409
#     4  10  23  41  63  95 134 167 227 275 342 414
#     4  11  24  42  67 100 132 183 225 284 351 405
#     4  11  24  41  67 100 134 174 232 278 348 414
#
# _framework density 23.163820000000001
#
# number of rings (size 3 to 8) (size 9 to 14) (size 15 to 20)
#    0.000    1.500    1.250    3.000    0.000   12.500 
#    0.000    0.000    0.000    0.000    0.000    0.000 
#    0.000    0.000    0.000    0.000    0.000    0.000 
#
# Total GULP energy -89103.898149 kJ/mol
# GULP energy per Si atom -5568.993634 kJ/mol
# Density = 2.311110 g / cm^3
# Si number density = 23.163820 Si / 1000 Ang^3
#
#
#
# Elastic Constant Matrix: (Units=GPa)
#
#
# Indices 1 2 3 4 5 6 
#
# 1 82.6366 24.6476 15.2725 1.8873 17.3332 8.6734
# 2 24.6476 60.4751 10.9080 4.6602 -2.1426 0.0461
# 3 15.2725 10.9080 60.8229 -0.5373 10.2102 2.7538
# 4 1.8873 4.6602 -0.5373 43.9879 -4.2753 -2.7921
# 5 17.3332 -2.1426 10.2102 -4.2753 37.1726 3.9484
# 6 8.6734 0.0461 2.7538 -2.7921 3.9484 33.2017
#
#
#
# Elastic Compliance Matrix: (Units=1/GPa)
#
#
# Indices 1 2 3 4 5 6 
#
# 1 0.016225 -0.006517 -0.001543 -0.000942 -0.007274 -0.003316
# 2 -0.006517 0.019964 -0.002796 -0.001337 0.004672 0.001239
# 3 -0.001543 -0.002796 0.018084 0.000126 -0.004334 -0.000567
# 4 -0.000942 -0.001337 0.000126 0.023309 0.002810 0.001863
# 5 -0.007274 0.004672 -0.004334 0.002810 0.032219 -0.001342
# 6 -0.003316 0.001239 -0.000567 0.001863 -0.001342 0.031347
#
#
# Mechanical properties :
#
#
# Convention : Reuss Voigt Hill
#
# Bulk Modulus (GPa) = 30.71078 33.95454 32.33266
# Shear Modulus (GPa) = 28.78304 33.07954 30.93129
#
# Velocity S-wave (km/s) = 3.52886 3.78308 3.65818
# Velocity P-wave (km/s) = 5.46723 5.81141 5.64195
#
# Compressibility (1/GPa) = 0.03256186
#
# Stress axis : x y z
#
# Youngs Moduli (GPa) = 61.63186 50.09038 55.29649
#
# Poissons Ratio (x) = 0.32645 0.08529
# Poissons Ratio (y) = 0.40167 0.15461
# Poissons Ratio (z) = 0.09507 0.14006
#
# Static dielectric constant tensor:
#      x y z
#    x 1.933840 -0.006100 0.036070 
#    y -0.006100 2.850890 0.848290 
#    z 0.036070 0.848290 2.721190 
# 
# From -- ./inp_files/574928.got.cif
#   From: 2010.05.17/outbox.cif.g08.bks.cpg/sg2_288_cif.got.tgz:574928.got - 2010.06.03 11:33:40.
