data_PCOD9032532
_publ_section_title
;
Structure prediction by ZEFSAII (Michael W. Deem and Ramdas Pophale) SiO2 
 PCOD9032532
Probable space group: P -1
;
_chemical_formula_sum "Si O2"
_cell_formula_units_Z 14
_cell_length_a 9.702130
_cell_length_b 8.066272
_cell_length_c 14.139005
_cell_angle_alpha 139.228956
_cell_angle_beta 85.468017
_cell_angle_gamma 113.039116
_cell_volume 619.938112
_symmetry_space_group_name_H-M "P -1"
_symmetry_group_IT_number 2
_symmetry_cell_setting 'triclinic'
loop_
_space_group_symop_operation_xyz
x,y,z
-x,-y,-z
loop_
_atom_site_type_symbol
_atom_site_label
_atom_site_fract_x
_atom_site_fract_y
_atom_site_fract_z
Si Si1 0.916153 0.292463 0.610496
Si Si2 0.339657 0.270245 0.349339
Si Si3 0.607451 0.334399 0.663005
Si Si4 0.764000 0.322071 0.997396
Si Si5 0.528150 0.614183 0.942437
Si Si6 0.999234 0.967203 0.322594
Si Si7 0.876486 0.109849 0.076855
O O1 0.777676 0.358160 0.676154
O O2 0.946950 0.143677 0.635542
O O3 0.064630 0.622444 0.737397
O O4 0.901955 0.108928 0.437734
O O5 0.500000 0.500000 0.500000
O O6 0.372872 0.430208 0.315324
O O7 0.297641 0.928148 0.189991
O O8 0.167682 0.210482 0.371822
O O9 0.513163 0.363023 0.767380
O O10 0.500000 0.000000 0.500000
O O11 0.601732 0.294159 0.034372
O O12 0.890439 0.678792 0.136876
O O13 0.844944 0.219116 0.026293
O O14 0.500000 0.500000 0.000000
O O15 0.709894 0.859322 0.018607
O O16 0.000000 0.000000 0.000000
#
# Coordination Sequence:
#
# PCOD9032532 Si02
#       7
#     2   2   2   2   2   2   2
#     4  10  22  43  72 100 142 184 242 301 365 441
#     4  12  27  43  72 104 143 194 246 300 368 431
#     4  12  26  46  69 103 148 190 244 303 366 434
#     4  11  25  46  72 103 150 188 245 303 361 443
#     4  12  28  44  72 109 147 196 244 301 368 434
#     4  10  24  44  71 106 138 192 241 303 370 435
#     4  11  22  45  75 103 143 193 238 301 371 434
#
# _framework density 22.582899999999999
#
# number of rings (size 3 to 8) (size 9 to 14) (size 15 to 20)
#    0.000    0.857    2.857    2.571    6.000    4.000 
#    0.000    0.000    0.000    0.000    0.000    0.000 
#    0.000    0.000    0.000    0.000    0.000    0.000 
#
# Total GULP energy -78134.238293 kJ/mol
# GULP energy per Si atom -5581.017021 kJ/mol
# Density = 2.253150 g / cm^3
# Si number density = 22.582900 Si / 1000 Ang^3
#
#
#
# Elastic Constant Matrix: (Units=GPa)
#
#
# Indices 1 2 3 4 5 6 
#
# 1 128.2233 13.5854 23.4999 -15.6878 -10.6189 8.4396
# 2 13.5854 62.6758 30.0766 -1.3837 -3.2241 21.7162
# 3 23.4999 30.0766 142.1599 4.5054 -10.5845 6.1339
# 4 -15.6878 -1.3837 4.5054 31.3660 16.8729 0.0520
# 5 -10.6189 -3.2241 -10.5845 16.8729 32.6804 4.6989
# 6 8.4396 21.7162 6.1339 0.0520 4.6989 31.4290
#
#
#
# Elastic Compliance Matrix: (Units=1/GPa)
#
#
# Indices 1 2 3 4 5 6 
#
# 1 0.008790 -0.000502 -0.001381 0.004385 0.000355 -0.001804
# 2 -0.000502 0.023658 -0.003966 -0.000445 0.003409 -0.015947
# 3 -0.001381 -0.003966 0.008493 -0.004220 0.003965 0.000868
# 4 0.004385 -0.000445 -0.004220 0.048365 -0.025487 0.003684
# 5 0.000355 0.003409 0.003965 -0.025487 0.046961 -0.010203
# 6 -0.001804 -0.015947 0.000868 0.003684 -0.010203 0.044671
#
#
# Mechanical properties :
#
#
# Convention : Reuss Voigt Hill
#
# Bulk Modulus (GPa) = 34.19821 51.93144 43.06483
# Shear Modulus (GPa) = 24.70532 36.82154 30.76343
#
# Velocity S-wave (km/s) = 3.31113 4.04233 3.69486
# Velocity P-wave (km/s) = 5.45842 6.69575 6.10850
#
# Compressibility (1/GPa) = 0.02924129
#
# Stress axis : x y z
#
# Youngs Moduli (GPa) = 113.76726 42.26867 117.73962
#
# Poissons Ratio (x) = 0.02123 0.16266
# Poissons Ratio (y) = 0.05714 0.46699
# Poissons Ratio (z) = 0.15717 0.16765
#
# Static dielectric constant tensor:
#      x y z
#    x 1.887460 0.025500 0.028380 
#    y 0.025500 1.815470 0.011260 
#    z 0.028380 0.011260 1.867750 
# 
# From -- ./inp_files/446988.got.cif
#   From: 2010.05.17/outbox.cif.g08.bks.cpg/sg2_224_cif.got.tgz:446988.got - 2010.06.03 11:33:40.
