data_PCOD9032735
_publ_section_title
;
Structure prediction by ZEFSAII (Michael W. Deem and Ramdas Pophale) SiO2 
 PCOD9032735
Probable space group: P -1
;
_chemical_formula_sum "Si O2"
_cell_formula_units_Z 13
_cell_length_a 11.946130
_cell_length_b 9.462956
_cell_length_c 16.030953
_cell_angle_alpha 141.356785
_cell_angle_beta 25.764925
_cell_angle_gamma 129.685236
_cell_volume 477.682282
_symmetry_space_group_name_H-M "P -1"
_symmetry_group_IT_number 2
_symmetry_cell_setting 'triclinic'
loop_
_space_group_symop_operation_xyz
x,y,z
-x,-y,-z
loop_
_atom_site_type_symbol
_atom_site_label
_atom_site_fract_x
_atom_site_fract_y
_atom_site_fract_z
Si Si1 0.090915 0.955474 0.085845
Si Si2 0.653092 0.972364 0.222199
Si Si3 0.310595 0.441813 0.674022
Si Si4 0.714156 0.645584 0.784682
Si Si5 0.213458 0.769236 0.337374
Si Si6 0.842846 0.225241 0.820457
Si Si7 0.500000 0.000000 0.500000
O O1 0.268401 0.102833 0.079919
O O2 0.787965 0.046025 0.358331
O O3 0.133939 0.996615 0.976050
O O4 0.202784 0.682881 0.903981
O O5 0.503116 0.216761 0.486204
O O6 0.677011 0.825298 0.222738
O O7 0.433880 0.905171 0.279578
O O8 0.500000 0.500000 0.500000
O O9 0.063001 0.350263 0.764970
O O10 0.693315 0.484157 0.803459
O O11 0.000000 0.500000 0.500000
O O12 0.464055 0.673691 0.904840
O O13 0.159416 0.750124 0.267349
O O14 0.947931 0.946144 0.633596
#
# Coordination Sequence:
#
# PCOD9032735 Si02
#       7
#     2   2   2   2   2   2   1
#     4  11  25  44  68 102 144 182 237 296 354 426
#     4  10  22  46  69 103 136 187 235 297 352 427
#     4   9  22  43  72 102 137 180 243 291 354 433
#     4  12  26  43  69 106 144 185 240 291 350 435
#     4  10  22  43  73  99 138 180 245 288 350 428
#     4  10  22  43  75  98 134 193 229 292 362 411
#     4  12  26  40  66 102 144 184 230 284 364 420
#
# _framework density 27.214742999999999
#
# number of rings (size 3 to 8) (size 9 to 14) (size 15 to 20)
#    0.000    1.538    1.538    1.846    6.462    3.692 
#    0.000    0.000    0.000    0.000    0.000    0.000 
#    0.000    0.000    0.000    0.000    0.000    0.000 
#
# Total GULP energy -72511.212890 kJ/mol
# GULP energy per Si atom -5577.785607 kJ/mol
# Density = 2.715280 g / cm^3
# Si number density = 27.214743 Si / 1000 Ang^3
#
#
#
# Elastic Constant Matrix: (Units=GPa)
#
#
# Indices 1 2 3 4 5 6 
#
# 1 109.3920 35.2043 27.9546 -8.5259 0.2267 -6.7964
# 2 35.2043 116.9855 63.2887 6.0511 2.6499 24.8238
# 3 27.9546 63.2887 152.7157 -13.0232 -4.9080 5.2274
# 4 -8.5259 6.0511 -13.0232 76.2164 -20.0326 9.8046
# 5 0.2267 2.6499 -4.9080 -20.0326 47.4445 -10.8032
# 6 -6.7964 24.8238 5.2274 9.8046 -10.8032 26.8676
#
#
#
# Elastic Compliance Matrix: (Units=1/GPa)
#
#
# Indices 1 2 3 4 5 6 
#
# 1 0.011509 -0.005445 0.000062 0.001360 0.002777 0.008550
# 2 -0.005445 0.017686 -0.006137 -0.002495 -0.006831 -0.018360
# 3 0.000062 -0.006137 0.009240 0.002380 0.003292 0.004343
# 4 0.001360 -0.002495 0.002380 0.015785 0.006858 -0.000816
# 5 0.002777 -0.006831 0.003292 0.006858 0.028140 0.015185
# 6 0.008550 -0.018360 0.004343 -0.000816 0.015185 0.061904
#
#
# Mechanical properties :
#
#
# Convention : Reuss Voigt Hill
#
# Bulk Modulus (GPa) = 64.94751 70.22092 67.58422
# Shear Modulus (GPa) = 28.99646 46.94875 37.97260
#
# Velocity S-wave (km/s) = 3.26769 4.15796 3.73942
# Velocity P-wave (km/s) = 6.17687 6.99358 6.59787
#
# Compressibility (1/GPa) = 0.01539705
#
# Stress axis : x y z
#
# Youngs Moduli (GPa) = 86.88738 56.54120 108.22497
#
# Poissons Ratio (x) = 0.30784 -0.00673
# Poissons Ratio (y) = 0.47306 0.66416
# Poissons Ratio (z) = -0.00540 0.34698
#
# Static dielectric constant tensor:
#      x y z
#    x 1.962200 0.194570 0.169770 
#    y 0.194570 1.946330 -0.147930 
#    z 0.169770 -0.147930 2.281250 
# 
# From -- ./inp_files/597606.got.cif
#   From: 2010.05.17/outbox.cif.g08.bks.cpg/sg2_299_cif.got.tgz:597606.got - 2010.06.03 11:33:40.
