data_PCOD9032899
_publ_section_title
;
Structure prediction by ZEFSAII (Michael W. Deem and Ramdas Pophale) SiO2 
 PCOD9032899
Probable space group: P -1
;
_chemical_formula_sum "Si O2"
_cell_formula_units_Z 14
_cell_length_a 11.860994
_cell_length_b 13.941182
_cell_length_c 18.139924
_cell_angle_alpha 161.220949
_cell_angle_beta 41.780896
_cell_angle_gamma 139.306878
_cell_volume 624.021650
_symmetry_space_group_name_H-M "P -1"
_symmetry_group_IT_number 2
_symmetry_cell_setting 'triclinic'
loop_
_space_group_symop_operation_xyz
x,y,z
-x,-y,-z
loop_
_atom_site_type_symbol
_atom_site_label
_atom_site_fract_x
_atom_site_fract_y
_atom_site_fract_z
Si Si1 0.711285 0.586357 0.013057
Si Si2 0.808424 0.777296 0.441937
Si Si3 0.982818 0.336680 0.969915
Si Si4 0.372277 0.703250 0.303800
Si Si5 0.497470 0.540633 0.715880
Si Si6 0.327764 0.093887 0.241068
Si Si7 0.807176 0.314447 0.478801
O O1 0.834036 0.593409 0.028631
O O2 0.513569 0.502703 0.078317
O O3 0.766281 0.943140 0.217369
O O4 0.716210 0.350644 0.773128
O O5 0.668529 0.747047 0.422499
O O6 0.712824 0.828737 0.600045
O O7 0.000000 0.000000 0.500000
O O8 0.858675 0.453117 0.173744
O O9 0.868882 0.998958 0.764307
O O10 0.000000 0.500000 0.000000
O O11 0.217681 0.620737 0.376133
O O12 0.500000 0.000000 0.500000
O O13 0.560811 0.659687 0.689626
O O14 0.655646 0.442420 0.606544
O O15 0.423524 0.810731 0.986564
O O16 0.000000 0.500000 0.500000
#
# Coordination Sequence:
#
# PCOD9032899 Si02
#       7
#     2   2   2   2   2   2   2
#     4  10  23  42  66  96 133 176 224 276 346 400
#     4  11  23  38  66 101 129 171 221 276 340 400
#     4  11  23  39  65 101 132 168 219 279 341 405
#     4   9  22  43  65  93 131 177 223 282 333 400
#     4  10  24  41  66  90 134 178 224 273 339 403
#     4  10  22  44  62  94 133 177 217 281 334 400
#     4  11  24  42  65  97 131 180 228 277 334 409
#
# _framework density 22.435119
#
# number of rings (size 3 to 8) (size 9 to 14) (size 15 to 20)
#    0.000    1.714    1.429    1.286    4.000    8.571 
#    0.000    0.000    0.000    0.000    0.000    0.000 
#    0.000    0.000    0.000    0.000    0.000    0.000 
#
# Total GULP energy -77983.622672 kJ/mol
# GULP energy per Si atom -5570.258762 kJ/mol
# Density = 2.238406 g / cm^3
# Si number density = 22.435119 Si / 1000 Ang^3
#
#
#
# Elastic Constant Matrix: (Units=GPa)
#
#
# Indices 1 2 3 4 5 6 
#
# 1 126.4391 30.5949 50.7059 13.1204 8.7036 14.3163
# 2 30.5949 122.0631 53.9655 -17.2742 6.1335 3.6327
# 3 50.7059 53.9655 102.9711 -17.3344 23.8757 -25.1230
# 4 13.1204 -17.2742 -17.3344 35.9038 -0.9814 4.6156
# 5 8.7036 6.1335 23.8757 -0.9814 35.1747 3.3236
# 6 14.3163 3.6327 -25.1230 4.6156 3.3236 33.1582
#
#
#
# Elastic Compliance Matrix: (Units=1/GPa)
#
#
# Indices 1 2 3 4 5 6 
#
# 1 0.019337 0.003330 -0.022198 -0.012654 0.011706 -0.024944
# 2 0.003330 0.013679 -0.013983 0.000672 0.007661 -0.014393
# 3 -0.022198 -0.013983 0.050215 0.018417 -0.030330 0.049639
# 4 -0.012654 0.000672 0.018417 0.039519 -0.009785 0.014824
# 5 0.011706 0.007661 -0.030330 -0.009785 0.047561 -0.032279
# 6 -0.024944 -0.014393 0.049639 0.014824 -0.032279 0.081287
#
#
# Mechanical properties :
#
#
# Convention : Reuss Voigt Hill
#
# Bulk Modulus (GPa) = 57.05036 69.11176 63.08106
# Shear Modulus (GPa) = 15.47313 35.26114 25.36714
#
# Velocity S-wave (km/s) = 2.62903 3.96876 3.36622
# Velocity P-wave (km/s) = 5.89067 7.20232 6.57926
#
# Compressibility (1/GPa) = 0.01752837
#
# Stress axis : x y z
#
# Youngs Moduli (GPa) = 51.71510 73.10740 19.91455
#
# Poissons Ratio (x) = -0.24348 0.44206
# Poissons Ratio (y) = -0.17224 0.27847
# Poissons Ratio (z) = 1.14796 1.02229
#
# Static dielectric constant tensor:
#      x y z
#    x 1.923700 0.006990 0.002380 
#    y 0.006990 1.868380 0.050290 
#    z 0.002380 0.050290 1.916920 
# 
# From -- ./inp_files/569845.got.cif
#   From: 2010.05.17/outbox.cif.g08.bks.cpg/sg2_285_cif.got.tgz:569845.got - 2010.06.03 11:33:40.
