data_PCOD9032721
_publ_section_title
;
Structure prediction by ZEFSAII (Michael W. Deem and Ramdas Pophale) SiO2 
 PCOD9032721
Probable space group: P -1
;
_chemical_formula_sum "Si O2"
_cell_formula_units_Z 16
_cell_length_a 25.123148
_cell_length_b 5.552873
_cell_length_c 7.084757
_cell_angle_alpha 99.250685
_cell_angle_beta 67.638329
_cell_angle_gamma 128.866802
_cell_volume 707.491299
_symmetry_space_group_name_H-M "P -1"
_symmetry_group_IT_number 2
_symmetry_cell_setting 'triclinic'
loop_
_space_group_symop_operation_xyz
x,y,z
-x,-y,-z
loop_
_atom_site_type_symbol
_atom_site_label
_atom_site_fract_x
_atom_site_fract_y
_atom_site_fract_z
Si Si1 0.284582 0.549969 0.043633
Si Si2 0.974940 0.821815 0.706507
Si Si3 0.780426 0.984824 0.225040
Si Si4 0.699452 0.746885 0.700807
Si Si5 0.592360 0.968323 0.331110
Si Si6 0.063784 0.855823 0.906530
Si Si7 0.817483 0.334906 0.870543
Si Si8 0.576291 0.481004 0.581166
O O1 0.271611 0.298414 0.882490
O O2 0.344920 0.869888 0.893294
O O3 0.309150 0.534090 0.215981
O O4 0.203634 0.455001 0.149817
O O5 0.900372 0.469727 0.736530
O O6 0.043479 0.879308 0.724619
O O7 0.000000 0.000000 0.500000
O O8 0.946640 0.948927 0.910379
O O9 0.739491 0.882231 0.463893
O O10 0.857248 0.053064 0.166245
O O11 0.801234 0.276866 0.109706
O O12 0.618613 0.627117 0.740479
O O13 0.757053 0.025496 0.797730
O O14 0.601072 0.763267 0.438537
O O15 0.511559 0.730152 0.320062
O O16 0.592495 0.240883 0.462426
O O17 0.000000 0.500000 0.000000
#
# Coordination Sequence:
#
# PCOD9032721 Si02
#       8
#     2   2   2   2   2   2   2   2
#     4  11  24  42  65  98 134 171 218 279 329 399
#     4  11  26  42  62  93 127 164 219 277 333 398
#     4  11  23  44  64  90 132 169 219 271 330 406
#     4  11  26  39  68 100 126 176 223 267 344 400
#     4  10  22  43  73  97 141 179 226 284 335 402
#     4  11  24  43  65  88 120 173 216 263 339 396
#     4  11  25  42  61  95 133 167 217 278 334 398
#     4  10  22  44  70 103 132 187 228 271 345 408
#
# _framework density 22.615120999999998
#
# number of rings (size 3 to 8) (size 9 to 14) (size 15 to 20)
#    0.000    1.250    3.750    0.750    7.000    2.000 
#    0.000    0.625    0.000    0.000    0.000    0.000 
#    0.000    0.000    0.000    0.000    0.000    0.000 
#
# Total GULP energy -89243.936912 kJ/mol
# GULP energy per Si atom -5577.746057 kJ/mol
# Density = 2.256365 g / cm^3
# Si number density = 22.615121 Si / 1000 Ang^3
#
#
#
# Elastic Constant Matrix: (Units=GPa)
#
#
# Indices 1 2 3 4 5 6 
#
# 1 130.7279 26.2591 44.8397 -5.6939 41.2546 16.5011
# 2 26.2591 84.3279 23.8445 -7.9144 13.1565 14.4644
# 3 44.8397 23.8445 112.3277 -17.7423 41.0410 9.0949
# 4 -5.6939 -7.9144 -17.7423 31.4307 -2.8566 2.3754
# 5 41.2546 13.1565 41.0410 -2.8566 42.9956 -0.1341
# 6 16.5011 14.4644 9.0949 2.3754 -0.1341 37.5316
#
#
#
# Elastic Compliance Matrix: (Units=1/GPa)
#
#
# Indices 1 2 3 4 5 6 
#
# 1 0.012089 -0.001038 0.000183 0.001382 -0.011380 -0.005087
# 2 -0.001038 0.013894 -0.000832 0.003004 -0.002276 -0.004895
# 3 0.000183 -0.000832 0.015909 0.007791 -0.014601 -0.004160
# 4 0.001382 0.003004 0.007791 0.037018 -0.007241 -0.006022
# 5 -0.011380 -0.002276 -0.014601 -0.007241 0.048362 0.010050
# 6 -0.005087 -0.004895 -0.004160 -0.006022 0.010050 0.032192
#
#
# Mechanical properties :
#
#
# Convention : Reuss Voigt Hill
#
# Bulk Modulus (GPa) = 25.96351 57.47444 41.71898
# Shear Modulus (GPa) = 28.46119 37.88759 33.17439
#
# Velocity S-wave (km/s) = 3.55139 4.09751 3.83418
# Velocity P-wave (km/s) = 5.32184 6.91776 6.17161
#
# Compressibility (1/GPa) = 0.03851559
#
# Stress axis : x y z
#
# Youngs Moduli (GPa) = 82.71960 71.97482 62.85914
#
# Poissons Ratio (x) = 0.07473 -0.01149
# Poissons Ratio (y) = 0.08589 0.05233
# Poissons Ratio (z) = -0.01513 0.05991
#
# Static dielectric constant tensor:
#      x y z
#    x 1.909450 -0.078760 0.014350 
#    y -0.078760 2.033680 0.018530 
#    z 0.014350 0.018530 1.812640 
# 
# From -- ./inp_files/10563.got.cif
#   From: 2010.05.17/outbox.cif.g08.bks.cpg/sg2_6_cif.got.tgz:10563.got - 2010.06.03 11:33:40.
