data_PCOD9032080
_publ_section_title
;
Structure prediction by ZEFSAII (Michael W. Deem and Ramdas Pophale) SiO2 
 PCOD9032080
Probable space group: P -1
;
_chemical_formula_sum "Si O2"
_cell_formula_units_Z 16
_cell_length_a 9.437993
_cell_length_b 13.510717
_cell_length_c 10.842462
_cell_angle_alpha 32.684033
_cell_angle_beta 85.145449
_cell_angle_gamma 96.855813
_cell_volume 695.679872
_symmetry_space_group_name_H-M "P -1"
_symmetry_group_IT_number 2
_symmetry_cell_setting 'triclinic'
loop_
_space_group_symop_operation_xyz
x,y,z
-x,-y,-z
loop_
_atom_site_type_symbol
_atom_site_label
_atom_site_fract_x
_atom_site_fract_y
_atom_site_fract_z
Si Si1 0.595061 0.492266 0.382118
Si Si2 0.154714 0.183122 0.320522
Si Si3 0.131953 0.100378 0.683317
Si Si4 0.490540 0.275127 0.226793
Si Si5 0.529216 0.886412 0.331812
Si Si6 0.601851 0.313492 0.927679
Si Si7 0.063978 0.432561 0.443867
Si Si8 0.910800 0.667745 0.077908
O O1 0.500000 0.500000 0.500000
O O2 0.579629 0.271531 0.586077
O O3 0.768378 0.628904 0.220366
O O4 0.508360 0.564064 0.206238
O O5 0.154921 0.225107 0.422431
O O6 0.316517 0.153751 0.323782
O O7 0.145907 0.330795 0.059526
O O8 0.000000 0.000000 0.500000
O O9 0.297883 0.108308 0.704901
O O10 0.054950 0.209009 0.668003
O O11 0.034128 0.877694 0.887102
O O12 0.514840 0.190729 0.444444
O O13 0.608554 0.270779 0.117014
O O14 0.500000 0.500000 0.000000
O O15 0.530021 0.103367 0.089842
O O16 0.759983 0.435584 0.726190
O O17 0.000000 0.500000 0.500000
O O18 0.976244 0.496613 0.273775
#
# Coordination Sequence:
#
# PCOD9032080 Si02
#       8
#     2   2   2   2   2   2   2   2
#     4  12  26  44  65  93 136 172 220 279 321 377
#     4   9  19  38  65  95 131 159 201 265 334 382
#     4  10  22  43  69  95 130 170 212 269 328 392
#     4  11  19  40  70  98 131 171 210 266 331 398
#     4  11  23  42  70  99 129 174 218 263 334 398
#     4  12  23  43  70  98 130 174 222 269 327 395
#     4  12  26  42  66  96 127 177 232 264 316 391
#     4  11  23  43  65  97 132 164 214 277 328 376
#
# _framework density 22.999082999999999
#
# number of rings (size 3 to 8) (size 9 to 14) (size 15 to 20)
#    0.000    1.000    5.000    1.875    0.000    3.500 
#    0.000    0.000    0.000    0.000    0.000    0.000 
#    0.000    0.000    0.000    0.000    0.000    0.000 
#
# Total GULP energy -89458.944711 kJ/mol
# GULP energy per Si atom -5591.184044 kJ/mol
# Density = 2.294674 g / cm^3
# Si number density = 22.999083 Si / 1000 Ang^3
#
#
#
# Elastic Constant Matrix: (Units=GPa)
#
#
# Indices 1 2 3 4 5 6 
#
# 1 54.2512 -4.5291 14.5490 6.1483 -21.1830 -8.7106
# 2 -4.5291 59.6338 6.3588 -3.5867 -5.9622 -13.0023
# 3 14.5490 6.3588 53.5239 -9.5923 -16.1263 -3.3347
# 4 6.1483 -3.5867 -9.5923 32.5068 -2.0359 2.3904
# 5 -21.1830 -5.9622 -16.1263 -2.0359 34.3143 0.2435
# 6 -8.7106 -13.0023 -3.3347 2.3904 0.2435 31.1068
#
#
#
# Elastic Compliance Matrix: (Units=1/GPa)
#
#
# Indices 1 2 3 4 5 6 
#
# 1 0.028837 0.006234 -0.003925 -0.005660 0.016629 0.010565
# 2 0.006234 0.020254 -0.001418 0.000319 0.006649 0.009983
# 3 -0.003925 -0.001418 0.024183 0.008283 0.009185 0.000192
# 4 -0.005660 0.000319 0.008283 0.034711 0.002537 -0.003251
# 5 0.016629 0.006649 0.009185 0.002537 0.044975 0.007874
# 6 0.010565 0.009983 0.000192 -0.003251 0.007874 0.039487
#
#
# Mechanical properties :
#
#
# Convention : Reuss Voigt Hill
#
# Bulk Modulus (GPa) = 13.32340 22.24070 17.78205
# Shear Modulus (GPa) = 23.18216 29.65424 26.41820
#
# Velocity S-wave (km/s) = 3.17828 3.59467 3.39287
# Velocity P-wave (km/s) = 4.39024 5.18846 4.80595
#
# Compressibility (1/GPa) = 0.07505593
#
# Stress axis : x y z
#
# Youngs Moduli (GPa) = 34.67803 49.37180 41.35217
#
# Poissons Ratio (x) = -0.30780 0.16230
# Poissons Ratio (y) = -0.21619 0.05865
# Poissons Ratio (z) = 0.13611 0.07002
#
# Static dielectric constant tensor:
#      x y z
#    x 1.855670 0.027980 0.016610 
#    y 0.027980 1.893950 0.054700 
#    z 0.016610 0.054700 1.891160 
# 
# From -- ./inp_files/307763.got.cif
#   From: 2010.05.17/outbox.cif.g08.bks.cpg/sg2_154_cif.got.tgz:307763.got - 2010.06.03 11:33:40.
