data_PCOD9032567
_publ_section_title
;
Structure prediction by ZEFSAII (Michael W. Deem and Ramdas Pophale) SiO2 
 PCOD9032567
Probable space group: P -1
;
_chemical_formula_sum "Si O2"
_cell_formula_units_Z 14
_cell_length_a 14.706971
_cell_length_b 11.105611
_cell_length_c 11.780729
_cell_angle_alpha 142.770504
_cell_angle_beta 137.197497
_cell_angle_gamma 29.562585
_cell_volume 568.869164
_symmetry_space_group_name_H-M "P -1"
_symmetry_group_IT_number 2
_symmetry_cell_setting 'triclinic'
loop_
_space_group_symop_operation_xyz
x,y,z
-x,-y,-z
loop_
_atom_site_type_symbol
_atom_site_label
_atom_site_fract_x
_atom_site_fract_y
_atom_site_fract_z
Si Si1 0.102006 0.000885 0.445095
Si Si2 0.688295 0.352268 0.424955
Si Si3 0.735773 0.601610 0.355193
Si Si4 0.889377 0.542777 0.217278
Si Si5 0.630945 0.844706 0.673643
Si Si6 0.950135 0.012102 0.093679
Si Si7 0.490785 0.858334 0.989953
O O1 0.113377 0.224849 0.647167
O O2 0.898383 0.139741 0.405588
O O3 0.096911 0.956784 0.274285
O O4 0.264283 0.724551 0.456063
O O5 0.586984 0.661028 0.530885
O O6 0.579930 0.278514 0.221377
O O7 0.869291 0.543475 0.334996
O O8 0.768088 0.663276 0.555340
O O9 0.765913 0.332603 0.188270
O O10 0.533559 0.867198 0.323628
O O11 0.696439 0.646626 0.072603
O O12 0.043664 0.232531 0.075497
O O13 0.645249 0.926283 0.872210
O O14 0.000000 0.000000 0.000000
O O15 0.500000 0.000000 0.000000
#
# Coordination Sequence:
#
# PCOD9032567 Si02
#       7
#     2   2   2   2   2   2   2
#     4  11  24  44  68 109 142 179 233 280 360 413
#     4  11  25  44  71 103 142 184 226 290 354 416
#     4   9  20  45  69 103 134 186 236 281 347 404
#     4  10  23  43  71 103 140 182 231 291 340 413
#     4  10  22  44  72  99 143 182 229 295 343 413
#     4  10  22  43  72 103 139 183 235 287 339 412
#     4  11  24  45  69 104 137 181 237 278 348 422
#
# _framework density 24.610226000000001
#
# number of rings (size 3 to 8) (size 9 to 14) (size 15 to 20)
#    0.000    1.714    2.857    0.000    2.000    6.286 
#    2.571   12.143    0.000    0.000    0.000    0.000 
#    0.000    0.000    0.000    0.000    0.000    0.000 
#
# Total GULP energy -78251.035882 kJ/mol
# GULP energy per Si atom -5589.359706 kJ/mol
# Density = 2.455421 g / cm^3
# Si number density = 24.610226 Si / 1000 Ang^3
#
#
#
# Elastic Constant Matrix: (Units=GPa)
#
#
# Indices 1 2 3 4 5 6 
#
# 1 112.3324 37.8608 52.7057 -1.0649 -15.4133 5.4512
# 2 37.8608 95.0448 61.1853 5.0746 -15.3221 30.0536
# 3 52.7057 61.1853 162.8678 -4.4135 -12.8338 10.0205
# 4 -1.0649 5.0746 -4.4135 52.2970 2.4062 -7.5052
# 5 -15.4133 -15.3221 -12.8338 2.4062 40.7359 -0.1478
# 6 5.4512 30.0536 10.0205 -7.5052 -0.1478 36.5729
#
#
#
# Elastic Compliance Matrix: (Units=1/GPa)
#
#
# Indices 1 2 3 4 5 6 
#
# 1 0.011327 -0.003148 -0.002389 0.000465 0.002328 0.001658
# 2 -0.003148 0.022308 -0.006006 -0.005477 0.005568 -0.017318
# 3 -0.002389 -0.006006 0.008988 0.001770 -0.000424 0.003190
# 4 0.000465 -0.005477 0.001770 0.021116 -0.002544 0.008269
# 5 0.002328 0.005568 -0.000424 -0.002544 0.027521 -0.005217
# 6 0.001658 -0.017318 0.003190 0.008269 -0.005217 0.042128
#
#
# Mechanical properties :
#
#
# Convention : Reuss Voigt Hill
#
# Bulk Modulus (GPa) = 51.18583 74.86096 63.02340
# Shear Modulus (GPa) = 30.67743 40.48737 35.58240
#
# Velocity S-wave (km/s) = 3.53446 4.06044 3.80654
# Velocity P-wave (km/s) = 6.12375 7.24345 6.70700
#
# Compressibility (1/GPa) = 0.01953666
#
# Stress axis : x y z
#
# Youngs Moduli (GPa) = 88.28096 44.82727 111.26552
#
# Poissons Ratio (x) = 0.14113 0.26581
# Poissons Ratio (y) = 0.27794 0.66824
# Poissons Ratio (z) = 0.21090 0.26923
#
# Static dielectric constant tensor:
#      x y z
#    x 2.055780 -0.091510 -0.002390 
#    y -0.091510 2.014110 -0.017440 
#    z -0.002390 -0.017440 1.953740 
# 
# From -- ./inp_files/464207.got.cif
#   From: 2010.05.17/outbox.cif.g08.bks.cpg/sg2_233_cif.got.tgz:464207.got - 2010.06.03 11:33:40.
