data_PCOD9032347
_publ_section_title
;
Structure prediction by ZEFSAII (Michael W. Deem and Ramdas Pophale) SiO2 
 PCOD9032347
Probable space group: P -1
;
_chemical_formula_sum "Si O2"
_cell_formula_units_Z 16
_cell_length_a 6.883757
_cell_length_b 17.780525
_cell_length_c 7.494082
_cell_angle_alpha 126.023486
_cell_angle_beta 59.466354
_cell_angle_gamma 117.170614
_cell_volume 622.358777
_symmetry_space_group_name_H-M "P -1"
_symmetry_group_IT_number 2
_symmetry_cell_setting 'triclinic'
loop_
_space_group_symop_operation_xyz
x,y,z
-x,-y,-z
loop_
_atom_site_type_symbol
_atom_site_label
_atom_site_fract_x
_atom_site_fract_y
_atom_site_fract_z
Si Si1 0.483772 0.645772 0.319510
Si Si2 0.698095 0.191959 0.190845
Si Si3 0.960663 0.497050 0.799096
Si Si4 0.256619 0.978080 0.823075
Si Si5 0.203691 0.234478 0.948880
Si Si6 0.275709 0.678896 0.930567
Si Si7 0.299005 0.364170 0.406269
Si Si8 0.592984 0.138416 0.709105
O O1 0.339744 0.728615 0.536968
O O2 0.629289 0.633404 0.413775
O O3 0.661645 0.685897 0.136211
O O4 0.705541 0.447584 0.783075
O O5 0.673149 0.092442 0.161327
O O6 0.577048 0.240313 0.157148
O O7 0.937427 0.199180 0.979540
O O8 0.057934 0.606815 0.851188
O O9 0.130183 0.434330 0.555580
O O10 0.000000 0.500000 0.000000
O O11 0.261913 0.920147 0.555954
O O12 0.475462 0.068124 0.827235
O O13 0.000000 0.000000 0.000000
O O14 0.186685 0.269631 0.210768
O O15 0.352329 0.154339 0.758847
O O16 0.454417 0.610767 0.778360
O O17 0.256042 0.751191 0.196561
#
# Coordination Sequence:
#
# PCOD9032347 Si02
#       8
#     2   2   2   2   2   2   2   2
#     4  11  25  46  70 105 146 190 242 294 345 423
#     4  11  23  43  70 102 142 182 232 291 360 424
#     4  12  25  44  70 103 143 194 243 292 348 414
#     4  11  22  41  73 100 128 181 228 284 367 424
#     4  11  21  45  74 101 148 187 232 302 348 417
#     4  10  25  45  65 101 138 183 233 293 349 419
#     4  10  24  45  70 102 142 196 237 295 350 408
#     4  10  22  43  70  98 136 174 227 291 355 426
#
# _framework density 25.708644
#
# number of rings (size 3 to 8) (size 9 to 14) (size 15 to 20)
#    0.000    1.250    3.750    1.875    1.750    3.000 
#    4.500    0.625    0.000    0.000    0.000    0.000 
#    0.000    0.000    0.000    0.000    0.000    0.000 
#
# Total GULP energy -89096.739950 kJ/mol
# GULP energy per Si atom -5568.546247 kJ/mol
# Density = 2.565013 g / cm^3
# Si number density = 25.708644 Si / 1000 Ang^3
#
#
#
# Elastic Constant Matrix: (Units=GPa)
#
#
# Indices 1 2 3 4 5 6 
#
# 1 56.2403 18.3486 34.3436 5.4619 -20.8541 -3.5447
# 2 18.3486 130.3301 48.3132 5.0277 -6.3803 4.8434
# 3 34.3436 48.3132 149.8986 14.6155 -29.9042 7.7870
# 4 5.4619 5.0277 14.6155 28.9970 -9.7913 1.1204
# 5 -20.8541 -6.3803 -29.9042 -9.7913 45.3525 -4.8467
# 6 -3.5447 4.8434 7.7870 1.1204 -4.8467 31.4959
#
#
#
# Elastic Compliance Matrix: (Units=1/GPa)
#
#
# Indices 1 2 3 4 5 6 
#
# 1 0.024208 -0.001907 -0.003395 0.000411 0.009277 0.005270
# 2 -0.001907 0.008904 -0.002653 -0.000332 -0.001569 -0.001158
# 3 -0.003395 -0.002653 0.009323 -0.002344 0.003530 -0.001652
# 4 0.000411 -0.000332 -0.002344 0.037939 0.006828 0.000378
# 5 0.009277 -0.001569 0.003530 0.006828 0.030415 0.004850
# 6 0.005270 -0.001158 -0.001652 0.000378 0.004850 0.033663
#
#
# Mechanical properties :
#
#
# Convention : Reuss Voigt Hill
#
# Bulk Modulus (GPa) = 37.70162 59.83109 48.76635
# Shear Modulus (GPa) = 29.55026 36.86666 33.20846
#
# Velocity S-wave (km/s) = 3.39400 3.79095 3.59795
# Velocity P-wave (km/s) = 5.48232 6.51805 6.02249
#
# Compressibility (1/GPa) = 0.02652406
#
# Stress axis : x y z
#
# Youngs Moduli (GPa) = 41.30820 112.30978 107.26381
#
# Poissons Ratio (x) = 0.21420 0.36415
# Poissons Ratio (y) = 0.07879 0.28461
# Poissons Ratio (z) = 0.14024 0.29800
#
# Static dielectric constant tensor:
#      x y z
#    x 2.233210 -0.046180 0.075250 
#    y -0.046180 2.284040 0.152760 
#    z 0.075250 0.152760 2.377960 
# 
# From -- ./inp_files/218476.got.cif
#   From: 2010.05.17/outbox.cif.g08.bks.cpg/sg2_110_cif.got.tgz:218476.got - 2010.06.03 11:33:40.
