data_PCOD9032399
_publ_section_title
;
Structure prediction by ZEFSAII (Michael W. Deem and Ramdas Pophale) SiO2 
 PCOD9032399
Probable space group: P -1
;
_chemical_formula_sum "Si O2"
_cell_formula_units_Z 16
_cell_length_a 5.371352
_cell_length_b 9.498100
_cell_length_c 13.961874
_cell_angle_alpha 82.392067
_cell_angle_beta 72.248528
_cell_angle_gamma 104.352159
_cell_volume 640.302759
_symmetry_space_group_name_H-M "P -1"
_symmetry_group_IT_number 2
_symmetry_cell_setting 'triclinic'
loop_
_space_group_symop_operation_xyz
x,y,z
-x,-y,-z
loop_
_atom_site_type_symbol
_atom_site_label
_atom_site_fract_x
_atom_site_fract_y
_atom_site_fract_z
Si Si1 0.172180 0.306956 0.992605
Si Si2 0.416769 0.084137 0.912388
Si Si3 0.214437 0.615618 0.253399
Si Si4 0.031528 0.199726 0.604015
Si Si5 0.569564 0.984508 0.383527
Si Si6 0.427987 0.410115 0.147221
Si Si7 0.328518 0.813426 0.805757
Si Si8 0.722788 0.539445 0.554695
O O1 0.390654 0.343415 0.050724
O O2 0.895907 0.286682 0.085117
O O3 0.167970 0.151227 0.959815
O O4 0.297875 0.446093 0.895726
O O5 0.635840 0.239850 0.840452
O O6 0.391526 0.971432 0.838467
O O7 0.500000 0.000000 0.000000
O O8 0.992638 0.674160 0.328854
O O9 0.181870 0.476308 0.198852
O O10 0.365947 0.554019 0.328752
O O11 0.723801 0.098275 0.624647
O O12 0.222872 0.112876 0.634917
O O13 0.170074 0.280738 0.482010
O O14 0.500000 0.000000 0.500000
O O15 0.720559 0.140413 0.299455
O O16 0.447475 0.272608 0.219467
O O17 0.500000 0.500000 0.500000
O O18 0.000000 0.500000 0.500000
#
# Coordination Sequence:
#
# PCOD9032399 Si02
#       8
#     2   2   2   2   2   2   2   2
#     4  10  23  44  67 101 138 191 238 305 357 440
#     4  11  22  43  72  99 149 187 251 299 369 441
#     4  10  23  44  71 106 139 201 237 304 366 446
#     4  11  24  50  74 107 151 189 256 305 371 445
#     4  12  29  47  77 111 150 195 246 314 375 446
#     4  10  23  45  65 101 149 180 242 295 371 433
#     4  12  25  43  73 102 144 191 247 301 379 435
#     4  10  22  43  71 101 141 186 245 304 356 430
#
# _framework density 24.988178999999999
#
# number of rings (size 3 to 8) (size 9 to 14) (size 15 to 20)
#    0.000    1.250    2.500    2.625    5.250    1.000 
#    6.750    0.000    0.000    0.000    0.000    0.000 
#    0.000    0.000    0.000    0.000    0.000    0.000 
#
# Total GULP energy -89237.754321 kJ/mol
# GULP energy per Si atom -5577.359645 kJ/mol
# Density = 2.493130 g / cm^3
# Si number density = 24.988179 Si / 1000 Ang^3
#
#
#
# Elastic Constant Matrix: (Units=GPa)
#
#
# Indices 1 2 3 4 5 6 
#
# 1 102.2500 32.8119 25.5633 -8.0858 -4.3406 -14.2592
# 2 32.8119 136.0931 25.4966 6.0881 -5.2439 -34.5494
# 3 25.5633 25.4966 128.4720 -2.1835 4.6554 -18.7809
# 4 -8.0858 6.0881 -2.1835 44.0202 -13.6151 2.7042
# 5 -4.3406 -5.2439 4.6554 -13.6151 28.0520 -6.7573
# 6 -14.2592 -34.5494 -18.7809 2.7042 -6.7573 45.5352
#
#
#
# Elastic Compliance Matrix: (Units=1/GPa)
#
#
# Indices 1 2 3 4 5 6 
#
# 1 0.011524 -0.002027 -0.001718 0.003361 0.003734 0.001716
# 2 -0.002027 0.009930 -0.000648 -0.001382 0.002693 0.007113
# 3 -0.001718 -0.000648 0.008643 -0.000388 -0.001445 0.002343
# 4 0.003361 -0.001382 -0.000388 0.027781 0.013870 0.000253
# 5 0.003734 0.002693 -0.001445 0.013870 0.045769 0.008585
# 6 0.001716 0.007113 0.002343 0.000253 0.008585 0.030121
#
#
# Mechanical properties :
#
#
# Convention : Reuss Voigt Hill
#
# Bulk Modulus (GPa) = 46.92912 59.39541 53.16227
# Shear Modulus (GPa) = 33.40976 42.38439 37.89707
#
# Velocity S-wave (km/s) = 3.66050 4.12294 3.89858
# Velocity P-wave (km/s) = 6.05698 6.81805 6.44875
#
# Compressibility (1/GPa) = 0.02130873
#
# Stress axis : x y z
#
# Youngs Moduli (GPa) = 86.77777 100.70909 115.70533
#
# Poissons Ratio (x) = 0.20416 0.19877
# Poissons Ratio (y) = 0.17592 0.07503
# Poissons Ratio (z) = 0.14908 0.06530
#
# Static dielectric constant tensor:
#      x y z
#    x 2.018680 0.032150 -0.064330 
#    y 0.032150 2.001260 -0.021010 
#    z -0.064330 -0.021010 2.089560 
# 
# From -- ./inp_files/480404.got.cif
#   From: 2010.05.17/outbox.cif.g08.bks.cpg/sg2_241_cif.got.tgz:480404.got - 2010.06.03 11:33:40.
