data_PCOD9032547
_publ_section_title
;
Structure prediction by ZEFSAII (Michael W. Deem and Ramdas Pophale) SiO2 
 PCOD9032547
Probable space group: P -1
;
_chemical_formula_sum "Si O2"
_cell_formula_units_Z 16
_cell_length_a 9.775458
_cell_length_b 12.864671
_cell_length_c 6.923273
_cell_angle_alpha 88.786273
_cell_angle_beta 132.204139
_cell_angle_gamma 100.978570
_cell_volume 626.282013
_symmetry_space_group_name_H-M "P -1"
_symmetry_group_IT_number 2
_symmetry_cell_setting 'triclinic'
loop_
_space_group_symop_operation_xyz
x,y,z
-x,-y,-z
loop_
_atom_site_type_symbol
_atom_site_label
_atom_site_fract_x
_atom_site_fract_y
_atom_site_fract_z
Si Si1 0.849959 0.804255 0.285404
Si Si2 0.986981 0.613463 0.072123
Si Si3 0.218564 0.009932 0.260594
Si Si4 0.214235 0.500126 0.760540
Si Si5 0.391482 0.065004 0.024824
Si Si6 0.255781 0.246800 0.264419
Si Si7 0.436938 0.371893 0.737152
Si Si8 0.236439 0.798439 0.526555
O O1 0.798988 0.918106 0.255755
O O2 0.792597 0.783336 0.004242
O O3 0.708876 0.723884 0.290941
O O4 0.064597 0.794490 0.514526
O O5 0.826842 0.580128 0.091144
O O6 0.170371 0.689233 0.346048
O O7 0.915614 0.694157 0.855499
O O8 0.000000 0.500000 0.000000
O O9 0.337031 0.007662 0.178207
O O10 0.278085 0.134229 0.378809
O O11 0.231092 0.907045 0.399416
O O12 0.000000 0.000000 0.000000
O O13 0.338129 0.467524 0.704998
O O14 0.000000 0.500000 0.500000
O O15 0.352544 0.604852 0.977643
O O16 0.549174 0.176825 0.199546
O O17 0.500000 0.000000 0.000000
O O18 0.429729 0.338424 0.507840
#
# Coordination Sequence:
#
# PCOD9032547 Si02
#       8
#     2   2   2   2   2   2   2   2
#     4  10  23  46  67 101 143 180 237 293 356 425
#     4  11  23  44  68 104 142 185 239 290 360 418
#     4  11  21  47  72  98 144 184 234 291 353 431
#     4  11  25  46  66 101 141 181 239 299 345 419
#     4  11  26  42  68 107 137 186 238 295 362 427
#     4  10  22  43  72 102 133 191 235 280 365 422
#     4  11  24  44  72  99 137 185 236 293 353 421
#     4  11  23  46  70  98 144 186 232 299 351 429
#
# _framework density 25.547595999999999
#
# number of rings (size 3 to 8) (size 9 to 14) (size 15 to 20)
#    0.000    1.250    6.250    1.125    3.500    4.000 
#    2.250    0.000    0.000    0.000    0.000    0.000 
#    0.000    0.000    0.000    0.000    0.000    0.000 
#
# Total GULP energy -89291.369856 kJ/mol
# GULP energy per Si atom -5580.710616 kJ/mol
# Density = 2.548945 g / cm^3
# Si number density = 25.547596 Si / 1000 Ang^3
#
#
#
# Elastic Constant Matrix: (Units=GPa)
#
#
# Indices 1 2 3 4 5 6 
#
# 1 104.7403 32.0935 38.2872 9.4639 14.1864 -5.9698
# 2 32.0935 108.2813 -1.7805 4.4974 -2.3866 -13.1396
# 3 38.2872 -1.7805 93.7079 19.7639 18.5733 -8.1811
# 4 9.4639 4.4974 19.7639 39.9833 -3.7818 -1.6421
# 5 14.1864 -2.3866 18.5733 -3.7818 44.6207 2.5570
# 6 -5.9698 -13.1396 -8.1811 -1.6421 2.5570 53.5057
#
#
#
# Elastic Compliance Matrix: (Units=1/GPa)
#
#
# Indices 1 2 3 4 5 6 
#
# 1 0.012850 -0.003940 -0.004779 -0.000464 -0.002337 -0.000167
# 2 -0.003940 0.010802 0.002139 -0.001172 0.000699 0.002471
# 3 -0.004779 0.002139 0.015495 -0.007196 -0.005564 0.002407
# 4 -0.000464 -0.001172 -0.007196 0.029307 0.005611 -0.000809
# 5 -0.002337 0.000699 -0.005564 0.005611 0.026098 -0.002015
# 6 -0.000167 0.002471 0.002407 -0.000809 -0.002015 0.019717
#
#
# Mechanical properties :
#
#
# Convention : Reuss Voigt Hill
#
# Bulk Modulus (GPa) = 38.47705 49.32555 43.90130
# Shear Modulus (GPa) = 36.73993 43.49722 40.11858
#
# Velocity S-wave (km/s) = 3.79634 4.13073 3.96706
# Velocity P-wave (km/s) = 5.85746 6.48843 6.18101
#
# Compressibility (1/GPa) = 0.02598952
#
# Stress axis : x y z
#
# Youngs Moduli (GPa) = 77.81842 92.57509 64.53570
#
# Poissons Ratio (x) = 0.36473 0.30840
# Poissons Ratio (y) = 0.30659 -0.13807
# Poissons Ratio (z) = 0.37188 -0.19806
#
# Static dielectric constant tensor:
#      x y z
#    x 2.090330 -0.048100 -0.104380 
#    y -0.048100 2.123320 -0.017160 
#    z -0.104380 -0.017160 2.167180 
# 
# From -- ./inp_files/208023.got.cif
#   From: 2010.05.17/outbox.cif.g08.bks.cpg/sg2_105_cif.got.tgz:208023.got - 2010.06.03 11:33:40.
