data_PCOD9032107
_publ_section_title
;
Structure prediction by ZEFSAII (Michael W. Deem and Ramdas Pophale) SiO2 
 PCOD9032107
Probable space group: P -1
;
_chemical_formula_sum "Si O2"
_cell_formula_units_Z 14
_cell_length_a 23.280419
_cell_length_b 9.020489
_cell_length_c 13.844973
_cell_angle_alpha 137.853361
_cell_angle_beta 17.915706
_cell_angle_gamma 139.366064
_cell_volume 579.722770
_symmetry_space_group_name_H-M "P -1"
_symmetry_group_IT_number 2
_symmetry_cell_setting 'triclinic'
loop_
_space_group_symop_operation_xyz
x,y,z
-x,-y,-z
loop_
_atom_site_type_symbol
_atom_site_label
_atom_site_fract_x
_atom_site_fract_y
_atom_site_fract_z
Si Si1 0.641986 0.908722 0.910011
Si Si2 0.341937 0.025883 0.344082
Si Si3 0.362276 0.446907 0.419712
Si Si4 0.728303 0.096747 0.210376
Si Si5 0.917622 0.890696 0.975843
Si Si6 0.096755 0.579908 0.279060
Si Si7 0.757741 0.748133 0.850559
O O1 0.752518 0.172817 0.842669
O O2 0.695089 0.733124 0.663463
O O3 0.681303 0.825037 0.911456
O O4 0.416723 0.910635 0.259407
O O5 0.354277 0.294521 0.454452
O O6 0.126217 0.910367 0.602283
O O7 0.500000 0.000000 0.000000
O O8 0.240260 0.632050 0.712211
O O9 0.582429 0.581092 0.108362
O O10 0.500000 0.000000 0.500000
O O11 0.833439 0.974144 0.904432
O O12 0.793128 0.019780 0.172754
O O13 0.820352 0.620730 0.994935
O O14 0.000000 0.000000 0.000000
O O15 0.000000 0.500000 0.500000
O O16 0.923159 0.620158 0.510433
#
# Coordination Sequence:
#
# PCOD9032107 Si02
#       7
#     2   2   2   2   2   2   2
#     4  11  24  40  72 105 133 183 248 296 349 423
#     4  10  23  45  70 105 139 188 240 286 358 430
#     4  10  22  43  69  96 141 184 232 294 364 419
#     4  10  25  44  70  99 145 189 232 291 373 415
#     4  12  28  46  74 109 145 191 242 297 359 430
#     4  12  23  45  70  99 146 188 244 293 356 428
#     4  11  23  42  69 101 138 188 242 294 353 426
#
# _framework density 24.149474999999999
#
# number of rings (size 3 to 8) (size 9 to 14) (size 15 to 20)
#    0.000    1.143    1.429    5.143    8.000    1.714 
#    0.000    1.429    0.000    0.000    0.000    0.000 
#    0.000    0.000    0.000    0.000    0.000    0.000 
#
# Total GULP energy -78228.585434 kJ/mol
# GULP energy per Si atom -5587.756102 kJ/mol
# Density = 2.409451 g / cm^3
# Si number density = 24.149475 Si / 1000 Ang^3
#
#
#
# Elastic Constant Matrix: (Units=GPa)
#
#
# Indices 1 2 3 4 5 6 
#
# 1 140.3830 24.7151 26.8273 32.7871 -32.5794 -2.4147
# 2 24.7151 136.0508 21.8263 38.7573 -12.9109 11.8311
# 3 26.8273 21.8263 52.0971 11.1889 -25.1292 -3.7807
# 4 32.7871 38.7573 11.1889 52.8589 -2.6646 -8.7494
# 5 -32.5794 -12.9109 -25.1292 -2.6646 46.2817 13.9649
# 6 -2.4147 11.8311 -3.7807 -8.7494 13.9649 31.4211
#
#
#
# Elastic Compliance Matrix: (Units=1/GPa)
#
#
# Indices 1 2 3 4 5 6 
#
# 1 0.011053 0.002125 -0.000509 -0.008944 0.009629 -0.006782
# 2 0.002125 0.011903 -0.001210 -0.011200 0.006702 -0.010561
# 3 -0.000509 -0.001210 0.028233 -0.004724 0.015716 -0.004487
# 4 -0.008944 -0.011200 -0.004724 0.036207 -0.015979 0.020145
# 5 0.009629 0.006702 0.015716 -0.015979 0.045245 -0.024451
# 6 -0.006782 -0.010561 -0.004487 0.020145 -0.024451 0.051218
#
#
# Mechanical properties :
#
#
# Convention : Reuss Voigt Hill
#
# Bulk Modulus (GPa) = 19.22993 52.80760 36.01876
# Shear Modulus (GPa) = 24.95242 43.12315 34.03779
#
# Velocity S-wave (km/s) = 3.21791 4.23031 3.75835
# Velocity P-wave (km/s) = 4.66763 6.76573 5.81214
#
# Compressibility (1/GPa) = 0.05200227
#
# Stress axis : x y z
#
# Youngs Moduli (GPa) = 90.47119 84.01075 35.41919
#
# Poissons Ratio (x) = -0.17852 0.01803
# Poissons Ratio (y) = -0.19225 0.04284
# Poissons Ratio (z) = 0.04606 0.10162
#
# Static dielectric constant tensor:
#      x y z
#    x 2.025270 0.023310 0.018850 
#    y 0.023310 1.991460 -0.032900 
#    z 0.018850 -0.032900 2.036950 
# 
# From -- ./inp_files/542595.got.cif
#   From: 2010.05.17/outbox.cif.g08.bks.cpg/sg2_272_cif.got.tgz:542595.got - 2010.06.03 11:33:40.
