data_PCOD9032921
_publ_section_title
;
Structure prediction by ZEFSAII (Michael W. Deem and Ramdas Pophale) SiO2 
 PCOD9032921
Probable space group: P -1
;
_chemical_formula_sum "Si O2"
_cell_formula_units_Z 16
_cell_length_a 12.629845
_cell_length_b 8.429435
_cell_length_c 9.086642
_cell_angle_alpha 127.243844
_cell_angle_beta 85.426834
_cell_angle_gamma 102.643199
_cell_volume 749.697066
_symmetry_space_group_name_H-M "P -1"
_symmetry_group_IT_number 2
_symmetry_cell_setting 'triclinic'
loop_
_space_group_symop_operation_xyz
x,y,z
-x,-y,-z
loop_
_atom_site_type_symbol
_atom_site_label
_atom_site_fract_x
_atom_site_fract_y
_atom_site_fract_z
Si Si1 0.211384 0.300771 0.432313
Si Si2 0.309708 0.420824 0.787599
Si Si3 0.662890 0.628552 0.792446
Si Si4 0.478653 0.777125 0.310386
Si Si5 0.105591 0.608679 0.457272
Si Si6 0.984803 0.010210 0.331082
Si Si7 0.856316 0.626619 0.959991
Si Si8 0.466215 0.804648 0.992843
O O1 0.233662 0.305368 0.604291
O O2 0.320420 0.282853 0.324138
O O3 0.195008 0.515396 0.482922
O O4 0.101249 0.132438 0.324470
O O5 0.408889 0.308520 0.750549
O O6 0.232194 0.455582 0.949665
O O7 0.370232 0.638224 0.838374
O O8 0.613687 0.386911 0.684940
O O9 0.779631 0.712157 0.901121
O O10 0.574313 0.717572 0.936123
O O11 0.436751 0.807947 0.168480
O O12 0.500000 0.000000 0.500000
O O13 0.103429 0.846395 0.598880
O O14 0.000000 0.500000 0.500000
O O15 0.101039 0.531431 0.243088
O O16 0.945218 0.799272 0.128410
O O17 0.000000 0.000000 0.500000
O O18 0.500000 0.000000 0.000000
#
# Coordination Sequence:
#
# PCOD9032921 Si02
#       8
#     2   2   2   2   2   2   2   2
#     4  10  23  41  64  96 128 169 223 271 321 392
#     4  11  22  43  65  92 138 172 212 275 334 385
#     4  10  22  44  63  90 133 171 213 270 333 387
#     4  11  24  41  68  93 130 175 217 266 334 401
#     4   9  23  43  64  93 130 169 226 270 331 387
#     4  11  23  43  67  98 130 173 226 270 328 398
#     4  11  21  43  72  89 135 179 212 276 329 383
#     4  11  24  41  62  97 129 164 221 263 328 401
#
# _framework density 21.341951999999999
#
# number of rings (size 3 to 8) (size 9 to 14) (size 15 to 20)
#    0.000    1.500    3.750    0.750    3.500    9.000 
#    2.250    0.000    0.000    0.000    0.000    0.000 
#    0.000    0.000    0.000    0.000    0.000    0.000 
#
# Total GULP energy -89087.032214 kJ/mol
# GULP energy per Si atom -5567.939513 kJ/mol
# Density = 2.129338 g / cm^3
# Si number density = 21.341952 Si / 1000 Ang^3
#
#
#
# Elastic Constant Matrix: (Units=GPa)
#
#
# Indices 1 2 3 4 5 6 
#
# 1 57.0428 24.9958 25.4614 0.9420 9.8502 22.7762
# 2 24.9958 104.2803 24.4843 -0.5072 -2.1962 21.1814
# 3 25.4614 24.4843 90.3142 -8.3012 -0.5039 18.1697
# 4 0.9420 -0.5072 -8.3012 35.7637 10.2246 -4.4734
# 5 9.8502 -2.1962 -0.5039 10.2246 28.7985 -7.7430
# 6 22.7762 21.1814 18.1697 -4.4734 -7.7430 30.0643
#
#
#
# Elastic Compliance Matrix: (Units=1/GPa)
#
#
# Indices 1 2 3 4 5 6 
#
# 1 0.034355 -0.002262 -0.003684 0.000363 -0.019417 -0.027154
# 2 -0.002262 0.011621 -0.001469 -0.000951 0.000464 -0.005608
# 3 -0.003684 -0.001469 0.013613 0.002937 -0.000776 -0.004163
# 4 0.000363 -0.000951 0.002937 0.031923 -0.011360 0.000444
# 5 -0.019417 0.000464 -0.000776 -0.011360 0.052602 0.026710
# 6 -0.027154 -0.005608 -0.004163 0.000444 0.026710 0.067246
#
#
# Mechanical properties :
#
#
# Convention : Reuss Voigt Hill
#
# Bulk Modulus (GPa) = 22.34230 44.61336 33.47783
# Shear Modulus (GPa) = 20.73744 30.70501 25.72123
#
# Velocity S-wave (km/s) = 3.12055 3.79716 3.47536
# Velocity P-wave (km/s) = 4.84513 6.33829 5.64133
#
# Compressibility (1/GPa) = 0.04475814
#
# Stress axis : x y z
#
# Youngs Moduli (GPa) = 29.10755 86.05205 73.46059
#
# Poissons Ratio (x) = 0.19461 0.27066
# Poissons Ratio (y) = 0.06583 0.10795
# Poissons Ratio (z) = 0.10725 0.12645
#
# Static dielectric constant tensor:
#      x y z
#    x 1.880380 0.039000 -0.082790 
#    y 0.039000 1.562570 0.037640 
#    z -0.082790 0.037640 1.898760 
# 
# From -- ./inp_files/216589.got.cif
#   From: 2010.05.17/outbox.cif.g08.bks.cpg/sg2_109_cif.got.tgz:216589.got - 2010.06.03 11:33:40.
