data_PCOD9032324
_publ_section_title
;
Structure prediction by ZEFSAII (Michael W. Deem and Ramdas Pophale) SiO2 
 PCOD9032324
Probable space group: P -1
;
_chemical_formula_sum "Si O2"
_cell_formula_units_Z 14
_cell_length_a 11.276049
_cell_length_b 6.502493
_cell_length_c 8.991310
_cell_angle_alpha 98.662183
_cell_angle_beta 95.010077
_cell_angle_gamma 120.404826
_cell_volume 551.672338
_symmetry_space_group_name_H-M "P -1"
_symmetry_group_IT_number 2
_symmetry_cell_setting 'triclinic'
loop_
_space_group_symop_operation_xyz
x,y,z
-x,-y,-z
loop_
_atom_site_type_symbol
_atom_site_label
_atom_site_fract_x
_atom_site_fract_y
_atom_site_fract_z
Si Si1 0.332149 0.194770 0.457251
Si Si2 0.417395 0.973287 0.206468
Si Si3 0.272888 0.473094 0.227175
Si Si4 0.125388 0.165562 0.881608
Si Si5 0.891151 0.210411 0.968005
Si Si6 0.843473 0.334093 0.522392
Si Si7 0.667105 0.448450 0.288175
O O1 0.421731 0.093643 0.381058
O O2 0.295946 0.311524 0.328560
O O3 0.389508 0.406299 0.608754
O O4 0.203096 0.946164 0.485679
O O5 0.267096 0.880942 0.104128
O O6 0.546165 0.205453 0.165354
O O7 0.412014 0.725124 0.215627
O O8 0.182112 0.561674 0.316231
O O9 0.200282 0.322502 0.055430
O O10 0.216282 0.341357 0.779832
O O11 0.116649 0.911454 0.885426
O O12 0.970082 0.117817 0.859343
O O13 0.000000 0.500000 0.000000
O O14 0.742138 0.353675 0.395154
O O15 0.000000 0.500000 0.500000
#
# Coordination Sequence:
#
# PCOD9032324 Si02
#       7
#     2   2   2   2   2   2   2
#     4  10  23  46  68  96 137 182 222 275 341 402
#     4  11  23  45  71  97 136 184 223 281 338 402
#     4  10  22  43  70  97 131 180 226 271 336 406
#     4  11  25  43  70 102 133 176 228 282 334 406
#     4  11  24  44  68  98 138 181 224 271 348 402
#     4  10  25  44  69  99 138 182 225 280 335 399
#     4  11  27  43  68 107 137 172 234 279 336 403
#
# _framework density 25.377382999999998
#
# number of rings (size 3 to 8) (size 9 to 14) (size 15 to 20)
#    0.000    1.429    2.857    0.429    4.000   13.143 
#    0.000    0.000    0.000    0.000    0.000    0.000 
#    0.000    0.000    0.000    0.000    0.000    0.000 
#
# Total GULP energy -78348.717866 kJ/mol
# GULP energy per Si atom -5596.336990 kJ/mol
# Density = 2.531962 g / cm^3
# Si number density = 25.377383 Si / 1000 Ang^3
#
#
#
# Elastic Constant Matrix: (Units=GPa)
#
#
# Indices 1 2 3 4 5 6 
#
# 1 108.4007 41.9019 10.8637 -14.1943 24.9346 3.0781
# 2 41.9019 206.9962 22.4266 -29.3465 22.1339 5.8915
# 3 10.8637 22.4266 59.9782 -17.8476 14.9366 -3.8985
# 4 -14.1943 -29.3465 -17.8476 51.8615 -1.0792 1.1367
# 5 24.9346 22.1339 14.9366 -1.0792 27.8085 -9.3375
# 6 3.0781 5.8915 -3.8985 1.1367 -9.3375 41.7875
#
#
#
# Elastic Compliance Matrix: (Units=1/GPa)
#
#
# Indices 1 2 3 4 5 6 
#
# 1 0.012936 -0.000822 0.002070 0.003595 -0.013153 -0.003681
# 2 -0.000822 0.005976 -0.000203 0.003036 -0.004421 -0.001871
# 3 0.002070 -0.000203 0.022000 0.007768 -0.013658 -0.001335
# 4 0.003595 0.003036 0.007768 0.024515 -0.009810 -0.002827
# 5 -0.013153 -0.004421 -0.013658 -0.009810 0.063164 0.014699
# 6 -0.003681 -0.001871 -0.001335 -0.002827 0.014699 0.027703
#
#
# Mechanical properties :
#
#
# Convention : Reuss Voigt Hill
#
# Bulk Modulus (GPa) = 23.25453 58.41771 40.83612
# Shear Modulus (GPa) = 29.66723 44.30368 36.98545
#
# Velocity S-wave (km/s) = 3.42283 4.18280 3.82176
# Velocity P-wave (km/s) = 4.98041 6.81156 5.96665
#
# Compressibility (1/GPa) = 0.04300238
#
# Stress axis : x y z
#
# Youngs Moduli (GPa) = 77.30299 167.34326 45.45528
#
# Poissons Ratio (x) = 0.13756 -0.09411
# Poissons Ratio (y) = 0.06355 0.00922
# Poissons Ratio (z) = -0.16005 0.03395
#
# Static dielectric constant tensor:
#      x y z
#    x 2.043830 0.012830 -0.032280 
#    y 0.012830 2.089790 -0.019220 
#    z -0.032280 -0.019220 2.044340 
# 
# From -- ./inp_files/510377.got.cif
#   From: 2010.05.17/outbox.cif.g08.bks.cpg/sg2_256_cif.got.tgz:510377.got - 2010.06.03 11:33:40.
