data_PCOD9032773
_publ_section_title
;
Structure prediction by ZEFSAII (Michael W. Deem and Ramdas Pophale) SiO2 
 PCOD9032773
Probable space group: P -1
;
_chemical_formula_sum "Si O2"
_cell_formula_units_Z 10
_cell_length_a 14.082748
_cell_length_b 8.748658
_cell_length_c 5.773681
_cell_angle_alpha 122.347934
_cell_angle_beta 133.909447
_cell_angle_gamma 47.400785
_cell_volume 374.339545
_symmetry_space_group_name_H-M "P -1"
_symmetry_group_IT_number 2
_symmetry_cell_setting 'triclinic'
loop_
_space_group_symop_operation_xyz
x,y,z
-x,-y,-z
loop_
_atom_site_type_symbol
_atom_site_label
_atom_site_fract_x
_atom_site_fract_y
_atom_site_fract_z
Si Si1 0.823118 0.678606 0.318016
Si Si2 0.429041 0.847315 0.232447
Si Si3 0.352511 0.610516 0.573324
Si Si4 0.825410 0.065247 0.798478
Si Si5 0.827627 0.549149 0.718890
O O1 0.761082 0.655249 0.443938
O O2 0.000000 0.500000 0.500000
O O3 0.809404 0.902424 0.474956
O O4 0.764730 0.652968 0.950258
O O5 0.529211 0.632084 0.373560
O O6 0.254536 0.954347 0.119444
O O7 0.500000 0.000000 0.500000
O O8 0.423446 0.748124 0.896932
O O9 0.280223 0.697714 0.273163
O O10 0.202560 0.644898 0.489280
O O11 0.000000 0.000000 0.000000
O O12 0.000000 0.500000 0.000000
#
# Coordination Sequence:
#
# PCOD9032773 Si02
#       5
#     2   2   2   2   2
#     4  10  23  42  70 112 157 203 250 328 404 468
#     4  11  28  53  76 110 158 211 267 324 408 478
#     4  11  27  48  80 110 155 209 267 328 396 488
#     4  12  27  46  78 117 155 203 269 334 399 479
#     4  10  22  43  74 109 153 202 260 328 396 471
#
# _framework density 26.713718
#
# number of rings (size 3 to 8) (size 9 to 14) (size 15 to 20)
#    0.000    1.200    0.000    4.200   14.000    1.600 
#    0.000    0.000    0.000    0.000    0.000    0.000 
#    0.000    0.000    0.000    0.000    0.000    0.000 
#
# Total GULP energy -55750.600646 kJ/mol
# GULP energy per Si atom -5575.060065 kJ/mol
# Density = 2.665292 g / cm^3
# Si number density = 26.713718 Si / 1000 Ang^3
#
#
#
# Elastic Constant Matrix: (Units=GPa)
#
#
# Indices 1 2 3 4 5 6 
#
# 1 152.7652 37.1431 82.5425 -5.9603 13.3742 20.3474
# 2 37.1431 118.7422 38.4725 1.7082 -3.0524 14.0774
# 3 82.5425 38.4725 169.9522 10.2854 8.5418 10.7472
# 4 -5.9603 1.7082 10.2854 53.8485 10.6483 6.9280
# 5 13.3742 -3.0524 8.5418 10.6483 54.8964 -1.5154
# 6 20.3474 14.0774 10.7472 6.9280 -1.5154 46.7576
#
#
#
# Elastic Compliance Matrix: (Units=1/GPa)
#
#
# Indices 1 2 3 4 5 6 
#
# 1 0.010063 -0.001419 -0.004399 0.002941 -0.002512 -0.003458
# 2 -0.001419 0.009573 -0.001403 -0.000163 0.001076 -0.001883
# 3 -0.004399 -0.001403 0.008417 -0.002168 0.000125 0.000727
# 4 0.002941 -0.000163 -0.002168 0.020716 -0.004515 -0.003948
# 5 -0.002512 0.001076 0.000125 -0.004515 0.019801 0.002051
# 6 -0.003458 -0.001883 0.000727 -0.003948 0.002051 0.023943
#
#
# Mechanical properties :
#
#
# Convention : Reuss Voigt Hill
#
# Bulk Modulus (GPa) = 73.47152 84.19731 78.83441
# Shear Modulus (GPa) = 44.84529 49.98728 47.41629
#
# Velocity S-wave (km/s) = 4.10168 4.33045 4.21762
# Velocity P-wave (km/s) = 7.07070 7.52267 7.30018
#
# Compressibility (1/GPa) = 0.01361072
#
# Stress axis : x y z
#
# Youngs Moduli (GPa) = 99.36998 104.45604 118.80409
#
# Poissons Ratio (x) = 0.14827 0.52266
# Poissons Ratio (y) = 0.14105 0.16667
# Poissons Ratio (z) = 0.43716 0.14654
#
# Static dielectric constant tensor:
#      x y z
#    x 2.362880 0.011080 -0.003800 
#    y 0.011080 2.149970 0.012300 
#    z -0.003800 0.012300 2.115910 
# 
# From -- ./inp_files/30146.got.cif
#   From: 2010.05.17/outbox.cif.g08.bks.cpg/sg2_16_cif.got.tgz:30146.got - 2010.06.03 11:33:40.
