data_PCOD9032943
_publ_section_title
;
Structure prediction by ZEFSAII (Michael W. Deem and Ramdas Pophale) SiO2 
 PCOD9032943
Probable space group: P -1
;
_chemical_formula_sum "Si O2"
_cell_formula_units_Z 16
_cell_length_a 11.227124
_cell_length_b 5.093369
_cell_length_c 18.237992
_cell_angle_alpha 79.495991
_cell_angle_beta 51.376825
_cell_angle_gamma 71.029138
_cell_volume 770.242898
_symmetry_space_group_name_H-M "P -1"
_symmetry_group_IT_number 2
_symmetry_cell_setting 'triclinic'
loop_
_space_group_symop_operation_xyz
x,y,z
-x,-y,-z
loop_
_atom_site_type_symbol
_atom_site_label
_atom_site_fract_x
_atom_site_fract_y
_atom_site_fract_z
Si Si1 0.501124 0.422020 0.192212
Si Si2 0.538021 0.201380 0.036753
Si Si3 0.204367 0.683621 0.391725
Si Si4 0.836870 0.856858 0.496017
Si Si5 0.609375 0.204664 0.446467
Si Si6 0.259165 0.859348 0.762472
Si Si7 0.923554 0.599217 0.128097
Si Si8 0.231480 0.277622 0.971166
O O1 0.460678 0.262540 0.144653
O O2 0.343950 0.602039 0.283209
O O3 0.604496 0.213972 0.223852
O O4 0.617053 0.608670 0.111844
O O5 0.714382 0.025776 0.999532
O O6 0.500000 0.500000 0.000000
O O7 0.500000 0.000000 0.000000
O O8 0.219698 0.419208 0.453523
O O9 0.027775 0.754177 0.421722
O O10 0.207853 0.951158 0.424272
O O11 0.754909 0.054349 0.451211
O O12 0.500000 0.500000 0.500000
O O13 0.666889 0.220211 0.341134
O O14 0.500000 0.000000 0.500000
O O15 0.142898 0.668148 0.830995
O O16 0.160140 0.179067 0.790733
O O17 0.863489 0.738961 0.065763
O O18 0.112029 0.490893 0.059256
#
# Coordination Sequence:
#
# PCOD9032943 Si02
#       8
#     2   2   2   2   2   2   2   2
#     4  11  23  41  68  94 123 164 229 254 313 385
#     4  12  25  42  61  90 127 162 213 263 322 369
#     4  10  23  41  71  92 126 175 211 263 304 387
#     4  10  22  44  63  98 133 166 210 254 332 373
#     4  12  24  41  68 100 135 165 206 269 328 373
#     4  11  23  39  64  99 126 169 214 260 320 382
#     4  10  23  40  65  91 127 168 211 261 314 379
#     4  10  23  42  66  91 127 165 213 265 318 374
#
# _framework density 20.772666999999998
#
# number of rings (size 3 to 8) (size 9 to 14) (size 15 to 20)
#    0.000    1.250    2.500    3.000    3.500    2.500 
#    4.500    0.000    0.000    0.000    0.000    0.000 
#    0.000    0.000    0.000    0.000    0.000    0.000 
#
# Total GULP energy -89368.454447 kJ/mol
# GULP energy per Si atom -5585.528403 kJ/mol
# Density = 2.072539 g / cm^3
# Si number density = 20.772667 Si / 1000 Ang^3
#
#
#
# Elastic Constant Matrix: (Units=GPa)
#
#
# Indices 1 2 3 4 5 6 
#
# 1 44.1859 24.7244 42.5188 -1.4493 3.4072 -7.2550
# 2 24.7244 97.2265 21.1866 16.3281 -3.5298 -5.8027
# 3 42.5188 21.1866 134.4658 31.2125 -0.6407 -9.9816
# 4 -1.4493 16.3281 31.2125 39.9547 -4.1564 7.8221
# 5 3.4072 -3.5298 -0.6407 -4.1564 28.2159 -0.9830
# 6 -7.2550 -5.8027 -9.9816 7.8221 -0.9830 39.1356
#
#
#
# Elastic Compliance Matrix: (Units=1/GPa)
#
#
# Indices 1 2 3 4 5 6 
#
# 1 0.047309 -0.011821 -0.018005 0.020478 -0.004646 -0.001785
# 2 -0.011821 0.014310 0.003975 -0.009753 0.001974 0.002943
# 3 -0.018005 0.003975 0.016588 -0.016072 0.000845 0.004716
# 4 0.020478 -0.009753 -0.016072 0.044613 0.002144 -0.010612
# 5 -0.004646 0.001974 0.000845 0.002144 0.036589 0.000137
# 6 -0.001785 0.002943 0.004716 -0.010612 0.000137 0.028985
#
#
# Mechanical properties :
#
#
# Convention : Reuss Voigt Hill
#
# Bulk Modulus (GPa) = 37.72818 50.30419 44.01618
# Shear Modulus (GPa) = 20.08582 33.95778 27.02180
#
# Velocity S-wave (km/s) = 3.11293 4.04757 3.61062
# Velocity P-wave (km/s) = 5.57874 6.79065 6.21430
#
# Compressibility (1/GPa) = 0.02650539
#
# Stress axis : x y z
#
# Youngs Moduli (GPa) = 21.13771 69.87907 60.28278
#
# Poissons Ratio (x) = 0.82606 1.08538
# Poissons Ratio (y) = 0.24988 -0.23962
# Poissons Ratio (z) = 0.38058 -0.27777
#
# Static dielectric constant tensor:
#      x y z
#    x 1.792560 -0.009310 0.023000 
#    y -0.009310 1.789060 -0.031760 
#    z 0.023000 -0.031760 1.778950 
# 
# From -- ./inp_files/80313.got.cif
#   From: 2010.05.17/outbox.cif.g08.bks.cpg/sg2_41_cif.got.tgz:80313.got - 2010.06.03 11:33:40.
