data_PCOD9032664
_publ_section_title
;
Structure prediction by ZEFSAII (Michael W. Deem and Ramdas Pophale) SiO2 
 PCOD9032664
Probable space group: P -1
;
_chemical_formula_sum "Si O2"
_cell_formula_units_Z 16
_cell_length_a 18.697776
_cell_length_b 8.193684
_cell_length_c 12.118380
_cell_angle_alpha 126.767773
_cell_angle_beta 28.353558
_cell_angle_gamma 116.571993
_cell_volume 690.738964
_symmetry_space_group_name_H-M "P -1"
_symmetry_group_IT_number 2
_symmetry_cell_setting 'triclinic'
loop_
_space_group_symop_operation_xyz
x,y,z
-x,-y,-z
loop_
_atom_site_type_symbol
_atom_site_label
_atom_site_fract_x
_atom_site_fract_y
_atom_site_fract_z
Si Si1 0.806382 0.580494 0.048944
Si Si2 0.254124 0.600330 0.712913
Si Si3 0.673821 0.215550 0.680912
Si Si4 0.332990 0.151207 0.315865
Si Si5 0.659822 0.849024 0.933959
Si Si6 0.082361 0.765392 0.811628
Si Si7 0.183803 0.476514 0.237502
Si Si8 0.517922 0.257080 0.413571
O O1 0.776643 0.506370 0.937729
O O2 0.971264 0.638677 0.851460
O O3 0.803976 0.434887 0.099328
O O4 0.656823 0.768625 0.345026
O O5 0.329667 0.377386 0.464188
O O6 0.112009 0.701650 0.871311
O O7 0.378423 0.745714 0.619286
O O8 0.752654 0.262865 0.480615
O O9 0.737230 0.357682 0.740576
O O10 0.731216 0.982491 0.558001
O O11 0.491847 0.246887 0.920974
O O12 0.254965 0.175391 0.310302
O O13 0.500000 0.000000 0.000000
O O14 0.748964 0.734793 0.871411
O O15 0.600507 0.089754 0.145973
O O16 0.000000 0.000000 0.000000
O O17 0.000000 0.500000 0.500000
O O18 0.500000 0.500000 0.500000
#
# Coordination Sequence:
#
# PCOD9032664 Si02
#       8
#     2   2   2   2   2   2   2   2
#     4  11  25  44  67  97 149 172 230 286 345 405
#     4  11  25  44  74 101 135 185 233 278 349 408
#     4  11  24  44  70 100 135 185 235 280 342 410
#     4  10  22  43  73 101 132 177 235 283 335 414
#     4  11  25  45  75 101 139 185 233 280 347 414
#     4  12  25  44  68  98 140 183 231 281 345 414
#     4  12  27  46  67 105 144 180 226 290 348 407
#     4  10  23  43  71 109 131 176 233 290 340 397
#
# _framework density 23.163596999999999
#
# number of rings (size 3 to 8) (size 9 to 14) (size 15 to 20)
#    0.000    1.000    1.250    6.000   10.500    0.500 
#    0.000    1.875    0.000    0.000    0.000    0.000 
#    0.000    0.000    0.000    0.000    0.000    0.000 
#
# Total GULP energy -89375.615874 kJ/mol
# GULP energy per Si atom -5585.975992 kJ/mol
# Density = 2.311088 g / cm^3
# Si number density = 23.163597 Si / 1000 Ang^3
#
#
#
# Elastic Constant Matrix: (Units=GPa)
#
#
# Indices 1 2 3 4 5 6 
#
# 1 161.9873 43.2830 39.0965 16.8420 14.1108 -8.1326
# 2 43.2830 74.2767 25.4277 8.2575 -2.3219 2.0121
# 3 39.0965 25.4277 58.5397 1.8553 5.4447 -2.9731
# 4 16.8420 8.2575 1.8553 28.0853 1.8691 4.3944
# 5 14.1108 -2.3219 5.4447 1.8691 44.6688 -3.0170
# 6 -8.1326 2.0121 -2.9731 4.3944 -3.0170 38.0227
#
#
#
# Elastic Compliance Matrix: (Units=1/GPa)
#
#
# Indices 1 2 3 4 5 6 
#
# 1 0.008759 -0.003419 -0.003928 -0.004166 -0.002153 0.002058
# 2 -0.003419 0.017845 -0.005714 -0.002751 0.002712 -0.001589
# 3 -0.003928 -0.005714 0.022315 0.002563 -0.001832 0.000766
# 4 -0.004166 -0.002751 0.002563 0.039637 -0.001150 -0.005217
# 5 -0.002153 0.002712 -0.001832 -0.001150 0.023564 0.001256
# 6 0.002058 -0.001589 0.000766 -0.005217 0.001256 0.027587
#
#
# Mechanical properties :
#
#
# Convention : Reuss Voigt Hill
#
# Bulk Modulus (GPa) = 43.86269 56.71313 50.28791
# Shear Modulus (GPa) = 28.83039 34.62180 31.72609
#
# Velocity S-wave (km/s) = 3.53178 3.87028 3.70490
# Velocity P-wave (km/s) = 5.96728 6.67151 6.32919
#
# Compressibility (1/GPa) = 0.02279842
#
# Stress axis : x y z
#
# Youngs Moduli (GPa) = 114.16843 56.03720 44.81199
#
# Poissons Ratio (x) = 0.19161 0.17601
# Poissons Ratio (y) = 0.39038 0.25604
# Poissons Ratio (z) = 0.44843 0.32017
#
# Static dielectric constant tensor:
#      x y z
#    x 1.938040 -0.002600 -0.014080 
#    y -0.002600 1.934880 -0.028800 
#    z -0.014080 -0.028800 1.933930 
# 
# From -- ./inp_files/462392.got.cif
#   From: 2010.05.17/outbox.cif.g08.bks.cpg/sg2_232_cif.got.tgz:462392.got - 2010.06.03 11:33:40.
