data_PCOD9032389
_publ_section_title
;
Structure prediction by ZEFSAII (Michael W. Deem and Ramdas Pophale) SiO2 
 PCOD9032389
Probable space group: P -1
;
_chemical_formula_sum "Si O2"
_cell_formula_units_Z 13
_cell_length_a 14.644765
_cell_length_b 6.302129
_cell_length_c 15.449773
_cell_angle_alpha 114.305324
_cell_angle_beta 28.109681
_cell_angle_gamma 99.745646
_cell_volume 546.395176
_symmetry_space_group_name_H-M "P -1"
_symmetry_group_IT_number 2
_symmetry_cell_setting 'triclinic'
loop_
_space_group_symop_operation_xyz
x,y,z
-x,-y,-z
loop_
_atom_site_type_symbol
_atom_site_label
_atom_site_fract_x
_atom_site_fract_y
_atom_site_fract_z
Si Si1 0.343104 0.601460 0.396346
Si Si2 0.558059 0.973192 0.847256
Si Si3 0.877193 0.919868 0.441464
Si Si4 0.263014 0.356158 0.017989
Si Si5 0.000000 0.500000 0.000000
Si Si6 0.664847 0.624240 0.458504
Si Si7 0.197646 0.052938 0.875119
O O1 0.137350 0.836387 0.561279
O O2 0.330399 0.580666 0.506837
O O3 0.386914 0.320739 0.275377
O O4 0.547933 0.639795 0.199540
O O5 0.764863 0.006232 0.643524
O O6 0.362371 0.195728 0.994662
O O7 0.500000 0.000000 0.000000
O O8 0.727246 0.822455 0.494566
O O9 0.098659 0.657936 0.220074
O O10 0.164149 0.194625 0.019887
O O11 0.151778 0.478070 0.784738
O O12 0.205100 0.251041 0.831406
O O13 0.421321 0.788488 0.654076
O O14 0.000000 0.000000 0.000000
#
# Coordination Sequence:
#
# PCOD9032389 Si02
#       7
#     2   2   2   2   1   2   2
#     4  10  22  43  75  96 143 190 234 293 372 422
#     4  10  23  45  74 107 142 184 235 297 365 440
#     4  10  22  43  71 100 144 185 238 292 364 430
#     4  11  23  46  70 104 144 192 241 298 359 428
#     4  12  28  44  66 100 142 182 258 302 352 426
#     4  11  24  47  66 101 140 194 243 303 357 421
#     4  12  27  45  68 102 141 194 248 298 358 421
#
# _framework density 23.792303
#
# number of rings (size 3 to 8) (size 9 to 14) (size 15 to 20)
#    0.000    1.231    6.154    0.462    2.154    8.615 
#    0.000    1.538    0.000    0.000    0.000    0.000 
#    0.000    0.000    0.000    0.000    0.000    0.000 
#
# Total GULP energy -72420.471535 kJ/mol
# GULP energy per Si atom -5570.805503 kJ/mol
# Density = 2.373815 g / cm^3
# Si number density = 23.792303 Si / 1000 Ang^3
#
#
#
# Elastic Constant Matrix: (Units=GPa)
#
#
# Indices 1 2 3 4 5 6 
#
# 1 111.2893 78.3630 81.4577 -6.3352 22.8557 -54.9573
# 2 78.3630 131.0375 71.6396 23.6291 9.9928 -63.7102
# 3 81.4577 71.6396 170.0528 6.0332 18.6354 -48.4220
# 4 -6.3352 23.6291 6.0332 46.3846 -17.3543 -6.8855
# 5 22.8557 9.9928 18.6354 -17.3543 42.6336 -6.4398
# 6 -54.9573 -63.7102 -48.4220 -6.8855 -6.4398 54.3555
#
#
#
# Elastic Compliance Matrix: (Units=1/GPa)
#
#
# Indices 1 2 3 4 5 6 
#
# 1 0.026189 -0.007137 -0.005399 0.008259 -0.004559 0.013810
# 2 -0.007137 0.022884 -0.000535 -0.011206 -0.003248 0.017325
# 3 -0.005399 -0.000535 0.009493 -0.002041 -0.001671 0.001914
# 4 0.008259 -0.011206 -0.002041 0.033186 0.012460 -0.000922
# 5 -0.004559 -0.003248 -0.001671 0.012460 0.031774 -0.004563
# 6 0.013810 0.017325 0.001914 -0.000922 -0.004563 0.053715
#
#
# Mechanical properties :
#
#
# Convention : Reuss Voigt Hill
#
# Bulk Modulus (GPa) = 30.84206 97.25557 64.04881
# Shear Modulus (GPa) = 23.34359 40.73604 32.03982
#
# Velocity S-wave (km/s) = 3.13571 4.14230 3.67365
# Velocity P-wave (km/s) = 5.10896 7.99024 6.70617
#
# Compressibility (1/GPa) = 0.03242325
#
# Stress axis : x y z
#
# Youngs Moduli (GPa) = 38.18348 43.69889 105.34355
#
# Poissons Ratio (x) = 0.31188 0.56879
# Poissons Ratio (y) = 0.27252 0.05634
# Poissons Ratio (z) = 0.20617 0.02337
#
# Static dielectric constant tensor:
#      x y z
#    x 1.929810 0.052480 -0.017090 
#    y 0.052480 2.038850 0.072520 
#    z -0.017090 0.072520 2.008190 
# 
# From -- ./inp_files/524862.got.cif
#   From: 2010.05.17/outbox.cif.g08.bks.cpg/sg2_263_cif.got.tgz:524862.got - 2010.06.03 11:33:40.
