data_PCOD9032292
_publ_section_title
;
Structure prediction by ZEFSAII (Michael W. Deem and Ramdas Pophale) SiO2 
 PCOD9032292
Probable space group: P -1
;
_chemical_formula_sum "Si O2"
_cell_formula_units_Z 16
_cell_length_a 7.903773
_cell_length_b 13.564631
_cell_length_c 16.671802
_cell_angle_alpha 144.002393
_cell_angle_beta 84.652183
_cell_angle_gamma 121.836022
_cell_volume 664.160956
_symmetry_space_group_name_H-M "P -1"
_symmetry_group_IT_number 2
_symmetry_cell_setting 'triclinic'
loop_
_space_group_symop_operation_xyz
x,y,z
-x,-y,-z
loop_
_atom_site_type_symbol
_atom_site_label
_atom_site_fract_x
_atom_site_fract_y
_atom_site_fract_z
Si Si1 0.954896 0.922975 0.254913
Si Si2 0.706604 0.298880 0.417201
Si Si3 0.008954 0.429620 0.705975
Si Si4 0.439333 0.078681 0.695887
Si Si5 0.454764 0.802242 0.818102
Si Si6 0.222886 0.303738 0.720171
Si Si7 0.790880 0.561773 0.892802
Si Si8 0.531497 0.504713 0.598176
O O1 0.855328 0.731746 0.206591
O O2 0.735402 0.901756 0.248823
O O3 0.952084 0.825274 0.106981
O O4 0.243036 0.222485 0.456701
O O5 0.564732 0.063920 0.329763
O O6 0.532837 0.159031 0.251231
O O7 0.718276 0.486987 0.585589
O O8 0.000000 0.500000 0.500000
O O9 0.150407 0.527706 0.677912
O O10 0.185923 0.449348 0.770280
O O11 0.726253 0.124081 0.504956
O O12 0.956666 0.579545 0.834039
O O13 0.702468 0.356617 0.828533
O O14 0.606657 0.741807 0.787301
O O15 0.500000 0.000000 0.000000
O O16 0.516666 0.441176 0.793590
O O17 0.000000 0.000000 0.500000
O O18 0.500000 0.500000 0.500000
#
# Coordination Sequence:
#
# PCOD9032292 Si02
#       8
#     2   2   2   2   2   2   2   2
#     4  11  23  45  66  99 141 175 229 284 338 416
#     4  11  23  44  73  99 131 184 232 281 349 407
#     4  12  24  43  68  99 143 176 228 282 341 412
#     4  11  21  44  69  94 137 178 231 281 335 414
#     4  11  25  46  68 101 135 174 234 288 341 411
#     4  11  22  42  71  99 139 183 224 277 351 404
#     4  11  27  41  68 108 139 181 228 284 346 405
#     4  10  22  43  70  94 132 184 227 280 346 406
#
# _framework density 24.090544999999999
#
# number of rings (size 3 to 8) (size 9 to 14) (size 15 to 20)
#    0.000    1.000    5.000    2.625    5.250    3.500 
#    0.000    0.625    0.000    0.000    0.000    0.000 
#    0.000    0.000    0.000    0.000    0.000    0.000 
#
# Total GULP energy -89435.060746 kJ/mol
# GULP energy per Si atom -5589.691297 kJ/mol
# Density = 2.403571 g / cm^3
# Si number density = 24.090545 Si / 1000 Ang^3
#
#
#
# Elastic Constant Matrix: (Units=GPa)
#
#
# Indices 1 2 3 4 5 6 
#
# 1 98.2686 52.9163 26.7599 -18.6247 -18.2647 1.5123
# 2 52.9163 95.3640 -12.1316 -4.9613 -7.3846 -10.8017
# 3 26.7599 -12.1316 102.5140 -20.1677 -24.1033 -2.9156
# 4 -18.6247 -4.9613 -20.1677 29.3065 13.3213 -2.1819
# 5 -18.2647 -7.3846 -24.1033 13.3213 33.2588 -2.4610
# 6 1.5123 -10.8017 -2.9156 -2.1819 -2.4610 41.5348
#
#
#
# Elastic Compliance Matrix: (Units=1/GPa)
#
#
# Indices 1 2 3 4 5 6 
#
# 1 0.018927 -0.011055 -0.004765 0.005742 0.001929 -0.003483
# 2 -0.011055 0.018158 0.005689 -0.000921 0.002870 0.005646
# 3 -0.004765 0.005689 0.014457 0.004736 0.007475 0.003359
# 4 0.005742 -0.000921 0.004736 0.046507 -0.012128 0.001608
# 5 0.001929 0.002870 0.007475 -0.012128 0.042266 0.003068
# 6 -0.003483 0.005646 0.003359 0.001608 0.003068 0.026173
#
#
# Mechanical properties :
#
#
# Convention : Reuss Voigt Hill
#
# Bulk Modulus (GPa) = 31.96986 47.91507 39.94247
# Shear Modulus (GPa) = 25.35811 36.06015 30.70913
#
# Velocity S-wave (km/s) = 3.24793 3.87312 3.57422
# Velocity P-wave (km/s) = 5.23115 6.31935 5.80082
#
# Compressibility (1/GPa) = 0.03127946
#
# Stress axis : x y z
#
# Youngs Moduli (GPa) = 52.83463 55.07260 69.17284
#
# Poissons Ratio (x) = 0.60882 0.32959
# Poissons Ratio (y) = 0.58408 -0.39351
# Poissons Ratio (z) = 0.25175 -0.31329
#
# Static dielectric constant tensor:
#      x y z
#    x 1.985200 -0.025440 0.011110 
#    y -0.025440 1.953860 0.005070 
#    z 0.011110 0.005070 1.943900 
# 
# From -- ./inp_files/561198.got.cif
#   From: 2010.05.17/outbox.cif.g08.bks.cpg/sg2_281_cif.got.tgz:561198.got - 2010.06.03 11:33:40.
