data_PCOD9032208
_publ_section_title
;
Structure prediction by ZEFSAII (Michael W. Deem and Ramdas Pophale) SiO2 
 PCOD9032208
Probable space group: P -1
;
_chemical_formula_sum "Si O2"
_cell_formula_units_Z 14
_cell_length_a 9.152317
_cell_length_b 8.358936
_cell_length_c 21.261443
_cell_angle_alpha 135.378349
_cell_angle_beta 30.798914
_cell_angle_gamma 120.815418
_cell_volume 562.363835
_symmetry_space_group_name_H-M "P -1"
_symmetry_group_IT_number 2
_symmetry_cell_setting 'triclinic'
loop_
_space_group_symop_operation_xyz
x,y,z
-x,-y,-z
loop_
_atom_site_type_symbol
_atom_site_label
_atom_site_fract_x
_atom_site_fract_y
_atom_site_fract_z
Si Si1 0.745277 0.865000 0.046593
Si Si2 0.332136 0.360535 0.855351
Si Si3 0.144419 0.883271 0.478033
Si Si4 0.878891 0.299537 0.247089
Si Si5 0.100278 0.006454 0.276628
Si Si6 0.807793 0.512053 0.469148
Si Si7 0.734767 0.149498 0.957351
O O1 0.664759 0.763184 0.113491
O O2 0.432211 0.015335 0.175611
O O3 0.897879 0.674127 0.883263
O O4 0.000000 0.000000 0.000000
O O5 0.510023 0.200885 0.689483
O O6 0.451716 0.591881 0.880279
O O7 0.000000 0.500000 0.000000
O O8 0.054805 0.045377 0.617227
O O9 0.996745 0.666294 0.476363
O O10 0.000000 0.000000 0.500000
O O11 0.872582 0.459509 0.355985
O O12 0.543443 0.357763 0.361764
O O13 0.004030 0.022389 0.145666
O O14 0.897264 0.256061 0.396530
O O15 0.142705 0.832973 0.153021
O O16 0.500000 0.000000 0.000000
#
# Coordination Sequence:
#
# PCOD9032208 Si02
#       7
#     2   2   2   2   2   2   2
#     4  12  25  42  70 100 139 183 231 289 339 415
#     4  12  29  45  71 103 141 183 234 285 349 408
#     4  12  26  44  63  99 140 180 225 288 340 408
#     4  10  22  43  70 101 135 175 238 278 343 410
#     4  11  24  45  70  99 136 183 233 277 351 409
#     4  10  24  42  71  99 134 185 223 285 347 409
#     4  11  23  46  75 105 138 184 230 287 340 417
#
# _framework density 24.894915000000001
#
# number of rings (size 3 to 8) (size 9 to 14) (size 15 to 20)
#    0.000    0.857    2.857    3.857    6.000    1.714 
#    0.000    0.714    0.000    0.000    0.000    0.000 
#    0.000    0.000    0.000    0.000    0.000    0.000 
#
# Total GULP energy -78340.308691 kJ/mol
# GULP energy per Si atom -5595.736335 kJ/mol
# Density = 2.483825 g / cm^3
# Si number density = 24.894915 Si / 1000 Ang^3
#
#
#
# Elastic Constant Matrix: (Units=GPa)
#
#
# Indices 1 2 3 4 5 6 
#
# 1 101.6287 -2.5371 51.5007 -8.2054 -9.3802 -19.4118
# 2 -2.5371 38.9174 -3.7244 -3.5844 -8.5511 -7.4040
# 3 51.5007 -3.7244 186.1536 -17.3240 -2.8706 -15.8615
# 4 -8.2054 -3.5844 -17.3240 27.0531 -5.9713 -1.2050
# 5 -9.3802 -8.5511 -2.8706 -5.9713 67.9572 -1.2730
# 6 -19.4118 -7.4040 -15.8615 -1.2050 -1.2730 28.8960
#
#
#
# Elastic Compliance Matrix: (Units=1/GPa)
#
#
# Indices 1 2 3 4 5 6 
#
# 1 0.013417 0.003241 -0.002500 0.003875 0.002659 0.008750
# 2 0.003241 0.029997 0.001436 0.007513 0.005152 0.011192
# 3 -0.002500 0.001436 0.006683 0.003938 0.000512 0.002544
# 4 0.003875 0.007513 0.003938 0.043285 0.005614 0.008742
# 5 0.002659 0.005152 0.000512 0.005614 0.016327 0.004340
# 6 0.008750 0.011192 0.002544 0.008742 0.004340 0.045305
#
#
# Mechanical properties :
#
#
# Convention : Reuss Voigt Hill
#
# Bulk Modulus (GPa) = 18.36480 46.35312 32.35896
# Shear Modulus (GPa) = 29.61879 43.54527 36.58203
#
# Velocity S-wave (km/s) = 3.45302 4.18684 3.83751
# Velocity P-wave (km/s) = 4.82605 6.48327 5.71505
#
# Compressibility (1/GPa) = 0.05445201
#
# Stress axis : x y z
#
# Youngs Moduli (GPa) = 74.53168 33.33611 149.62479
#
# Poissons Ratio (x) = -0.10805 0.37405
# Poissons Ratio (y) = -0.24157 -0.21482
# Poissons Ratio (z) = 0.18632 -0.04786
#
# Static dielectric constant tensor:
#      x y z
#    x 1.908860 -0.090150 -0.061000 
#    y -0.090150 1.907810 -0.129730 
#    z -0.061000 -0.129730 1.934150 
# 
# From -- ./inp_files/588098.got.cif
#   From: 2010.05.17/outbox.cif.g08.bks.cpg/sg2_295_cif.got.tgz:588098.got - 2010.06.03 11:33:40.
