data_PCOD9032021
_publ_section_title
;
Structure prediction by ZEFSAII (Michael W. Deem and Ramdas Pophale) SiO2 
 PCOD9032021
Probable space group: P -1
;
_chemical_formula_sum "Si O2"
_cell_formula_units_Z 16
_cell_length_a 11.152287
_cell_length_b 11.942389
_cell_length_c 7.220766
_cell_angle_alpha 83.980765
_cell_angle_beta 58.307046
_cell_angle_gamma 50.607398
_cell_volume 592.956707
_symmetry_space_group_name_H-M "P -1"
_symmetry_group_IT_number 2
_symmetry_cell_setting 'triclinic'
loop_
_space_group_symop_operation_xyz
x,y,z
-x,-y,-z
loop_
_atom_site_type_symbol
_atom_site_label
_atom_site_fract_x
_atom_site_fract_y
_atom_site_fract_z
Si Si1 0.657806 0.007225 0.770387
Si Si2 0.526561 0.744137 0.791142
Si Si3 0.864395 0.593182 0.304879
Si Si4 0.760434 0.830510 0.042705
Si Si5 0.087539 0.964570 0.636486
Si Si6 0.731699 0.519086 0.961487
Si Si7 0.073014 0.805566 0.966012
Si Si8 0.438616 0.403964 0.551788
O O1 0.469318 0.058866 0.816091
O O2 0.761061 0.020633 0.526562
O O3 0.588962 0.125145 0.980345
O O4 0.799343 0.841983 0.792726
O O5 0.706446 0.717436 0.564704
O O6 0.620137 0.586269 0.849414
O O7 0.061566 0.905330 0.116240
O O8 0.445837 0.732256 0.671134
O O9 0.831137 0.683425 0.128094
O O10 0.785406 0.509007 0.343521
O O11 0.081162 0.502204 0.206650
O O12 0.860148 0.874024 0.074033
O O13 0.145997 0.814944 0.708401
O O14 0.000000 0.000000 0.500000
O O15 0.811798 0.358552 0.002480
O O16 0.572288 0.638749 0.224936
O O17 0.500000 0.500000 0.500000
#
# Coordination Sequence:
#
# PCOD9032021 Si02
#       8
#     2   2   2   2   2   2   2   2
#     4  11  24  42  75 101 143 179 231 292 349 421
#     4  10  25  43  69 104 137 185 228 286 347 411
#     4   9  22  44  68  97 139 177 233 288 337 409
#     4  10  22  43  69 106 129 182 230 288 351 402
#     4  11  24  48  69 102 138 185 232 287 348 416
#     4  11  22  44  71 100 135 181 235 288 338 415
#     4  10  25  45  72 101 138 180 235 287 348 411
#     4  10  24  43  65  97 139 187 227 279 349 409
#
# _framework density 26.983421
#
# number of rings (size 3 to 8) (size 9 to 14) (size 15 to 20)
#    0.750    1.000    1.250    1.500    0.000   11.500 
#    0.000    0.000    0.000    0.000    0.000    0.000 
#    0.000    0.000    0.000    0.000    0.000    0.000 
#
# Total GULP energy -89271.677293 kJ/mol
# GULP energy per Si atom -5579.479831 kJ/mol
# Density = 2.692201 g / cm^3
# Si number density = 26.983421 Si / 1000 Ang^3
#
#
#
# Elastic Constant Matrix: (Units=GPa)
#
#
# Indices 1 2 3 4 5 6 
#
# 1 115.5197 32.2946 44.9494 -16.4126 -5.3404 -9.6152
# 2 32.2946 110.2692 31.3910 -34.4979 8.1605 -6.3306
# 3 44.9494 31.3910 173.1599 -12.8289 -3.2099 5.9344
# 4 -16.4126 -34.4979 -12.8289 44.2449 3.5947 3.8796
# 5 -5.3404 8.1605 -3.2099 3.5947 56.1323 -2.2596
# 6 -9.6152 -6.3306 5.9344 3.8796 -2.2596 38.8016
#
#
#
# Elastic Compliance Matrix: (Units=1/GPa)
#
#
# Indices 1 2 3 4 5 6 
#
# 1 0.010584 -0.001920 -0.002361 0.001422 0.001164 0.002596
# 2 -0.001920 0.013160 -0.001273 0.009334 -0.002735 0.000774
# 3 -0.002361 -0.001273 0.006702 0.000214 0.000257 -0.001824
# 4 0.001422 0.009334 0.000214 0.030858 -0.003243 -0.001432
# 5 0.001164 -0.002735 0.000257 -0.003243 0.018595 0.001210
# 6 0.002596 0.000774 -0.001824 -0.001432 0.001210 0.027034
#
#
# Mechanical properties :
#
#
# Convention : Reuss Voigt Hill
#
# Bulk Modulus (GPa) = 51.71155 68.46877 60.09016
# Shear Modulus (GPa) = 40.16450 47.19002 43.67726
#
# Velocity S-wave (km/s) = 3.86228 4.18646 4.02763
# Velocity P-wave (km/s) = 6.25263 6.98557 6.62923
#
# Compressibility (1/GPa) = 0.01933804
#
# Stress axis : x y z
#
# Youngs Moduli (GPa) = 94.48167 75.98505 149.21107
#
# Poissons Ratio (x) = 0.14586 0.35236
# Poissons Ratio (y) = 0.18137 0.18997
# Poissons Ratio (z) = 0.22311 0.09674
#
# Static dielectric constant tensor:
#      x y z
#    x 2.153160 0.109820 -0.060060 
#    y 0.109820 2.278900 0.099390 
#    z -0.060060 0.099390 2.151520 
# 
# From -- ./inp_files/277544.got.cif
#   From: 2010.05.17/outbox.cif.g08.bks.cpg/sg2_139_cif.got.tgz:277544.got - 2010.06.03 11:33:40.
