data_PCOD9032931
_publ_section_title
;
Structure prediction by ZEFSAII (Michael W. Deem and Ramdas Pophale) SiO2 
 PCOD9032931
Probable space group: P -1
;
_chemical_formula_sum "Si O2"
_cell_formula_units_Z 16
_cell_length_a 14.848890
_cell_length_b 9.498358
_cell_length_c 11.701513
_cell_angle_alpha 143.013948
_cell_angle_beta 111.086178
_cell_angle_gamma 52.346430
_cell_volume 757.095617
_symmetry_space_group_name_H-M "P -1"
_symmetry_group_IT_number 2
_symmetry_cell_setting 'triclinic'
loop_
_space_group_symop_operation_xyz
x,y,z
-x,-y,-z
loop_
_atom_site_type_symbol
_atom_site_label
_atom_site_fract_x
_atom_site_fract_y
_atom_site_fract_z
Si Si1 0.532780 0.850797 0.752735
Si Si2 0.912624 0.253267 0.013228
Si Si3 0.566288 0.708087 0.412494
Si Si4 0.180570 0.823805 0.861656
Si Si5 0.206311 0.324420 0.193426
Si Si6 0.562378 0.564452 0.807863
Si Si7 0.171024 0.741569 0.255746
Si Si8 0.992099 0.582795 0.417906
O O1 0.528291 0.785659 0.577596
O O2 0.663765 0.767131 0.781050
O O3 0.514951 0.684211 0.735841
O O4 0.448108 0.182714 0.961272
O O5 0.840043 0.177054 0.011623
O O6 0.937403 0.449170 0.227878
O O7 0.841196 0.382671 0.948987
O O8 0.044214 0.975252 0.859722
O O9 0.708990 0.493852 0.327551
O O10 0.513776 0.533100 0.234926
O O11 0.500000 0.000000 0.500000
O O12 0.210482 0.045605 0.979602
O O13 0.152077 0.577789 0.240166
O O14 0.123647 0.442988 0.342458
O O15 0.700815 0.322105 0.708857
O O16 0.082461 0.081597 0.425148
O O17 0.000000 0.500000 0.500000
#
# Coordination Sequence:
#
# PCOD9032931 Si02
#       8
#     2   2   2   2   2   2   2   2
#     4  10  23  45  70  89 129 176 212 272 330 381
#     4  10  24  43  66  94 132 178 209 262 334 384
#     4  12  27  40  68 101 128 169 222 271 320 395
#     4  10  22  44  63  94 133 168 215 261 331 383
#     4  10  22  44  67  97 128 171 219 270 325 382
#     4  10  24  47  64  95 131 169 219 267 329 384
#     4  11  24  42  69  96 130 169 221 271 315 393
#     4  11  24  41  67  97 136 171 213 266 326 392
#
# _framework density 21.133393999999999
#
# number of rings (size 3 to 8) (size 9 to 14) (size 15 to 20)
#    0.000    1.500    1.250    3.000    7.000    3.500 
#    4.500    0.000    0.000    0.000    0.000    0.000 
#    0.000    0.000    0.000    0.000    0.000    0.000 
#
# Total GULP energy -89321.835500 kJ/mol
# GULP energy per Si atom -5582.614719 kJ/mol
# Density = 2.108529 g / cm^3
# Si number density = 21.133394 Si / 1000 Ang^3
#
#
#
# Elastic Constant Matrix: (Units=GPa)
#
#
# Indices 1 2 3 4 5 6 
#
# 1 74.1572 27.9119 15.6435 11.7088 3.6164 19.1663
# 2 27.9119 83.1177 45.4721 15.1812 -0.5633 14.8129
# 3 15.6435 45.4721 83.2610 19.2073 -2.1618 2.3219
# 4 11.7088 15.1812 19.2073 38.2924 -0.4573 0.1274
# 5 3.6164 -0.5633 -2.1618 -0.4573 35.4952 3.9996
# 6 19.1663 14.8129 2.3219 0.1274 3.9996 21.7265
#
#
#
# Elastic Compliance Matrix: (Units=1/GPa)
#
#
# Indices 1 2 3 4 5 6 
#
# 1 0.019210 -0.002529 -0.000798 -0.004426 -0.000409 -0.015036
# 2 -0.002529 0.020748 -0.009962 -0.002404 0.001195 -0.011056
# 3 -0.000798 -0.009962 0.018653 -0.005176 0.000377 0.005464
# 4 -0.004426 -0.002404 -0.005176 0.030996 -0.000173 0.005947
# 5 -0.000409 0.001195 0.000377 -0.000173 0.028909 -0.005815
# 6 -0.015036 -0.011056 0.005464 0.005947 -0.005815 0.067280
#
#
# Mechanical properties :
#
#
# Convention : Reuss Voigt Hill
#
# Bulk Modulus (GPa) = 31.21936 46.51011 38.86473
# Shear Modulus (GPa) = 22.41625 29.20339 25.80982
#
# Velocity S-wave (km/s) = 3.26038 3.72137 3.49847
# Velocity P-wave (km/s) = 5.38312 6.36557 5.89485
#
# Compressibility (1/GPa) = 0.03203141
#
# Stress axis : x y z
#
# Youngs Moduli (GPa) = 52.05649 48.19707 53.61165
#
# Poissons Ratio (x) = 0.12189 0.04281
# Poissons Ratio (y) = 0.13165 0.53409
# Poissons Ratio (z) = 0.04157 0.48015
#
# Static dielectric constant tensor:
#      x y z
#    x 1.746690 0.006570 0.010720 
#    y 0.006570 1.732980 0.004000 
#    z 0.010720 0.004000 1.822180 
# 
# From -- ./inp_files/448373.got.cif
#   From: 2010.05.17/outbox.cif.g08.bks.cpg/sg2_225_cif.got.tgz:448373.got - 2010.06.03 11:33:40.
