data_PCOD9032763
_publ_section_title
;
Structure prediction by ZEFSAII (Michael W. Deem and Ramdas Pophale) SiO2 
 PCOD9032763
Probable space group: P -1
;
_chemical_formula_sum "Si O2"
_cell_formula_units_Z 16
_cell_length_a 20.135946
_cell_length_b 5.131840
_cell_length_c 5.681087
_cell_angle_alpha 92.395520
_cell_angle_beta 89.761148
_cell_angle_gamma 77.665041
_cell_volume 572.947391
_symmetry_space_group_name_H-M "P -1"
_symmetry_group_IT_number 2
_symmetry_cell_setting 'triclinic'
loop_
_space_group_symop_operation_xyz
x,y,z
-x,-y,-z
loop_
_atom_site_type_symbol
_atom_site_label
_atom_site_fract_x
_atom_site_fract_y
_atom_site_fract_z
Si Si1 0.278015 0.462707 0.453843
Si Si2 0.451228 0.295953 0.512406
Si Si3 0.947939 0.994594 0.294838
Si Si4 0.312672 0.942384 0.736731
Si Si5 0.788008 0.160540 0.890804
Si Si6 0.422276 0.159551 0.004155
Si Si7 0.925917 0.360731 0.945430
Si Si8 0.849782 0.706594 0.548140
O O1 0.311733 0.182633 0.563170
O O2 0.260389 0.561221 0.186997
O O3 0.198650 0.488325 0.544824
O O4 0.315565 0.680303 0.571980
O O5 0.500000 0.500000 0.500000
O O6 0.421216 0.339156 0.778854
O O7 0.500000 0.000000 0.500000
O O8 0.409607 0.299575 0.265342
O O9 0.887617 0.860489 0.371286
O O10 0.995901 0.780149 0.116070
O O11 0.000000 0.000000 0.500000
O O12 0.928895 0.303888 0.223845
O O13 0.370235 0.971679 0.928548
O O14 0.244560 0.950892 0.889500
O O15 0.865602 0.194401 0.906096
O O16 0.793733 0.937844 0.683285
O O17 0.500000 0.000000 0.000000
O O18 0.900038 0.583924 0.758520
#
# Coordination Sequence:
#
# PCOD9032763 Si02
#       8
#     2   2   2   2   2   2   2   2
#     4  11  27  48  71 106 142 195 246 307 373 447
#     4  10  22  43  74 106 152 194 245 295 371 447
#     4  11  22  43  63 100 142 186 238 303 368 446
#     4  12  28  46  76 107 150 193 251 308 376 453
#     4  11  25  47  70 105 142 190 247 309 374 445
#     4  10  25  49  76 116 154 205 250 317 385 461
#     4  10  24  40  65  99 137 187 238 296 372 443
#     4  11  23  45  73  99 143 187 246 307 373 441
#
# _framework density 27.925775999999999
#
# number of rings (size 3 to 8) (size 9 to 14) (size 15 to 20)
#    0.000    1.250    2.500    1.500    5.250    4.500 
#    4.500    0.000    0.000    0.000    0.000    0.000 
#    0.000    0.000    0.000    0.000    0.000    0.000 
#
# Total GULP energy -89366.401398 kJ/mol
# GULP energy per Si atom -5585.400087 kJ/mol
# Density = 2.786222 g / cm^3
# Si number density = 27.925776 Si / 1000 Ang^3
#
#
#
# Elastic Constant Matrix: (Units=GPa)
#
#
# Indices 1 2 3 4 5 6 
#
# 1 101.5045 23.9373 58.5832 -14.0308 18.0291 27.1884
# 2 23.9373 148.0904 53.8744 -27.9540 -0.8090 18.5173
# 3 58.5832 53.8744 167.1491 -19.4753 -0.1103 18.2067
# 4 -14.0308 -27.9540 -19.4753 55.3587 5.4243 4.4082
# 5 18.0291 -0.8090 -0.1103 5.4243 68.3845 -3.4592
# 6 27.1884 18.5173 18.2067 4.4082 -3.4592 51.9078
#
#
#
# Elastic Compliance Matrix: (Units=1/GPa)
#
#
# Indices 1 2 3 4 5 6 
#
# 1 0.015660 0.000734 -0.004458 0.003844 -0.004814 -0.007548
# 2 0.000734 0.008582 -0.002221 0.004037 -0.000570 -0.003047
# 3 -0.004458 -0.002221 0.008298 0.000537 0.001132 0.000247
# 4 0.003844 0.004037 0.000537 0.022014 -0.003000 -0.005711
# 5 -0.004814 -0.000570 0.001132 -0.003000 0.016311 0.003669
# 6 -0.007548 -0.003047 0.000247 -0.005711 0.003669 0.024948
#
#
# Mechanical properties :
#
#
# Convention : Reuss Voigt Hill
#
# Bulk Modulus (GPa) = 48.43176 76.61485 62.52330
# Shear Modulus (GPa) = 43.63496 53.82014 48.72755
#
# Velocity S-wave (km/s) = 3.95718 4.39482 4.18173
# Velocity P-wave (km/s) = 6.18544 7.29707 6.76413
#
# Compressibility (1/GPa) = 0.02064761
#
# Stress axis : x y z
#
# Youngs Moduli (GPa) = 63.85781 116.52221 120.51727
#
# Poissons Ratio (x) = -0.08548 0.53729
# Poissons Ratio (y) = -0.04685 0.26771
# Poissons Ratio (z) = 0.28469 0.25884
#
# Static dielectric constant tensor:
#      x y z
#    x 2.342590 -0.664360 -0.268700 
#    y -0.664360 5.260410 1.431050 
#    z -0.268700 1.431050 2.927910 
# 
# From -- ./inp_files/10994.got.cif
#   From: 2010.05.17/outbox.cif.g08.bks.cpg/sg2_6_cif.got.tgz:10994.got - 2010.06.03 11:33:40.
