data_PCOD9032817
_publ_section_title
;
Structure prediction by ZEFSAII (Michael W. Deem and Ramdas Pophale) SiO2 
 PCOD9032817
Probable space group: P -1
;
_chemical_formula_sum "Si O2"
_cell_formula_units_Z 12
_cell_length_a 5.718572
_cell_length_b 5.000231
_cell_length_c 20.723969
_cell_angle_alpha 126.360540
_cell_angle_beta 79.748020
_cell_angle_gamma 87.876911
_cell_volume 461.929477
_symmetry_space_group_name_H-M "P -1"
_symmetry_group_IT_number 2
_symmetry_cell_setting 'triclinic'
loop_
_space_group_symop_operation_xyz
x,y,z
-x,-y,-z
loop_
_atom_site_type_symbol
_atom_site_label
_atom_site_fract_x
_atom_site_fract_y
_atom_site_fract_z
Si Si1 0.319067 0.148508 0.973626
Si Si2 0.546644 0.595978 0.438890
Si Si3 0.934565 0.325794 0.596053
Si Si4 0.050208 0.527186 0.868557
Si Si5 0.473799 0.013518 0.811872
Si Si6 0.238716 0.647731 0.253396
O O1 0.446722 0.216205 0.910450
O O2 0.183547 0.841830 0.917253
O O3 0.128922 0.443773 0.057381
O O4 0.500000 0.000000 0.000000
O O5 0.500000 0.500000 0.500000
O O6 0.329829 0.494960 0.392211
O O7 0.830425 0.491797 0.391446
O O8 0.500000 0.000000 0.500000
O O9 0.897352 0.214833 0.655490
O O10 0.000000 0.000000 0.500000
O O11 0.228117 0.169784 0.810404
O O12 0.915428 0.566793 0.812850
O O13 0.680277 0.107423 0.768764
O O14 0.533026 0.621264 0.770419
#
# Coordination Sequence:
#
# PCOD9032817 Si02
#       6
#     2   2   2   2   2   2
#     4  11  23  47  75 105 147 192 249 301 370 457
#     4  10  22  43  76 105 143 182 247 306 370 443
#     4  10  25  50  76 112 149 201 255 313 381 454
#     4  11  25  45  74 104 147 194 243 303 380 437
#     4  12  26  48  68 110 145 191 247 303 379 442
#     4  12  29  46  73 106 152 192 248 314 374 446
#
# _framework density 25.977993000000001
#
# number of rings (size 3 to 8) (size 9 to 14) (size 15 to 20)
#    0.000    1.000    3.333    1.000    4.667    8.000 
#    3.000    0.000    0.000    0.000    0.000    0.000 
#    0.000    0.000    0.000    0.000    0.000    0.000 
#
# Total GULP energy -67185.927088 kJ/mol
# GULP energy per Si atom -5598.827257 kJ/mol
# Density = 2.591887 g / cm^3
# Si number density = 25.977993 Si / 1000 Ang^3
#
#
#
# Elastic Constant Matrix: (Units=GPa)
#
#
# Indices 1 2 3 4 5 6 
#
# 1 170.1584 27.2666 56.5529 -14.0977 -8.9414 4.6832
# 2 27.2666 91.8060 24.3558 -25.6266 1.6459 6.4552
# 3 56.5529 24.3558 210.7503 -42.4738 -10.9818 14.2706
# 4 -14.0977 -25.6266 -42.4738 54.2635 9.9150 -8.4820
# 5 -8.9414 1.6459 -10.9818 9.9150 36.1225 -8.7318
# 6 4.6832 6.4552 14.2706 -8.4820 -8.7318 38.5271
#
#
#
# Elastic Compliance Matrix: (Units=1/GPa)
#
#
# Indices 1 2 3 4 5 6 
#
# 1 0.006735 -0.001778 -0.001670 -0.000622 0.001483 0.000297
# 2 -0.001778 0.013284 0.000138 0.006263 -0.003055 -0.001374
# 3 -0.001670 0.000138 0.006108 0.004233 -0.000003 -0.001151
# 4 -0.000622 0.006263 0.004233 0.025888 -0.005813 0.001840
# 5 0.001483 -0.003055 -0.000003 -0.005813 0.031269 0.006140
# 6 0.000297 -0.001374 -0.001151 0.001840 0.006140 0.028373
#
#
# Mechanical properties :
#
#
# Convention : Reuss Voigt Hill
#
# Bulk Modulus (GPa) = 51.26513 76.56281 63.91397
# Shear Modulus (GPa) = 40.07098 50.08524 45.07811
#
# Velocity S-wave (km/s) = 3.93172 4.39565 4.17014
# Velocity P-wave (km/s) = 6.35517 7.43629 6.91689
#
# Compressibility (1/GPa) = 0.01950644
#
# Stress axis : x y z
#
# Youngs Moduli (GPa) = 148.47628 75.28061 163.72024
#
# Poissons Ratio (x) = 0.13387 0.27340
# Poissons Ratio (y) = 0.26404 -0.02261
# Poissons Ratio (z) = 0.24794 -0.01040
#
# Static dielectric constant tensor:
#      x y z
#    x 2.153360 0.042040 -0.043860 
#    y 0.042040 2.049720 0.067600 
#    z -0.043860 0.067600 2.028960 
# 
# From -- ./inp_files/6711.got.cif
#   From: 2010.05.17/outbox.cif.g08.bks.cpg/sg2_4_cif.got.tgz:6711.got - 2010.06.03 11:33:40.
