data_PCOD9032425
_publ_section_title
;
Structure prediction by ZEFSAII (Michael W. Deem and Ramdas Pophale) SiO2 
 PCOD9032425
Probable space group: P -1
;
_chemical_formula_sum "Si O2"
_cell_formula_units_Z 16
_cell_length_a 16.243755
_cell_length_b 5.316885
_cell_length_c 7.709894
_cell_angle_alpha 84.737436
_cell_angle_beta 111.193251
_cell_angle_gamma 108.898111
_cell_volume 587.129971
_symmetry_space_group_name_H-M "P -1"
_symmetry_group_IT_number 2
_symmetry_cell_setting 'triclinic'
loop_
_space_group_symop_operation_xyz
x,y,z
-x,-y,-z
loop_
_atom_site_type_symbol
_atom_site_label
_atom_site_fract_x
_atom_site_fract_y
_atom_site_fract_z
Si Si1 0.857998 0.043450 0.335493
Si Si2 0.396782 0.471173 0.480485
Si Si3 0.592774 0.298110 0.197173
Si Si4 0.093320 0.674241 0.290222
Si Si5 0.394459 0.871624 0.157256
Si Si6 0.243361 0.082962 0.167059
Si Si7 0.787986 0.468628 0.363075
Si Si8 0.070464 0.188424 0.905299
O O1 0.824945 0.301528 0.260455
O O2 0.780827 0.753584 0.292479
O O3 0.927457 0.980931 0.255799
O O4 0.106921 0.884249 0.446743
O O5 0.500000 0.500000 0.500000
O O6 0.406759 0.456235 0.697222
O O7 0.384298 0.719685 0.342479
O O8 0.311301 0.231471 0.362470
O O9 0.688265 0.267040 0.349160
O O10 0.496976 0.081252 0.192741
O O11 0.611018 0.314496 0.004941
O O12 0.136870 0.471139 0.429010
O O13 0.984778 0.597527 0.173544
O O14 0.164843 0.816163 0.187056
O O15 0.314919 0.015419 0.092395
O O16 0.176690 0.255664 0.046740
O O17 0.000000 0.000000 0.000000
#
# Coordination Sequence:
#
# PCOD9032425 Si02
#       8
#     2   2   2   2   2   2   2   2
#     4  10  22  43  71 103 145 188 245 299 372 439
#     4  12  26  43  71 104 141 194 243 311 370 449
#     4  11  24  46  69 105 144 194 248 303 377 441
#     4   9  22  41  70 103 140 189 244 304 369 443
#     4  11  26  45  68 102 145 193 246 309 370 449
#     4  11  23  46  68 103 144 189 244 304 378 439
#     4  10  23  40  74 105 142 192 244 304 363 450
#     4  10  22  44  70 101 145 187 243 304 369 441
#
# _framework density 27.251208999999999
#
# number of rings (size 3 to 8) (size 9 to 14) (size 15 to 20)
#    0.750    0.750    1.250    3.000    3.500    1.000 
#    0.000    0.625    0.000    0.000    0.000    0.000 
#    0.000    0.000    0.000    0.000    0.000    0.000 
#
# Total GULP energy -89220.477720 kJ/mol
# GULP energy per Si atom -5576.279858 kJ/mol
# Density = 2.718918 g / cm^3
# Si number density = 27.251209 Si / 1000 Ang^3
#
#
#
# Elastic Constant Matrix: (Units=GPa)
#
#
# Indices 1 2 3 4 5 6 
#
# 1 202.7639 20.6653 46.5359 5.9304 3.0220 17.9452
# 2 20.6653 67.6409 21.3586 4.0335 11.3661 3.3477
# 3 46.5359 21.3586 108.6329 19.1071 -2.3617 -0.3743
# 4 5.9304 4.0335 19.1071 32.5247 -6.5531 -0.6441
# 5 3.0220 11.3661 -2.3617 -6.5531 64.7897 -2.0288
# 6 17.9452 3.3477 -0.3743 -0.6441 -2.0288 30.5763
#
#
#
# Elastic Compliance Matrix: (Units=1/GPa)
#
#
# Indices 1 2 3 4 5 6 
#
# 1 0.005869 -0.000830 -0.002427 0.000333 -0.000289 -0.003395
# 2 -0.000830 0.016584 -0.002819 -0.000909 -0.003115 -0.001589
# 3 -0.002427 -0.002819 0.011881 -0.006055 0.000484 0.001783
# 4 0.000333 -0.000909 -0.006055 0.035075 0.003496 0.000801
# 5 -0.000289 -0.003115 0.000484 0.003496 0.016418 0.001680
# 6 -0.003395 -0.001589 0.001783 0.000801 0.001680 0.035022
#
#
# Mechanical properties :
#
#
# Convention : Reuss Voigt Hill
#
# Bulk Modulus (GPa) = 45.08186 61.79526 53.43856
# Shear Modulus (GPa) = 35.61415 44.94331 40.27873
#
# Velocity S-wave (km/s) = 3.61901 4.06547 3.84872
# Velocity P-wave (km/s) = 5.83455 6.69050 6.27713
#
# Compressibility (1/GPa) = 0.02218187
#
# Stress axis : x y z
#
# Youngs Moduli (GPa) = 170.39892 60.30020 84.16840
#
# Poissons Ratio (x) = 0.05003 0.20432
# Poissons Ratio (y) = 0.14137 0.23723
# Poissons Ratio (z) = 0.41364 0.16996
#
# Static dielectric constant tensor:
#      x y z
#    x 2.171130 -0.043540 -0.072120 
#    y -0.043540 2.200160 -0.092220 
#    z -0.072120 -0.092220 2.335990 
# 
# From -- ./inp_files/288035.got.cif
#   From: 2010.05.17/outbox.cif.g08.bks.cpg/sg2_145_cif.got.tgz:288035.got - 2010.06.03 11:33:40.
