data_PCOD9032025
_publ_section_title
;
Structure prediction by ZEFSAII (Michael W. Deem and Ramdas Pophale) SiO2 
 PCOD9032025
Probable space group: P -1
;
_chemical_formula_sum "Si O2"
_cell_formula_units_Z 14
_cell_length_a 8.759281
_cell_length_b 10.855508
_cell_length_c 7.872570
_cell_angle_alpha 103.358841
_cell_angle_beta 115.358826
_cell_angle_gamma 114.359700
_cell_volume 535.338443
_symmetry_space_group_name_H-M "P -1"
_symmetry_group_IT_number 2
_symmetry_cell_setting 'triclinic'
loop_
_space_group_symop_operation_xyz
x,y,z
-x,-y,-z
loop_
_atom_site_type_symbol
_atom_site_label
_atom_site_fract_x
_atom_site_fract_y
_atom_site_fract_z
Si Si1 0.271402 0.285363 0.326429
Si Si2 0.338357 0.911944 0.239285
Si Si3 0.249193 0.552354 0.486248
Si Si4 0.012913 0.347026 0.783258
Si Si5 0.731271 0.903835 0.993641
Si Si6 0.950990 0.855096 0.533203
Si Si7 0.640762 0.333807 0.047479
O O1 0.169988 0.377745 0.343306
O O2 0.508160 0.373270 0.408026
O O3 0.260498 0.220447 0.487677
O O4 0.160480 0.155532 0.087916
O O5 0.114662 0.786636 0.179989
O O6 0.500000 0.000000 0.500000
O O7 0.361327 0.799790 0.093403
O O8 0.375503 0.050799 0.181511
O O9 0.140842 0.606431 0.331463
O O10 0.236284 0.595833 0.689463
O O11 0.042631 0.263397 0.616607
O O12 0.241156 0.511705 0.966333
O O13 0.592957 0.765695 0.020757
O O14 0.872884 0.062384 0.213672
O O15 0.000000 0.000000 0.500000
#
# Coordination Sequence:
#
# PCOD9032025 Si02
#       7
#     2   2   2   2   2   2   2
#     4  10  22  43  69 106 148 189 240 296 364 436
#     4  12  25  44  69 110 151 188 241 304 366 432
#     4  10  22  43  74 105 144 189 244 304 362 426
#     4  12  25  44  75 108 146 190 247 308 360 439
#     4  11  25  46  75 103 148 197 240 298 378 436
#     4  12  26  48  75 108 146 191 246 306 371 439
#     4  11  23  44  70 109 139 190 245 300 362 434
#
# _framework density 26.151682999999998
#
# number of rings (size 3 to 8) (size 9 to 14) (size 15 to 20)
#    0.000    0.857    1.429    6.000    2.000    1.143 
#    2.571    0.714    0.000    0.000    0.000    0.000 
#    0.000    0.000    0.000    0.000    0.000    0.000 
#
# Total GULP energy -78238.356938 kJ/mol
# GULP energy per Si atom -5588.454067 kJ/mol
# Density = 2.609216 g / cm^3
# Si number density = 26.151683 Si / 1000 Ang^3
#
#
#
# Elastic Constant Matrix: (Units=GPa)
#
#
# Indices 1 2 3 4 5 6 
#
# 1 115.3337 46.9872 60.1137 7.8981 -45.2284 1.5836
# 2 46.9872 118.5526 46.4764 24.6972 -0.8888 -7.0222
# 3 60.1137 46.4764 113.2053 20.5434 -26.7722 -17.3932
# 4 7.8981 24.6972 20.5434 48.1419 -8.0084 -9.1244
# 5 -45.2284 -0.8888 -26.7722 -8.0084 53.2305 6.0580
# 6 1.5836 -7.0222 -17.3932 -9.1244 6.0580 49.6164
#
#
#
# Elastic Compliance Matrix: (Units=1/GPa)
#
#
# Indices 1 2 3 4 5 6 
#
# 1 0.020302 -0.006816 -0.005859 0.004325 0.015380 -0.004749
# 2 -0.006816 0.013311 -0.002477 -0.005738 -0.007807 0.001131
# 3 -0.005859 -0.002477 0.014452 -0.002917 0.001331 0.004204
# 4 0.004325 -0.005738 -0.002917 0.025589 0.005730 0.002034
# 5 0.015380 -0.007807 0.001331 0.005730 0.033733 -0.004194
# 6 -0.004749 0.001131 0.004204 0.002034 -0.004194 0.022826
#
#
# Mechanical properties :
#
#
# Convention : Reuss Voigt Hill
#
# Bulk Modulus (GPa) = 56.30498 72.69402 64.49950
# Shear Modulus (GPa) = 30.04106 43.09871 36.56989
#
# Velocity S-wave (km/s) = 3.39296 4.06400 3.74354
# Velocity P-wave (km/s) = 6.07671 7.06249 6.58807
#
# Compressibility (1/GPa) = 0.01776042
#
# Stress axis : x y z
#
# Youngs Moduli (GPa) = 49.25610 75.12319 69.19579
#
# Poissons Ratio (x) = 0.51207 0.40544
# Poissons Ratio (y) = 0.33575 0.17137
# Poissons Ratio (z) = 0.28861 0.18605
#
# Static dielectric constant tensor:
#      x y z
#    x 2.070980 0.085970 0.099150 
#    y 0.085970 2.150620 0.048390 
#    z 0.099150 0.048390 2.189310 
# 
# From -- ./inp_files/189437.got.cif
#   From: 2010.05.17/outbox.cif.g08.bks.cpg/sg2_95_cif.got.tgz:189437.got - 2010.06.03 11:33:40.
