data_PCOD9032259
_publ_section_title
;
Structure prediction by ZEFSAII (Michael W. Deem and Ramdas Pophale) SiO2 
 PCOD9032259
Probable space group: P -1
;
_chemical_formula_sum "Si O2"
_cell_formula_units_Z 14
_cell_length_a 9.354622
_cell_length_b 14.512847
_cell_length_c 11.535316
_cell_angle_alpha 147.948124
_cell_angle_beta 120.262136
_cell_angle_gamma 43.241644
_cell_volume 540.916629
_symmetry_space_group_name_H-M "P -1"
_symmetry_group_IT_number 2
_symmetry_cell_setting 'triclinic'
loop_
_space_group_symop_operation_xyz
x,y,z
-x,-y,-z
loop_
_atom_site_type_symbol
_atom_site_label
_atom_site_fract_x
_atom_site_fract_y
_atom_site_fract_z
Si Si1 0.118624 0.608369 0.645145
Si Si2 0.598217 0.843910 0.488483
Si Si3 0.491013 0.706392 0.684067
Si Si4 0.002071 0.005049 0.177465
Si Si5 0.799885 0.126002 0.644177
Si Si6 0.338303 0.231088 0.950699
Si Si7 0.869609 0.451476 0.023548
O O1 0.361135 0.380466 0.461412
O O2 0.030805 0.805494 0.719216
O O3 0.000000 0.500000 0.500000
O O4 0.123659 0.752176 0.902371
O O5 0.418473 0.822407 0.423755
O O6 0.821314 0.612006 0.282816
O O7 0.500000 0.000000 0.500000
O O8 0.564454 0.001693 0.746228
O O9 0.500000 0.500000 0.500000
O O10 0.232692 0.917151 0.799724
O O11 0.603308 0.727479 0.859061
O O12 0.108980 0.008833 0.340901
O O13 0.747117 0.359869 0.900416
O O14 0.000000 0.000000 0.500000
O O15 0.233158 0.418437 0.003230
O O16 0.130057 0.249587 0.903970
#
# Coordination Sequence:
#
# PCOD9032259 Si02
#       7
#     2   2   2   2   2   2   2
#     4  10  24  46  72 101 135 193 239 287 355 417
#     4  10  23  43  67 101 137 185 231 291 346 414
#     4  10  24  44  73 101 140 188 230 296 360 410
#     4  10  26  50  68 105 152 179 238 304 346 431
#     4  12  25  46  71 105 145 186 229 288 366 418
#     4  10  22  43  70 105 137 179 242 290 345 419
#     4  10  23  41  71 102 141 185 228 290 354 420
#
# _framework density 25.881989999999998
#
# number of rings (size 3 to 8) (size 9 to 14) (size 15 to 20)
#    0.000    1.714    1.429    0.429    6.000    8.571 
#    2.571    0.000    0.000    0.000    0.000    0.000 
#    0.000    0.000    0.000    0.000    0.000    0.000 
#
# Total GULP energy -78210.119259 kJ/mol
# GULP energy per Si atom -5586.437090 kJ/mol
# Density = 2.582308 g / cm^3
# Si number density = 25.881990 Si / 1000 Ang^3
#
#
#
# Elastic Constant Matrix: (Units=GPa)
#
#
# Indices 1 2 3 4 5 6 
#
# 1 135.5418 32.6450 34.4612 6.8166 -7.1534 -6.6486
# 2 32.6450 99.1658 19.4481 -16.6624 -2.1510 19.4017
# 3 34.4612 19.4481 111.8096 -3.4332 -25.5531 3.6688
# 4 6.8166 -16.6624 -3.4332 23.3772 2.2065 6.2632
# 5 -7.1534 -2.1510 -25.5531 2.2065 58.4350 9.1676
# 6 -6.6486 19.4017 3.6688 6.2632 9.1676 42.9204
#
#
#
# Elastic Compliance Matrix: (Units=1/GPa)
#
#
# Indices 1 2 3 4 5 6 
#
# 1 0.010026 -0.005299 -0.002783 -0.008537 -0.000739 0.005590
# 2 -0.005299 0.016781 -0.000198 0.016326 0.000989 -0.010983
# 3 -0.002783 -0.000198 0.011109 0.002569 0.004836 -0.002699
# 4 -0.008537 0.016326 0.002569 0.062052 0.001197 -0.018233
# 5 -0.000739 0.000989 0.004836 0.001197 0.019978 -0.005417
# 6 0.005590 -0.010983 -0.002699 -0.018233 -0.005417 0.033178
#
#
# Mechanical properties :
#
#
# Convention : Reuss Voigt Hill
#
# Bulk Modulus (GPa) = 46.82532 57.73619 52.28076
# Shear Modulus (GPa) = 28.28020 42.27737 35.27878
#
# Velocity S-wave (km/s) = 3.30913 4.04600 3.69597
# Velocity P-wave (km/s) = 5.72115 6.64701 6.20138
#
# Compressibility (1/GPa) = 0.02135597
#
# Stress axis : x y z
#
# Youngs Moduli (GPa) = 99.73933 59.59189 90.01972
#
# Poissons Ratio (x) = 0.31577 0.25053
# Poissons Ratio (y) = 0.52851 0.01781
# Poissons Ratio (z) = 0.27758 0.01179
#
# Static dielectric constant tensor:
#      x y z
#    x 2.051440 0.034880 0.019120 
#    y 0.034880 2.113490 -0.036890 
#    z 0.019120 -0.036890 2.184280 
# 
# From -- ./inp_files/400166.got.cif
#   From: 2010.05.17/outbox.cif.g08.bks.cpg/sg2_201_cif.got.tgz:400166.got - 2010.06.03 11:33:40.
