data_PCOD9032303
_publ_section_title
;
Structure prediction by ZEFSAII (Michael W. Deem and Ramdas Pophale) SiO2 
 PCOD9032303
Probable space group: P -1
;
_chemical_formula_sum "Si O2"
_cell_formula_units_Z 14
_cell_length_a 19.120046
_cell_length_b 7.800735
_cell_length_c 4.986205
_cell_angle_alpha 96.608822
_cell_angle_beta 64.368655
_cell_angle_gamma 125.825588
_cell_volume 533.862497
_symmetry_space_group_name_H-M "P -1"
_symmetry_group_IT_number 2
_symmetry_cell_setting 'triclinic'
loop_
_space_group_symop_operation_xyz
x,y,z
-x,-y,-z
loop_
_atom_site_type_symbol
_atom_site_label
_atom_site_fract_x
_atom_site_fract_y
_atom_site_fract_z
Si Si1 0.474412 0.660508 0.485657
Si Si2 0.593723 0.247409 0.885780
Si Si3 0.183827 0.994594 0.666951
Si Si4 0.321064 0.926698 0.628739
Si Si5 0.148975 0.483695 0.035132
Si Si6 0.071411 0.510448 0.671098
Si Si7 0.113347 0.099199 0.297015
O O1 0.500000 0.500000 0.500000
O O2 0.426966 0.627951 0.270476
O O3 0.575740 0.903704 0.373057
O O4 0.402825 0.657450 0.816238
O O5 0.670081 0.213088 0.634360
O O6 0.500000 0.000000 0.000000
O O7 0.163263 0.102594 0.487177
O O8 0.289710 0.074163 0.598791
O O9 0.147443 0.765597 0.569054
O O10 0.123408 0.965273 0.027664
O O11 0.236001 0.736246 0.921635
O O12 0.062677 0.435730 0.368425
O O13 0.171765 0.333435 0.105673
O O14 0.113007 0.414420 0.777407
O O15 0.000000 0.500000 0.000000
O O16 0.000000 0.000000 0.500000
#
# Coordination Sequence:
#
# PCOD9032303 Si02
#       7
#     2   2   2   2   2   2   2
#     4  11  24  44  72 101 131 174 218 266 329 394
#     4  10  22  43  70  95 132 179 216 262 327 402
#     4  11  24  40  65  94 129 170 216 280 328 369
#     4  10  24  45  65  98 134 171 225 271 324 401
#     4  11  24  39  63  91 127 168 209 269 329 376
#     4  11  21  40  63  90 122 170 218 258 319 400
#     4  12  24  43  64  95 131 172 220 270 330 394
#
# _framework density 26.223979
#
# number of rings (size 3 to 8) (size 9 to 14) (size 15 to 20)
#    0.000    1.143    0.000    7.286    0.000   11.429 
#    0.000    5.714    0.000    0.000    0.000    0.000 
#    0.000    0.000    0.000    0.000    0.000    0.000 
#
# Total GULP energy -78274.188398 kJ/mol
# GULP energy per Si atom -5591.013457 kJ/mol
# Density = 2.616429 g / cm^3
# Si number density = 26.223979 Si / 1000 Ang^3
#
#
#
# Elastic Constant Matrix: (Units=GPa)
#
#
# Indices 1 2 3 4 5 6 
#
# 1 152.7640 23.3377 58.7282 -18.1371 11.1794 -25.2230
# 2 23.3377 69.2779 26.8695 -8.5828 -0.6346 -23.0940
# 3 58.7282 26.8695 153.4062 4.8798 8.9508 -9.2102
# 4 -18.1371 -8.5828 4.8798 38.3735 -7.8759 2.5671
# 5 11.1794 -0.6346 8.9508 -7.8759 55.1985 0.4361
# 6 -25.2230 -23.0940 -9.2102 2.5671 0.4361 46.3999
#
#
#
# Elastic Compliance Matrix: (Units=1/GPa)
#
#
# Indices 1 2 3 4 5 6 
#
# 1 0.009048 0.000139 -0.003338 0.004313 -0.000706 0.004093
# 2 0.000139 0.019031 -0.003078 0.004389 0.001247 0.008682
# 3 -0.003338 -0.003078 0.008429 -0.003489 -0.001212 -0.001469
# 4 0.004313 0.004389 -0.003489 0.030210 0.004036 0.002127
# 5 -0.000706 0.001247 -0.001212 0.004036 0.019050 -0.000406
# 6 0.004093 0.008682 -0.001469 0.002127 -0.000406 0.027692
#
#
# Mechanical properties :
#
#
# Convention : Reuss Voigt Hill
#
# Bulk Modulus (GPa) = 41.74666 65.92432 53.83549
# Shear Modulus (GPa) = 37.31401 45.76190 41.53795
#
# Velocity S-wave (km/s) = 3.77622 4.18190 3.98423
# Velocity P-wave (km/s) = 5.91329 6.96500 6.46058
#
# Compressibility (1/GPa) = 0.02395401
#
# Stress axis : x y z
#
# Youngs Moduli (GPa) = 110.52458 52.54637 118.63466
#
# Poissons Ratio (x) = -0.00731 0.39605
# Poissons Ratio (y) = -0.01538 0.36512
# Poissons Ratio (z) = 0.36897 0.16172
#
# Static dielectric constant tensor:
#      x y z
#    x 2.234690 0.025240 -0.092430 
#    y 0.025240 2.178140 -0.066100 
#    z -0.092430 -0.066100 2.081070 
# 
# From -- ./inp_files/115544.got.cif
#   From: 2010.05.17/outbox.cif.g08.bks.cpg/sg2_58_cif.got.tgz:115544.got - 2010.06.03 11:33:40.
