data_PCOD9032696
_publ_section_title
;
Structure prediction by ZEFSAII (Michael W. Deem and Ramdas Pophale) SiO2 
 PCOD9032696
Probable space group: P -1
;
_chemical_formula_sum "Si O2"
_cell_formula_units_Z 14
_cell_length_a 11.152556
_cell_length_b 12.233172
_cell_length_c 9.799652
_cell_angle_alpha 143.219747
_cell_angle_beta 57.866530
_cell_angle_gamma 132.832535
_cell_volume 586.807800
_symmetry_space_group_name_H-M "P -1"
_symmetry_group_IT_number 2
_symmetry_cell_setting 'triclinic'
loop_
_space_group_symop_operation_xyz
x,y,z
-x,-y,-z
loop_
_atom_site_type_symbol
_atom_site_label
_atom_site_fract_x
_atom_site_fract_y
_atom_site_fract_z
Si Si1 0.954137 0.575089 0.740721
Si Si2 0.230122 0.133710 0.529600
Si Si3 0.211821 0.294773 0.231600
Si Si4 0.436871 0.733840 0.632472
Si Si5 0.510690 0.815939 0.989165
Si Si6 0.841655 0.338707 0.846053
Si Si7 0.039635 0.958581 0.202571
O O1 0.832240 0.653384 0.836298
O O2 0.878187 0.400229 0.727341
O O3 0.000000 0.500000 0.500000
O O4 0.088664 0.789151 0.949635
O O5 0.422796 0.280415 0.552247
O O6 0.128246 0.173164 0.744126
O O7 0.189820 0.895284 0.344135
O O8 0.158608 0.117377 0.405335
O O9 0.275820 0.510725 0.493410
O O10 0.056586 0.108063 0.216637
O O11 0.351734 0.231069 0.084992
O O12 0.435350 0.937926 0.779978
O O13 0.492455 0.775769 0.797427
O O14 0.328211 0.675690 0.020263
O O15 0.000000 0.500000 0.000000
#
# Coordination Sequence:
#
# PCOD9032696 Si02
#       7
#     2   2   2   2   2   2   2
#     4  12  29  46  72 105 149 199 239 297 376 431
#     4  10  22  43  73 106 142 178 249 305 348 426
#     4  12  26  43  72 103 151 190 236 300 364 442
#     4  10  23  43  70 109 141 192 237 301 367 423
#     4  10  24  42  72 106 148 186 249 298 356 432
#     4  11  24  45  73 104 141 192 247 299 351 433
#     4  11  24  43  70 109 140 190 243 299 357 432
#
# _framework density 23.857896
#
# number of rings (size 3 to 8) (size 9 to 14) (size 15 to 20)
#    0.000    1.143    2.857    1.714    8.000    0.571 
#    0.000    1.429    0.000    0.000    0.000    0.000 
#    0.000    0.000    0.000    0.000    0.000    0.000 
#
# Total GULP energy -78342.594078 kJ/mol
# GULP energy per Si atom -5595.899577 kJ/mol
# Density = 2.380359 g / cm^3
# Si number density = 23.857896 Si / 1000 Ang^3
#
#
#
# Elastic Constant Matrix: (Units=GPa)
#
#
# Indices 1 2 3 4 5 6 
#
# 1 96.4426 24.3936 16.3088 -24.7556 -15.2555 -15.2992
# 2 24.3936 122.5240 31.2555 -18.1760 -1.1660 -4.4054
# 3 16.3088 31.2555 107.9651 -16.4808 -4.6279 8.4401
# 4 -24.7556 -18.1760 -16.4808 39.8034 0.9555 1.2120
# 5 -15.2555 -1.1660 -4.6279 0.9555 22.6035 -11.5327
# 6 -15.2992 -4.4054 8.4401 1.2120 -11.5327 44.0258
#
#
#
# Elastic Compliance Matrix: (Units=1/GPa)
#
#
# Indices 1 2 3 4 5 6 
#
# 1 0.017370 -0.001353 -0.000935 0.009102 0.016219 0.010078
# 2 -0.001353 0.009386 -0.002206 0.002527 -0.000655 0.000651
# 3 -0.000935 -0.002206 0.010696 0.002923 -0.000051 -0.002690
# 4 0.009102 0.002527 0.002923 0.032850 0.007478 0.003910
# 5 0.016219 -0.000655 -0.000051 0.007478 0.066451 0.022782
# 6 0.010078 0.000651 -0.002690 0.003910 0.022782 0.032657
#
#
# Mechanical properties :
#
#
# Convention : Reuss Voigt Hill
#
# Bulk Modulus (GPa) = 35.13217 52.31640 43.72428
# Shear Modulus (GPa) = 26.61186 38.28480 32.44833
#
# Velocity S-wave (km/s) = 3.34343 4.01022 3.69191
# Velocity P-wave (km/s) = 5.44631 6.58926 6.04486
#
# Compressibility (1/GPa) = 0.02846394
#
# Stress axis : x y z
#
# Youngs Moduli (GPa) = 57.57093 106.54419 93.48856
#
# Poissons Ratio (x) = 0.14411 0.08746
# Poissons Ratio (y) = 0.07787 0.20624
# Poissons Ratio (z) = 0.05386 0.23504
#
# Static dielectric constant tensor:
#      x y z
#    x 1.961280 0.040630 -0.029090 
#    y 0.040630 1.862710 0.020120 
#    z -0.029090 0.020120 1.952160 
# 
# From -- ./inp_files/263714.got.cif
#   From: 2010.05.17/outbox.cif.g08.bks.cpg/sg2_132_cif.got.tgz:263714.got - 2010.06.03 11:33:40.
