data_PCOD9032587
_publ_section_title
;
Structure prediction by ZEFSAII (Michael W. Deem and Ramdas Pophale) SiO2 
 PCOD9032587
Probable space group: P -1
;
_chemical_formula_sum "Si O2"
_cell_formula_units_Z 16
_cell_length_a 18.117993
_cell_length_b 5.920762
_cell_length_c 16.230782
_cell_angle_alpha 96.824549
_cell_angle_beta 23.144119
_cell_angle_gamma 95.928481
_cell_volume 679.408045
_symmetry_space_group_name_H-M "P -1"
_symmetry_group_IT_number 2
_symmetry_cell_setting 'triclinic'
loop_
_space_group_symop_operation_xyz
x,y,z
-x,-y,-z
loop_
_atom_site_type_symbol
_atom_site_label
_atom_site_fract_x
_atom_site_fract_y
_atom_site_fract_z
Si Si1 0.344263 0.103265 0.959300
Si Si2 0.989304 0.591504 0.639300
Si Si3 0.841841 0.666299 0.411112
Si Si4 0.404353 0.751177 0.582016
Si Si5 0.496215 0.568030 0.313038
Si Si6 0.373683 0.140705 0.214541
Si Si7 0.272376 0.707468 0.209249
Si Si8 0.199024 0.764471 0.955504
O O1 0.461615 0.308541 0.809619
O O2 0.477105 0.982372 0.883311
O O3 0.293621 0.953519 0.924650
O O4 0.154155 0.195268 0.200851
O O5 0.854198 0.385462 0.739539
O O6 0.067441 0.559706 0.650170
O O7 0.159627 0.610889 0.400313
O O8 0.644907 0.632819 0.568580
O O9 0.794718 0.796117 0.549166
O O10 0.986386 0.762866 0.202733
O O11 0.500000 0.500000 0.500000
O O12 0.389688 0.716333 0.497808
O O13 0.234637 0.782356 0.822449
O O14 0.500000 0.000000 0.500000
O O15 0.693163 0.469052 0.139276
O O16 0.286264 0.973732 0.230071
O O17 0.506933 0.328397 0.043814
#
# Coordination Sequence:
#
# PCOD9032587 Si02
#       8
#     2   2   2   2   2   2   2   2
#     4  12  22  42  70  94 134 178 226 286 348 408
#     4  11  24  40  64  93 128 178 224 283 345 412
#     4  12  24  42  68 102 134 176 232 286 342 414
#     4  10  22  43  72 105 145 192 231 283 358 423
#     4  11  23  43  69  99 141 178 227 281 349 408
#     4  11  24  40  64  93 128 178 224 283 345 412
#     4  10  24  42  60  90 134 172 222 286 346 408
#     4  11  23  43  69  99 141 178 227 281 349 408
#
# _framework density 23.549910000000001
#
# number of rings (size 3 to 8) (size 9 to 14) (size 15 to 20)
#    0.000    1.000    3.750    3.000    0.000    6.500 
#    0.000    0.000    0.000    4.500    0.000    0.000 
#    0.000    0.000    0.000    0.000    0.000    0.000 
#
# Total GULP energy -89245.984601 kJ/mol
# GULP energy per Si atom -5577.874038 kJ/mol
# Density = 2.349631 g / cm^3
# Si number density = 23.549910 Si / 1000 Ang^3
#
#
#
# Elastic Constant Matrix: (Units=GPa)
#
#
# Indices 1 2 3 4 5 6 
#
# 1 36.9456 16.5245 33.4511 6.5927 22.5479 8.2596
# 2 16.5245 54.9750 50.8742 -1.7856 4.0035 7.8135
# 3 33.4511 50.8742 196.7016 -14.0411 33.4175 0.2231
# 4 6.5927 -1.7856 -14.0411 43.8322 2.1885 5.5105
# 5 22.5479 4.0035 33.4175 2.1885 37.5442 6.9536
# 6 8.2596 7.8135 0.2231 5.5105 6.9536 39.4896
#
#
#
# Elastic Compliance Matrix: (Units=1/GPa)
#
#
# Indices 1 2 3 4 5 6 
#
# 1 0.053158 -0.012333 -0.001555 -0.007247 -0.028308 -0.002674
# 2 -0.012333 0.028457 -0.007186 0.000780 0.011681 -0.005176
# 3 -0.001555 -0.007186 0.008495 0.002676 -0.006473 0.002466
# 4 -0.007247 0.000780 0.002676 0.025039 0.000853 -0.002298
# 5 -0.028308 0.011681 -0.006473 0.000853 0.049049 -0.005110
# 6 -0.002674 -0.005176 0.002466 -0.002298 -0.005110 0.028113
#
#
# Mechanical properties :
#
#
# Convention : Reuss Voigt Hill
#
# Bulk Modulus (GPa) = 20.84971 54.48020 37.66496
# Shear Modulus (GPa) = 19.96425 36.69137 28.32781
#
# Velocity S-wave (km/s) = 2.91476 3.95147 3.47202
# Velocity P-wave (km/s) = 4.49449 6.63347 5.66583
#
# Compressibility (1/GPa) = 0.04796229
#
# Stress axis : x y z
#
# Youngs Moduli (GPa) = 18.81169 35.14041 117.71911
#
# Poissons Ratio (x) = 0.43339 0.18309
# Poissons Ratio (y) = 0.23200 0.84590
# Poissons Ratio (z) = 0.02926 0.25251
#
# Static dielectric constant tensor:
#      x y z
#    x 1.862900 -0.023610 0.000030 
#    y -0.023610 1.997120 0.046360 
#    z 0.000030 0.046360 1.943510 
# 
# From -- ./inp_files/117544.got.cif
#   From: 2010.05.17/outbox.cif.g08.bks.cpg/sg2_59_cif.got.tgz:117544.got - 2010.06.03 11:33:40.
