data_PCOD9032245
_publ_section_title
;
Structure prediction by ZEFSAII (Michael W. Deem and Ramdas Pophale) SiO2 
 PCOD9032245
Probable space group: P -1
;
_chemical_formula_sum "Si O2"
_cell_formula_units_Z 13
_cell_length_a 8.412853
_cell_length_b 9.438110
_cell_length_c 14.541840
_cell_angle_alpha 147.264014
_cell_angle_beta 115.254608
_cell_angle_gamma 76.883791
_cell_volume 543.774853
_symmetry_space_group_name_H-M "P -1"
_symmetry_group_IT_number 2
_symmetry_cell_setting 'triclinic'
loop_
_space_group_symop_operation_xyz
x,y,z
-x,-y,-z
loop_
_atom_site_type_symbol
_atom_site_label
_atom_site_fract_x
_atom_site_fract_y
_atom_site_fract_z
Si Si1 0.383031 0.506923 0.384575
Si Si2 0.000000 0.000000 0.000000
Si Si3 0.752709 0.989884 0.397491
Si Si4 0.906089 0.109919 0.828255
Si Si5 0.721916 0.564009 0.003394
Si Si6 0.137104 0.260023 0.546774
Si Si7 0.454239 0.695840 0.859789
O O1 0.500000 0.500000 0.500000
O O2 0.189992 0.273468 0.204325
O O3 0.492995 0.466480 0.299851
O O4 0.368356 0.812554 0.544401
O O5 0.043189 0.910621 0.065270
O O6 0.753332 0.915730 0.464121
O O7 0.711698 0.712541 0.178411
O O8 0.946958 0.168711 0.503140
O O9 0.746787 0.263419 0.860493
O O10 0.871289 0.829069 0.609385
O O11 0.088418 0.283793 0.916434
O O12 0.567281 0.631956 0.938680
O O13 0.237688 0.576940 0.758085
O O14 0.500000 0.000000 0.000000
#
# Coordination Sequence:
#
# PCOD9032245 Si02
#       7
#     2   1   2   2   2   2   2
#     4  12  27  46  69 106 147 193 245 302 370 440
#     4  12  26  42  76 106 146 196 240 306 364 442
#     4  10  24  45  73 105 138 190 244 296 367 432
#     4  10  22  43  70 103 140 191 240 294 367 428
#     4  10  22  43  70 103 143 186 242 298 358 441
#     4  10  24  44  74 103 142 188 236 307 359 442
#     4  12  26  44  69 107 147 190 242 302 368 435
#
# _framework density 23.906949999999998
#
# number of rings (size 3 to 8) (size 9 to 14) (size 15 to 20)
#    0.000    1.231    1.538    2.769    8.615    4.308 
#    0.000    3.846    0.000    0.000    0.000    0.000 
#    0.000    0.000    0.000    0.000    0.000    0.000 
#
# Total GULP energy -72466.750273 kJ/mol
# GULP energy per Si atom -5574.365406 kJ/mol
# Density = 2.385254 g / cm^3
# Si number density = 23.906950 Si / 1000 Ang^3
#
#
#
# Elastic Constant Matrix: (Units=GPa)
#
#
# Indices 1 2 3 4 5 6 
#
# 1 53.7157 21.6058 46.2848 3.7526 10.4617 7.5007
# 2 21.6058 137.8461 36.9729 -30.0044 -8.1479 -1.4199
# 3 46.2848 36.9729 97.1985 -9.7325 32.0770 8.5920
# 4 3.7526 -30.0044 -9.7325 40.7084 3.8307 -1.0418
# 5 10.4617 -8.1479 32.0770 3.8307 46.3803 -0.8453
# 6 7.5007 -1.4199 8.5920 -1.0418 -0.8453 21.5574
#
#
#
# Elastic Compliance Matrix: (Units=1/GPa)
#
#
# Indices 1 2 3 4 5 6 
#
# 1 0.035988 -0.002804 -0.018134 -0.010308 0.004677 -0.005794
# 2 -0.002804 0.010507 -0.003850 0.006739 0.004652 0.003710
# 3 -0.018134 -0.003850 0.026632 0.006548 -0.015634 -0.004855
# 4 -0.010308 0.006739 0.006548 0.032464 -0.003649 0.002846
# 5 0.004677 0.004652 -0.015634 -0.003649 0.032547 0.006010
# 6 -0.005794 0.003710 -0.004855 0.002846 0.006010 0.050956
#
#
# Mechanical properties :
#
#
# Convention : Reuss Voigt Hill
#
# Bulk Modulus (GPa) = 42.45981 55.38748 48.92364
# Shear Modulus (GPa) = 20.28235 33.98899 27.13567
#
# Velocity S-wave (km/s) = 2.91587 3.77466 3.37271
# Velocity P-wave (km/s) = 5.39772 6.49736 5.97290
#
# Compressibility (1/GPa) = 0.02355169
#
# Stress axis : x y z
#
# Youngs Moduli (GPa) = 27.78710 95.17881 37.54830
#
# Poissons Ratio (x) = 0.26684 0.68091
# Poissons Ratio (y) = 0.07790 0.14455
# Poissons Ratio (z) = 0.50390 0.36642
#
# Static dielectric constant tensor:
#      x y z
#    x 1.969670 -0.035690 0.079760 
#    y -0.035690 1.832680 0.004360 
#    z 0.079760 0.004360 1.979740 
# 
# From -- ./inp_files/155794.got.cif
#   From: 2010.05.17/outbox.cif.g08.bks.cpg/sg2_78_cif.got.tgz:155794.got - 2010.06.03 11:33:40.
