data_PCOD9032506
_publ_section_title
;
Structure prediction by ZEFSAII (Michael W. Deem and Ramdas Pophale) SiO2 
 PCOD9032506
Probable space group: P -1
;
_chemical_formula_sum "Si O2"
_cell_formula_units_Z 16
_cell_length_a 11.739782
_cell_length_b 18.515653
_cell_length_c 9.184497
_cell_angle_alpha 43.598979
_cell_angle_beta 71.524881
_cell_angle_gamma 38.376068
_cell_volume 692.652243
_symmetry_space_group_name_H-M "P -1"
_symmetry_group_IT_number 2
_symmetry_cell_setting 'triclinic'
loop_
_space_group_symop_operation_xyz
x,y,z
-x,-y,-z
loop_
_atom_site_type_symbol
_atom_site_label
_atom_site_fract_x
_atom_site_fract_y
_atom_site_fract_z
Si Si1 0.762509 0.457183 0.828026
Si Si2 0.238984 0.313758 0.597483
Si Si3 0.559614 0.024405 0.151130
Si Si4 0.779925 0.885800 0.702480
Si Si5 0.643778 0.216938 0.323321
Si Si6 0.731181 0.378493 0.644460
Si Si7 0.998722 0.984228 0.761283
Si Si8 0.037028 0.190341 0.549524
O O1 0.730363 0.605510 0.625175
O O2 0.592995 0.550921 0.888980
O O3 0.698502 0.463757 0.684661
O O4 0.025026 0.242451 0.067947
O O5 0.000000 0.500000 0.500000
O O6 0.268731 0.189409 0.669961
O O7 0.426744 0.168669 0.858230
O O8 0.382260 0.090301 0.225548
O O9 0.713813 0.995353 0.208590
O O10 0.919034 0.768871 0.667327
O O11 0.645886 0.095254 0.443057
O O12 0.799336 0.165394 0.222476
O O13 0.774550 0.117904 0.569985
O O14 0.500000 0.500000 0.500000
O O15 0.849015 0.359197 0.497835
O O16 0.915514 0.153212 0.943793
O O17 0.971637 0.123585 0.618446
#
# Coordination Sequence:
#
# PCOD9032506 Si02
#       8
#     2   2   2   2   2   2   2   2
#     4  12  24  41  73  93 137 171 225 275 328 395
#     4  11  23  40  66 101 127 173 220 270 329 389
#     4  11  24  43  69  96 139 172 226 272 328 401
#     4  11  23  46  68 102 130 180 226 269 333 398
#     4  10  22  43  71  98 128 175 227 278 320 404
#     4  12  27  42  64 104 137 174 223 275 339 398
#     4  10  23  44  67  96 135 175 223 271 343 386
#     4  11  26  44  68  94 141 178 218 278 336 393
#
# _framework density 23.099616999999999
#
# number of rings (size 3 to 8) (size 9 to 14) (size 15 to 20)
#    0.000    1.000    3.750    2.250    7.000    0.500 
#    0.000    0.625    0.000    0.000    0.000    0.000 
#    0.000    0.000    0.000    0.000    0.000    0.000 
#
# Total GULP energy -89490.104293 kJ/mol
# GULP energy per Si atom -5593.131518 kJ/mol
# Density = 2.304704 g / cm^3
# Si number density = 23.099617 Si / 1000 Ang^3
#
#
#
# Elastic Constant Matrix: (Units=GPa)
#
#
# Indices 1 2 3 4 5 6 
#
# 1 36.5644 2.3644 7.5972 -4.7730 18.2172 -13.4214
# 2 2.3644 128.8810 7.7278 -0.6341 9.8019 -18.1049
# 3 7.5972 7.7278 37.6703 0.6843 1.8243 2.9811
# 4 -4.7730 -0.6341 0.6843 30.0508 2.2271 -0.2235
# 5 18.2172 9.8019 1.8243 2.2271 35.2438 -0.5348
# 6 -13.4214 -18.1049 2.9811 -0.2235 -0.5348 30.7686
#
#
#
# Elastic Compliance Matrix: (Units=1/GPa)
#
#
# Indices 1 2 3 4 5 6 
#
# 1 0.058193 0.006462 -0.014142 0.012257 -0.031462 0.030098
# 2 0.006462 0.009533 -0.003700 0.001805 -0.005782 0.008699
# 3 -0.014142 -0.003700 0.030783 -0.003613 0.006804 -0.011237
# 4 0.012257 0.001805 -0.003613 0.036049 -0.008824 0.006867
# 5 -0.031462 -0.005782 0.006804 -0.008824 0.046191 -0.017046
# 6 0.030098 0.008699 -0.011237 0.006867 -0.017046 0.051591
#
#
# Mechanical properties :
#
#
# Convention : Reuss Voigt Hill
#
# Bulk Modulus (GPa) = 13.20188 26.49939 19.85064
# Shear Modulus (GPa) = 17.83487 31.57442 24.70465
#
# Velocity S-wave (km/s) = 2.78166 3.70115 3.27384
# Velocity P-wave (km/s) = 4.00555 5.45539 4.78569
#
# Compressibility (1/GPa) = 0.07574676
#
# Stress axis : x y z
#
# Youngs Moduli (GPa) = 17.18431 104.89834 32.48581
#
# Poissons Ratio (x) = -0.67782 0.45943
# Poissons Ratio (y) = -0.11104 0.12020
# Poissons Ratio (z) = 0.24303 0.38812
#
# Static dielectric constant tensor:
#      x y z
#    x 1.885060 -0.066400 -0.003330 
#    y -0.066400 2.012810 0.025440 
#    z -0.003330 0.025440 1.873380 
# 
# From -- ./inp_files/139148.got.cif
#   From: 2010.05.17/outbox.cif.g08.bks.cpg/sg2_70_cif.got.tgz:139148.got - 2010.06.03 11:33:40.
