data_PCOD9032706
_publ_section_title
;
Structure prediction by ZEFSAII (Michael W. Deem and Ramdas Pophale) SiO2 
 PCOD9032706
Probable space group: P -1
;
_chemical_formula_sum "Si O2"
_cell_formula_units_Z 16
_cell_length_a 12.598702
_cell_length_b 9.631029
_cell_length_c 9.854954
_cell_angle_alpha 117.794303
_cell_angle_beta 122.421165
_cell_angle_gamma 35.372531
_cell_volume 583.291621
_symmetry_space_group_name_H-M "P -1"
_symmetry_group_IT_number 2
_symmetry_cell_setting 'triclinic'
loop_
_space_group_symop_operation_xyz
x,y,z
-x,-y,-z
loop_
_atom_site_type_symbol
_atom_site_label
_atom_site_fract_x
_atom_site_fract_y
_atom_site_fract_z
Si Si1 0.884927 0.906729 0.164014
Si Si2 0.765561 0.511910 0.502818
Si Si3 0.096198 0.325023 0.182891
Si Si4 0.738859 0.276811 0.572240
Si Si5 0.273073 0.364168 0.758138
Si Si6 0.583328 0.041910 0.188731
Si Si7 0.478030 0.406973 0.104582
Si Si8 0.671078 0.126125 0.671717
O O1 0.115501 0.236331 0.007186
O O2 0.091363 0.791602 0.259104
O O3 0.792630 0.918388 0.241684
O O4 0.707669 0.191151 0.133955
O O5 0.828824 0.571746 0.690252
O O6 0.792934 0.306694 0.478368
O O7 0.831027 0.502754 0.394424
O O8 0.537848 0.746256 0.436347
O O9 0.209661 0.100496 0.257254
O O10 0.880609 0.517222 0.175331
O O11 0.500000 0.500000 0.500000
O O12 0.762950 0.084321 0.570866
O O13 0.401124 0.084104 0.726906
O O14 0.392659 0.398420 0.912011
O O15 0.500000 0.000000 0.000000
O O16 0.458502 0.313438 0.184528
O O17 0.627281 0.333965 0.811212
#
# Coordination Sequence:
#
# PCOD9032706 Si02
#       8
#     2   2   2   2   2   2   2   2
#     4  10  22  43  73 109 136 189 238 292 357 420
#     4  11  26  46  67  99 146 194 234 290 362 430
#     4  12  26  42  74 108 142 182 241 304 355 423
#     4  10  24  48  70 103 145 185 237 292 363 423
#     4  11  22  44  71 105 143 185 236 295 364 418
#     4   8  19  40  69 110 136 184 234 293 350 421
#     4   9  22  43  73 100 139 184 235 291 346 432
#     4  11  25  48  68 105 141 190 237 299 360 417
#
# _framework density 27.430534999999999
#
# number of rings (size 3 to 8) (size 9 to 14) (size 15 to 20)
#    0.750    1.000    0.000    3.000    0.000    9.000 
#    6.750    3.125    0.000    0.000    0.000    0.000 
#    0.000    0.000    0.000    0.000    0.000    0.000 
#
# Total GULP energy -89364.347952 kJ/mol
# GULP energy per Si atom -5585.271747 kJ/mol
# Density = 2.736810 g / cm^3
# Si number density = 27.430535 Si / 1000 Ang^3
#
#
#
# Elastic Constant Matrix: (Units=GPa)
#
#
# Indices 1 2 3 4 5 6 
#
# 1 115.0594 26.0112 17.8075 4.1311 7.6460 5.4332
# 2 26.0112 102.4616 16.7781 -3.0624 6.1725 13.5185
# 3 17.8075 16.7781 80.3883 15.4036 15.4237 3.6064
# 4 4.1311 -3.0624 15.4036 60.0453 6.5853 -5.5244
# 5 7.6460 6.1725 15.4237 6.5853 71.3641 -10.0705
# 6 5.4332 13.5185 3.6064 -5.5244 -10.0705 38.1660
#
#
#
# Elastic Compliance Matrix: (Units=1/GPa)
#
#
# Indices 1 2 3 4 5 6 
#
# 1 0.009465 -0.002050 -0.001452 -0.000383 -0.000586 -0.000694
# 2 -0.002050 0.011120 -0.001694 0.000917 -0.000970 -0.003610
# 3 -0.001452 -0.001694 0.014399 -0.003545 -0.002735 -0.001789
# 4 -0.000383 0.000917 -0.003545 0.017930 -0.000573 0.002509
# 5 -0.000586 -0.000970 -0.002735 -0.000573 0.015464 0.004683
# 6 -0.000694 -0.003610 -0.001789 0.002509 0.004683 0.029347
#
#
# Mechanical properties :
#
#
# Convention : Reuss Voigt Hill
#
# Bulk Modulus (GPa) = 40.66437 46.56698 43.61567
# Shear Modulus (GPa) = 42.98721 49.73591 46.36156
#
# Velocity S-wave (km/s) = 3.96299 4.26274 4.11560
# Velocity P-wave (km/s) = 5.98307 6.42192 6.20638
#
# Compressibility (1/GPa) = 0.02459155
#
# Stress axis : x y z
#
# Youngs Moduli (GPa) = 105.65626 89.93079 69.44817
#
# Poissons Ratio (x) = 0.18432 0.10084
# Poissons Ratio (y) = 0.21655 0.11768
# Poissons Ratio (z) = 0.15341 0.15239
#
# Static dielectric constant tensor:
#      x y z
#    x 2.148160 -0.048400 -0.084350 
#    y -0.048400 2.293070 0.044730 
#    z -0.084350 0.044730 2.170570 
# 
# From -- ./inp_files/302353.got.cif
#   From: 2010.05.17/outbox.cif.g08.bks.cpg/sg2_152_cif.got.tgz:302353.got - 2010.06.03 11:33:40.
