data_PCOD9032559
_publ_section_title
;
Structure prediction by ZEFSAII (Michael W. Deem and Ramdas Pophale) SiO2 
 PCOD9032559
Probable space group: P -1
;
_chemical_formula_sum "Si O2"
_cell_formula_units_Z 14
_cell_length_a 11.687688
_cell_length_b 11.316992
_cell_length_c 11.723207
_cell_angle_alpha 125.057300
_cell_angle_beta 63.941101
_cell_angle_gamma 154.222295
_cell_volume 538.603336
_symmetry_space_group_name_H-M "P -1"
_symmetry_group_IT_number 2
_symmetry_cell_setting 'triclinic'
loop_
_space_group_symop_operation_xyz
x,y,z
-x,-y,-z
loop_
_atom_site_type_symbol
_atom_site_label
_atom_site_fract_x
_atom_site_fract_y
_atom_site_fract_z
Si Si1 0.001233 0.253402 0.760358
Si Si2 0.090587 0.000722 0.134995
Si Si3 0.496043 0.221623 0.590084
Si Si4 0.023355 0.218038 0.184338
Si Si5 0.525595 0.089383 0.165559
Si Si6 0.376695 0.379701 0.612812
Si Si7 0.274620 0.805047 0.644591
O O1 0.183176 0.545275 0.771380
O O2 0.109707 0.208964 0.642707
O O3 0.057717 0.273526 0.880871
O O4 0.705777 0.025871 0.769908
O O5 0.380342 0.313552 0.242985
O O6 0.097582 0.955211 0.977210
O O7 0.945927 0.014271 0.197273
O O8 0.336610 0.176972 0.560995
O O9 0.697498 0.335463 0.480008
O O10 0.656988 0.462249 0.755018
O O11 0.326710 0.935468 0.573282
O O12 0.960992 0.325386 0.282256
O O13 0.527038 0.986725 0.217409
O O14 0.500000 0.000000 0.000000
O O15 0.500000 0.500000 0.500000
#
# Coordination Sequence:
#
# PCOD9032559 Si02
#       7
#     2   2   2   2   2   2   2
#     4  12  25  48  71 110 146 193 249 301 374 437
#     4  10  23  43  72 112 138 191 248 308 378 435
#     4  10  24  43  69 104 141 197 242 304 370 437
#     4  10  22  43  72 102 144 186 243 311 364 449
#     4  12  28  46  75 109 152 199 245 304 373 444
#     4  11  24  47  74 110 148 195 249 314 368 446
#     4  11  24  44  65 103 144 195 249 298 369 447
#
# _framework density 25.993154000000001
#
# number of rings (size 3 to 8) (size 9 to 14) (size 15 to 20)
#    0.000    1.143    1.429    3.429    4.000    0.571 
#   10.286    4.286    0.000    0.000    0.000    0.000 
#    0.000    0.000    0.000    0.000    0.000    0.000 
#
# Total GULP energy -78052.810670 kJ/mol
# GULP energy per Si atom -5575.200762 kJ/mol
# Density = 2.593399 g / cm^3
# Si number density = 25.993154 Si / 1000 Ang^3
#
#
#
# Elastic Constant Matrix: (Units=GPa)
#
#
# Indices 1 2 3 4 5 6 
#
# 1 161.9303 33.2618 26.1246 -20.5476 9.5218 15.5303
# 2 33.2618 65.2305 17.5399 -25.1227 -3.1323 16.4726
# 3 26.1246 17.5399 132.6590 -0.6788 13.7663 22.8779
# 4 -20.5476 -25.1227 -0.6788 26.8642 -8.3322 1.2204
# 5 9.5218 -3.1323 13.7663 -8.3322 34.1457 -5.0979
# 6 15.5303 16.4726 22.8779 1.2204 -5.0979 42.3297
#
#
#
# Elastic Compliance Matrix: (Units=1/GPa)
#
#
# Indices 1 2 3 4 5 6 
#
# 1 0.007376 -0.001719 -0.000745 0.003700 -0.001295 -0.001897
# 2 -0.001719 0.033164 -0.003344 0.033664 0.011585 -0.010043
# 3 -0.000745 -0.003344 0.009393 -0.005051 -0.005722 -0.004045
# 4 0.003700 0.033664 -0.005051 0.078618 0.021575 -0.011396
# 5 -0.001295 0.011585 -0.005722 0.021575 0.038745 0.003103
# 6 -0.001897 -0.010043 -0.004045 -0.011396 0.003103 0.031117
#
#
# Mechanical properties :
#
#
# Convention : Reuss Voigt Hill
#
# Bulk Modulus (GPa) = 26.09850 57.07470 41.58660
# Shear Modulus (GPa) = 22.44156 39.52749 30.98452
#
# Velocity S-wave (km/s) = 2.94149 3.90383 3.45632
# Velocity P-wave (km/s) = 4.64745 6.50578 5.65349
#
# Compressibility (1/GPa) = 0.03831638
#
# Stress axis : x y z
#
# Youngs Moduli (GPa) = 135.56772 30.15354 106.46713
#
# Poissons Ratio (x) = 0.05183 0.07930
# Poissons Ratio (y) = 0.23303 0.35606
# Poissons Ratio (z) = 0.10098 0.10084
#
# Static dielectric constant tensor:
#      x y z
#    x 2.089280 -0.076330 -0.058150 
#    y -0.076330 2.163060 0.060250 
#    z -0.058150 0.060250 2.106430 
# 
# From -- ./inp_files/426491.got.cif
#   From: 2010.05.17/outbox.cif.g08.bks.cpg/sg2_214_cif.got.tgz:426491.got - 2010.06.03 11:33:40.
