data_PCOD9032942
_publ_section_title
;
Structure prediction by ZEFSAII (Michael W. Deem and Ramdas Pophale) SiO2 
 PCOD9032942
Probable space group: P -1
;
_chemical_formula_sum "Si O2"
_cell_formula_units_Z 16
_cell_length_a 17.014555
_cell_length_b 11.967640
_cell_length_c 5.375291
_cell_angle_alpha 75.426470
_cell_angle_beta 127.985419
_cell_angle_gamma 124.679281
_cell_volume 701.173698
_symmetry_space_group_name_H-M "P -1"
_symmetry_group_IT_number 2
_symmetry_cell_setting 'triclinic'
loop_
_space_group_symop_operation_xyz
x,y,z
-x,-y,-z
loop_
_atom_site_type_symbol
_atom_site_label
_atom_site_fract_x
_atom_site_fract_y
_atom_site_fract_z
Si Si1 0.428867 0.870074 0.753002
Si Si2 0.353282 0.032275 0.223094
Si Si3 0.091067 0.090437 0.917118
Si Si4 0.637548 0.729744 0.635461
Si Si5 0.023938 0.442190 0.327870
Si Si6 0.411171 0.516066 0.584328
Si Si7 0.100306 0.874662 0.721120
Si Si8 0.697613 0.438994 0.157983
O O1 0.527157 0.881753 0.749925
O O2 0.360265 0.725295 0.839403
O O3 0.346456 0.902250 0.408987
O O4 0.500000 0.000000 0.000000
O O5 0.361947 0.132402 0.404821
O O6 0.238210 0.971964 0.852383
O O7 0.015629 0.146300 0.622961
O O8 0.106375 0.973560 0.893316
O O9 0.224522 0.217283 0.122455
O O10 0.000000 0.000000 0.000000
O O11 0.548367 0.635022 0.733827
O O12 0.593481 0.626126 0.375977
O O13 0.933730 0.278143 0.223135
O O14 0.000000 0.500000 0.500000
O O15 0.160396 0.484573 0.585520
O O16 0.000000 0.500000 0.000000
O O17 0.350996 0.523691 0.713505
O O18 0.344320 0.530274 0.202502
#
# Coordination Sequence:
#
# PCOD9032942 Si02
#       8
#     2   2   2   2   2   2   2   2
#     4  11  24  39  69  95 132 182 223 287 340 403
#     4  10  22  44  63  97 135 171 234 277 345 407
#     4  10  23  42  69  97 132 180 229 287 348 410
#     4  10  22  44  66 100 137 174 234 279 353 407
#     4  12  28  46  72 102 140 188 232 285 343 415
#     4  11  25  45  71 102 135 183 218 296 341 416
#     4  10  24  43  66  97 133 179 229 285 342 409
#     4  12  26  46  72 100 140 177 236 276 351 406
#
# _framework density 22.818883
#
# number of rings (size 3 to 8) (size 9 to 14) (size 15 to 20)
#    0.000    1.250    1.250    3.000    7.000    5.000 
#    4.500    0.000    0.000    0.000    0.000    0.000 
#    0.000    0.000    0.000    0.000    0.000    0.000 
#
# Total GULP energy -89206.392666 kJ/mol
# GULP energy per Si atom -5575.399542 kJ/mol
# Density = 2.276695 g / cm^3
# Si number density = 22.818883 Si / 1000 Ang^3
#
#
#
# Elastic Constant Matrix: (Units=GPa)
#
#
# Indices 1 2 3 4 5 6 
#
# 1 135.9954 43.6135 49.9392 19.0950 4.1986 3.7763
# 2 43.6135 144.2929 29.8060 20.7010 3.3464 -14.2696
# 3 49.9392 29.8060 101.1318 -7.9252 15.0862 21.3605
# 4 19.0950 20.7010 -7.9252 38.5111 0.8637 6.4667
# 5 4.1986 3.3464 15.0862 0.8637 45.4428 11.9967
# 6 3.7763 -14.2696 21.3605 6.4667 11.9967 35.5769
#
#
#
# Elastic Compliance Matrix: (Units=1/GPa)
#
#
# Indices 1 2 3 4 5 6 
#
# 1 0.010821 -0.000532 -0.006590 -0.007075 0.000370 0.003756
# 2 -0.000532 0.010158 -0.005047 -0.007716 -0.001249 0.008985
# 3 -0.006590 -0.005047 0.018876 0.012307 -0.001743 -0.014308
# 4 -0.007075 -0.007716 0.012307 0.039011 0.000918 -0.017133
# 5 0.000370 -0.001249 -0.001743 0.000918 0.024737 -0.008002
# 6 0.003756 0.008985 -0.014308 -0.017133 -0.008002 0.045716
#
#
# Mechanical properties :
#
#
# Convention : Reuss Voigt Hill
#
# Bulk Modulus (GPa) = 64.44275 69.79306 67.11790
# Shear Modulus (GPa) = 27.95950 41.11026 34.53488
#
# Velocity S-wave (km/s) = 3.50420 4.24912 3.89451
# Velocity P-wave (km/s) = 6.68392 7.39766 7.04983
#
# Compressibility (1/GPa) = 0.01551765
#
# Stress axis : x y z
#
# Youngs Moduli (GPa) = 92.41135 98.44251 52.97721
#
# Poissons Ratio (x) = 0.05235 0.34910
# Poissons Ratio (y) = 0.04914 0.26740
# Poissons Ratio (z) = 0.60896 0.49688
#
# Static dielectric constant tensor:
#      x y z
#    x 1.701920 -0.044990 -0.141780 
#    y -0.044990 1.798700 -0.037950 
#    z -0.141780 -0.037950 1.821240 
# 
# From -- ./inp_files/109648.got.cif
#   From: 2010.05.17/outbox.cif.g08.bks.cpg/sg2_55_cif.got.tgz:109648.got - 2010.06.03 11:33:40.
