data_PCOD9032076
_publ_section_title
;
Structure prediction by ZEFSAII (Michael W. Deem and Ramdas Pophale) SiO2 
 PCOD9032076
Probable space group: P -1
;
_chemical_formula_sum "Si O2"
_cell_formula_units_Z 16
_cell_length_a 24.424136
_cell_length_b 8.436232
_cell_length_c 10.053078
_cell_angle_alpha 132.037836
_cell_angle_beta 142.492968
_cell_angle_gamma 34.850009
_cell_volume 719.654161
_symmetry_space_group_name_H-M "P -1"
_symmetry_group_IT_number 2
_symmetry_cell_setting 'triclinic'
loop_
_space_group_symop_operation_xyz
x,y,z
-x,-y,-z
loop_
_atom_site_type_symbol
_atom_site_label
_atom_site_fract_x
_atom_site_fract_y
_atom_site_fract_z
Si Si1 0.775890 0.492324 0.040730
Si Si2 0.030112 0.291006 0.750532
Si Si3 0.626724 0.326820 0.581804
Si Si4 0.227249 0.305594 0.559477
Si Si5 0.264600 0.631429 0.607751
Si Si6 0.732201 0.929085 0.005320
Si Si7 0.980746 0.009008 0.697750
Si Si8 0.477036 0.279620 0.642083
O O1 0.758762 0.642548 0.231787
O O2 0.915394 0.241777 0.154464
O O3 0.728114 0.715210 0.957159
O O4 0.708864 0.369080 0.841885
O O5 0.903453 0.589520 0.656838
O O6 0.031243 0.129500 0.533026
O O7 0.149617 0.241664 0.949312
O O8 0.024524 0.161148 0.800713
O O9 0.500000 0.500000 0.500000
O O10 0.601990 0.472194 0.473615
O O11 0.683451 0.009666 0.492890
O O12 0.240407 0.502707 0.609189
O O13 0.256738 0.892137 0.771582
O O14 0.396693 0.397723 0.684043
O O15 0.149813 0.766850 0.369912
O O16 0.608836 0.167672 0.833094
O O17 0.500000 0.000000 0.500000
#
# Coordination Sequence:
#
# PCOD9032076 Si02
#       8
#     2   2   2   2   2   2   2   2
#     4  11  23  42  67 100 129 169 216 266 328 373
#     4   8  17  37  65  94 126 166 210 261 321 379
#     4  12  28  45  65  96 131 171 220 269 316 385
#     4  10  23  45  70  97 130 168 218 268 317 384
#     4  10  22  43  69  95 126 173 215 260 324 387
#     4  11  22  39  66  96 126 173 213 261 326 381
#     4   8  17  37  65  95 125 163 214 263 313 382
#     4  12  25  45  59  90 138 168 213 267 321 386
#
# _framework density 22.232900000000001
#
# number of rings (size 3 to 8) (size 9 to 14) (size 15 to 20)
#    0.000    1.750    1.250    4.125    3.500    6.000 
#    2.250    2.500    0.000    0.000    0.000    0.000 
#    0.000    0.000    0.000    0.000    0.000    0.000 
#
# Total GULP energy -89311.217358 kJ/mol
# GULP energy per Si atom -5581.951085 kJ/mol
# Density = 2.218230 g / cm^3
# Si number density = 22.232900 Si / 1000 Ang^3
#
#
#
# Elastic Constant Matrix: (Units=GPa)
#
#
# Indices 1 2 3 4 5 6 
#
# 1 24.2596 -34.0709 14.2459 -15.1670 6.9289 17.5879
# 2 -34.0709 -114.7159 32.2851 -64.6336 -54.0509 126.2158
# 3 14.2459 32.2851 84.9674 -12.9711 20.6594 -14.9886
# 4 -15.1670 -64.6336 -12.9711 22.8868 -14.5609 40.2634
# 5 6.9289 -54.0509 20.6594 -14.5609 11.1781 23.4842
# 6 17.5879 126.2158 -14.9886 40.2634 23.4842 -47.6537
#
#
#
# Elastic Compliance Matrix: (Units=1/GPa)
#
#
# Indices 1 2 3 4 5 6 
#
# 1 0.052209 -0.002814 0.002232 0.006861 -0.037677 -0.001657
# 2 -0.002814 0.005509 -0.000800 -0.004580 0.001486 0.010666
# 3 0.002232 -0.000800 0.015079 0.008511 -0.012015 -0.004769
# 4 0.006861 -0.004580 0.008511 0.026133 -0.014094 0.002859
# 5 -0.037677 0.001486 -0.012015 -0.014094 0.079531 0.021095
# 6 -0.001657 0.010666 -0.004769 0.002859 0.021095 0.020964
#
#
# Mechanical properties :
#
#
# Convention : Reuss Voigt Hill
#
# Bulk Modulus (GPa) = 14.27929 2.15903 8.21916
# Shear Modulus (GPa) = 22.16969 -3.91437 9.12766
#
# Velocity S-wave (km/s) = 3.16121 -1.32832 2.02840
# Velocity P-wave (km/s) = 4.44532 1.17447 3.03162
#
# Compressibility (1/GPa) = 0.07003147
#
# Stress axis : x y z
#
# Youngs Moduli (GPa) = 19.15362 181.53587 66.31944
#
# Poissons Ratio (x) = 0.51084 -0.14801
# Poissons Ratio (y) = 0.05390 0.05308
# Poissons Ratio (z) = -0.04275 0.14528
#
# Static dielectric constant tensor:
#      x y z
#    x 1.914800 -0.095390 0.122390 
#    y -0.095390 1.863100 -0.182450 
#    z 0.122390 -0.182450 2.276050 
# 
# From -- ./inp_files/476415.got.cif
#   From: 2010.05.17/outbox.cif.g08.bks.cpg/sg2_239_cif.got.tgz:476415.got - 2010.06.03 11:33:40.
