data_PCOD9032271
_publ_section_title
;
Structure prediction by ZEFSAII (Michael W. Deem and Ramdas Pophale) SiO2 
 PCOD9032271
Probable space group: P -1
;
_chemical_formula_sum "Si O2"
_cell_formula_units_Z 16
_cell_length_a 9.168190
_cell_length_b 9.296721
_cell_length_c 15.637634
_cell_angle_alpha 142.555034
_cell_angle_beta 95.792496
_cell_angle_gamma 67.651095
_cell_volume 700.008275
_symmetry_space_group_name_H-M "P -1"
_symmetry_group_IT_number 2
_symmetry_cell_setting 'triclinic'
loop_
_space_group_symop_operation_xyz
x,y,z
-x,-y,-z
loop_
_atom_site_type_symbol
_atom_site_label
_atom_site_fract_x
_atom_site_fract_y
_atom_site_fract_z
Si Si1 0.645732 0.344217 0.865744
Si Si2 0.324381 0.502715 0.473539
Si Si3 0.230865 0.111766 0.207092
Si Si4 0.816414 0.066567 0.053969
Si Si5 0.631428 0.092164 0.574811
Si Si6 0.092716 0.462837 0.078091
Si Si7 0.167647 0.489464 0.635754
Si Si8 0.123270 0.986439 0.576180
O O1 0.751849 0.487405 0.911039
O O2 0.758126 0.069647 0.796550
O O3 0.585042 0.275524 0.741655
O O4 0.500000 0.500000 0.000000
O O5 0.500000 0.500000 0.500000
O O6 0.338642 0.263121 0.299298
O O7 0.257673 0.444970 0.530035
O O8 0.166972 0.788578 0.566539
O O9 0.033191 0.329175 0.291791
O O10 0.279548 0.947364 0.042786
O O11 0.753685 0.358392 0.231616
O O12 0.845025 0.828528 0.010173
O O13 0.000000 0.000000 0.000000
O O14 0.794971 0.801943 0.467826
O O15 0.691032 0.174847 0.532788
O O16 0.500000 0.000000 0.500000
O O17 0.960202 0.706494 0.247278
O O18 0.000000 0.500000 0.000000
O O19 0.000000 0.000000 0.500000
#
# Coordination Sequence:
#
# PCOD9032271 Si02
#       8
#     2   2   2   2   2   2   2   2
#     4  12  29  48  69 105 152 194 235 295 377 436
#     4  12  25  42  66 104 145 182 234 297 365 427
#     4  11  24  45  73 100 139 192 241 290 355 436
#     4  10  22  43  70 107 137 175 236 303 356 415
#     4  12  27  46  73 105 146 190 237 304 373 429
#     4  12  25  45  75 109 143 189 243 301 361 434
#     4  11  23  46  74  99 134 187 243 288 354 433
#     4  12  24  44  74 106 140 183 252 307 351 431
#
# _framework density 22.856874000000001
#
# number of rings (size 3 to 8) (size 9 to 14) (size 15 to 20)
#    0.000    0.500    2.500    7.125    3.500    1.000 
#    0.000    1.250    0.000    0.000    0.000    0.000 
#    0.000    0.000    0.000    0.000    0.000    0.000 
#
# Total GULP energy -89420.135510 kJ/mol
# GULP energy per Si atom -5588.758469 kJ/mol
# Density = 2.280485 g / cm^3
# Si number density = 22.856874 Si / 1000 Ang^3
#
#
#
# Elastic Constant Matrix: (Units=GPa)
#
#
# Indices 1 2 3 4 5 6 
#
# 1 117.4694 22.6855 39.7540 -15.6253 24.7489 5.3246
# 2 22.6855 70.3949 14.0699 -2.0977 15.4939 10.2151
# 3 39.7540 14.0699 154.6694 -33.7133 18.0659 0.4361
# 4 -15.6253 -2.0977 -33.7133 45.7013 -3.6046 4.2966
# 5 24.7489 15.4939 18.0659 -3.6046 45.2435 -1.0782
# 6 5.3246 10.2151 0.4361 4.2966 -1.0782 35.2487
#
#
#
# Elastic Compliance Matrix: (Units=1/GPa)
#
#
# Indices 1 2 3 4 5 6 
#
# 1 0.010704 -0.001880 -0.001579 0.002195 -0.004441 -0.001456
# 2 -0.001880 0.016588 -0.000520 -0.000190 -0.004570 -0.004633
# 3 -0.001579 -0.000520 0.008331 0.005476 -0.001859 -0.000438
# 4 0.002195 -0.000190 0.005476 0.026907 -0.001266 -0.003663
# 5 -0.004441 -0.004570 -0.001859 -0.001266 0.026810 0.002993
# 6 -0.001456 -0.004633 -0.000438 -0.003663 0.002993 0.030476
#
#
# Mechanical properties :
#
#
# Convention : Reuss Voigt Hill
#
# Bulk Modulus (GPa) = 36.14753 55.06139 45.60446
# Shear Modulus (GPa) = 36.49781 42.97364 39.73572
#
# Velocity S-wave (km/s) = 4.00033 4.34074 4.17401
# Velocity P-wave (km/s) = 6.09803 7.01888 6.57459
#
# Compressibility (1/GPa) = 0.02766441
#
# Stress axis : x y z
#
# Youngs Moduli (GPa) = 93.42495 60.28469 120.04032
#
# Poissons Ratio (x) = 0.11332 0.18952
# Poissons Ratio (y) = 0.17561 0.06246
# Poissons Ratio (z) = 0.14750 0.03137
#
# Static dielectric constant tensor:
#      x y z
#    x 1.057070 0.400910 0.074800 
#    y 0.400910 1.653070 0.047680 
#    z 0.074800 0.047680 1.947130 
# 
# From -- ./inp_files/495876.got.cif
#   From: 2010.05.17/outbox.cif.g08.bks.cpg/sg2_248_cif.got.tgz:495876.got - 2010.06.03 11:33:40.
