data_PCOD9032301
_publ_section_title
;
Structure prediction by ZEFSAII (Michael W. Deem and Ramdas Pophale) SiO2 
 PCOD9032301
Probable space group: P -1
;
_chemical_formula_sum "Si O2"
_cell_formula_units_Z 16
_cell_length_a 18.314646
_cell_length_b 14.841903
_cell_length_c 16.530435
_cell_angle_alpha 145.627673
_cell_angle_beta 22.527789
_cell_angle_gamma 156.299773
_cell_volume 685.879738
_symmetry_space_group_name_H-M "P -1"
_symmetry_group_IT_number 2
_symmetry_cell_setting 'triclinic'
loop_
_space_group_symop_operation_xyz
x,y,z
-x,-y,-z
loop_
_atom_site_type_symbol
_atom_site_label
_atom_site_fract_x
_atom_site_fract_y
_atom_site_fract_z
Si Si1 0.839956 0.451234 0.412576
Si Si2 0.248262 0.213733 0.851791
Si Si3 0.534722 0.349114 0.313470
Si Si4 0.075085 0.314402 0.968009
Si Si5 0.277727 0.894399 0.217729
Si Si6 0.691373 0.511680 0.871302
Si Si7 0.627517 0.132707 0.173614
Si Si8 0.183427 0.765710 0.449769
O O1 0.521156 0.273862 0.616605
O O2 0.934019 0.336324 0.198327
O O3 0.980998 0.646249 0.342879
O O4 0.973515 0.590032 0.462963
O O5 0.334999 0.428971 0.969297
O O6 0.156016 0.202877 0.847893
O O7 0.000000 0.000000 0.000000
O O8 0.500000 0.500000 0.500000
O O9 0.696779 0.331321 0.198238
O O10 0.269767 0.080936 0.377178
O O11 0.671800 0.450863 0.161095
O O12 0.870801 0.188905 0.008572
O O13 0.449815 0.923592 0.138344
O O14 0.500000 0.000000 0.000000
O O15 0.647550 0.295578 0.750908
O O16 0.999368 0.708758 0.670203
O O17 0.500000 0.500000 0.000000
O O18 0.395992 0.024763 0.397032
#
# Coordination Sequence:
#
# PCOD9032301 Si02
#       8
#     2   2   2   2   2   2   2   2
#     4  11  22  46  70  97 137 185 234 291 346 418
#     4  12  30  43  66 103 139 183 237 294 353 416
#     4  10  23  42  71 108 139 178 229 290 355 427
#     4  12  25  45  69  98 146 182 233 284 359 427
#     4   9  19  43  75 100 137 183 233 283 349 424
#     4  11  23  42  66  96 136 176 240 292 343 415
#     4   9  23  41  71  97 139 182 221 286 355 423
#     4  10  22  43  70  95 131 184 235 290 353 411
#
# _framework density 23.327704000000001
#
# number of rings (size 3 to 8) (size 9 to 14) (size 15 to 20)
#    0.750    0.750    3.750    0.375    5.250    0.500 
#    2.250    0.625    0.000    0.000    0.000    0.000 
#    0.000    0.000    0.000    0.000    0.000    0.000 
#
# Total GULP energy -89181.612733 kJ/mol
# GULP energy per Si atom -5573.850796 kJ/mol
# Density = 2.327461 g / cm^3
# Si number density = 23.327704 Si / 1000 Ang^3
#
#
#
# Elastic Constant Matrix: (Units=GPa)
#
#
# Indices 1 2 3 4 5 6 
#
# 1 96.1429 5.6727 24.1246 -0.8440 -17.4501 -17.9667
# 2 5.6727 55.5802 26.9053 -10.1079 -9.3723 -20.5679
# 3 24.1246 26.9053 103.8280 4.4069 -2.2915 -8.0405
# 4 -0.8440 -10.1079 4.4069 33.3974 4.1761 10.0217
# 5 -17.4501 -9.3723 -2.2915 4.1761 40.3316 4.2181
# 6 -17.9667 -20.5679 -8.0405 10.0217 4.2181 37.9440
#
#
#
# Elastic Compliance Matrix: (Units=1/GPa)
#
#
# Indices 1 2 3 4 5 6 
#
# 1 0.013438 0.003760 -0.003360 -0.001001 0.005837 0.007305
# 2 0.003760 0.027887 -0.007126 0.004698 0.005804 0.013501
# 3 -0.003360 -0.007126 0.012203 -0.003059 -0.001906 -0.001848
# 4 -0.001001 0.004698 -0.003059 0.034239 -0.002290 -0.007364
# 5 0.005837 0.005804 -0.001906 -0.002290 0.028489 0.002944
# 6 0.007305 0.013501 -0.001848 -0.007364 0.002944 0.038358
#
#
# Mechanical properties :
#
#
# Convention : Reuss Voigt Hill
#
# Bulk Modulus (GPa) = 24.95171 40.99513 32.97342
# Shear Modulus (GPa) = 27.55966 35.59118 31.57542
#
# Velocity S-wave (km/s) = 3.44090 3.91026 3.68307
# Velocity P-wave (km/s) = 5.14837 6.16430 5.67910
#
# Compressibility (1/GPa) = 0.04007742
#
# Stress axis : x y z
#
# Youngs Moduli (GPa) = 74.41557 35.85892 81.94559
#
# Poissons Ratio (x) = -0.13484 0.27532
# Poissons Ratio (y) = -0.27983 0.58394
# Poissons Ratio (z) = 0.25002 0.25553
#
# Static dielectric constant tensor:
#      x y z
#    x 2.000800 -0.002860 0.052850 
#    y -0.002860 1.962190 -0.019540 
#    z 0.052850 -0.019540 1.906830 
# 
# From -- ./inp_files/576115.got.cif
#   From: 2010.05.17/outbox.cif.g08.bks.cpg/sg2_289_cif.got.tgz:576115.got - 2010.06.03 11:33:40.
