data_PCOD9032262
_publ_section_title
;
Structure prediction by ZEFSAII (Michael W. Deem and Ramdas Pophale) SiO2 
 PCOD9032262
Probable space group: P -1
;
_chemical_formula_sum "Si O2"
_cell_formula_units_Z 14
_cell_length_a 10.051841
_cell_length_b 12.017887
_cell_length_c 4.932948
_cell_angle_alpha 90.043568
_cell_angle_beta 108.732842
_cell_angle_gamma 101.326599
_cell_volume 552.041479
_symmetry_space_group_name_H-M "P -1"
_symmetry_group_IT_number 2
_symmetry_cell_setting 'triclinic'
loop_
_space_group_symop_operation_xyz
x,y,z
-x,-y,-z
loop_
_atom_site_type_symbol
_atom_site_label
_atom_site_fract_x
_atom_site_fract_y
_atom_site_fract_z
Si Si1 0.026061 0.837073 0.948043
Si Si2 0.435854 0.555669 0.212452
Si Si3 0.648090 0.095029 0.116722
Si Si4 0.537251 0.193785 0.547316
Si Si5 0.137337 0.501112 0.274701
Si Si6 0.029537 0.689514 0.478554
Si Si7 0.218195 0.046547 0.382191
O O1 0.098464 0.773866 0.762938
O O2 0.888099 0.864770 0.699108
O O3 0.990070 0.755523 0.187981
O O4 0.127572 0.950828 0.125787
O O5 0.500000 0.500000 0.500000
O O6 0.474173 0.689747 0.308413
O O7 0.266572 0.513700 0.151035
O O8 0.500000 0.500000 0.000000
O O9 0.754428 0.021865 0.329322
O O10 0.643156 0.142042 0.810347
O O11 0.500000 0.000000 0.000000
O O12 0.610197 0.188641 0.302889
O O13 0.377178 0.115953 0.413854
O O14 0.139845 0.612120 0.458712
O O15 0.000000 0.500000 0.000000
O O16 0.103079 0.393867 0.455358
#
# Coordination Sequence:
#
# PCOD9032262 Si02
#       7
#     2   2   2   2   2   2   2
#     4  11  26  43  73 116 154 206 256 327 390 472
#     4  12  31  51  78 121 159 199 267 334 404 472
#     4  10  22  43  70 105 142 200 257 303 377 476
#     4  11  25  47  74 107 151 207 252 324 398 468
#     4  11  27  51  83 115 154 215 269 326 393 482
#     4  11  26  47  76 114 157 204 270 318 391 477
#     4  10  25  45  72 109 158 199 256 322 401 464
#
# _framework density 25.360412
#
# number of rings (size 3 to 8) (size 9 to 14) (size 15 to 20)
#    0.000    1.143    1.429    2.571    8.000   10.286 
#    0.000    0.000    0.000    0.000    0.000    0.000 
#    0.000    0.000    0.000    0.000    0.000    0.000 
#
# Total GULP energy -78276.589236 kJ/mol
# GULP energy per Si atom -5591.184945 kJ/mol
# Density = 2.530269 g / cm^3
# Si number density = 25.360412 Si / 1000 Ang^3
#
#
#
# Elastic Constant Matrix: (Units=GPa)
#
#
# Indices 1 2 3 4 5 6 
#
# 1 166.9217 57.9361 71.5490 6.7862 -1.8173 -3.4516
# 2 57.9361 132.7083 32.4888 -1.3725 -7.8992 -1.5694
# 3 71.5490 32.4888 158.3794 -3.1340 -0.5394 -5.1486
# 4 6.7862 -1.3725 -3.1340 31.4936 -8.6610 1.8432
# 5 -1.8173 -7.8992 -0.5394 -8.6610 63.9158 4.3112
# 6 -3.4516 -1.5694 -5.1486 1.8432 4.3112 37.6632
#
#
#
# Elastic Compliance Matrix: (Units=1/GPa)
#
#
# Indices 1 2 3 4 5 6 
#
# 1 0.008532 -0.002972 -0.003282 -0.002458 -0.000512 0.000388
# 2 -0.002972 0.009036 -0.000486 0.001331 0.001220 -0.000167
# 3 -0.003282 -0.000486 0.007948 0.001455 0.000064 0.000687
# 4 -0.002458 0.001331 0.001455 0.033948 0.004855 -0.002188
# 5 -0.000512 0.001220 0.000064 0.004855 0.016583 -0.002123
# 6 0.000388 -0.000167 0.000687 -0.002188 -0.002123 0.027024
#
#
# Mechanical properties :
#
#
# Convention : Reuss Voigt Hill
#
# Bulk Modulus (GPa) = 83.09221 86.88415 84.98818
# Shear Modulus (GPa) = 41.47181 46.35022 43.91102
#
# Velocity S-wave (km/s) = 4.04827 4.27975 4.16562
# Velocity P-wave (km/s) = 7.39506 7.66524 7.53136
#
# Compressibility (1/GPa) = 0.01203482
#
# Stress axis : x y z
#
# Youngs Moduli (GPa) = 117.20780 110.66452 125.82181
#
# Poissons Ratio (x) = 0.32895 0.41299
# Poissons Ratio (y) = 0.34840 0.06112
# Poissons Ratio (z) = 0.38472 0.05376
#
# Static dielectric constant tensor:
#      x y z
#    x 2.428410 0.102350 0.033180 
#    y 0.102350 2.182420 0.091470 
#    z 0.033180 0.091470 1.965560 
# 
# From -- ./inp_files/66585.got.cif
#   From: 2010.05.17/outbox.cif.g08.bks.cpg/sg2_34_cif.got.tgz:66585.got - 2010.06.03 11:33:40.
