data_PCOD9032328
_publ_section_title
;
Structure prediction by ZEFSAII (Michael W. Deem and Ramdas Pophale) SiO2 
 PCOD9032328
Probable space group: P -1
;
_chemical_formula_sum "Si O2"
_cell_formula_units_Z 16
_cell_length_a 8.993755
_cell_length_b 11.558363
_cell_length_c 9.435706
_cell_angle_alpha 97.386554
_cell_angle_beta 130.141752
_cell_angle_gamma 81.623303
_cell_volume 741.050240
_symmetry_space_group_name_H-M "P -1"
_symmetry_group_IT_number 2
_symmetry_cell_setting 'triclinic'
loop_
_space_group_symop_operation_xyz
x,y,z
-x,-y,-z
loop_
_atom_site_type_symbol
_atom_site_label
_atom_site_fract_x
_atom_site_fract_y
_atom_site_fract_z
Si Si1 0.437135 0.229334 0.223261
Si Si2 0.130087 0.378113 0.562060
Si Si3 0.904081 0.880682 0.571509
Si Si4 0.688820 0.026524 0.218835
Si Si5 0.864212 0.343151 0.942912
Si Si6 0.472042 0.378101 0.544088
Si Si7 0.895657 0.887194 0.876098
Si Si8 0.195705 0.407070 0.932089
O O1 0.622347 0.146983 0.278950
O O2 0.436546 0.286671 0.385630
O O3 0.261240 0.144511 0.108697
O O4 0.387035 0.338749 0.106151
O O5 0.043479 0.256869 0.447107
O O6 0.300311 0.391731 0.554707
O O7 0.188948 0.366659 0.760975
O O8 0.000000 0.500000 0.500000
O O9 0.804027 0.900567 0.665935
O O10 0.102349 0.947751 0.716458
O O11 0.757658 0.929289 0.364269
O O12 0.500000 0.000000 0.000000
O O13 0.664952 0.332385 0.737826
O O14 0.020989 0.371753 0.922382
O O15 0.823803 0.452927 0.040824
O O16 0.948788 0.225947 0.051747
O O17 0.500000 0.500000 0.500000
O O18 0.000000 0.000000 0.000000
#
# Coordination Sequence:
#
# PCOD9032328 Si02
#       8
#     2   2   2   2   2   2   2   2
#     4  11  24  44  72 100 136 179 230 284 354 413
#     4  12  26  42  71 102 141 181 231 289 351 418
#     4  11  26  47  69 105 144 181 239 288 351 418
#     4  11  26  47  74 103 141 189 236 294 346 416
#     4  10  23  41  68  97 138 178 228 287 353 414
#     4  12  25  44  67 106 139 181 231 291 357 425
#     4  11  24  43  67  99 137 184 230 281 347 420
#     4  10  22  43  70  97 135 178 225 288 353 418
#
# _framework density 21.590980999999999
#
# number of rings (size 3 to 8) (size 9 to 14) (size 15 to 20)
#    0.000    1.000    2.500    3.000    7.000    6.000 
#    0.000    0.000    0.000    0.000    0.000    0.000 
#    0.000    0.000    0.000    0.000    0.000    0.000 
#
# Total GULP energy -89376.722717 kJ/mol
# GULP energy per Si atom -5586.045170 kJ/mol
# Density = 2.154184 g / cm^3
# Si number density = 21.590981 Si / 1000 Ang^3
#
#
#
# Elastic Constant Matrix: (Units=GPa)
#
#
# Indices 1 2 3 4 5 6 
#
# 1 39.4955 30.7649 19.6694 -4.3103 -11.4125 -9.5835
# 2 30.7649 110.6284 31.6794 4.7878 -3.0753 -3.1021
# 3 19.6694 31.6794 111.2391 3.7580 -10.7832 4.1863
# 4 -4.3103 4.7878 3.7580 35.3114 -10.8649 3.5430
# 5 -11.4125 -3.0753 -10.7832 -10.8649 37.6626 3.0734
# 6 -9.5835 -3.1021 4.1863 3.5430 3.0734 33.5361
#
#
#
# Elastic Compliance Matrix: (Units=1/GPa)
#
#
# Indices 1 2 3 4 5 6 
#
# 1 0.042698 -0.010546 -0.003976 0.010146 0.013095 0.009450
# 2 -0.010546 0.012558 -0.001914 -0.003857 -0.003760 -0.000861
# 3 -0.003976 -0.001914 0.010525 -0.000544 0.001718 -0.002727
# 4 0.010146 -0.003857 -0.000544 0.034252 0.012662 -0.002169
# 5 0.013095 -0.003760 0.001718 0.012662 0.034464 -0.001316
# 6 0.009450 -0.000861 -0.002727 -0.002169 -0.001316 0.033130
#
#
# Mechanical properties :
#
#
# Convention : Reuss Voigt Hill
#
# Bulk Modulus (GPa) = 30.38443 47.28782 38.83613
# Shear Modulus (GPa) = 23.64427 33.25199 28.44813
#
# Velocity S-wave (km/s) = 3.31282 3.92865 3.63380
# Velocity P-wave (km/s) = 5.36063 6.52137 5.96928
#
# Compressibility (1/GPa) = 0.03291159
#
# Stress axis : x y z
#
# Youngs Moduli (GPa) = 23.42031 79.62975 95.01076
#
# Poissons Ratio (x) = 0.83974 0.37773
# Poissons Ratio (y) = 0.24698 0.18180
# Poissons Ratio (z) = 0.09311 0.15237
#
# Static dielectric constant tensor:
#      x y z
#    x 1.810400 0.007230 -0.007380 
#    y 0.007230 1.777170 -0.007550 
#    z -0.007380 -0.007550 1.800040 
# 
# From -- ./inp_files/188889.got.cif
#   From: 2010.05.17/outbox.cif.g08.bks.cpg/sg2_95_cif.got.tgz:188889.got - 2010.06.03 11:33:40.
