data_PCOD9032274
_publ_section_title
;
Structure prediction by ZEFSAII (Michael W. Deem and Ramdas Pophale) SiO2 
 PCOD9032274
Probable space group: P -1
;
_chemical_formula_sum "Si O2"
_cell_formula_units_Z 14
_cell_length_a 18.221264
_cell_length_b 10.619276
_cell_length_c 4.987049
_cell_angle_alpha 65.615229
_cell_angle_beta 115.952520
_cell_angle_gamma 143.201107
_cell_volume 516.235023
_symmetry_space_group_name_H-M "P -1"
_symmetry_group_IT_number 2
_symmetry_cell_setting 'triclinic'
loop_
_space_group_symop_operation_xyz
x,y,z
-x,-y,-z
loop_
_atom_site_type_symbol
_atom_site_label
_atom_site_fract_x
_atom_site_fract_y
_atom_site_fract_z
Si Si1 0.597721 0.229571 0.820097
Si Si2 0.106969 0.967757 0.082182
Si Si3 0.835435 0.674134 0.856513
Si Si4 0.294231 0.861576 0.242150
Si Si5 0.133632 0.728099 0.608583
Si Si6 0.478062 0.307906 0.844904
Si Si7 0.688783 0.688157 0.245398
O O1 0.729691 0.433547 0.998106
O O2 0.644723 0.212016 0.643537
O O3 0.525589 0.283229 0.685943
O O4 0.500000 0.000000 0.000000
O O5 0.120506 0.876746 0.423277
O O6 0.131260 0.156710 0.043352
O O7 0.967747 0.776107 0.912129
O O8 0.215918 0.084161 0.943313
O O9 0.769460 0.667589 0.511806
O O10 0.241430 0.822293 0.485812
O O11 0.178290 0.732478 0.963884
O O12 0.399222 0.100696 0.086533
O O13 0.000000 0.500000 0.500000
O O14 0.387186 0.321593 0.646219
O O15 0.593004 0.509231 0.028855
#
# Coordination Sequence:
#
# PCOD9032274 Si02
#       7
#     2   2   2   2   2   2   2
#     4  10  23  45  68 104 147 191 244 299 366 438
#     4  11  24  45  70 102 147 185 248 307 367 444
#     4  11  24  43  70 104 139 196 241 308 372 439
#     4  11  25  47  72 107 149 193 248 299 373 439
#     4  12  26  48  76 109 147 198 247 307 370 441
#     4  10  22  43  70 107 145 188 245 304 368 441
#     4  11  22  43  72 104 144 186 249 302 375 435
#
# _framework density 27.119430000000001
#
# number of rings (size 3 to 8) (size 9 to 14) (size 15 to 20)
#    0.000    1.143    2.857    2.571    0.000    4.000 
#    5.143    5.000    0.000    0.000    0.000    0.000 
#    0.000    0.000    0.000    0.000    0.000    0.000 
#
# Total GULP energy -78484.120396 kJ/mol
# GULP energy per Si atom -5606.008600 kJ/mol
# Density = 2.705771 g / cm^3
# Si number density = 27.119430 Si / 1000 Ang^3
#
#
#
# Elastic Constant Matrix: (Units=GPa)
#
#
# Indices 1 2 3 4 5 6 
#
# 1 129.0812 30.5417 6.4031 -1.6528 17.6806 -1.7223
# 2 30.5417 199.8353 28.6416 7.3203 11.3561 21.2494
# 3 6.4031 28.6416 89.6324 14.7544 15.0326 -1.9047
# 4 -1.6528 7.3203 14.7544 45.9938 3.7599 14.0615
# 5 17.6806 11.3561 15.0326 3.7599 36.9418 -4.3130
# 6 -1.7223 21.2494 -1.9047 14.0615 -4.3130 40.0522
#
#
#
# Elastic Compliance Matrix: (Units=1/GPa)
#
#
# Indices 1 2 3 4 5 6 
#
# 1 0.008558 -0.001199 0.000334 0.000587 -0.003877 0.000397
# 2 -0.001199 0.005864 -0.001832 0.000805 -0.000990 -0.003639
# 3 0.000334 -0.001832 0.013209 -0.004419 -0.004205 0.002713
# 4 0.000587 0.000805 -0.004419 0.026368 -0.002599 -0.010149
# 5 -0.003877 -0.000990 -0.004205 -0.002599 0.031729 0.004488
# 6 0.000397 -0.003639 0.002713 -0.010149 0.004488 0.031090
#
#
# Mechanical properties :
#
#
# Convention : Reuss Voigt Hill
#
# Bulk Modulus (GPa) = 44.97240 61.08018 53.02629
# Shear Modulus (GPa) = 38.57323 48.12840 43.35082
#
# Velocity S-wave (km/s) = 3.77549 4.21727 4.00248
# Velocity P-wave (km/s) = 5.96866 6.80334 6.39962
#
# Compressibility (1/GPa) = 0.02223586
#
# Stress axis : x y z
#
# Youngs Moduli (GPa) = 116.84932 170.54265 75.70866
#
# Poissons Ratio (x) = 0.20451 -0.02527
# Poissons Ratio (y) = 0.14012 0.13868
# Poissons Ratio (z) = -0.03900 0.31240
#
# Static dielectric constant tensor:
#      x y z
#    x 2.155130 -0.022830 0.019100 
#    y -0.022830 2.125970 -0.029610 
#    z 0.019100 -0.029610 2.087800 
# 
# From -- ./inp_files/118571.got.cif
#   From: 2010.05.17/outbox.cif.g08.bks.cpg/sg2_60_cif.got.tgz:118571.got - 2010.06.03 11:33:40.
