data_PCOD9032299
_publ_section_title
;
Structure prediction by ZEFSAII (Michael W. Deem and Ramdas Pophale) SiO2 
 PCOD9032299
Probable space group: P -1
;
_chemical_formula_sum "Si O2"
_cell_formula_units_Z 16
_cell_length_a 11.544670
_cell_length_b 18.388062
_cell_length_c 21.538054
_cell_angle_alpha 161.074691
_cell_angle_beta 149.604414
_cell_angle_gamma 28.688471
_cell_volume 695.963349
_symmetry_space_group_name_H-M "P -1"
_symmetry_group_IT_number 2
_symmetry_cell_setting 'triclinic'
loop_
_space_group_symop_operation_xyz
x,y,z
-x,-y,-z
loop_
_atom_site_type_symbol
_atom_site_label
_atom_site_fract_x
_atom_site_fract_y
_atom_site_fract_z
Si Si1 0.174895 0.038200 0.935678
Si Si2 0.102636 0.709881 0.318235
Si Si3 0.556181 0.782973 0.135689
Si Si4 0.384840 0.260805 0.014316
Si Si5 0.665257 0.967588 0.652050
Si Si6 0.750132 0.464309 0.623154
Si Si7 0.038535 0.037596 0.734030
Si Si8 0.476922 0.323742 0.743809
O O1 0.191946 0.003836 0.841577
O O2 0.925638 0.996151 0.802599
O O3 0.399007 0.854620 0.929599
O O4 0.173164 0.306002 0.162593
O O5 0.247234 0.546344 0.195406
O O6 0.272506 0.602605 0.369814
O O7 0.852772 0.662636 0.179178
O O8 0.000000 0.000000 0.500000
O O9 0.459377 0.011159 0.321128
O O10 0.509840 0.812072 0.064524
O O11 0.429687 0.601771 0.954618
O O12 0.179515 0.144791 0.837699
O O13 0.492635 0.187881 0.706340
O O14 0.686589 0.738079 0.434007
O O15 0.500000 0.500000 0.500000
O O16 0.950503 0.221064 0.491783
O O17 0.757843 0.204491 0.751531
#
# Coordination Sequence:
#
# PCOD9032299 Si02
#       8
#     2   2   2   2   2   2   2   2
#     4  11  24  46  68  97 142 179 228 280 330 412
#     4  12  26  42  69 105 139 177 225 288 352 403
#     4  12  25  41  67  97 140 178 222 284 337 407
#     4  12  24  43  68 101 139 180 219 285 350 403
#     4  10  24  43  67  97 131 182 229 275 329 404
#     4  12  23  39  71 102 133 180 226 278 344 409
#     4  11  21  41  68 101 131 171 229 285 338 393
#     4  10  22  43  70  95 131 177 233 276 335 402
#
# _framework density 22.989716999999999
#
# number of rings (size 3 to 8) (size 9 to 14) (size 15 to 20)
#    0.000    0.750    3.750    4.125    3.500    3.500 
#    0.000    0.625    0.000    0.000    0.000    0.000 
#    0.000    0.000    0.000    0.000    0.000    0.000 
#
# Total GULP energy -89552.982864 kJ/mol
# GULP energy per Si atom -5597.061429 kJ/mol
# Density = 2.293739 g / cm^3
# Si number density = 22.989717 Si / 1000 Ang^3
#
#
#
# Elastic Constant Matrix: (Units=GPa)
#
#
# Indices 1 2 3 4 5 6 
#
# 1 71.9292 19.5899 31.0263 -8.0642 -15.4324 0.6267
# 2 19.5899 94.1657 41.8002 -11.5821 -1.5723 5.8810
# 3 31.0263 41.8002 137.7455 -1.8661 -10.1848 -1.8263
# 4 -8.0642 -11.5821 -1.8661 37.3712 -2.8641 -2.9925
# 5 -15.4324 -1.5723 -10.1848 -2.8641 36.8310 -5.0809
# 6 0.6267 5.8810 -1.8263 -2.9925 -5.0809 25.8478
#
#
#
# Elastic Compliance Matrix: (Units=1/GPa)
#
#
# Indices 1 2 3 4 5 6 
#
# 1 0.017533 -0.001947 -0.002768 0.003709 0.007011 0.001630
# 2 -0.001947 0.013214 -0.003679 0.003128 -0.001460 -0.003144
# 3 -0.002768 -0.003679 0.009108 -0.001043 0.001354 0.001693
# 4 0.003709 0.003128 -0.001043 0.029056 0.004114 0.003297
# 5 0.007011 -0.001460 0.001354 0.004114 0.031681 0.006962
# 6 0.001630 -0.003144 0.001693 0.003297 0.006962 0.041234
#
#
# Mechanical properties :
#
#
# Convention : Reuss Voigt Hill
#
# Bulk Modulus (GPa) = 43.35126 54.29702 48.82414
# Shear Modulus (GPa) = 30.06573 34.10493 32.08533
#
# Velocity S-wave (km/s) = 3.62026 3.85578 3.73988
# Velocity P-wave (km/s) = 6.03099 6.59485 6.31921
#
# Compressibility (1/GPa) = 0.02306738
#
# Stress axis : x y z
#
# Youngs Moduli (GPa) = 57.03617 75.67539 109.79364
#
# Poissons Ratio (x) = 0.14736 0.30391
# Poissons Ratio (y) = 0.11106 0.40389
# Poissons Ratio (z) = 0.15788 0.27838
#
# Static dielectric constant tensor:
#      x y z
#    x 1.887830 0.016360 -0.002770 
#    y 0.016360 1.837540 0.003450 
#    z -0.002770 0.003450 1.903770 
# 
# From -- ./inp_files/428437.got.cif
#   From: 2010.05.17/outbox.cif.g08.bks.cpg/sg2_215_cif.got.tgz:428437.got - 2010.06.03 11:33:40.
