data_PCOD9032412
_publ_section_title
;
Structure prediction by ZEFSAII (Michael W. Deem and Ramdas Pophale) SiO2 
 PCOD9032412
Probable space group: P -1
;
_chemical_formula_sum "Si O2"
_cell_formula_units_Z 10
_cell_length_a 8.287498
_cell_length_b 10.911787
_cell_length_c 5.087916
_cell_angle_alpha 121.507518
_cell_angle_beta 91.465294
_cell_angle_gamma 112.497612
_cell_volume 347.245504
_symmetry_space_group_name_H-M "P -1"
_symmetry_group_IT_number 2
_symmetry_cell_setting 'triclinic'
loop_
_space_group_symop_operation_xyz
x,y,z
-x,-y,-z
loop_
_atom_site_type_symbol
_atom_site_label
_atom_site_fract_x
_atom_site_fract_y
_atom_site_fract_z
Si Si1 0.024516 0.258473 0.675815
Si Si2 0.513907 0.904199 0.143597
Si Si3 0.128059 0.691602 0.775764
Si Si4 0.359740 0.521778 0.206632
Si Si5 0.301786 0.240611 0.289264
O O1 0.146461 0.190985 0.448375
O O2 0.874498 0.242259 0.441152
O O3 0.171301 0.447675 0.958017
O O4 0.940829 0.214955 0.914735
O O5 0.500000 0.000000 0.500000
O O6 0.325215 0.734797 0.945368
O O7 0.689465 0.874541 0.069128
O O8 0.500000 0.000000 0.000000
O O9 0.000000 0.500000 0.500000
O O10 0.312301 0.398188 0.314203
O O11 0.499907 0.701972 0.502702
O O12 0.500000 0.500000 0.000000
#
# Coordination Sequence:
#
# PCOD9032412 Si02
#       5
#     2   2   2   2   2
#     4  11  22  42  69 107 135 179 241 301 349 406
#     4  12  30  50  71 103 153 198 232 287 372 439
#     4  12  26  46  74 108 146 183 238 305 360 411
#     4   9  19  35  73 105 140 175 249 294 353 401
#     4  10  22  43  71 102 142 193 245 288 348 441
#
# _framework density 28.798071
#
# number of rings (size 3 to 8) (size 9 to 14) (size 15 to 20)
#    0.000    1.200    2.000    3.000   11.200    0.000 
#    0.000    6.000    0.000    0.000    0.000    0.000 
#    0.000    0.000    0.000    0.000    0.000    0.000 
#
# Total GULP energy -55855.695517 kJ/mol
# GULP energy per Si atom -5585.569552 kJ/mol
# Density = 2.873253 g / cm^3
# Si number density = 28.798071 Si / 1000 Ang^3
#
#
#
# Elastic Constant Matrix: (Units=GPa)
#
#
# Indices 1 2 3 4 5 6 
#
# 1 116.2635 -1.0072 76.3363 -6.9769 -26.8307 24.3367
# 2 -1.0072 70.5812 41.0137 -7.3972 -7.7454 -13.0374
# 3 76.3363 41.0137 203.5777 -41.1671 -36.0032 9.1620
# 4 -6.9769 -7.3972 -41.1671 62.5355 12.9477 -4.7656
# 5 -26.8307 -7.7454 -36.0032 12.9477 87.2583 -8.6573
# 6 24.3367 -13.0374 9.1620 -4.7656 -8.6573 34.7898
#
#
#
# Elastic Compliance Matrix: (Units=1/GPa)
#
#
# Indices 1 2 3 4 5 6 
#
# 1 0.014153 0.001959 -0.005602 -0.002847 0.001881 -0.007613
# 2 0.001959 0.018219 -0.004598 -0.000348 0.001057 0.006883
# 3 -0.005602 -0.004598 0.009013 0.004616 0.000972 0.000696
# 4 -0.002847 -0.000348 0.004616 0.019215 -0.001566 0.002888
# 5 0.001881 0.001057 0.000972 -0.001566 0.012948 0.001831
# 6 -0.007613 0.006883 0.000696 0.002888 0.001831 0.037317
#
#
# Mechanical properties :
#
#
# Convention : Reuss Voigt Hill
#
# Bulk Modulus (GPa) = 40.15564 69.23422 54.69493
# Shear Modulus (GPa) = 36.85967 55.18869 46.02418
#
# Velocity S-wave (km/s) = 3.58150 4.38242 4.00205
# Velocity P-wave (km/s) = 5.57467 7.04989 6.35523
#
# Compressibility (1/GPa) = 0.02490310
#
# Stress axis : x y z
#
# Youngs Moduli (GPa) = 70.65474 54.88763 110.94728
#
# Poissons Ratio (x) = -0.10753 0.62154
# Poissons Ratio (y) = -0.13842 0.51017
# Poissons Ratio (z) = 0.39582 0.25239
#
# Static dielectric constant tensor:
#      x y z
#    x 2.301320 0.063700 -0.015520 
#    y 0.063700 2.302810 0.090970 
#    z -0.015520 0.090970 2.455120 
# 
# From -- ./inp_files/33861.got.cif
#   From: 2010.05.17/outbox.cif.g08.bks.cpg/sg2_17_cif.got.tgz:33861.got - 2010.06.03 11:33:40.
