data_PCOD9032346
_publ_section_title
;
Structure prediction by ZEFSAII (Michael W. Deem and Ramdas Pophale) SiO2 
 PCOD9032346
Probable space group: P -1
;
_chemical_formula_sum "Si O2"
_cell_formula_units_Z 14
_cell_length_a 10.772197
_cell_length_b 12.627067
_cell_length_c 6.826536
_cell_angle_alpha 55.809569
_cell_angle_beta 70.384234
_cell_angle_gamma 99.547459
_cell_volume 644.274456
_symmetry_space_group_name_H-M "P -1"
_symmetry_group_IT_number 2
_symmetry_cell_setting 'triclinic'
loop_
_space_group_symop_operation_xyz
x,y,z
-x,-y,-z
loop_
_atom_site_type_symbol
_atom_site_label
_atom_site_fract_x
_atom_site_fract_y
_atom_site_fract_z
Si Si1 0.912408 0.319534 0.518176
Si Si2 0.599522 0.930691 0.778320
Si Si3 0.947976 0.122104 0.419267
Si Si4 0.494210 0.302934 0.245849
Si Si5 0.411042 0.801525 0.357763
Si Si6 0.389010 0.462808 0.408038
Si Si7 0.054969 0.381380 0.793743
O O1 0.983530 0.224148 0.484936
O O2 0.739414 0.242309 0.635412
O O3 0.965279 0.484029 0.251283
O O4 0.949217 0.331534 0.713438
O O5 0.566696 0.846064 0.682064
O O6 0.772445 0.030262 0.597043
O O7 0.534035 0.043141 0.730413
O O8 0.533468 0.820889 0.110132
O O9 0.000000 0.000000 0.500000
O O10 0.009406 0.242737 0.094949
O O11 0.613344 0.308509 0.338163
O O12 0.382246 0.328653 0.422775
O O13 0.550652 0.415886 0.920700
O O14 0.500000 0.500000 0.500000
O O15 0.227850 0.439097 0.585520
#
# Coordination Sequence:
#
# PCOD9032346 Si02
#       7
#     2   2   2   2   2   2   2
#     4  10  24  46  70  99 130 182 228 283 334 393
#     4  10  23  41  65 100 135 177 218 273 332 399
#     4  11  27  42  67 100 142 181 221 273 342 406
#     4  11  23  40  70  98 128 174 227 276 337 389
#     4  10  22  43  70  98 136 169 227 278 328 397
#     4  11  26  43  67  98 133 173 225 284 332 393
#     4  11  25  45  70  96 137 180 229 275 339 404
#
# _framework density 21.729869000000001
#
# number of rings (size 3 to 8) (size 9 to 14) (size 15 to 20)
#    0.000    1.429    0.000    3.429    6.000   13.143 
#    0.000    0.000    0.000    0.000    0.000    0.000 
#    0.000    0.000    0.000    0.000    0.000    0.000 
#
# Total GULP energy -78079.640024 kJ/mol
# GULP energy per Si atom -5577.117145 kJ/mol
# Density = 2.168041 g / cm^3
# Si number density = 21.729869 Si / 1000 Ang^3
#
#
#
# Elastic Constant Matrix: (Units=GPa)
#
#
# Indices 1 2 3 4 5 6 
#
# 1 224.5159 159.9984 135.4021 56.1258 124.6550 -17.6005
# 2 159.9984 276.5958 119.9238 49.5207 89.7916 -29.9920
# 3 135.4021 119.9238 173.9791 33.8326 92.3072 -15.8045
# 4 56.1258 49.5207 33.8326 44.7014 30.0908 -2.1132
# 5 124.6550 89.7916 92.3072 30.0908 101.9056 -17.6047
# 6 -17.6005 -29.9920 -15.8045 -2.1132 -17.6047 38.1283
#
#
#
# Elastic Compliance Matrix: (Units=1/GPa)
#
#
# Indices 1 2 3 4 5 6 
#
# 1 0.019502 -0.003803 -0.002692 -0.007314 -0.016443 -0.003102
# 2 -0.003803 0.006921 -0.001843 -0.002358 0.001524 0.003497
# 3 -0.002692 -0.001843 0.012496 0.000388 -0.006610 -0.000543
# 4 -0.007314 -0.002358 0.000388 0.033576 0.000221 -0.003107
# 5 -0.016443 0.001524 -0.006610 0.000221 0.035785 0.007403
# 6 -0.003102 0.003497 -0.000543 -0.003107 0.007403 0.030567
#
#
# Mechanical properties :
#
#
# Convention : Reuss Voigt Hill
#
# Bulk Modulus (GPa) = 44.95871 167.30436 106.13153
# Shear Modulus (GPa) = 30.68647 54.26483 42.47565
#
# Velocity S-wave (km/s) = 3.76197 5.00267 4.42601
# Velocity P-wave (km/s) = 6.29322 10.51327 8.66411
#
# Compressibility (1/GPa) = 0.02224263
#
# Stress axis : x y z
#
# Youngs Moduli (GPa) = 51.27592 144.48454 80.02767
#
# Poissons Ratio (x) = 0.54949 0.21544
# Poissons Ratio (y) = 0.19501 0.14750
# Poissons Ratio (z) = 0.13804 0.26630
#
# Static dielectric constant tensor:
#      x y z
#    x 1.737940 -0.030140 0.021700 
#    y -0.030140 1.845550 -0.011270 
#    z 0.021700 -0.011270 1.800560 
# 
# From -- ./inp_files/68376.got.cif
#   From: 2010.05.17/outbox.cif.g08.bks.cpg/sg2_35_cif.got.tgz:68376.got - 2010.06.03 11:33:40.
