data_PCOD9032250
_publ_section_title
;
Structure prediction by ZEFSAII (Michael W. Deem and Ramdas Pophale) SiO2 
 PCOD9032250
Probable space group: P -1
;
_chemical_formula_sum "Si O2"
_cell_formula_units_Z 15
_cell_length_a 9.044639
_cell_length_b 7.114572
_cell_length_c 16.668247
_cell_angle_alpha 69.021935
_cell_angle_beta 107.129901
_cell_angle_gamma 57.308833
_cell_volume 660.703130
_symmetry_space_group_name_H-M "P -1"
_symmetry_group_IT_number 2
_symmetry_cell_setting 'triclinic'
loop_
_space_group_symop_operation_xyz
x,y,z
-x,-y,-z
loop_
_atom_site_type_symbol
_atom_site_label
_atom_site_fract_x
_atom_site_fract_y
_atom_site_fract_z
Si Si1 0.242798 0.211574 0.407574
Si Si2 0.000000 0.000000 0.000000
Si Si3 0.852466 0.946384 0.742327
Si Si4 0.057792 0.159157 0.707998
Si Si5 0.454464 0.603698 0.243661
Si Si6 0.141096 0.325280 0.935613
Si Si7 0.590748 0.897926 0.155498
Si Si8 0.872503 0.944127 0.442746
O O1 0.205533 0.091701 0.347361
O O2 0.123322 0.535151 0.320966
O O3 0.500000 0.000000 0.500000
O O4 0.134650 0.228366 0.468955
O O5 0.757598 0.232633 0.873354
O O6 0.947064 0.815756 0.045186
O O7 0.950924 0.672922 0.852881
O O8 0.642787 0.240213 0.709193
O O9 0.037886 0.947993 0.764799
O O10 0.292678 0.047656 0.778104
O O11 0.007544 0.211010 0.597969
O O12 0.624055 0.258962 0.332991
O O13 0.592093 0.669078 0.223311
O O14 0.268677 0.225129 0.885852
O O15 0.333935 0.191683 0.051292
O O16 0.000000 0.000000 0.500000
#
# Coordination Sequence:
#
# PCOD9032250 Si02
#       8
#     2   1   2   2   2   2   2   2
#     4  12  28  45  70 103 139 188 237 290 349 417
#     4  10  24  46  74 106 144 180 238 284 362 416
#     4  12  26  45  72 103 145 183 237 287 351 418
#     4  12  25  46  73 100 141 190 231 294 349 415
#     4  11  26  43  73 107 142 188 233 294 347 426
#     4  10  22  44  72 104 142 179 228 294 344 428
#     4  10  22  43  70 104 139 178 232 284 352 415
#     4  12  26  46  70 102 144 185 239 289 348 415
#
# _framework density 22.703088000000001
#
# number of rings (size 3 to 8) (size 9 to 14) (size 15 to 20)
#    0.000    0.800    2.667    3.600    5.600    4.800 
#    0.000    0.000    0.000    0.000    0.000    0.000 
#    0.000    0.000    0.000    0.000    0.000    0.000 
#
# Total GULP energy -83719.955088 kJ/mol
# GULP energy per Si atom -5581.330339 kJ/mol
# Density = 2.265141 g / cm^3
# Si number density = 22.703088 Si / 1000 Ang^3
#
#
#
# Elastic Constant Matrix: (Units=GPa)
#
#
# Indices 1 2 3 4 5 6 
#
# 1 118.7909 37.2941 22.3063 12.2301 8.1085 36.8758
# 2 37.2941 90.0140 28.9651 6.7517 4.0963 13.6055
# 3 22.3063 28.9651 90.1356 3.1371 16.9773 19.7690
# 4 12.2301 6.7517 3.1371 33.0983 11.9009 3.9919
# 5 8.1085 4.0963 16.9773 11.9009 35.6553 6.4421
# 6 36.8758 13.6055 19.7690 3.9919 6.4421 37.3644
#
#
#
# Elastic Compliance Matrix: (Units=1/GPa)
#
#
# Indices 1 2 3 4 5 6 
#
# 1 0.013492 -0.003749 0.000548 -0.002914 0.000237 -0.011970
# 2 -0.003749 0.013883 -0.003908 -0.001719 0.001580 0.000624
# 3 0.000548 -0.003908 0.014643 0.002195 -0.006294 -0.006015
# 4 -0.002914 -0.001719 0.002195 0.035755 -0.012233 0.000630
# 5 0.000237 0.001580 -0.006294 -0.012233 0.035299 -0.002258
# 6 -0.011970 0.000624 -0.006015 0.000630 -0.002258 0.041854
#
#
# Mechanical properties :
#
#
# Convention : Reuss Voigt Hill
#
# Bulk Modulus (GPa) = 35.97225 52.89684 44.43455
# Shear Modulus (GPa) = 28.02531 35.24859 31.63695
#
# Velocity S-wave (km/s) = 3.51725 3.94457 3.73702
# Velocity P-wave (km/s) = 5.68980 6.64049 6.18344
#
# Compressibility (1/GPa) = 0.02779920
#
# Stress axis : x y z
#
# Youngs Moduli (GPa) = 74.11889 72.03028 68.29275
#
# Poissons Ratio (x) = 0.27006 -0.03742
# Poissons Ratio (y) = 0.27789 0.26689
# Poissons Ratio (z) = -0.04061 0.28150
#
# Static dielectric constant tensor:
#      x y z
#    x 1.870870 -0.023030 -0.022460 
#    y -0.023030 1.838920 -0.000970 
#    z -0.022460 -0.000970 1.853530 
# 
# From -- ./inp_files/46405.got.cif
#   From: 2010.05.17/outbox.cif.g08.bks.cpg/sg2_24_cif.got.tgz:46405.got - 2010.06.03 11:33:40.
