data_PCOD9032477
_publ_section_title
;
Structure prediction by ZEFSAII (Michael W. Deem and Ramdas Pophale) SiO2 
 PCOD9032477
Probable space group: P -1
;
_chemical_formula_sum "Si O2"
_cell_formula_units_Z 14
_cell_length_a 8.830605
_cell_length_b 13.944933
_cell_length_c 9.131256
_cell_angle_alpha 78.223631
_cell_angle_beta 102.193233
_cell_angle_gamma 41.853505
_cell_volume 610.433731
_symmetry_space_group_name_H-M "P -1"
_symmetry_group_IT_number 2
_symmetry_cell_setting 'triclinic'
loop_
_space_group_symop_operation_xyz
x,y,z
-x,-y,-z
loop_
_atom_site_type_symbol
_atom_site_label
_atom_site_fract_x
_atom_site_fract_y
_atom_site_fract_z
Si Si1 0.863732 0.084749 0.110702
Si Si2 0.755920 0.957704 0.292640
Si Si3 0.587739 0.681775 0.273597
Si Si4 0.823772 0.683298 0.847547
Si Si5 0.267328 0.671939 0.307942
Si Si6 0.185818 0.277229 0.490173
Si Si7 0.789197 0.337565 0.036408
O O1 0.924989 0.162056 0.150724
O O2 0.874577 0.006697 0.277233
O O3 0.549115 0.242599 0.937818
O O4 0.000000 0.000000 0.000000
O O5 0.790107 0.853386 0.452569
O O6 0.959122 0.810320 0.254020
O O7 0.433913 0.145863 0.163338
O O8 0.378869 0.725926 0.314801
O O9 0.644343 0.757068 0.335556
O O10 0.872200 0.474886 0.387064
O O11 0.723039 0.724111 0.646175
O O12 0.024693 0.669991 0.882347
O O13 0.000000 0.500000 0.000000
O O14 0.500000 0.500000 0.500000
O O15 0.272086 0.633209 0.156704
O O16 0.500000 0.500000 0.000000
#
# Coordination Sequence:
#
# PCOD9032477 Si02
#       7
#     2   2   2   2   2   2   2
#     4  11  23  46  68 106 135 186 243 291 350 431
#     4  12  25  43  73 102 142 189 237 300 356 423
#     4  10  22  43  71  94 145 179 238 292 353 425
#     4  12  28  48  69 104 148 187 243 297 367 431
#     4  11  23  43  70 105 136 187 243 289 353 427
#     4  11  25  44  67 105 141 187 234 300 357 425
#     4  11  25  46  76 100 145 193 237 296 361 426
#
# _framework density 22.934514
#
# number of rings (size 3 to 8) (size 9 to 14) (size 15 to 20)
#    0.000    0.857    4.286    3.857    4.000    2.286 
#    0.000    1.429    0.000    0.000    0.000    0.000 
#    0.000    0.000    0.000    0.000    0.000    0.000 
#
# Total GULP energy -77935.506091 kJ/mol
# GULP energy per Si atom -5566.821864 kJ/mol
# Density = 2.288231 g / cm^3
# Si number density = 22.934514 Si / 1000 Ang^3
#
#
#
# Elastic Constant Matrix: (Units=GPa)
#
#
# Indices 1 2 3 4 5 6 
#
# 1 90.6841 34.1319 24.7244 -8.6901 -19.1993 10.0712
# 2 34.1319 122.4209 16.5195 -21.5089 -6.6005 -19.2311
# 3 24.7244 16.5195 60.9373 -8.6320 -23.2454 13.4104
# 4 -8.6901 -21.5089 -8.6320 25.4023 9.3019 -2.0750
# 5 -19.1993 -6.6005 -23.2454 9.3019 46.7086 -11.4136
# 6 10.0712 -19.2311 13.4104 -2.0750 -11.4136 57.0089
#
#
#
# Elastic Compliance Matrix: (Units=1/GPa)
#
#
# Indices 1 2 3 4 5 6 
#
# 1 0.014229 -0.003934 -0.003002 -0.000922 0.003373 -0.002493
# 2 -0.003934 0.011856 -0.002059 0.008960 -0.001478 0.005209
# 3 -0.003002 -0.002059 0.022427 0.001457 0.008443 -0.003696
# 4 -0.000922 0.008960 0.001457 0.050177 -0.007612 0.003145
# 5 0.003373 -0.001478 0.008443 -0.007612 0.028898 0.002428
# 6 -0.002493 0.005209 -0.003696 0.003145 0.002428 0.021209
#
#
# Mechanical properties :
#
#
# Convention : Reuss Voigt Hill
#
# Bulk Modulus (GPa) = 32.76231 47.19930 39.98080
# Shear Modulus (GPa) = 28.25506 39.06839 33.66172
#
# Velocity S-wave (km/s) = 3.51378 4.13180 3.83526
# Velocity P-wave (km/s) = 5.54782 6.58688 6.08956
#
# Compressibility (1/GPa) = 0.03052288
#
# Stress axis : x y z
#
# Youngs Moduli (GPa) = 70.27871 84.34567 44.58915
#
# Poissons Ratio (x) = 0.33180 0.13386
# Poissons Ratio (y) = 0.27646 0.09180
# Poissons Ratio (z) = 0.21098 0.17365
#
# Static dielectric constant tensor:
#      x y z
#    x 1.890980 0.010510 0.008160 
#    y 0.010510 1.982630 -0.056490 
#    z 0.008160 -0.056490 1.978390 
# 
# From -- ./inp_files/196587.got.cif
#   From: 2010.05.17/outbox.cif.g08.bks.cpg/sg2_99_cif.got.tgz:196587.got - 2010.06.03 11:33:40.
