data_PCOD9032396
_publ_section_title
;
Structure prediction by ZEFSAII (Michael W. Deem and Ramdas Pophale) SiO2 
 PCOD9032396
Probable space group: P -1
;
_chemical_formula_sum "Si O2"
_cell_formula_units_Z 16
_cell_length_a 16.888249
_cell_length_b 8.520094
_cell_length_c 5.173068
_cell_angle_alpha 55.832124
_cell_angle_beta 84.912203
_cell_angle_gamma 81.961092
_cell_volume 609.773212
_symmetry_space_group_name_H-M "P -1"
_symmetry_group_IT_number 2
_symmetry_cell_setting 'triclinic'
loop_
_space_group_symop_operation_xyz
x,y,z
-x,-y,-z
loop_
_atom_site_type_symbol
_atom_site_label
_atom_site_fract_x
_atom_site_fract_y
_atom_site_fract_z
Si Si1 0.101920 0.970811 0.712589
Si Si2 0.832901 0.557586 0.141093
Si Si3 0.436322 0.223214 0.041678
Si Si4 0.950012 0.239465 0.573369
Si Si5 0.705143 0.606379 0.757688
Si Si6 0.693502 0.319150 0.614518
Si Si7 0.759464 0.910541 0.134196
Si Si8 0.535497 0.234514 0.502773
O O1 0.190188 0.008577 0.724278
O O2 0.043048 0.166318 0.580099
O O3 0.091109 0.887667 0.510208
O O4 0.075120 0.823437 0.075215
O O5 0.918350 0.452961 0.297175
O O6 0.769167 0.420734 0.400205
O O7 0.817003 0.767037 0.073396
O O8 0.798935 0.570921 0.846309
O O9 0.348145 0.312796 0.062825
O O10 0.496067 0.279797 0.196309
O O11 0.440775 0.993962 0.273848
O O12 0.470446 0.277684 0.707477
O O13 0.678698 0.419304 0.804913
O O14 0.697811 0.779423 0.396673
O O15 0.613606 0.334224 0.455684
O O16 0.719468 0.095307 0.834723
#
# Coordination Sequence:
#
# PCOD9032396 Si02
#       8
#     2   2   2   2   2   2   2   2
#     4  10  22  43  71 102 136 185 222 280 338 400
#     4  11  25  43  67 104 136 180 230 284 331 415
#     4  10  24  44  66 100 135 174 229 282 339 411
#     4  10  22  43  71 101 140 177 231 276 334 407
#     4  11  27  42  69 100 139 176 232 285 336 412
#     4  11  25  44  69  98 135 181 229 282 344 404
#     4  11  25  43  69 102 136 183 227 281 343 403
#     4  10  24  42  70  97 131 182 224 282 343 404
#
# _framework density 26.239262
#
# number of rings (size 3 to 8) (size 9 to 14) (size 15 to 20)
#    0.000    1.500    1.250    1.500   14.000    3.500 
#    0.000    0.625    0.000    0.000    0.000    0.000 
#    0.000    0.000    0.000    0.000    0.000    0.000 
#
# Total GULP energy -89730.731540 kJ/mol
# GULP energy per Si atom -5608.170721 kJ/mol
# Density = 2.617954 g / cm^3
# Si number density = 26.239262 Si / 1000 Ang^3
#
#
#
# Elastic Constant Matrix: (Units=GPa)
#
#
# Indices 1 2 3 4 5 6 
#
# 1 67.9166 12.4699 5.9777 4.4588 25.4475 -0.2178
# 2 12.4699 107.6533 34.2839 -11.5646 0.9111 -7.5352
# 3 5.9777 34.2839 73.0404 -15.7478 7.5514 -3.3799
# 4 4.4588 -11.5646 -15.7478 52.2972 -0.4368 16.1354
# 5 25.4475 0.9111 7.5514 -0.4368 38.5928 2.5391
# 6 -0.2178 -7.5352 -3.3799 16.1354 2.5391 39.7651
#
#
#
# Elastic Compliance Matrix: (Units=1/GPa)
#
#
# Indices 1 2 3 4 5 6 
#
# 1 0.020468 -0.002573 0.000414 -0.002821 -0.013659 0.001676
# 2 -0.002573 0.011378 -0.005139 0.000832 0.002363 0.001217
# 3 0.000414 -0.005139 0.017309 0.004333 -0.003421 -0.001040
# 4 -0.002821 0.000832 0.004333 0.023714 0.001868 -0.009231
# 5 -0.013659 0.002363 -0.003421 0.001868 0.035747 -0.002958
# 6 0.001676 0.001217 -0.001040 -0.009231 -0.002958 0.029234
#
#
# Mechanical properties :
#
#
# Convention : Reuss Voigt Hill
#
# Bulk Modulus (GPa) = 28.93474 39.34148 34.13811
# Shear Modulus (GPa) = 30.49413 39.18962 34.84187
#
# Velocity S-wave (km/s) = 3.41274 3.86884 3.64792
# Velocity P-wave (km/s) = 5.15561 5.91465 5.54813
#
# Compressibility (1/GPa) = 0.03456053
#
# Stress axis : x y z
#
# Youngs Moduli (GPa) = 48.85605 87.88760 57.77375
#
# Poissons Ratio (x) = 0.22612 -0.02392
# Poissons Ratio (y) = 0.12570 0.29688
# Poissons Ratio (z) = -0.02023 0.45162
#
# Static dielectric constant tensor:
#      x y z
#    x 2.020330 -0.021250 0.008420 
#    y -0.021250 2.025760 0.012560 
#    z 0.008420 0.012560 2.111850 
# 
# From -- ./inp_files/106091.got.cif
#   From: 2010.05.17/outbox.cif.g08.bks.cpg/sg2_54_cif.got.tgz:106091.got - 2010.06.03 11:33:40.
