data_PCOD9032816
_publ_section_title
;
Structure prediction by ZEFSAII (Michael W. Deem and Ramdas Pophale) SiO2 
 PCOD9032816
Probable space group: P -1
;
_chemical_formula_sum "Si O2"
_cell_formula_units_Z 11
_cell_length_a 5.404445
_cell_length_b 4.851189
_cell_length_c 20.327967
_cell_angle_alpha 76.858053
_cell_angle_beta 122.250643
_cell_angle_gamma 100.883033
_cell_volume 437.453900
_symmetry_space_group_name_H-M "P -1"
_symmetry_group_IT_number 2
_symmetry_cell_setting 'triclinic'
loop_
_space_group_symop_operation_xyz
x,y,z
-x,-y,-z
loop_
_atom_site_type_symbol
_atom_site_label
_atom_site_fract_x
_atom_site_fract_y
_atom_site_fract_z
Si Si1 0.557647 0.933255 0.937020
Si Si2 0.170529 0.254008 0.472455
Si Si3 0.000000 0.500000 0.000000
Si Si4 0.212221 0.560774 0.145434
Si Si5 0.142972 0.273292 0.785973
Si Si6 0.813016 0.190788 0.608603
O O1 0.681109 0.634099 0.963584
O O2 0.797703 0.200634 0.930594
O O3 0.301656 0.999758 0.847164
O O4 0.500000 0.000000 0.000000
O O5 0.482470 0.281219 0.551993
O O6 0.970687 0.449502 0.573523
O O7 0.194970 0.114109 0.410654
O O8 0.000000 0.000000 0.500000
O O9 0.980564 0.663236 0.912671
O O10 0.559515 0.527863 0.203273
O O11 0.055064 0.631640 0.186605
O O12 0.945792 0.201932 0.698641
#
# Coordination Sequence:
#
# PCOD9032816 Si02
#       6
#     2   2   1   2   2   2
#     4  10  23  41  62  95 135 178 245 295 360 431
#     4  10  22  43  76 105 139 195 235 305 376 461
#     4  12  20  40  70  90 128 192 240 302 362 434
#     4  10  24  42  61  96 131 183 240 303 363 432
#     4  10  24  44  62  95 146 179 238 313 364 443
#     4  10  23  44  67 109 146 185 249 303 376 454
#
# _framework density 25.145508
#
# number of rings (size 3 to 8) (size 9 to 14) (size 15 to 20)
#    1.091    0.727    1.818    1.091    2.545    4.364 
#    3.273    0.000    0.000    0.000    0.000    0.000 
#    0.000    0.000    0.000    0.000    0.000    0.000 
#
# Total GULP energy -61242.367739 kJ/mol
# GULP energy per Si atom -5567.487976 kJ/mol
# Density = 2.508828 g / cm^3
# Si number density = 25.145508 Si / 1000 Ang^3
#
#
#
# Elastic Constant Matrix: (Units=GPa)
#
#
# Indices 1 2 3 4 5 6 
#
# 1 112.7305 40.7902 85.5584 19.7426 -0.6800 -15.2305
# 2 40.7902 130.0724 43.1013 12.5311 0.6104 -16.0389
# 3 85.5584 43.1013 210.0250 47.8063 28.9738 -6.0797
# 4 19.7426 12.5311 47.8063 41.1293 9.5008 -11.5553
# 5 -0.6800 0.6104 28.9738 9.5008 34.8051 5.5840
# 6 -15.2305 -16.0389 -6.0797 -11.5553 5.5840 47.6222
#
#
#
# Elastic Compliance Matrix: (Units=1/GPa)
#
#
# Indices 1 2 3 4 5 6 
#
# 1 0.014761 -0.002293 -0.006265 0.000501 0.004976 0.002687
# 2 -0.002293 0.008959 -0.000849 -0.000086 0.000186 0.002133
# 3 -0.006265 -0.000849 0.009970 -0.007537 -0.006006 -0.002141
# 4 0.000501 -0.000086 -0.007537 0.036441 -0.005042 0.008603
# 5 0.004976 0.000186 -0.006006 -0.005042 0.035932 -0.004549
# 6 0.002687 0.002133 -0.002141 0.008603 -0.004549 0.024924
#
#
# Mechanical properties :
#
#
# Convention : Reuss Voigt Hill
#
# Bulk Modulus (GPa) = 67.22584 87.96973 77.59778
# Shear Modulus (GPa) = 32.30831 43.60319 37.95575
#
# Velocity S-wave (km/s) = 3.58838 4.16869 3.88937
# Velocity P-wave (km/s) = 6.63034 7.63092 7.14815
#
# Compressibility (1/GPa) = 0.01487523
#
# Stress axis : x y z
#
# Youngs Moduli (GPa) = 67.74635 111.62226 100.30136
#
# Poissons Ratio (x) = 0.25597 0.62843
# Poissons Ratio (y) = 0.15535 0.08512
# Poissons Ratio (z) = 0.42446 0.09473
#
# Static dielectric constant tensor:
#      x y z
#    x 2.553970 0.709590 0.107220 
#    y 0.709590 3.309960 0.547830 
#    z 0.107220 0.547830 2.234500 
# 
# From -- ./inp_files/545227.got.cif
#   From: 2010.05.17/outbox.cif.g08.bks.cpg/sg2_273_cif.got.tgz:545227.got - 2010.06.03 11:33:40.
