data_PCOD9033425
_publ_section_title
;
Structure prediction by ZEFSAII (Michael W. Deem and Ramdas Pophale) SiO2 
 PCOD9033425
Probable space group: P -1
;
_chemical_formula_sum "Si O2"
_cell_formula_units_Z 14
_cell_length_a 6.766750
_cell_length_b 12.271778
_cell_length_c 12.585458
_cell_angle_alpha 49.742080
_cell_angle_beta 131.083343
_cell_angle_gamma 121.704751
_cell_volume 591.848500
_symmetry_space_group_name_H-M "P -1"
_symmetry_group_IT_number 2
_symmetry_cell_setting 'triclinic'
loop_
_space_group_symop_operation_xyz
x,y,z
-x,-y,-z
loop_
_atom_site_type_symbol
_atom_site_label
_atom_site_fract_x
_atom_site_fract_y
_atom_site_fract_z
Si Si1 0.519928 0.435620 0.379991
Si Si2 0.139976 0.875973 0.419195
Si Si3 0.783326 0.559012 0.206530
Si Si4 0.867783 0.131648 0.830695
Si Si5 0.820545 0.533282 0.011897
Si Si6 0.540520 0.716313 0.324322
Si Si7 0.301375 0.198882 0.295094
O O1 0.763921 0.460799 0.366489
O O2 0.473274 0.599965 0.279265
O O3 0.561684 0.373795 0.548639
O O4 0.314681 0.307966 0.331440
O O5 0.205085 0.884865 0.309744
O O6 0.855103 0.775582 0.399211
O O7 0.395415 0.828411 0.596155
O O8 0.130416 0.040783 0.347637
O O9 0.922758 0.719605 0.178967
O O10 0.475496 0.549115 0.068949
O O11 0.904618 0.498508 0.182079
O O12 0.622013 0.152717 0.806613
O O13 0.000000 0.000000 0.000000
O O14 0.799263 0.704551 0.893063
O O15 0.000000 0.500000 0.000000
#
# Coordination Sequence:
#
# PCOD9033425 Si02
#       7
#     2   2   2   2   2   2   2
#     4  10  22  44  68 100 135 177 235 286 340 404
#     4  11  24  47  66 101 141 182 237 283 352 412
#     4  10  23  43  66 100 141 181 226 294 340 403
#     4  12  26  44  70 100 141 183 232 290 355 422
#     4  10  23  43  69 105 136 183 233 280 356 417
#     4  11  25  43  72 105 134 184 240 284 347 421
#     4  10  23  45  69  98 144 180 228 293 346 411
#
# _framework density 23.654702
#
# number of rings (size 3 to 8) (size 9 to 14) (size 15 to 20)
#    0.000    1.429    2.857    0.857    4.000    8.000 
#    5.143    0.000    0.000    0.000    0.000    0.000 
#    0.000    0.000    0.000    0.000    0.000    0.000 
#
# Total GULP energy -78222.240220 kJ/mol
# GULP energy per Si atom -5587.302873 kJ/mol
# Density = 2.360086 g / cm^3
# Si number density = 23.654702 Si / 1000 Ang^3
#
#
#
# Elastic Constant Matrix: (Units=GPa)
#
#
# Indices 1 2 3 4 5 6 
#
# 1 127.1472 46.2133 34.2754 -4.7723 3.2528 -6.4626
# 2 46.2133 146.0960 16.7161 -10.7636 -1.3788 -7.0539
# 3 34.2754 16.7161 72.7214 -10.9093 7.6798 -11.8745
# 4 -4.7723 -10.7636 -10.9093 32.2882 -9.1247 0.4220
# 5 3.2528 -1.3788 7.6798 -9.1247 40.4652 7.6236
# 6 -6.4626 -7.0539 -11.8745 0.4220 7.6236 44.9211
#
#
#
# Elastic Compliance Matrix: (Units=1/GPa)
#
#
# Indices 1 2 3 4 5 6 
#
# 1 0.009960 -0.002747 -0.004179 -0.000941 -0.000305 -0.000042
# 2 -0.002747 0.007952 -0.000165 0.002452 0.000958 0.000624
# 3 -0.004179 -0.000165 0.017433 0.004361 -0.002828 0.004420
# 4 -0.000941 0.002452 0.004361 0.035187 0.007298 -0.000167
# 5 -0.000305 0.000958 -0.002828 0.007298 0.027980 -0.005458
# 6 -0.000042 0.000624 0.004420 -0.000167 -0.005458 0.024450
#
#
# Mechanical properties :
#
#
# Convention : Reuss Voigt Hill
#
# Bulk Modulus (GPa) = 47.24837 60.04156 53.64496
# Shear Modulus (GPa) = 34.67445 40.11888 37.39666
#
# Velocity S-wave (km/s) = 3.83281 4.12275 3.98042
# Velocity P-wave (km/s) = 6.29323 6.93544 6.62213
#
# Compressibility (1/GPa) = 0.02116475
#
# Stress axis : x y z
#
# Youngs Moduli (GPa) = 100.40082 125.74891 57.36193
#
# Poissons Ratio (x) = 0.34540 0.23971
# Poissons Ratio (y) = 0.27577 0.00945
# Poissons Ratio (z) = 0.41957 0.02072
#
# Static dielectric constant tensor:
#      x y z
#    x 1.945590 -0.026020 0.017340 
#    y -0.026020 1.891860 0.008670 
#    z 0.017340 0.008670 1.983980 
# 
# From -- ./inp_files/482044.got.cif
#   From: 2010.05.17/outbox.cif.g08.bks.cpg/sg2_242_cif.got.tgz:482044.got - 2010.06.03 11:33:40.
