data_PCOD9033212
_publ_section_title
;
Structure prediction by ZEFSAII (Michael W. Deem and Ramdas Pophale) SiO2 
 PCOD9033212
Probable space group: P -1
;
_chemical_formula_sum "Si O2"
_cell_formula_units_Z 14
_cell_length_a 19.757389
_cell_length_b 14.649233
_cell_length_c 6.431897
_cell_angle_alpha 62.172411
_cell_angle_beta 79.332553
_cell_angle_gamma 26.741423
_cell_volume 602.151257
_symmetry_space_group_name_H-M "P -1"
_symmetry_group_IT_number 2
_symmetry_cell_setting 'triclinic'
loop_
_space_group_symop_operation_xyz
x,y,z
-x,-y,-z
loop_
_atom_site_type_symbol
_atom_site_label
_atom_site_fract_x
_atom_site_fract_y
_atom_site_fract_z
Si Si1 0.606839 0.628055 0.093997
Si Si2 0.301059 0.294297 0.198461
Si Si3 0.665700 0.920969 0.889053
Si Si4 0.958147 0.641433 0.195629
Si Si5 0.297006 0.824305 0.339722
Si Si6 0.170736 0.806116 0.236610
Si Si7 0.515847 0.312429 0.287424
O O1 0.741160 0.398638 0.438215
O O2 0.440406 0.915044 0.008421
O O3 0.716859 0.558559 0.969463
O O4 0.523379 0.654954 0.965272
O O5 0.315131 0.222402 0.039852
O O6 0.138947 0.456082 0.231824
O O7 0.500000 0.000000 0.500000
O O8 0.561827 0.135869 0.547859
O O9 0.865667 0.694140 0.026054
O O10 0.000000 0.500000 0.500000
O O11 0.792407 0.956855 0.972975
O O12 0.500000 0.500000 0.500000
O O13 0.157463 0.925326 0.263688
O O14 0.331090 0.823004 0.555068
O O15 0.325166 0.614458 0.177740
O O16 0.000000 0.000000 0.000000
#
# Coordination Sequence:
#
# PCOD9033212 Si02
#       7
#     2   2   2   2   2   2   2
#     4  11  23  41  73 101 141 194 239 301 368 424
#     4  12  24  41  69 104 147 188 240 293 371 438
#     4  10  22  44  66  96 142 188 238 297 354 431
#     4  11  25  43  72 106 143 187 245 302 360 434
#     4   9  21  45  71  97 143 193 242 301 356 435
#     4  10  23  40  66 100 144 181 240 305 359 433
#     4   9  20  41  67  95 136 183 250 292 353 433
#
# _framework density 23.249972
#
# number of rings (size 3 to 8) (size 9 to 14) (size 15 to 20)
#    0.000    1.714    1.429    2.571    2.000    2.286 
#    0.000    0.000    0.000    0.000    0.000    0.000 
#    0.000    0.000    0.000    0.000    0.000    0.000 
#
# Total GULP energy -78088.234384 kJ/mol
# GULP energy per Si atom -5577.731027 kJ/mol
# Density = 2.319705 g / cm^3
# Si number density = 23.249972 Si / 1000 Ang^3
#
#
#
# Elastic Constant Matrix: (Units=GPa)
#
#
# Indices 1 2 3 4 5 6 
#
# 1 169.6828 50.0299 64.1908 -1.4973 33.7246 -6.3111
# 2 50.0299 85.2797 56.3332 -0.8084 12.1773 -13.1473
# 3 64.1908 56.3332 138.5225 -7.9972 23.9152 -2.6206
# 4 -1.4973 -0.8084 -7.9972 22.6275 1.2693 1.5386
# 5 33.7246 12.1773 23.9152 1.2693 46.3195 1.9444
# 6 -6.3111 -13.1473 -2.6206 1.5386 1.9444 38.5390
#
#
#
# Elastic Compliance Matrix: (Units=1/GPa)
#
#
# Indices 1 2 3 4 5 6 
#
# 1 0.008371 -0.002952 -0.001921 -0.000017 -0.004345 0.000453
# 2 -0.002952 0.018280 -0.006145 -0.002101 0.000347 0.005401
# 3 -0.001921 -0.006145 0.011296 0.003919 -0.002856 -0.001655
# 4 -0.000017 -0.002101 0.003919 0.045796 -0.002623 -0.002149
# 5 -0.004345 0.000347 -0.002856 -0.002623 0.026293 -0.002009
# 6 0.000453 0.005401 -0.001655 -0.002149 -0.002009 0.027939
#
#
# Mechanical properties :
#
#
# Convention : Reuss Voigt Hill
#
# Bulk Modulus (GPa) = 62.84672 81.62143 72.23407
# Shear Modulus (GPa) = 30.24535 36.35926 33.30230
#
# Velocity S-wave (km/s) = 3.61068 3.95883 3.78876
# Velocity P-wave (km/s) = 6.66875 7.48857 7.09052
#
# Compressibility (1/GPa) = 0.01591173
#
# Stress axis : x y z
#
# Youngs Moduli (GPa) = 119.46561 54.70330 88.52477
#
# Poissons Ratio (x) = 0.16147 0.17004
# Poissons Ratio (y) = 0.35263 0.54401
# Poissons Ratio (z) = 0.22947 0.33617
#
# Static dielectric constant tensor:
#      x y z
#    x 1.918410 0.013080 -0.033590 
#    y 0.013080 1.940500 0.016920 
#    z -0.033590 0.016920 2.035950 
# 
# From -- ./inp_files/119242.got.cif
#   From: 2010.05.17/outbox.cif.g08.bks.cpg/sg2_60_cif.got.tgz:119242.got - 2010.06.03 11:33:40.
