data_PCOD9033590
_publ_section_title
;
Structure prediction by ZEFSAII (Michael W. Deem and Ramdas Pophale) SiO2 
 PCOD9033590
Probable space group: P -1
;
_chemical_formula_sum "Si O2"
_cell_formula_units_Z 14
_cell_length_a 7.993430
_cell_length_b 9.086314
_cell_length_c 12.545540
_cell_angle_alpha 86.814925
_cell_angle_beta 90.935922
_cell_angle_gamma 135.069377
_cell_volume 642.193976
_symmetry_space_group_name_H-M "P -1"
_symmetry_group_IT_number 2
_symmetry_cell_setting 'triclinic'
loop_
_space_group_symop_operation_xyz
x,y,z
-x,-y,-z
loop_
_atom_site_type_symbol
_atom_site_label
_atom_site_fract_x
_atom_site_fract_y
_atom_site_fract_z
Si Si1 0.893229 0.273225 0.537485
Si Si2 0.959660 0.398675 0.888898
Si Si3 0.493077 0.724006 0.177725
Si Si4 0.779011 0.964250 0.966033
Si Si5 0.593545 0.430271 0.430552
Si Si6 0.538432 0.400807 0.192697
Si Si7 0.571148 0.916035 0.391214
O O1 0.665021 0.129845 0.618212
O O2 0.000000 0.500000 0.500000
O O3 0.128581 0.355303 0.589422
O O4 0.799788 0.139988 0.432553
O O5 0.781041 0.394642 0.823436
O O6 0.208755 0.518999 0.830195
O O7 0.848968 0.168661 0.917463
O O8 0.000000 0.500000 0.000000
O O9 0.531679 0.573453 0.167956
O O10 0.602397 0.847346 0.285519
O O11 0.616597 0.878539 0.072504
O O12 0.640511 0.789054 0.881134
O O13 0.000000 0.000000 0.000000
O O14 0.500000 0.500000 0.500000
O O15 0.478632 0.344279 0.318004
O O16 0.522151 0.245124 0.507396
#
# Coordination Sequence:
#
# PCOD9033590 Si02
#       7
#     2   2   2   2   2   2   2
#     4   9  21  42  64  94 134 175 229 279 329 403
#     4  12  26  48  72 101 139 184 233 286 348 413
#     4  12  24  46  73 103 140 182 231 285 354 411
#     4  12  26  47  72 103 139 180 229 290 352 409
#     4  11  23  42  67  99 136 180 222 273 344 404
#     4  12  26  47  72 103 143 180 233 292 339 416
#     4  10  22  44  68  98 137 179 227 282 339 408
#
# _framework density 21.800267999999999
#
# number of rings (size 3 to 8) (size 9 to 14) (size 15 to 20)
#    0.000    0.857    4.286    2.571    0.000    6.286 
#    5.143    0.000    0.000    0.000    0.000    0.000 
#    0.000    0.000    0.000    0.000    0.000    0.000 
#
# Total GULP energy -78212.256310 kJ/mol
# GULP energy per Si atom -5586.589736 kJ/mol
# Density = 2.175065 g / cm^3
# Si number density = 21.800268 Si / 1000 Ang^3
#
#
#
# Elastic Constant Matrix: (Units=GPa)
#
#
# Indices 1 2 3 4 5 6 
#
# 1 89.0031 10.7009 -3.9931 0.4566 -5.5495 6.7556
# 2 10.7009 104.9417 40.1226 32.8547 -6.1165 2.6580
# 3 -3.9931 40.1226 128.0764 22.0375 -12.4208 5.3827
# 4 0.4566 32.8547 22.0375 27.1379 -6.3557 0.4688
# 5 -5.5495 -6.1165 -12.4208 -6.3557 26.5433 11.1466
# 6 6.7556 2.6580 5.3827 0.4688 11.1466 26.5787
#
#
#
# Elastic Compliance Matrix: (Units=1/GPa)
#
#
# Indices 1 2 3 4 5 6 
#
# 1 0.012334 -0.002165 0.001390 0.002733 0.005763 -0.005665
# 2 -0.002165 0.016184 -0.002258 -0.018318 -0.002482 0.000753
# 3 0.001390 -0.002258 0.009946 -0.004064 0.005244 -0.004269
# 4 0.002733 -0.018318 -0.004064 0.065108 0.011770 -0.004124
# 5 0.005763 -0.002482 0.005244 0.011770 0.054162 -0.025201
# 6 -0.005665 0.000753 -0.004269 -0.004124 -0.025201 0.050495
#
#
# Mechanical properties :
#
#
# Convention : Reuss Voigt Hill
#
# Bulk Modulus (GPa) = 30.86761 46.18688 38.52724
# Shear Modulus (GPa) = 22.21283 34.39802 28.30543
#
# Velocity S-wave (km/s) = 3.19552 3.97655 3.60724
# Velocity P-wave (km/s) = 5.27306 6.50510 5.92121
#
# Compressibility (1/GPa) = 0.03239642
#
# Stress axis : x y z
#
# Youngs Moduli (GPa) = 81.07972 61.78801 100.54430
#
# Poissons Ratio (x) = 0.13378 -0.13971
# Poissons Ratio (y) = 0.17555 0.22704
# Poissons Ratio (z) = -0.11267 0.13952
#
# Static dielectric constant tensor:
#      x y z
#    x 2.037080 -0.035730 0.073880 
#    y -0.035730 1.814100 -0.024440 
#    z 0.073880 -0.024440 1.792980 
# 
# From -- ./inp_files/382358.got.cif
#   From: 2010.05.17/outbox.cif.g08.bks.cpg/sg2_192_cif.got.tgz:382358.got - 2010.06.03 11:33:40.
