data_PCOD9033855
_publ_section_title
;
Structure prediction by ZEFSAII (Michael W. Deem and Ramdas Pophale) SiO2 
 PCOD9033855
Probable space group: P -1
;
_chemical_formula_sum "Si O2"
_cell_formula_units_Z 16
_cell_length_a 9.281294
_cell_length_b 19.851123
_cell_length_c 5.478159
_cell_angle_alpha 86.742789
_cell_angle_beta 54.107642
_cell_angle_gamma 56.120283
_cell_volume 621.736958
_symmetry_space_group_name_H-M "P -1"
_symmetry_group_IT_number 2
_symmetry_cell_setting 'triclinic'
loop_
_space_group_symop_operation_xyz
x,y,z
-x,-y,-z
loop_
_atom_site_type_symbol
_atom_site_label
_atom_site_fract_x
_atom_site_fract_y
_atom_site_fract_z
Si Si1 0.248328 0.408560 0.681898
Si Si2 0.272818 0.525274 0.346298
Si Si3 0.270815 0.917688 0.788634
Si Si4 0.924072 0.843047 0.826401
Si Si5 0.269357 0.647983 0.649204
Si Si6 0.317671 0.120332 0.426843
Si Si7 0.081595 0.317085 0.655589
Si Si8 0.209751 0.895082 0.357454
O O1 0.289668 0.441699 0.386385
O O2 0.482886 0.374638 0.599247
O O3 0.211920 0.337689 0.703205
O O4 0.000000 0.500000 0.000000
O O5 0.277545 0.568115 0.578465
O O6 0.032537 0.604725 0.441328
O O7 0.500000 0.500000 0.000000
O O8 0.410091 0.945502 0.765654
O O9 0.372999 0.883469 0.418471
O O10 0.281231 0.861343 0.013829
O O11 0.000000 0.000000 0.000000
O O12 0.753592 0.894009 0.754410
O O13 0.073247 0.736998 0.675643
O O14 0.113269 0.854166 0.599416
O O15 0.817496 0.869903 0.198225
O O16 0.143850 0.670174 0.029407
O O17 0.256141 0.214904 0.436740
O O18 0.000000 0.000000 0.500000
#
# Coordination Sequence:
#
# PCOD9033855 Si02
#       8
#     2   2   2   2   2   2   2   2
#     4  12  24  41  67  95 128 185 228 284 357 409
#     4  12  22  43  65  89 136 175 226 291 345 404
#     4  10  22  44  70 103 142 174 217 283 341 403
#     4  11  24  45  71 100 137 185 229 277 356 405
#     4  11  24  44  63  95 140 173 227 296 344 404
#     4  11  24  45  70 102 138 181 232 285 339 421
#     4  11  24  43  64  98 134 175 239 284 346 414
#     4  10  22  44  70 103 140 175 220 278 340 410
#
# _framework density 25.734355999999998
#
# number of rings (size 3 to 8) (size 9 to 14) (size 15 to 20)
#    0.000    1.000    3.750    3.000    1.750    0.000 
#    4.500   15.000    0.000    0.000    0.000    0.000 
#    0.000    0.000    0.000    0.000    0.000    0.000 
#
# Total GULP energy -89287.854622 kJ/mol
# GULP energy per Si atom -5580.490914 kJ/mol
# Density = 2.567578 g / cm^3
# Si number density = 25.734356 Si / 1000 Ang^3
#
#
#
# Elastic Constant Matrix: (Units=GPa)
#
#
# Indices 1 2 3 4 5 6 
#
# 1 133.3686 15.2326 31.1886 -6.8371 1.4961 -26.9866
# 2 15.2326 79.4873 10.5612 -6.1062 3.0989 -4.3972
# 3 31.1886 10.5612 103.8685 -14.8481 -4.2420 -23.3196
# 4 -6.8371 -6.1062 -14.8481 33.3068 -9.0223 -0.0747
# 5 1.4961 3.0989 -4.2420 -9.0223 49.2940 -7.9273
# 6 -26.9866 -4.3972 -23.3196 -0.0747 -7.9273 44.8208
#
#
#
# Elastic Compliance Matrix: (Units=1/GPa)
#
#
# Indices 1 2 3 4 5 6 
#
# 1 0.008950 -0.001213 -0.001303 0.001228 0.000675 0.004714
# 2 -0.001213 0.013064 -0.000727 0.001680 -0.000526 0.000083
# 3 -0.001303 -0.000727 0.012494 0.006070 0.003274 0.006234
# 4 0.001228 0.001680 0.006070 0.035399 0.007741 0.005490
# 5 0.000675 -0.000526 0.003274 0.007741 0.022985 0.006136
# 6 0.004714 0.000083 0.006234 0.005490 0.006136 0.029495
#
#
# Mechanical properties :
#
#
# Convention : Reuss Voigt Hill
#
# Bulk Modulus (GPa) = 35.68665 47.85436 41.77050
# Shear Modulus (GPa) = 36.17607 42.80045 39.48826
#
# Velocity S-wave (km/s) = 3.75340 4.08261 3.92146
# Velocity P-wave (km/s) = 5.71677 6.39215 6.06387
#
# Compressibility (1/GPa) = 0.02802168
#
# Stress axis : x y z
#
# Youngs Moduli (GPa) = 111.72663 76.54715 80.04137
#
# Poissons Ratio (x) = 0.09288 0.10428
# Poissons Ratio (y) = 0.13557 0.05818
# Poissons Ratio (z) = 0.14556 0.05564
#
# Static dielectric constant tensor:
#      x y z
#    x 2.129690 -0.002310 0.094150 
#    y -0.002310 2.072570 0.061570 
#    z 0.094150 0.061570 2.220850 
# 
# From -- ./inp_files/52854.got.cif
#   From: 2010.05.17/outbox.cif.g08.bks.cpg/sg2_27_cif.got.tgz:52854.got - 2010.06.03 11:33:40.
