data_PCOD9033652
_publ_section_title
;
Structure prediction by ZEFSAII (Michael W. Deem and Ramdas Pophale) SiO2 
 PCOD9033652
Probable space group: P -1
;
_chemical_formula_sum "Si O2"
_cell_formula_units_Z 14
_cell_length_a 9.116429
_cell_length_b 21.116926
_cell_length_c 9.465364
_cell_angle_alpha 44.104848
_cell_angle_beta 54.620781
_cell_angle_gamma 29.490088
_cell_volume 618.632470
_symmetry_space_group_name_H-M "P -1"
_symmetry_group_IT_number 2
_symmetry_cell_setting 'triclinic'
loop_
_space_group_symop_operation_xyz
x,y,z
-x,-y,-z
loop_
_atom_site_type_symbol
_atom_site_label
_atom_site_fract_x
_atom_site_fract_y
_atom_site_fract_z
Si Si1 0.275571 0.638561 0.791326
Si Si2 0.729210 0.711450 0.549131
Si Si3 0.423506 0.438930 0.550681
Si Si4 0.621501 0.050651 0.881665
Si Si5 0.650239 0.151712 0.973205
Si Si6 0.677656 0.833474 0.658557
Si Si7 0.164163 0.845724 0.721857
O O1 0.466228 0.592673 0.621497
O O2 0.123471 0.781330 0.736207
O O3 0.991723 0.701660 0.779488
O O4 0.500000 0.500000 0.000000
O O5 0.545337 0.815308 0.348774
O O6 0.736018 0.790211 0.531837
O O7 0.524029 0.716504 0.727760
O O8 0.071054 0.557399 0.564637
O O9 0.500000 0.500000 0.500000
O O10 0.574281 0.287163 0.771858
O O11 0.535175 0.126760 0.958595
O O12 0.976671 0.904078 0.876169
O O13 0.500000 0.000000 0.000000
O O14 0.533089 0.159366 0.172180
O O15 0.000000 0.000000 0.000000
O O16 0.500000 0.000000 0.500000
O O17 0.000000 0.000000 0.500000
#
# Coordination Sequence:
#
# PCOD9033652 Si02
#       7
#     2   2   2   2   2   2   2
#     4  12  28  46  74 108 150 192 244 314 382 444
#     4  11  25  45  73  99 150 193 242 308 374 436
#     4  12  28  50  72 108 154 198 253 311 377 447
#     4  11  24  44  76 112 142 191 250 308 371 449
#     4  12  28  47  79 110 148 200 255 308 376 453
#     4  12  25  49  75 109 150 196 252 309 379 457
#     4  10  22  44  69 102 140 185 240 297 366 443
#
# _framework density 22.630562000000001
#
# number of rings (size 3 to 8) (size 9 to 14) (size 15 to 20)
#    0.000    0.571    1.429    6.857    8.000    2.857 
#    0.000    0.000    0.000    0.000    0.000    0.000 
#    0.000    0.000    0.000    0.000    0.000    0.000 
#
# Total GULP energy -78268.118175 kJ/mol
# GULP energy per Si atom -5590.579870 kJ/mol
# Density = 2.257905 g / cm^3
# Si number density = 22.630562 Si / 1000 Ang^3
#
#
#
# Elastic Constant Matrix: (Units=GPa)
#
#
# Indices 1 2 3 4 5 6 
#
# 1 47.0689 -6.6797 -12.9083 -4.5165 -9.3520 -5.8010
# 2 -6.6797 127.7771 30.1185 6.2366 -10.9050 -27.6157
# 3 -12.9083 30.1185 88.1338 0.3469 -12.4608 -2.3025
# 4 -4.5165 6.2366 0.3469 38.4489 1.8285 0.6213
# 5 -9.3520 -10.9050 -12.4608 1.8285 38.6024 4.7995
# 6 -5.8010 -27.6157 -2.3025 0.6213 4.7995 63.5421
#
#
#
# Elastic Compliance Matrix: (Units=1/GPa)
#
#
# Indices 1 2 3 4 5 6 
#
# 1 0.024549 0.001316 0.004229 0.002247 0.007280 0.002394
# 2 0.001316 0.009651 -0.002749 -0.001534 0.001721 0.004100
# 3 0.004229 -0.002749 0.013546 0.000609 0.004676 -0.000677
# 4 0.002247 -0.001534 0.000609 0.026568 -0.000872 -0.000633
# 5 0.007280 0.001721 0.004676 -0.000872 0.029788 -0.000660
# 6 0.002394 0.004100 -0.000677 -0.000633 -0.000660 0.017769
#
#
# Mechanical properties :
#
#
# Convention : Reuss Voigt Hill
#
# Bulk Modulus (GPa) = 18.74864 31.56008 25.15436
# Shear Modulus (GPa) = 37.29724 44.94864 41.12294
#
# Velocity S-wave (km/s) = 4.06407 4.46151 4.26742
# Velocity P-wave (km/s) = 5.50680 6.36523 5.95151
#
# Compressibility (1/GPa) = 0.05333720
#
# Stress axis : x y z
#
# Youngs Moduli (GPa) = 40.73477 103.62030 73.82156
#
# Poissons Ratio (x) = -0.13633 -0.31219
# Poissons Ratio (y) = -0.05359 0.20293
# Poissons Ratio (z) = -0.17226 0.28484
#
# Static dielectric constant tensor:
#      x y z
#    x 1.952000 -0.002520 -0.001690 
#    y -0.002520 1.824460 0.029360 
#    z -0.001690 0.029360 1.783630 
# 
# From -- ./inp_files/223149.got.cif
#   From: 2010.05.17/outbox.cif.g08.bks.cpg/sg2_112_cif.got.tgz:223149.got - 2010.06.03 11:33:40.
