data_PCOD9033059
_publ_section_title
;
Structure prediction by ZEFSAII (Michael W. Deem and Ramdas Pophale) SiO2 
 PCOD9033059
Probable space group: P -1
;
_chemical_formula_sum "Si O2"
_cell_formula_units_Z 16
_cell_length_a 20.131269
_cell_length_b 5.629531
_cell_length_c 11.743384
_cell_angle_alpha 56.556485
_cell_angle_beta 148.414682
_cell_angle_gamma 119.854166
_cell_volume 580.431818
_symmetry_space_group_name_H-M "P -1"
_symmetry_group_IT_number 2
_symmetry_cell_setting 'triclinic'
loop_
_space_group_symop_operation_xyz
x,y,z
-x,-y,-z
loop_
_atom_site_type_symbol
_atom_site_label
_atom_site_fract_x
_atom_site_fract_y
_atom_site_fract_z
Si Si1 0.819301 0.042307 0.450365
Si Si2 0.680391 0.746593 0.674087
Si Si3 0.506869 0.963436 0.833273
Si Si4 0.039239 0.297624 0.837281
Si Si5 0.137318 0.898950 0.749262
Si Si6 0.866761 0.458148 0.751110
Si Si7 0.298764 0.865113 0.210129
Si Si8 0.397144 0.583252 0.977705
O O1 0.964903 0.101101 0.687681
O O2 0.794276 0.993954 0.293113
O O3 0.742876 0.322667 0.285749
O O4 0.788180 0.737232 0.542175
O O5 0.642280 0.410759 0.686802
O O6 0.618214 0.942835 0.438191
O O7 0.636509 0.864156 0.701523
O O8 0.836604 0.781603 0.888799
O O9 0.481243 0.764145 0.958830
O O10 0.573561 0.746262 0.903009
O O11 0.569315 0.261643 0.894560
O O12 0.924801 0.361137 0.740313
O O13 0.106848 0.559936 0.798057
O O14 0.205439 0.969425 0.948486
O O15 0.000000 0.000000 0.500000
O O16 0.779691 0.275502 0.760312
O O17 0.000000 0.500000 0.000000
#
# Coordination Sequence:
#
# PCOD9033059 Si02
#       8
#     2   2   2   2   2   2   2   2
#     4  12  26  41  68  98 139 178 227 274 333 411
#     4  11  22  42  66  95 130 175 218 273 333 402
#     4  10  22  44  65  93 133 168 226 280 344 380
#     4  11  25  38  66  98 135 181 216 272 340 402
#     4  11  21  44  60  94 142 186 217 262 337 414
#     4  12  22  39  58 100 135 172 223 269 327 400
#     4  11  25  38  65  95 133 177 220 272 329 393
#     4  10  24  41  66  96 126 179 222 279 332 397
#
# _framework density 27.565683
#
# number of rings (size 3 to 8) (size 9 to 14) (size 15 to 20)
#    0.000    1.000    3.750    3.375    5.250    3.000 
#    0.000    0.000    0.000   10.500    0.000    0.000 
#    0.000    0.000    0.000    0.000    0.000    0.000 
#
# Total GULP energy -89442.990185 kJ/mol
# GULP energy per Si atom -5590.186887 kJ/mol
# Density = 2.750294 g / cm^3
# Si number density = 27.565683 Si / 1000 Ang^3
#
#
#
# Elastic Constant Matrix: (Units=GPa)
#
#
# Indices 1 2 3 4 5 6 
#
# 1 91.0931 48.4516 49.6766 -7.9484 -9.3756 -18.5307
# 2 48.4516 153.2199 84.4242 1.7491 -3.4569 -44.5523
# 3 49.6766 84.4242 182.1872 -14.0710 2.2485 -22.2683
# 4 -7.9484 1.7491 -14.0710 53.1689 -10.4535 4.0012
# 5 -9.3756 -3.4569 2.2485 -10.4535 45.5502 -6.4239
# 6 -18.5307 -44.5523 -22.2683 4.0012 -6.4239 52.7031
#
#
#
# Elastic Compliance Matrix: (Units=1/GPa)
#
#
# Indices 1 2 3 4 5 6 
#
# 1 0.014719 -0.002622 -0.002400 0.002226 0.003775 0.002236
# 2 -0.002622 0.011869 -0.004026 -0.002204 0.001142 0.007717
# 3 -0.002400 -0.004026 0.008024 0.001796 -0.000940 -0.001108
# 4 0.002226 -0.002204 0.001796 0.020726 0.004773 -0.001314
# 5 0.003775 0.001142 -0.000940 0.004773 0.024598 0.004532
# 6 0.002236 0.007717 -0.001108 -0.001314 0.004532 0.026468
#
#
# Mechanical properties :
#
#
# Convention : Reuss Voigt Hill
#
# Bulk Modulus (GPa) = 60.54994 87.95610 74.25302
# Shear Modulus (GPa) = 38.46025 46.54762 42.50394
#
# Velocity S-wave (km/s) = 3.73932 4.11373 3.93098
# Velocity P-wave (km/s) = 6.37626 7.38517 6.89918
#
# Compressibility (1/GPa) = 0.01651529
#
# Stress axis : x y z
#
# Youngs Moduli (GPa) = 67.94076 84.25352 124.63106
#
# Poissons Ratio (x) = 0.22095 0.29906
# Poissons Ratio (y) = 0.17817 0.50177
# Poissons Ratio (z) = 0.16303 0.33921
#
# Static dielectric constant tensor:
#      x y z
#    x 2.105030 -0.112360 0.152130 
#    y -0.112360 2.193500 0.005140 
#    z 0.152130 0.005140 2.112110 
# 
# From -- ./inp_files/473377.got.cif
#   From: 2010.05.17/outbox.cif.g08.bks.cpg/sg2_237_cif.got.tgz:473377.got - 2010.06.03 11:33:40.
