data_PCOD9033863
_publ_section_title
;
Structure prediction by ZEFSAII (Michael W. Deem and Ramdas Pophale) SiO2 
 PCOD9033863
Probable space group: P -1
;
_chemical_formula_sum "Si O2"
_cell_formula_units_Z 14
_cell_length_a 13.989459
_cell_length_b 5.243802
_cell_length_c 16.549344
_cell_angle_alpha 112.395667
_cell_angle_beta 28.665082
_cell_angle_gamma 112.241329
_cell_volume 535.749504
_symmetry_space_group_name_H-M "P -1"
_symmetry_group_IT_number 2
_symmetry_cell_setting 'triclinic'
loop_
_space_group_symop_operation_xyz
x,y,z
-x,-y,-z
loop_
_atom_site_type_symbol
_atom_site_label
_atom_site_fract_x
_atom_site_fract_y
_atom_site_fract_z
Si Si1 0.502662 0.689645 0.923629
Si Si2 0.501101 0.872487 0.633585
Si Si3 0.739033 0.807696 0.609479
Si Si4 0.078823 0.535747 0.151797
Si Si5 0.127761 0.045000 0.734028
Si Si6 0.875527 0.385467 0.656588
Si Si7 0.761605 0.646675 0.160665
O O1 0.574994 0.655281 0.772409
O O2 0.676961 0.548303 0.825029
O O3 0.270695 0.565801 0.072030
O O4 0.500000 0.000000 0.000000
O O5 0.641950 0.903488 0.611683
O O6 0.648145 0.845145 0.445814
O O7 0.344744 0.613890 0.742187
O O8 0.395415 0.142864 0.724718
O O9 0.935792 0.649580 0.428117
O O10 0.798420 0.073711 0.653016
O O11 0.008595 0.835811 0.219595
O O12 0.143437 0.442514 0.003229
O O13 0.914762 0.284201 0.267569
O O14 0.092531 0.178767 0.863376
O O15 0.000000 0.500000 0.500000
#
# Coordination Sequence:
#
# PCOD9033863 Si02
#       7
#     2   2   2   2   2   2   2
#     4  11  25  46  70 102 145 196 246 299 367 441
#     4  12  25  45  77 108 149 187 250 301 363 440
#     4  10  22  44  70 104 135 195 243 305 364 430
#     4  12  26  48  73 109 151 193 244 301 374 439
#     4  12  27  47  73 114 149 190 244 305 373 435
#     4   9  21  42  70  97 136 182 254 299 360 427
#     4  12  24  48  80 104 147 198 244 302 366 445
#
# _framework density 26.131616999999999
#
# number of rings (size 3 to 8) (size 9 to 14) (size 15 to 20)
#    0.000    0.857    1.429    5.143    4.000    4.000 
#    5.143    0.000    0.000    0.000    0.000    0.000 
#    0.000    0.000    0.000    0.000    0.000    0.000 
#
# Total GULP energy -78360.730614 kJ/mol
# GULP energy per Si atom -5597.195044 kJ/mol
# Density = 2.607214 g / cm^3
# Si number density = 26.131617 Si / 1000 Ang^3
#
#
#
# Elastic Constant Matrix: (Units=GPa)
#
#
# Indices 1 2 3 4 5 6 
#
# 1 145.9010 9.3115 25.2059 14.0281 -9.5546 -13.8674
# 2 9.3115 98.3621 26.7526 -4.7071 0.7676 1.0223
# 3 25.2059 26.7526 115.4549 9.1876 -18.3131 -21.7299
# 4 14.0281 -4.7071 9.1876 46.8480 -10.4062 -4.3015
# 5 -9.5546 0.7676 -18.3131 -10.4062 44.7401 10.5328
# 6 -13.8674 1.0223 -21.7299 -4.3015 10.5328 45.7856
#
#
#
# Elastic Compliance Matrix: (Units=1/GPa)
#
#
# Indices 1 2 3 4 5 6 
#
# 1 0.007409 -0.000537 -0.000997 -0.001850 0.000396 0.001518
# 2 -0.000537 0.011128 -0.002997 0.001547 -0.000819 -0.001500
# 3 -0.000997 -0.002997 0.010928 -0.001080 0.003086 0.004140
# 4 -0.001850 0.001547 -0.001080 0.023279 0.004543 0.000035
# 5 0.000396 -0.000819 0.003086 0.004543 0.025683 -0.003879
# 6 0.001518 -0.001500 0.004140 0.000035 -0.003879 0.025195
#
#
# Mechanical properties :
#
#
# Convention : Reuss Voigt Hill
#
# Bulk Modulus (GPa) = 49.01396 53.58419 51.29908
# Shear Modulus (GPa) = 41.84640 47.37130 44.60885
#
# Velocity S-wave (km/s) = 4.00605 4.26231 4.13617
# Velocity P-wave (km/s) = 6.33997 6.69127 6.51799
#
# Compressibility (1/GPa) = 0.02040235
#
# Stress axis : x y z
#
# Youngs Moduli (GPa) = 134.97898 89.86000 91.50760
#
# Poissons Ratio (x) = 0.04830 0.09126
# Poissons Ratio (y) = 0.07255 0.27421
# Poissons Ratio (z) = 0.13461 0.26927
#
# Static dielectric constant tensor:
#      x y z
#    x 2.092650 -0.002460 0.031230 
#    y -0.002460 1.871200 0.150360 
#    z 0.031230 0.150360 1.898280 
# 
# From -- ./inp_files/571566.got.cif
#   From: 2010.05.17/outbox.cif.g08.bks.cpg/sg2_286_cif.got.tgz:571566.got - 2010.06.03 11:33:40.
