data_PCOD9033410
_publ_section_title
;
Structure prediction by ZEFSAII (Michael W. Deem and Ramdas Pophale) SiO2 
 PCOD9033410
Probable space group: P -1
;
_chemical_formula_sum "Si O2"
_cell_formula_units_Z 14
_cell_length_a 10.188498
_cell_length_b 9.618767
_cell_length_c 15.489231
_cell_angle_alpha 52.643877
_cell_angle_beta 34.895495
_cell_angle_gamma 73.772482
_cell_volume 605.598675
_symmetry_space_group_name_H-M "P -1"
_symmetry_group_IT_number 2
_symmetry_cell_setting 'triclinic'
loop_
_space_group_symop_operation_xyz
x,y,z
-x,-y,-z
loop_
_atom_site_type_symbol
_atom_site_label
_atom_site_fract_x
_atom_site_fract_y
_atom_site_fract_z
Si Si1 0.682917 0.256777 0.074494
Si Si2 0.836297 0.450803 0.400104
Si Si3 0.707877 0.222249 0.279584
Si Si4 0.290821 0.112939 0.839460
Si Si5 0.868907 0.790261 0.601271
Si Si6 0.272783 0.373225 0.904191
Si Si7 0.176041 0.401514 0.465438
O O1 0.708246 0.222955 0.174805
O O2 0.440945 0.300035 0.177559
O O3 0.621076 0.054550 0.134157
O O4 0.968195 0.415223 0.829020
O O5 0.540415 0.295843 0.589477
O O6 0.821039 0.586782 0.436162
O O7 0.982852 0.329904 0.401827
O O8 0.673486 0.414744 0.246789
O O9 0.500000 0.000000 0.500000
O O10 0.997216 0.281918 0.134344
O O11 0.261294 0.212319 0.904275
O O12 0.000000 0.000000 0.000000
O O13 0.898868 0.793677 0.478329
O O14 0.000000 0.000000 0.500000
O O15 0.538942 0.443836 0.784460
O O16 0.000000 0.500000 0.500000
#
# Coordination Sequence:
#
# PCOD9033410 Si02
#       7
#     2   2   2   2   2   2   2
#     4  12  24  45  67 103 135 177 234 279 343 402
#     4  10  24  43  72  96 140 181 221 286 339 398
#     4  11  25  45  69  99 138 180 227 282 340 405
#     4  11  23  43  64 100 136 179 229 273 337 407
#     4  11  21  44  71 101 134 174 229 285 337 408
#     4  10  22  44  67  99 134 176 228 274 341 406
#     4   9  20  42  69  94 133 176 218 272 340 403
#
# _framework density 23.117619999999999
#
# number of rings (size 3 to 8) (size 9 to 14) (size 15 to 20)
#    0.000    1.429    4.286    0.429    0.000    5.143 
#    0.000    0.714    0.000    0.000    0.000    0.000 
#    0.000    0.000    0.000    0.000    0.000    0.000 
#
# Total GULP energy -78097.122252 kJ/mol
# GULP energy per Si atom -5578.365875 kJ/mol
# Density = 2.306500 g / cm^3
# Si number density = 23.117620 Si / 1000 Ang^3
#
#
#
# Elastic Constant Matrix: (Units=GPa)
#
#
# Indices 1 2 3 4 5 6 
#
# 1 53.2032 30.6487 54.8397 3.4285 -16.1270 9.3843
# 2 30.6487 186.4747 36.5865 1.1981 -8.3471 22.7802
# 3 54.8397 36.5865 173.5277 15.3355 -19.3690 5.0437
# 4 3.4285 1.1981 15.3355 35.9475 -8.8777 -18.2638
# 5 -16.1270 -8.3471 -19.3690 -8.8777 42.1651 7.3099
# 6 9.3843 22.7802 5.0437 -18.2638 7.3099 36.9266
#
#
#
# Elastic Compliance Matrix: (Units=1/GPa)
#
#
# Indices 1 2 3 4 5 6 
#
# 1 0.033579 -0.002344 -0.008683 -0.001359 0.009573 -0.008469
# 2 -0.002344 0.006371 -0.000233 -0.001976 0.000605 -0.004400
# 3 -0.008683 -0.000233 0.008859 -0.003134 0.000117 -0.000433
# 4 -0.001359 -0.001976 -0.003134 0.041045 0.002513 0.021796
# 5 0.009573 0.000605 0.000117 0.002513 0.029362 -0.007391
# 6 -0.008469 -0.004400 -0.000433 0.021796 -0.007391 0.044250
#
#
# Mechanical properties :
#
#
# Convention : Reuss Voigt Hill
#
# Bulk Modulus (GPa) = 38.03739 73.03949 55.53844
# Shear Modulus (GPa) = 25.67436 42.41656 34.04546
#
# Velocity S-wave (km/s) = 3.33618 4.28812 3.84175
# Velocity P-wave (km/s) = 5.59729 7.49537 6.61477
#
# Compressibility (1/GPa) = 0.02628992
#
# Stress axis : x y z
#
# Youngs Moduli (GPa) = 29.78041 156.96857 112.88436
#
# Poissons Ratio (x) = 0.36786 0.98019
# Poissons Ratio (y) = 0.06979 0.02626
# Poissons Ratio (z) = 0.25859 0.03651
#
# Static dielectric constant tensor:
#      x y z
#    x 1.744830 0.048730 -0.091500 
#    y 0.048730 1.877730 0.023820 
#    z -0.091500 0.023820 1.875150 
# 
# From -- ./inp_files/378414.got.cif
#   From: 2010.05.17/outbox.cif.g08.bks.cpg/sg2_190_cif.got.tgz:378414.got - 2010.06.03 11:33:40.
