data_PCOD9033966
_publ_section_title
;
Structure prediction by ZEFSAII (Michael W. Deem and Ramdas Pophale) SiO2 
 PCOD9033966
Probable space group: P -1
;
_chemical_formula_sum "Si O2"
_cell_formula_units_Z 14
_cell_length_a 9.394171
_cell_length_b 16.505676
_cell_length_c 5.878993
_cell_angle_alpha 95.373340
_cell_angle_beta 138.374525
_cell_angle_gamma 74.388077
_cell_volume 574.889148
_symmetry_space_group_name_H-M "P -1"
_symmetry_group_IT_number 2
_symmetry_cell_setting 'triclinic'
loop_
_space_group_symop_operation_xyz
x,y,z
-x,-y,-z
loop_
_atom_site_type_symbol
_atom_site_label
_atom_site_fract_x
_atom_site_fract_y
_atom_site_fract_z
Si Si1 0.516061 0.597181 0.512844
Si Si2 0.967469 0.542987 0.228591
Si Si3 0.093848 0.691315 0.287931
Si Si4 0.870623 0.819864 0.409617
Si Si5 0.789310 0.122126 0.851818
Si Si6 0.895722 0.953274 0.175635
Si Si7 0.643065 0.731156 0.458129
O O1 0.500000 0.500000 0.500000
O O2 0.289801 0.667753 0.334217
O O3 0.590074 0.639460 0.384215
O O4 0.708195 0.597821 0.922019
O O5 0.000000 0.500000 0.500000
O O6 0.126501 0.601637 0.427543
O O7 0.000000 0.500000 0.000000
O O8 0.064096 0.756144 0.473433
O O9 0.863107 0.717188 0.876000
O O10 0.759164 0.897453 0.123230
O O11 0.713583 0.768818 0.319138
O O12 0.002990 0.857221 0.764425
O O13 0.563471 0.195280 0.661886
O O14 0.889164 0.108214 0.715219
O O15 0.766838 0.030391 0.878350
O O16 0.000000 0.000000 0.500000
#
# Coordination Sequence:
#
# PCOD9033966 Si02
#       7
#     2   2   2   2   2   2   2
#     4  11  24  47  70  97 140 188 237 301 366 428
#     4  11  26  47  73 106 141 182 246 306 369 440
#     4  11  26  44  66  99 138 183 235 290 362 428
#     4  11  23  41  66  99 138 179 232 291 347 429
#     4  10  22  44  70  97 138 181 225 286 349 424
#     4   9  20  41  69 100 135 178 227 278 350 423
#     4  11  25  41  67  99 138 177 234 289 354 421
#
# _framework density 24.352519000000001
#
# number of rings (size 3 to 8) (size 9 to 14) (size 15 to 20)
#    0.000    1.429    1.429    2.571    4.000    6.857 
#    2.571   10.000    0.000    0.000    0.000    0.000 
#    0.000    0.000    0.000    0.000    0.000    0.000 
#
# Total GULP energy -78074.502248 kJ/mol
# GULP energy per Si atom -5576.750161 kJ/mol
# Density = 2.429709 g / cm^3
# Si number density = 24.352519 Si / 1000 Ang^3
#
#
#
# Elastic Constant Matrix: (Units=GPa)
#
#
# Indices 1 2 3 4 5 6 
#
# 1 159.1701 99.6859 46.6954 -20.6877 -18.8460 31.3596
# 2 99.6859 139.4215 13.5956 -11.5412 -24.3481 27.3018
# 3 46.6954 13.5956 34.2357 -13.3608 -3.2936 1.6585
# 4 -20.6877 -11.5412 -13.3608 41.9858 -6.2595 -12.8939
# 5 -18.8460 -24.3481 -3.2936 -6.2595 40.9387 -13.7579
# 6 31.3596 27.3018 1.6585 -12.8939 -13.7579 67.3236
#
#
#
# Elastic Compliance Matrix: (Units=1/GPa)
#
#
# Indices 1 2 3 4 5 6 
#
# 1 0.023224 -0.013390 -0.027422 -0.002974 -0.001834 -0.005657
# 2 -0.013390 0.016485 0.013523 0.003379 0.005583 0.001007
# 3 -0.027422 0.013523 0.067543 0.015756 0.006622 0.009996
# 4 -0.002974 0.003379 0.015756 0.032055 0.009392 0.007686
# 5 -0.001834 0.005583 0.006622 0.009392 0.031082 0.006578
# 6 -0.005657 0.001007 0.009996 0.007686 0.006578 0.019650
#
#
# Mechanical properties :
#
#
# Convention : Reuss Voigt Hill
#
# Bulk Modulus (GPa) = 18.98434 72.53124 45.75779
# Shear Modulus (GPa) = 19.07129 41.57295 30.32212
#
# Velocity S-wave (km/s) = 2.80149 4.13623 3.53247
# Velocity P-wave (km/s) = 4.27516 7.25670 5.95553
#
# Compressibility (1/GPa) = 0.05267499
#
# Stress axis : x y z
#
# Youngs Moduli (GPa) = 43.05921 60.66106 14.80547
#
# Poissons Ratio (x) = 0.81224 0.40599
# Poissons Ratio (y) = 0.57655 -0.20022
# Poissons Ratio (z) = 1.18076 -0.82035
#
# Static dielectric constant tensor:
#      x y z
#    x 2.061680 0.064380 -0.036540 
#    y 0.064380 2.062610 -0.041550 
#    z -0.036540 -0.041550 1.940140 
# 
# From -- ./inp_files/44794.got.cif
#   From: 2010.05.17/outbox.cif.g08.bks.cpg/sg2_23_cif.got.tgz:44794.got - 2010.06.03 11:33:40.
