data_PCOD9033338
_publ_section_title
;
Structure prediction by ZEFSAII (Michael W. Deem and Ramdas Pophale) SiO2 
 PCOD9033338
Probable space group: P -1
;
_chemical_formula_sum "Si O2"
_cell_formula_units_Z 16
_cell_length_a 6.805942
_cell_length_b 21.014885
_cell_length_c 9.833248
_cell_angle_alpha 56.692874
_cell_angle_beta 133.488142
_cell_angle_gamma 123.838372
_cell_volume 814.786483
_symmetry_space_group_name_H-M "P -1"
_symmetry_group_IT_number 2
_symmetry_cell_setting 'triclinic'
loop_
_space_group_symop_operation_xyz
x,y,z
-x,-y,-z
loop_
_atom_site_type_symbol
_atom_site_label
_atom_site_fract_x
_atom_site_fract_y
_atom_site_fract_z
Si Si1 0.605371 0.041380 0.644710
Si Si2 0.159941 0.345675 0.510160
Si Si3 0.450103 0.932654 0.940051
Si Si4 0.495009 0.312799 0.222969
Si Si5 0.220503 0.419146 0.153477
Si Si6 0.424739 0.597193 0.114959
Si Si7 0.823306 0.860147 0.614931
Si Si8 0.829533 0.831341 0.332800
O O1 0.371174 0.081272 0.540224
O O2 0.897329 0.109503 0.679237
O O3 0.500000 0.000000 0.500000
O O4 0.620098 0.975133 0.838493
O O5 0.232567 0.390984 0.348005
O O6 0.356317 0.391131 0.671845
O O7 0.204146 0.258915 0.617567
O O8 0.827790 0.333344 0.392236
O O9 0.122364 0.900606 0.780796
O O10 0.564533 0.861416 0.129465
O O11 0.500000 0.000000 0.000000
O O12 0.354388 0.367814 0.179803
O O13 0.339787 0.221474 0.291440
O O14 0.477174 0.333435 0.031589
O O15 0.378831 0.513108 0.115321
O O16 0.888483 0.405354 0.979200
O O17 0.871430 0.841101 0.503592
#
# Coordination Sequence:
#
# PCOD9033338 Si02
#       8
#     2   2   2   2   2   2   2   2
#     4  12  24  45  70  91 129 172 211 271 328 380
#     4  11  24  41  66  98 129 173 219 262 320 386
#     4  12  26  43  69  97 125 171 220 266 327 388
#     4  11  24  41  67  95 133 172 215 262 328 382
#     4  10  22  44  67  95 135 174 208 266 326 379
#     4  10  24  41  67 101 131 167 221 264 314 386
#     4  12  25  45  66  96 135 169 212 274 325 380
#     4  12  25  43  66  96 131 170 218 267 325 385
#
# _framework density 19.637046000000002
#
# number of rings (size 3 to 8) (size 9 to 14) (size 15 to 20)
#    0.000    0.750    5.000    2.250    1.750    4.500 
#    0.000    0.000    0.000    0.000    0.000    0.000 
#    0.000    0.000    0.000    0.000    0.000    0.000 
#
# Total GULP energy -89530.412668 kJ/mol
# GULP energy per Si atom -5595.650792 kJ/mol
# Density = 1.959235 g / cm^3
# Si number density = 19.637046 Si / 1000 Ang^3
#
#
#
# Elastic Constant Matrix: (Units=GPa)
#
#
# Indices 1 2 3 4 5 6 
#
# 1 49.1385 9.4261 1.7309 7.7095 3.4568 1.9283
# 2 9.4261 49.1077 2.3062 -7.9359 -1.1796 7.4098
# 3 1.7309 2.3062 38.1473 -5.1631 -6.1161 18.7395
# 4 7.7095 -7.9359 -5.1631 32.2381 -6.2334 2.5684
# 5 3.4568 -1.1796 -6.1161 -6.2334 32.5728 -10.3083
# 6 1.9283 7.4098 18.7395 2.5684 -10.3083 37.8855
#
#
#
# Elastic Compliance Matrix: (Units=1/GPa)
#
#
# Indices 1 2 3 4 5 6 
#
# 1 0.023202 -0.005899 -0.002940 -0.008421 -0.004604 0.000746
# 2 -0.005899 0.023685 0.003253 0.008597 0.001833 -0.006025
# 3 -0.002940 0.003253 0.037112 0.009576 0.003350 -0.018581
# 4 -0.008421 0.008597 0.009576 0.038817 0.008429 -0.006327
# 5 -0.004604 0.001833 0.003350 0.008429 0.035839 0.007399
# 6 0.000746 -0.006025 -0.018581 -0.006327 0.007399 0.039169
#
#
# Mechanical properties :
#
#
# Convention : Reuss Voigt Hill
#
# Bulk Modulus (GPa) = 13.73133 18.14665 15.93899
# Shear Modulus (GPa) = 21.43424 28.73464 25.08444
#
# Velocity S-wave (km/s) = 3.30740 3.82944 3.57796
# Velocity P-wave (km/s) = 4.64682 5.36786 5.02030
#
# Compressibility (1/GPa) = 0.07282614
#
# Stress axis : x y z
#
# Youngs Moduli (GPa) = 43.10031 42.21997 26.94558
#
# Poissons Ratio (x) = 0.24907 0.07922
# Poissons Ratio (y) = 0.25427 -0.08766
# Poissons Ratio (z) = 0.12672 -0.13735
#
# Static dielectric constant tensor:
#      x y z
#    x 1.671180 0.011800 -0.002110 
#    y 0.011800 1.652580 -0.015980 
#    z -0.002110 -0.015980 1.672000 
# 
# From -- ./inp_files/47270.got.cif
#   From: 2010.05.17/outbox.cif.g08.bks.cpg/sg2_24_cif.got.tgz:47270.got - 2010.06.03 11:33:40.
