data_PCOD9033733
_publ_section_title
;
Structure prediction by ZEFSAII (Michael W. Deem and Ramdas Pophale) SiO2 
 PCOD9033733
Probable space group: P -1
;
_chemical_formula_sum "Si O2"
_cell_formula_units_Z 15
_cell_length_a 11.551289
_cell_length_b 14.495301
_cell_length_c 8.383720
_cell_angle_alpha 81.406108
_cell_angle_beta 111.777523
_cell_angle_gamma 148.409298
_cell_volume 641.584732
_symmetry_space_group_name_H-M "P -1"
_symmetry_group_IT_number 2
_symmetry_cell_setting 'triclinic'
loop_
_space_group_symop_operation_xyz
x,y,z
-x,-y,-z
loop_
_atom_site_type_symbol
_atom_site_label
_atom_site_fract_x
_atom_site_fract_y
_atom_site_fract_z
Si Si1 0.890261 0.017328 0.849503
Si Si2 0.378968 0.365457 0.826902
Si Si3 0.238533 0.797982 0.553417
Si Si4 0.500000 0.500000 0.500000
Si Si5 0.629539 0.982124 0.953138
Si Si6 0.468624 0.138911 0.514421
Si Si7 0.383704 0.678433 0.126901
Si Si8 0.956979 0.646299 0.746206
O O1 0.090596 0.168746 0.777087
O O2 0.844320 0.062798 0.951655
O O3 0.626658 0.845678 0.664939
O O4 0.000000 0.000000 0.000000
O O5 0.417547 0.441136 0.660262
O O6 0.490879 0.334055 0.874444
O O7 0.500000 0.500000 0.000000
O O8 0.485257 0.942438 0.751938
O O9 0.278158 0.747363 0.448027
O O10 0.008518 0.639222 0.597963
O O11 0.272129 0.924829 0.474774
O O12 0.736982 0.579823 0.639117
O O13 0.428534 0.784704 0.987863
O O14 0.781919 0.139546 0.118741
O O15 0.480562 0.193869 0.678006
O O16 0.121414 0.476689 0.122453
#
# Coordination Sequence:
#
# PCOD9033733 Si02
#       8
#     2   2   2   1   2   2   2   2
#     4  11  22  40  68  99 135 188 232 295 362 425
#     4  11  24  44  67 102 143 186 237 295 362 434
#     4  10  22  44  69  95 138 190 231 296 356 418
#     4  10  24  44  70 104 142 184 236 292 360 422
#     4  11  23  44  69 101 138 184 239 294 354 426
#     4  10  23  41  66 100 136 181 246 286 356 435
#     4  11  24  41  67 104 132 183 238 289 358 424
#     4  11  23  42  68 100 139 185 232 295 354 427
#
# _framework density 23.379608000000001
#
# number of rings (size 3 to 8) (size 9 to 14) (size 15 to 20)
#    0.000    1.333    2.667    2.800    0.000    5.867 
#    0.000    0.000    0.000    0.000    0.000    0.000 
#    0.000    0.000    0.000    0.000    0.000    0.000 
#
# Total GULP energy -83543.131089 kJ/mol
# GULP energy per Si atom -5569.542073 kJ/mol
# Density = 2.332639 g / cm^3
# Si number density = 23.379608 Si / 1000 Ang^3
#
#
#
# Elastic Constant Matrix: (Units=GPa)
#
#
# Indices 1 2 3 4 5 6 
#
# 1 138.1226 38.0907 35.6829 -11.5448 -12.5537 15.0599
# 2 38.0907 97.9234 23.5757 -28.5090 -6.4047 18.2288
# 3 35.6829 23.5757 98.1091 -36.4482 0.4385 -12.5074
# 4 -11.5448 -28.5090 -36.4482 35.9689 5.9841 -11.8789
# 5 -12.5537 -6.4047 0.4385 5.9841 52.0095 -10.8441
# 6 15.0599 18.2288 -12.5074 -11.8789 -10.8441 37.4975
#
#
#
# Elastic Compliance Matrix: (Units=1/GPa)
#
#
# Indices 1 2 3 4 5 6 
#
# 1 0.010340 -0.003578 -0.007611 -0.010033 0.001680 -0.007645
# 2 -0.003578 0.014941 0.002275 0.012711 -0.000769 -0.001263
# 3 -0.007611 0.002275 0.028742 0.036168 -0.001241 0.022636
# 4 -0.010033 0.012711 0.036168 0.083563 -0.003394 0.035405
# 5 0.001680 -0.000769 -0.001241 -0.003394 0.020821 0.004231
# 6 -0.007645 -0.001263 0.022636 0.035405 0.004231 0.050343
#
#
# Mechanical properties :
#
#
# Convention : Reuss Voigt Hill
#
# Bulk Modulus (GPa) = 27.62645 58.76152 43.19399
# Shear Modulus (GPa) = 20.95186 40.88222 30.91704
#
# Velocity S-wave (km/s) = 2.99684 4.18620 3.64042
# Velocity P-wave (km/s) = 4.88025 6.96806 6.01543
#
# Compressibility (1/GPa) = 0.03619719
#
# Stress axis : x y z
#
# Youngs Moduli (GPa) = 96.70822 66.92800 34.79263
#
# Poissons Ratio (x) = 0.23947 0.26479
# Poissons Ratio (y) = 0.34602 -0.07917
# Poissons Ratio (z) = 0.73600 -0.15229
#
# Static dielectric constant tensor:
#      x y z
#    x 1.859930 0.170590 0.067480 
#    y 0.170590 1.623510 -0.157180 
#    z 0.067480 -0.157180 1.771170 
# 
# From -- ./inp_files/272964.got.cif
#   From: 2010.05.17/outbox.cif.g08.bks.cpg/sg2_137_cif.got.tgz:272964.got - 2010.06.03 11:33:40.
