data_PCOD9033776
_publ_section_title
;
Structure prediction by ZEFSAII (Michael W. Deem and Ramdas Pophale) SiO2 
 PCOD9033776
Probable space group: P -1
;
_chemical_formula_sum "Si O2"
_cell_formula_units_Z 16
_cell_length_a 9.409658
_cell_length_b 11.303964
_cell_length_c 11.834147
_cell_angle_alpha 67.218742
_cell_angle_beta 58.129037
_cell_angle_gamma 111.140549
_cell_volume 682.200742
_symmetry_space_group_name_H-M "P -1"
_symmetry_group_IT_number 2
_symmetry_cell_setting 'triclinic'
loop_
_space_group_symop_operation_xyz
x,y,z
-x,-y,-z
loop_
_atom_site_type_symbol
_atom_site_label
_atom_site_fract_x
_atom_site_fract_y
_atom_site_fract_z
Si Si1 0.723870 0.706423 0.453443
Si Si2 0.450189 0.829814 0.133230
Si Si3 0.778286 0.966563 0.157340
Si Si4 0.383540 0.563678 0.083835
Si Si5 0.980154 0.498996 0.875974
Si Si6 0.067575 0.775259 0.451378
Si Si7 0.392418 0.912394 0.455812
Si Si8 0.801463 0.631750 0.223047
O O1 0.742317 0.842229 0.317550
O O2 0.740458 0.603035 0.391689
O O3 0.447279 0.538118 0.675721
O O4 0.951771 0.814689 0.399482
O O5 0.638369 0.882068 0.128259
O O6 0.475896 0.736429 0.057999
O O7 0.202398 0.731907 0.344107
O O8 0.500000 0.000000 0.000000
O O9 0.628864 0.001219 0.258812
O O10 0.056858 0.161957 0.950336
O O11 0.265169 0.568042 0.025669
O O12 0.172258 0.400627 0.317180
O O13 0.500000 0.500000 0.000000
O O14 0.195446 0.694189 0.650088
O O15 0.004087 0.370861 0.867020
O O16 0.000000 0.500000 0.000000
O O17 0.247965 0.920464 0.422741
O O18 0.500000 0.000000 0.500000
#
# Coordination Sequence:
#
# PCOD9033776 Si02
#       8
#     2   2   2   2   2   2   2   2
#     4  11  24  42  71 104 146 180 248 306 371 434
#     4  11  24  46  76 109 149 197 254 310 379 455
#     4  11  23  43  72 105 143 190 250 303 370 449
#     4  11  26  44  72 109 150 194 249 317 382 444
#     4  11  23  42  69  97 139 193 246 290 375 459
#     4  10  24  46  71 104 147 194 249 314 373 452
#     4  10  22  44  69  98 138 192 244 304 376 451
#     4  11  24  41  71 104 143 193 239 306 369 439
#
# _framework density 23.453506999999998
#
# number of rings (size 3 to 8) (size 9 to 14) (size 15 to 20)
#    0.000    1.250    1.250    3.750    5.250    1.000 
#    0.000    1.250    0.000    0.000    0.000    0.000 
#    0.000    0.000    0.000    0.000    0.000    0.000 
#
# Total GULP energy -89086.980892 kJ/mol
# GULP energy per Si atom -5567.936306 kJ/mol
# Density = 2.340013 g / cm^3
# Si number density = 23.453507 Si / 1000 Ang^3
#
#
#
# Elastic Constant Matrix: (Units=GPa)
#
#
# Indices 1 2 3 4 5 6 
#
# 1 230.1588 73.4098 49.1082 -3.6444 -2.5610 17.5273
# 2 73.4098 105.4491 38.6481 7.7921 -1.2453 2.5947
# 3 49.1082 38.6481 117.0089 -1.9138 -7.1046 3.0675
# 4 -3.6444 7.7921 -1.9138 36.8448 -4.3482 -0.3556
# 5 -2.5610 -1.2453 -7.1046 -4.3482 32.3009 10.9572
# 6 17.5273 2.5947 3.0675 -0.3556 10.9572 38.8758
#
#
#
# Elastic Compliance Matrix: (Units=1/GPa)
#
#
# Indices 1 2 3 4 5 6 
#
# 1 0.006045 -0.003832 -0.001103 0.001467 0.001205 -0.002709
# 2 -0.003832 0.013467 -0.003021 -0.003537 -0.001411 0.001432
# 3 -0.001103 -0.003021 0.010201 0.001346 0.002491 -0.000796
# 4 0.001467 -0.003537 0.001346 0.028640 0.004669 -0.001586
# 5 0.001205 -0.001411 0.002491 0.004669 0.035804 -0.010695
# 6 -0.002709 0.001432 -0.000796 -0.001586 -0.010695 0.029911
#
#
# Mechanical properties :
#
#
# Convention : Reuss Voigt Hill
#
# Bulk Modulus (GPa) = 72.45504 86.10544 79.28024
# Shear Modulus (GPa) = 34.58232 41.03435 37.80833
#
# Velocity S-wave (km/s) = 3.84409 4.18736 4.01940
# Velocity P-wave (km/s) = 7.11779 7.75704 7.44428
#
# Compressibility (1/GPa) = 0.01380166
#
# Stress axis : x y z
#
# Youngs Moduli (GPa) = 165.41744 74.25305 98.02487
#
# Poissons Ratio (x) = 0.28451 0.10816
# Poissons Ratio (y) = 0.63382 0.29616
# Poissons Ratio (z) = 0.18252 0.22434
#
# Static dielectric constant tensor:
#      x y z
#    x 1.896140 -0.003700 -0.021170 
#    y -0.003700 2.110450 -0.018980 
#    z -0.021170 -0.018980 1.945320 
# 
# From -- ./inp_files/389721.got.cif
#   From: 2010.05.17/outbox.cif.g08.bks.cpg/sg2_195_cif.got.tgz:389721.got - 2010.06.03 11:33:40.
