data_PCOD9033152
_publ_section_title
;
Structure prediction by ZEFSAII (Michael W. Deem and Ramdas Pophale) SiO2 
 PCOD9033152
Probable space group: P -1
;
_chemical_formula_sum "Si O2"
_cell_formula_units_Z 12
_cell_length_a 8.949399
_cell_length_b 8.243097
_cell_length_c 12.273769
_cell_angle_alpha 63.495090
_cell_angle_beta 122.476455
_cell_angle_gamma 147.233077
_cell_volume 413.383000
_symmetry_space_group_name_H-M "P -1"
_symmetry_group_IT_number 2
_symmetry_cell_setting 'triclinic'
loop_
_space_group_symop_operation_xyz
x,y,z
-x,-y,-z
loop_
_atom_site_type_symbol
_atom_site_label
_atom_site_fract_x
_atom_site_fract_y
_atom_site_fract_z
Si Si1 0.442349 0.697660 0.982895
Si Si2 0.654889 0.339784 0.574390
Si Si3 0.000000 0.000000 0.500000
Si Si4 0.699352 0.825866 0.693035
Si Si5 0.866052 0.541356 0.275486
Si Si6 0.498381 0.733033 0.234797
Si Si7 0.000000 0.000000 0.000000
O O1 0.469804 0.792742 0.087513
O O2 0.763557 0.945540 0.983012
O O3 0.244395 0.625407 0.832275
O O4 0.282758 0.370450 0.028622
O O5 0.605862 0.242836 0.708058
O O6 0.799277 0.652066 0.527359
O O7 0.872941 0.369047 0.604145
O O8 0.336678 0.115694 0.460436
O O9 0.314144 0.396943 0.257765
O O10 0.185142 0.077483 0.658720
O O11 0.973813 0.130631 0.776077
O O12 0.405348 0.654222 0.691353
#
# Coordination Sequence:
#
# PCOD9033152 Si02
#       7
#     2   2   1   2   2   2   1
#     4  11  23  43  71 105 142 186 233 291 356 423
#     4  11  27  45  71 105 144 191 238 298 355 425
#     4  10  24  46  68  98 136 192 240 278 352 424
#     4  11  25  45  73 102 145 189 241 294 347 422
#     4  12  26  45  73 109 145 183 236 300 363 412
#     4  11  26  43  74 100 144 190 241 292 349 434
#     4  10  22  44  66 104 144 184 234 280 346 430
#
# _framework density 29.028772
#
# number of rings (size 3 to 8) (size 9 to 14) (size 15 to 20)
#    0.000    1.000    0.000    7.000   14.000    0.667 
#    0.000    0.833    0.000    0.000    0.000    0.000 
#    0.000    0.000    0.000    0.000    0.000    0.000 
#
# Total GULP energy -66939.812779 kJ/mol
# GULP energy per Si atom -5578.317732 kJ/mol
# Density = 2.896270 g / cm^3
# Si number density = 29.028772 Si / 1000 Ang^3
#
#
#
# Elastic Constant Matrix: (Units=GPa)
#
#
# Indices 1 2 3 4 5 6 
#
# 1 47.4170 26.4753 36.3517 -9.9721 3.1696 -5.0297
# 2 26.4753 182.0538 45.2043 6.7836 -5.9268 9.3000
# 3 36.3517 45.2043 136.5361 12.4242 -22.7555 -16.8841
# 4 -9.9721 6.7836 12.4242 49.4048 0.0136 -7.6260
# 5 3.1696 -5.9268 -22.7555 0.0136 56.4863 0.5269
# 6 -5.0297 9.3000 -16.8841 -7.6260 0.5269 44.3621
#
#
#
# Elastic Compliance Matrix: (Units=1/GPa)
#
#
# Indices 1 2 3 4 5 6 
#
# 1 0.032601 -0.003148 -0.009181 0.009725 -0.005885 0.002603
# 2 -0.003148 0.006505 -0.001437 -0.001559 0.000304 -0.002539
# 3 -0.009181 -0.001437 0.011845 -0.004175 0.005109 0.002990
# 4 0.009725 -0.001559 -0.004175 0.024087 -0.002434 0.004010
# 5 -0.005885 0.000304 0.005109 -0.002434 0.020119 0.000556
# 6 0.002603 -0.002539 0.002990 0.004010 0.000556 0.025190
#
#
# Mechanical properties :
#
#
# Convention : Reuss Voigt Hill
#
# Bulk Modulus (GPa) = 42.70090 64.67440 53.68765
# Shear Modulus (GPa) = 32.11572 47.24900 39.68236
#
# Velocity S-wave (km/s) = 3.32978 4.03880 3.70131
# Velocity P-wave (km/s) = 5.43369 6.63905 6.06639
#
# Compressibility (1/GPa) = 0.02341871
#
# Stress axis : x y z
#
# Youngs Moduli (GPa) = 30.67428 153.72228 84.42074
#
# Poissons Ratio (x) = 0.48395 0.77508
# Poissons Ratio (y) = 0.09657 0.12131
# Poissons Ratio (z) = 0.28162 0.22089
#
# Static dielectric constant tensor:
#      x y z
#    x 2.110660 0.325030 -0.475090 
#    y 0.325030 2.172260 0.094970 
#    z -0.475090 0.094970 1.902460 
# 
# From -- ./inp_files/424043.got.cif
#   From: 2010.05.17/outbox.cif.g08.bks.cpg/sg2_213_cif.got.tgz:424043.got - 2010.06.03 11:33:40.
