data_PCOD9033539
_publ_section_title
;
Structure prediction by ZEFSAII (Michael W. Deem and Ramdas Pophale) SiO2 
 PCOD9033539
Probable space group: P -1
;
_chemical_formula_sum "Si O2"
_cell_formula_units_Z 14
_cell_length_a 8.173910
_cell_length_b 13.890447
_cell_length_c 9.277249
_cell_angle_alpha 109.262664
_cell_angle_beta 130.502749
_cell_angle_gamma 43.707084
_cell_volume 533.524975
_symmetry_space_group_name_H-M "P -1"
_symmetry_group_IT_number 2
_symmetry_cell_setting 'triclinic'
loop_
_space_group_symop_operation_xyz
x,y,z
-x,-y,-z
loop_
_atom_site_type_symbol
_atom_site_label
_atom_site_fract_x
_atom_site_fract_y
_atom_site_fract_z
Si Si1 0.517008 0.102208 0.638870
Si Si2 0.484803 0.986603 0.816190
Si Si3 0.389234 0.716242 0.233278
Si Si4 0.828539 0.269061 0.610080
Si Si5 0.166018 0.595220 0.568975
Si Si6 0.713398 0.687971 0.795695
Si Si7 0.399258 0.385737 0.017807
O O1 0.617499 0.034919 0.822872
O O2 0.701756 0.137177 0.707244
O O3 0.180328 0.264734 0.522052
O O4 0.500000 0.000000 0.500000
O O5 0.122750 0.112966 0.638720
O O6 0.626910 0.831800 0.778207
O O7 0.500000 0.000000 0.000000
O O8 0.160401 0.727313 0.208434
O O9 0.702001 0.557490 0.387495
O O10 0.431979 0.697453 0.076354
O O11 0.819138 0.380707 0.579987
O O12 0.534520 0.302338 0.415396
O O13 0.385502 0.602574 0.777964
O O14 0.059370 0.545212 0.878685
O O15 0.659082 0.684595 0.934199
#
# Coordination Sequence:
#
# PCOD9033539 Si02
#       7
#     2   2   2   2   2   2   2
#     4  11  26  44  68 100 137 179 224 278 334 401
#     4  11  24  43  67  94 136 178 222 274 337 399
#     4  12  24  42  69 104 132 174 230 276 333 393
#     4  10  24  42  67  99 131 180 221 271 340 402
#     4  10  24  45  67  97 140 177 222 275 341 399
#     4  10  22  44  68  95 138 176 222 274 342 397
#     4  10  24  41  70 103 132 175 227 282 331 396
#
# _framework density 26.240572
#
# number of rings (size 3 to 8) (size 9 to 14) (size 15 to 20)
#    0.000    1.429    0.000    3.429    8.000    3.429 
#    0.000    2.143    0.000    0.000    0.000    0.000 
#    0.000    0.000    0.000    0.000    0.000    0.000 
#
# Total GULP energy -78371.195812 kJ/mol
# GULP energy per Si atom -5597.942558 kJ/mol
# Density = 2.618085 g / cm^3
# Si number density = 26.240572 Si / 1000 Ang^3
#
#
#
# Elastic Constant Matrix: (Units=GPa)
#
#
# Indices 1 2 3 4 5 6 
#
# 1 88.3917 30.3387 36.1753 6.0698 -30.9986 14.0323
# 2 30.3387 124.7344 17.3974 -9.8877 -20.2203 30.2935
# 3 36.1753 17.3974 87.5916 4.7397 -13.8911 15.0348
# 4 6.0698 -9.8877 4.7397 36.2734 -13.3787 -6.2722
# 5 -30.9986 -20.2203 -13.8911 -13.3787 58.0528 -7.0031
# 6 14.0323 30.2935 15.0348 -6.2722 -7.0031 52.5310
#
#
#
# Elastic Compliance Matrix: (Units=1/GPa)
#
#
# Indices 1 2 3 4 5 6 
#
# 1 0.016700 -0.002035 -0.005243 -0.000328 0.006767 -0.000924
# 2 -0.002035 0.010366 -0.000180 0.003389 0.002705 -0.004617
# 3 -0.005243 -0.000180 0.014148 -0.001559 -0.000169 -0.002753
# 4 -0.000328 0.003389 -0.001559 0.032533 0.008565 0.003606
# 5 0.006767 0.002705 -0.000169 0.008565 0.023820 0.000879
# 6 -0.000924 -0.004617 -0.002753 0.003606 0.000879 0.023282
#
#
# Mechanical properties :
#
#
# Convention : Reuss Voigt Hill
#
# Bulk Modulus (GPa) = 38.02865 52.06006 45.04435
# Shear Modulus (GPa) = 34.59443 43.82519 39.20981
#
# Velocity S-wave (km/s) = 3.63486 4.09116 3.86974
# Velocity P-wave (km/s) = 5.66922 6.49610 6.09669
#
# Compressibility (1/GPa) = 0.02629597
#
# Stress axis : x y z
#
# Youngs Moduli (GPa) = 59.88018 96.47292 70.68055
#
# Poissons Ratio (x) = 0.19635 0.37061
# Poissons Ratio (y) = 0.12188 0.01273
# Poissons Ratio (z) = 0.31398 0.01738
#
# Static dielectric constant tensor:
#      x y z
#    x 2.110510 -0.044450 -0.006630 
#    y -0.044450 2.020240 0.036110 
#    z -0.006630 0.036110 2.155710 
# 
# From -- ./inp_files/207959.got.cif
#   From: 2010.05.17/outbox.cif.g08.bks.cpg/sg2_104_cif.got.tgz:207959.got - 2010.06.03 11:33:40.
