data_PCOD9033589
_publ_section_title
;
Structure prediction by ZEFSAII (Michael W. Deem and Ramdas Pophale) SiO2 
 PCOD9033589
Probable space group: P -1
;
_chemical_formula_sum "Si O2"
_cell_formula_units_Z 14
_cell_length_a 8.722751
_cell_length_b 13.960061
_cell_length_c 9.561385
_cell_angle_alpha 56.486801
_cell_angle_beta 44.239862
_cell_angle_gamma 82.191530
_cell_volume 606.005014
_symmetry_space_group_name_H-M "P -1"
_symmetry_group_IT_number 2
_symmetry_cell_setting 'triclinic'
loop_
_space_group_symop_operation_xyz
x,y,z
-x,-y,-z
loop_
_atom_site_type_symbol
_atom_site_label
_atom_site_fract_x
_atom_site_fract_y
_atom_site_fract_z
Si Si1 0.409257 0.100990 0.914391
Si Si2 0.070416 0.540429 0.079151
Si Si3 0.164008 0.986540 0.654991
Si Si4 0.421387 0.818607 0.573201
Si Si5 0.995232 0.371732 0.677708
Si Si6 0.251420 0.370523 0.252466
Si Si7 0.556080 0.799210 0.899127
O O1 0.535641 0.159732 0.637793
O O2 0.463909 0.204477 0.918777
O O3 0.500000 0.000000 0.000000
O O4 0.115397 0.038686 0.133503
O O5 0.327652 0.670379 0.794435
O O6 0.923436 0.585794 0.250471
O O7 0.079181 0.418507 0.243813
O O8 0.000000 0.500000 0.000000
O O9 0.332640 0.084273 0.585351
O O10 0.287124 0.056523 0.372812
O O11 0.213551 0.862033 0.722920
O O12 0.000000 0.500000 0.500000
O O13 0.148417 0.327026 0.510241
O O14 0.715627 0.263567 0.937275
O O15 0.301701 0.273818 0.202225
O O16 0.500000 0.500000 0.000000
#
# Coordination Sequence:
#
# PCOD9033589 Si02
#       7
#     2   2   2   2   2   2   2
#     4  12  28  44  72 107 137 187 243 296 357 418
#     4  11  25  44  70 104 142 182 225 297 352 413
#     4  11  25  48  71 100 145 186 238 294 358 423
#     4  11  25  49  69 102 148 184 234 290 364 425
#     4  10  22  44  68  98 136 186 226 278 352 416
#     4  11  23  44  72  99 139 185 235 276 348 429
#     4  12  24  44  72 105 134 182 244 293 347 419
#
# _framework density 23.102119999999999
#
# number of rings (size 3 to 8) (size 9 to 14) (size 15 to 20)
#    0.000    0.857    5.714    0.857    8.000    0.000 
#    5.143    1.429    0.000    0.000    0.000    0.000 
#    0.000    0.000    0.000    0.000    0.000    0.000 
#
# Total GULP energy -78261.314094 kJ/mol
# GULP energy per Si atom -5590.093864 kJ/mol
# Density = 2.304954 g / cm^3
# Si number density = 23.102120 Si / 1000 Ang^3
#
#
#
# Elastic Constant Matrix: (Units=GPa)
#
#
# Indices 1 2 3 4 5 6 
#
# 1 94.2225 42.3321 32.2188 32.9805 9.0600 20.4183
# 2 42.3321 128.4788 43.3208 37.4068 6.6976 12.5470
# 3 32.2188 43.3208 95.4817 27.3621 11.3994 5.4957
# 4 32.9805 37.4068 27.3621 48.8180 13.2748 16.2712
# 5 9.0600 6.6976 11.3994 13.2748 45.4473 17.3681
# 6 20.4183 12.5470 5.4957 16.2712 17.3681 45.0321
#
#
#
# Elastic Compliance Matrix: (Units=1/GPa)
#
#
# Indices 1 2 3 4 5 6 
#
# 1 0.015396 -0.002060 -0.002325 -0.006449 0.001350 -0.004314
# 2 -0.002060 0.011041 -0.002797 -0.005774 0.001246 -0.000195
# 3 -0.002325 -0.002797 0.013889 -0.004298 -0.002345 0.002596
# 4 -0.006449 -0.005774 -0.004298 0.034877 -0.004796 -0.005695
# 5 0.001350 0.001246 -0.002345 -0.004796 0.027134 -0.009405
# 6 -0.004314 -0.000195 0.002596 -0.005695 -0.009405 0.029585
#
#
# Mechanical properties :
#
#
# Convention : Reuss Voigt Hill
#
# Bulk Modulus (GPa) = 38.51959 61.54739 50.03349
# Shear Modulus (GPa) = 32.27056 41.21355 36.74205
#
# Velocity S-wave (km/s) = 3.74152 4.22829 3.99233
# Velocity P-wave (km/s) = 5.94770 7.10895 6.55410
#
# Compressibility (1/GPa) = 0.02596082
#
# Stress axis : x y z
#
# Youngs Moduli (GPa) = 64.95140 90.57546 71.99906
#
# Poissons Ratio (x) = 0.18662 0.16742
# Poissons Ratio (y) = 0.13382 0.20137
# Poissons Ratio (z) = 0.15103 0.25332
#
# Static dielectric constant tensor:
#      x y z
#    x 1.921600 -0.021880 0.026840 
#    y -0.021880 1.875650 0.013290 
#    z 0.026840 0.013290 1.875670 
# 
# From -- ./inp_files/188263.got.cif
#   From: 2010.05.17/outbox.cif.g08.bks.cpg/sg2_95_cif.got.tgz:188263.got - 2010.06.03 11:33:40.
