data_PCOD9033985
_publ_section_title
;
Structure prediction by ZEFSAII (Michael W. Deem and Ramdas Pophale) SiO2 
 PCOD9033985
Probable space group: P -1
;
_chemical_formula_sum "Si O2"
_cell_formula_units_Z 16
_cell_length_a 8.833125
_cell_length_b 17.254985
_cell_length_c 6.646725
_cell_angle_alpha 104.667289
_cell_angle_beta 101.397469
_cell_angle_gamma 51.368647
_cell_volume 764.546257
_symmetry_space_group_name_H-M "P -1"
_symmetry_group_IT_number 2
_symmetry_cell_setting 'triclinic'
loop_
_space_group_symop_operation_xyz
x,y,z
-x,-y,-z
loop_
_atom_site_type_symbol
_atom_site_label
_atom_site_fract_x
_atom_site_fract_y
_atom_site_fract_z
Si Si1 0.564642 0.906296 0.096800
Si Si2 0.851043 0.864572 0.482096
Si Si3 0.491664 0.609383 0.917812
Si Si4 0.742032 0.467292 0.249722
Si Si5 0.835591 0.737413 0.741865
Si Si6 0.773293 0.225475 0.715833
Si Si7 0.830460 0.039293 0.818106
Si Si8 0.402627 0.342340 0.414700
O O1 0.659755 0.910368 0.328253
O O2 0.376375 0.911849 0.097246
O O3 0.727031 0.806620 0.952665
O O4 0.500000 0.000000 0.000000
O O5 0.856297 0.800380 0.623641
O O6 0.033963 0.796380 0.337801
O O7 0.865108 0.948838 0.635493
O O8 0.401980 0.560523 0.750735
O O9 0.565668 0.650924 0.807274
O O10 0.660858 0.526440 0.055853
O O11 0.320820 0.698048 0.071283
O O12 0.721348 0.545544 0.453414
O O13 0.956540 0.365756 0.223982
O O14 0.701801 0.708140 0.604271
O O15 0.818074 0.121725 0.731893
O O16 0.609481 0.277444 0.535963
O O17 0.000000 0.000000 0.000000
#
# Coordination Sequence:
#
# PCOD9033985 Si02
#       8
#     2   2   2   2   2   2   2   2
#     4  12  26  46  70  99 141 185 230 281 349 410
#     4  12  27  46  71 101 143 187 232 286 345 417
#     4  10  22  44  70  98 139 175 232 287 344 410
#     4  10  23  42  67 102 135 180 230 282 346 412
#     4  12  26  43  71  99 144 181 232 282 352 410
#     4  11  25  42  69 102 137 180 237 279 350 399
#     4  12  27  46  73 102 141 183 235 292 343 412
#     4  11  24  42  70 102 138 183 227 291 337 418
#
# _framework density 20.927444999999999
#
# number of rings (size 3 to 8) (size 9 to 14) (size 15 to 20)
#    0.000    0.750    1.250    5.250    7.000    4.500 
#    0.000    0.000    0.000    0.000    0.000    0.000 
#    0.000    0.000    0.000    0.000    0.000    0.000 
#
# Total GULP energy -89590.339277 kJ/mol
# GULP energy per Si atom -5599.396205 kJ/mol
# Density = 2.087981 g / cm^3
# Si number density = 20.927445 Si / 1000 Ang^3
#
#
#
# Elastic Constant Matrix: (Units=GPa)
#
#
# Indices 1 2 3 4 5 6 
#
# 1 95.0168 31.6054 46.2186 -4.2679 3.4303 -9.0877
# 2 31.6054 115.7089 54.0616 5.3052 1.8069 -9.9476
# 3 46.2186 54.0616 88.2046 11.4947 3.7544 -11.9382
# 4 -4.2679 5.3052 11.4947 17.8283 6.0995 0.4761
# 5 3.4303 1.8069 3.7544 6.0995 35.2881 1.6015
# 6 -9.0877 -9.9476 -11.9382 0.4761 1.6015 43.7863
#
#
#
# Elastic Compliance Matrix: (Units=1/GPa)
#
#
# Indices 1 2 3 4 5 6 
#
# 1 0.015764 -0.000396 -0.009215 0.010637 -0.002399 0.000642
# 2 -0.000396 0.012168 -0.007283 0.000964 -0.000008 0.000686
# 3 -0.009215 -0.007283 0.022957 -0.015379 0.001357 0.002809
# 4 0.010637 0.000964 -0.015379 0.072380 -0.011862 -0.002120
# 5 -0.002399 -0.000008 0.001357 -0.011862 0.030528 -0.001117
# 6 0.000642 0.000686 0.002809 -0.002120 -0.001117 0.023957
#
#
# Mechanical properties :
#
#
# Convention : Reuss Voigt Hill
#
# Bulk Modulus (GPa) = 58.47519 62.52239 60.49879
# Shear Modulus (GPa) = 23.01573 30.51686 26.76629
#
# Velocity S-wave (km/s) = 3.31990 3.82281 3.58020
# Velocity P-wave (km/s) = 6.53438 7.03035 6.78690
#
# Compressibility (1/GPa) = 0.01710127
#
# Stress axis : x y z
#
# Youngs Moduli (GPa) = 63.43477 82.18140 43.56051
#
# Poissons Ratio (x) = 0.03250 0.40141
# Poissons Ratio (y) = 0.02509 0.31726
# Poissons Ratio (z) = 0.58456 0.59855
#
# Static dielectric constant tensor:
#      x y z
#    x 1.723790 -0.005290 0.010420 
#    y -0.005290 1.727860 0.027340 
#    z 0.010420 0.027340 1.740390 
# 
# From -- ./inp_files/40028.got.cif
#   From: 2010.05.17/outbox.cif.g08.bks.cpg/sg2_21_cif.got.tgz:40028.got - 2010.06.03 11:33:40.
