data_PCOD9033142
_publ_section_title
;
Structure prediction by ZEFSAII (Michael W. Deem and Ramdas Pophale) SiO2 
 PCOD9033142
Probable space group: P -1
;
_chemical_formula_sum "Si O2"
_cell_formula_units_Z 14
_cell_length_a 14.471860
_cell_length_b 8.426505
_cell_length_c 14.226075
_cell_angle_alpha 34.804632
_cell_angle_beta 140.428388
_cell_angle_gamma 127.778697
_cell_volume 629.817620
_symmetry_space_group_name_H-M "P -1"
_symmetry_group_IT_number 2
_symmetry_cell_setting 'triclinic'
loop_
_space_group_symop_operation_xyz
x,y,z
-x,-y,-z
loop_
_atom_site_type_symbol
_atom_site_label
_atom_site_fract_x
_atom_site_fract_y
_atom_site_fract_z
Si Si1 0.581921 0.196116 0.197576
Si Si2 0.507519 0.218852 0.317477
Si Si3 0.110624 0.997190 0.499815
Si Si4 0.182322 0.200555 0.005981
Si Si5 0.907685 0.929430 0.206015
Si Si6 0.913290 0.362243 0.845890
Si Si7 0.606076 0.836975 0.092951
O O1 0.599158 0.078280 0.372141
O O2 0.736783 0.172671 0.280487
O O3 0.500000 0.500000 0.000000
O O4 0.460553 0.056807 0.110645
O O5 0.342354 0.274036 0.124415
O O6 0.580374 0.511475 0.249871
O O7 0.500000 0.000000 0.500000
O O8 0.142929 0.320885 0.353945
O O9 0.000000 0.000000 0.500000
O O10 0.042315 0.884452 0.404151
O O11 0.179524 0.862015 0.173495
O O12 0.125375 0.249369 0.828682
O O13 0.067100 0.331659 0.926325
O O14 0.772490 0.899031 0.184682
O O15 0.920531 0.229979 0.020334
O O16 0.500000 0.000000 0.000000
#
# Coordination Sequence:
#
# PCOD9033142 Si02
#       7
#     2   2   2   2   2   2   2
#     4  10  24  46  65  96 140 183 225 279 351 407
#     4  11  25  42  72  98 136 183 237 280 348 420
#     4  12  26  40  70 109 140 180 234 291 340 411
#     4   9  21  43  71  97 135 182 223 287 346 407
#     4  10  22  44  66 103 137 186 225 285 344 418
#     4   9  22  42  70  96 142 175 231 279 356 403
#     4  11  24  44  69  97 140 185 225 287 352 406
#
# _framework density 22.228657999999999
#
# number of rings (size 3 to 8) (size 9 to 14) (size 15 to 20)
#    0.857    0.857    1.429    1.286    8.000    3.429 
#    0.000    8.571    0.000    0.000    0.000    0.000 
#    0.000    0.000    0.000    0.000    0.000    0.000 
#
# Total GULP energy -77983.223384 kJ/mol
# GULP energy per Si atom -5570.230242 kJ/mol
# Density = 2.217806 g / cm^3
# Si number density = 22.228658 Si / 1000 Ang^3
#
#
#
# Elastic Constant Matrix: (Units=GPa)
#
#
# Indices 1 2 3 4 5 6 
#
# 1 113.0366 15.4538 32.0424 -15.8052 -1.2108 14.2553
# 2 15.4538 45.1665 39.1374 -5.4161 5.2220 3.3287
# 3 32.0424 39.1374 99.6607 -10.3863 1.7884 10.3412
# 4 -15.8052 -5.4161 -10.3863 27.7506 8.6447 2.7213
# 5 -1.2108 5.2220 1.7884 8.6447 40.6419 9.3894
# 6 14.2553 3.3287 10.3412 2.7213 9.3894 28.3045
#
#
#
# Elastic Compliance Matrix: (Units=1/GPa)
#
#
# Indices 1 2 3 4 5 6 
#
# 1 0.011044 -0.001034 -0.001996 0.005689 0.000600 -0.005457
# 2 -0.001034 0.034609 -0.013183 0.002544 -0.005063 0.002702
# 3 -0.001996 -0.013183 0.016517 0.002461 0.001346 -0.004162
# 4 0.005689 0.002544 0.002461 0.043824 -0.008312 -0.005520
# 5 0.000600 -0.005063 0.001346 -0.008312 0.029072 -0.009043
# 6 -0.005457 0.002702 -0.004162 -0.005520 -0.009043 0.042812
#
#
# Mechanical properties :
#
#
# Convention : Reuss Voigt Hill
#
# Bulk Modulus (GPa) = 33.62101 47.90343 40.76222
# Shear Modulus (GPa) = 22.70478 30.75474 26.72976
#
# Velocity S-wave (km/s) = 3.19943 3.72366 3.47146
# Velocity P-wave (km/s) = 5.36716 6.33124 5.86903
#
# Compressibility (1/GPa) = 0.02974331
#
# Stress axis : x y z
#
# Youngs Moduli (GPa) = 90.54582 28.89461 60.54319
#
# Poissons Ratio (x) = 0.02987 0.12087
# Poissons Ratio (y) = 0.09361 0.79814
# Poissons Ratio (z) = 0.18077 0.38092
#
# Static dielectric constant tensor:
#      x y z
#    x 1.864740 0.004160 -0.075000 
#    y 0.004160 1.843320 0.016320 
#    z -0.075000 0.016320 1.837630 
# 
# From -- ./inp_files/526183.got.cif
#   From: 2010.05.17/outbox.cif.g08.bks.cpg/sg2_264_cif.got.tgz:526183.got - 2010.06.03 11:33:40.
