data_PCOD9033104
_publ_section_title
;
Structure prediction by ZEFSAII (Michael W. Deem and Ramdas Pophale) SiO2 
 PCOD9033104
Probable space group: P -1
;
_chemical_formula_sum "Si O2"
_cell_formula_units_Z 13
_cell_length_a 13.599872
_cell_length_b 17.206955
_cell_length_c 7.380269
_cell_angle_alpha 50.857149
_cell_angle_beta 117.723851
_cell_angle_gamma 154.615721
_cell_volume 544.771684
_symmetry_space_group_name_H-M "P -1"
_symmetry_group_IT_number 2
_symmetry_cell_setting 'triclinic'
loop_
_space_group_symop_operation_xyz
x,y,z
-x,-y,-z
loop_
_atom_site_type_symbol
_atom_site_label
_atom_site_fract_x
_atom_site_fract_y
_atom_site_fract_z
Si Si1 0.732538 0.243425 0.603718
Si Si2 0.599992 0.449763 0.714785
Si Si3 0.241061 0.134010 0.546269
Si Si4 0.203079 0.244705 0.838050
Si Si5 0.271958 0.927165 0.912932
Si Si6 0.500000 0.500000 0.000000
Si Si7 0.147046 0.541668 0.939735
O O1 0.694384 0.262887 0.347522
O O2 0.000000 0.500000 0.500000
O O3 0.531987 0.120287 0.755283
O O4 0.721293 0.114262 0.816685
O O5 0.370609 0.260186 0.663842
O O6 0.485004 0.423073 0.821782
O O7 0.791932 0.669408 0.442910
O O8 0.691138 0.413462 0.892127
O O9 0.417081 0.321670 0.270860
O O10 0.211841 0.992689 0.726851
O O11 0.000000 0.000000 0.500000
O O12 0.218321 0.297480 0.974483
O O13 0.000000 0.000000 0.000000
O O14 0.063405 0.692634 0.989973
O O15 0.000000 0.500000 0.000000
#
# Coordination Sequence:
#
# PCOD9033104 Si02
#       7
#     2   2   2   2   2   1   2
#     4   9  22  45  70  96 131 180 234 287 337 407
#     4  10  25  42  66  99 143 173 229 293 346 414
#     4  11  25  44  68 103 137 181 233 283 348 424
#     4  10  22  44  65  98 136 181 229 284 352 414
#     4  10  24  44  73  99 136 186 236 282 350 420
#     4  10  24  38  68  98 134 178 232 272 346 416
#     4  11  26  45  69 102 141 180 232 294 352 410
#
# _framework density 23.863209999999999
#
# number of rings (size 3 to 8) (size 9 to 14) (size 15 to 20)
#    0.000    1.846    0.000    0.923   17.231    1.846 
#    5.538    0.000    0.000    0.000    0.000    0.000 
#    0.000    0.000    0.000    0.000    0.000    0.000 
#
# Total GULP energy -72384.137820 kJ/mol
# GULP energy per Si atom -5568.010602 kJ/mol
# Density = 2.380890 g / cm^3
# Si number density = 23.863210 Si / 1000 Ang^3
#
#
#
# Elastic Constant Matrix: (Units=GPa)
#
#
# Indices 1 2 3 4 5 6 
#
# 1 72.0501 13.9911 81.0116 4.0392 37.3689 23.7188
# 2 13.9911 114.7473 61.9042 0.8871 18.0162 11.4902
# 3 81.0116 61.9042 286.6600 9.7543 38.9323 24.2447
# 4 4.0392 0.8871 9.7543 45.2351 7.2716 17.7745
# 5 37.3689 18.0162 38.9323 7.2716 49.6082 1.3151
# 6 23.7188 11.4902 24.2447 17.7745 1.3151 34.4763
#
#
#
# Elastic Compliance Matrix: (Units=1/GPa)
#
#
# Indices 1 2 3 4 5 6 
#
# 1 0.058648 0.009087 -0.009697 0.021486 -0.041797 -0.046040
# 2 0.009087 0.011732 -0.003176 0.005122 -0.009093 -0.010222
# 3 -0.009697 -0.003176 0.006064 -0.002915 0.003999 0.004816
# 4 0.021486 0.005122 -0.002915 0.036802 -0.020287 -0.032639
# 5 -0.041797 -0.009093 0.003999 -0.020287 0.053789 0.037380
# 6 -0.046040 -0.010222 0.004816 -0.032639 0.037380 0.076101
#
#
# Mechanical properties :
#
#
# Convention : Reuss Voigt Hill
#
# Bulk Modulus (GPa) = 14.52005 87.47457 50.99731
# Shear Modulus (GPa) = 18.27053 46.96730 32.61891
#
# Velocity S-wave (km/s) = 2.77001 4.44124 3.70119
# Velocity P-wave (km/s) = 4.04086 7.93950 6.29938
#
# Compressibility (1/GPa) = 0.06887026
#
# Stress axis : x y z
#
# Youngs Moduli (GPa) = 17.05100 85.23685 164.91917
#
# Poissons Ratio (x) = -0.77455 1.59924
# Poissons Ratio (y) = -0.15494 0.52386
# Poissons Ratio (z) = 0.16535 0.27075
#
# Static dielectric constant tensor:
#      x y z
#    x 1.493990 0.308450 0.200360 
#    y 0.308450 1.742160 -0.070770 
#    z 0.200360 -0.070770 1.768630 
# 
# From -- ./inp_files/25352.got.cif
#   From: 2010.05.17/outbox.cif.g08.bks.cpg/sg2_13_cif.got.tgz:25352.got - 2010.06.03 11:33:40.
