data_PCOD9033676
_publ_section_title
;
Structure prediction by ZEFSAII (Michael W. Deem and Ramdas Pophale) SiO2 
 PCOD9033676
Probable space group: P -1
;
_chemical_formula_sum "Si O2"
_cell_formula_units_Z 14
_cell_length_a 15.361496
_cell_length_b 8.123852
_cell_length_c 9.547420
_cell_angle_alpha 106.347880
_cell_angle_beta 145.025706
_cell_angle_gamma 88.906543
_cell_volume 604.934090
_symmetry_space_group_name_H-M "P -1"
_symmetry_group_IT_number 2
_symmetry_cell_setting 'triclinic'
loop_
_space_group_symop_operation_xyz
x,y,z
-x,-y,-z
loop_
_atom_site_type_symbol
_atom_site_label
_atom_site_fract_x
_atom_site_fract_y
_atom_site_fract_z
Si Si1 0.105997 0.025174 0.007440
Si Si2 0.413180 0.009086 0.560091
Si Si3 0.723642 0.255617 0.439811
Si Si4 0.403472 0.628390 0.444104
Si Si5 0.950397 0.731243 0.500721
Si Si6 0.093741 0.339020 0.890275
Si Si7 0.716351 0.330510 0.130997
O O1 0.990862 0.893627 0.704209
O O2 0.155588 0.228871 0.057440
O O3 0.263491 0.987893 0.256288
O O4 0.000000 0.000000 0.000000
O O5 0.334634 0.934978 0.593330
O O6 0.484415 0.850075 0.580077
O O7 0.553835 0.213087 0.802683
O O8 0.648569 0.377666 0.462123
O O9 0.675854 0.244787 0.212994
O O10 0.921387 0.340332 0.714303
O O11 0.500000 0.500000 0.500000
O O12 0.231437 0.544680 0.113369
O O13 0.925228 0.758340 0.309466
O O14 0.788092 0.553690 0.287474
O O15 0.120939 0.696725 0.716654
#
# Coordination Sequence:
#
# PCOD9033676 Si02
#       7
#     2   2   2   2   2   2   2
#     4  12  25  44  70 106 139 184 235 291 350 422
#     4  10  24  42  73 102 142 181 238 288 356 409
#     4   9  21  41  75  97 146 184 234 285 359 414
#     4  10  24  41  68 110 140 183 233 291 356 415
#     4  10  26  43  71  99 144 188 237 284 356 420
#     4  11  23  46  70 103 144 187 239 282 354 425
#     4  10  22  44  69 105 138 189 236 290 352 422
#
# _framework density 23.143014000000001
#
# number of rings (size 3 to 8) (size 9 to 14) (size 15 to 20)
#    0.857    0.857    1.429    1.286   10.000    1.714 
#    2.571    0.714    0.000    0.000    0.000    0.000 
#    0.000    0.000    0.000    0.000    0.000    0.000 
#
# Total GULP energy -78166.886210 kJ/mol
# GULP energy per Si atom -5583.349015 kJ/mol
# Density = 2.309034 g / cm^3
# Si number density = 23.143014 Si / 1000 Ang^3
#
#
#
# Elastic Constant Matrix: (Units=GPa)
#
#
# Indices 1 2 3 4 5 6 
#
# 1 100.9086 1.8803 26.7409 1.1047 13.1980 10.8239
# 2 1.8803 58.2730 16.6877 -1.5853 12.0196 7.4284
# 3 26.7409 16.6877 124.8437 24.4065 14.2133 8.4036
# 4 1.1047 -1.5853 24.4065 34.9131 4.0223 -0.5429
# 5 13.1980 12.0196 14.2133 4.0223 31.1230 -1.2979
# 6 10.8239 7.4284 8.4036 -0.5429 -1.2979 38.4154
#
#
#
# Elastic Compliance Matrix: (Units=1/GPa)
#
#
# Indices 1 2 3 4 5 6 
#
# 1 0.011437 0.001739 -0.002268 0.001812 -0.004853 -0.003201
# 2 0.001739 0.020087 -0.002567 0.003504 -0.007944 -0.004032
# 3 -0.002268 -0.002567 0.010569 -0.007224 -0.001996 -0.001346
# 4 0.001812 0.003504 -0.007224 0.034176 -0.003207 0.000767
# 5 -0.004853 -0.007944 -0.001996 -0.003207 0.038775 0.004605
# 6 -0.003201 -0.004032 -0.001346 0.000767 0.004605 0.028174
#
#
# Mechanical properties :
#
#
# Convention : Reuss Voigt Hill
#
# Bulk Modulus (GPa) = 27.85441 41.62700 34.74070
# Shear Modulus (GPa) = 30.98332 36.80473 33.89403
#
# Velocity S-wave (km/s) = 3.66290 3.99220 3.83109
# Velocity P-wave (km/s) = 5.47275 6.26707 5.88333
#
# Compressibility (1/GPa) = 0.03590096
#
# Stress axis : x y z
#
# Youngs Moduli (GPa) = 87.43582 49.78260 94.61469
#
# Poissons Ratio (x) = -0.08657 0.21463
# Poissons Ratio (y) = -0.15205 0.24285
# Poissons Ratio (z) = 0.19835 0.12778
#
# Static dielectric constant tensor:
#      x y z
#    x 1.891450 0.007350 -0.016480 
#    y 0.007350 1.877310 0.022330 
#    z -0.016480 0.022330 1.898200 
# 
# From -- ./inp_files/445102.got.cif
#   From: 2010.05.17/outbox.cif.g08.bks.cpg/sg2_223_cif.got.tgz:445102.got - 2010.06.03 11:33:40.
