data_PCOD9033269
_publ_section_title
;
Structure prediction by ZEFSAII (Michael W. Deem and Ramdas Pophale) SiO2 
 PCOD9033269
Probable space group: P -1
;
_chemical_formula_sum "Si O2"
_cell_formula_units_Z 14
_cell_length_a 7.964443
_cell_length_b 9.036207
_cell_length_c 16.800000
_cell_angle_alpha 136.034410
_cell_angle_beta 135.904419
_cell_angle_gamma 53.326903
_cell_volume 575.947147
_symmetry_space_group_name_H-M "P -1"
_symmetry_group_IT_number 2
_symmetry_cell_setting 'triclinic'
loop_
_space_group_symop_operation_xyz
x,y,z
-x,-y,-z
loop_
_atom_site_type_symbol
_atom_site_label
_atom_site_fract_x
_atom_site_fract_y
_atom_site_fract_z
Si Si1 0.959927 0.989105 0.745423
Si Si2 0.796547 0.565233 0.525480
Si Si3 0.503055 0.940244 0.886143
Si Si4 0.104419 0.283643 0.636472
Si Si5 0.062578 0.340743 0.035422
Si Si6 0.274309 0.853195 0.433332
Si Si7 0.711102 0.363339 0.069810
O O1 0.987630 0.133743 0.886545
O O2 0.766980 0.085654 0.649774
O O3 0.887559 0.774837 0.673095
O O4 0.221532 0.947136 0.772240
O O5 0.513683 0.666743 0.451137
O O6 0.000000 0.500000 0.500000
O O7 0.865899 0.368833 0.533602
O O8 0.634508 0.127181 0.964873
O O9 0.659309 0.702369 0.854919
O O10 0.500000 0.000000 0.000000
O O11 0.975430 0.219202 0.647696
O O12 0.267793 0.076782 0.569325
O O13 0.245925 0.483548 0.781431
O O14 0.929349 0.360511 0.081431
O O15 0.000000 0.500000 0.000000
O O16 0.500000 0.500000 0.000000
#
# Coordination Sequence:
#
# PCOD9033269 Si02
#       7
#     2   2   2   2   2   2   2
#     4  11  24  46  71 101 142 180 236 296 347 425
#     4  12  26  45  71 105 139 188 237 290 361 418
#     4  10  22  44  67 101 142 182 237 293 351 429
#     4  11  25  47  70 101 146 183 236 295 354 428
#     4  11  24  43  68 105 141 189 232 292 360 423
#     4  11  25  47  71 106 138 188 238 294 358 424
#     4  12  25  43  71 105 139 190 235 286 365 427
#
# _framework density 24.307784999999999
#
# number of rings (size 3 to 8) (size 9 to 14) (size 15 to 20)
#    0.000    0.857    1.429    6.429    2.000    2.286 
#    5.143    0.000    0.000    0.000    0.000    0.000 
#    0.000    0.000    0.000    0.000    0.000    0.000 
#
# Total GULP energy -78039.743848 kJ/mol
# GULP energy per Si atom -5574.267418 kJ/mol
# Density = 2.425246 g / cm^3
# Si number density = 24.307785 Si / 1000 Ang^3
#
#
#
# Elastic Constant Matrix: (Units=GPa)
#
#
# Indices 1 2 3 4 5 6 
#
# 1 83.4087 20.9279 -3.5368 -5.7677 2.5237 -10.8370
# 2 20.9279 129.0312 11.9881 -23.4796 5.3647 -7.5223
# 3 -3.5368 11.9881 100.4161 11.9059 -2.7547 -14.0124
# 4 -5.7677 -23.4796 11.9059 36.1015 1.3638 7.6578
# 5 2.5237 5.3647 -2.7547 1.3638 28.7864 0.0690
# 6 -10.8370 -7.5223 -14.0124 7.6578 0.0690 49.3267
#
#
#
# Elastic Compliance Matrix: (Units=1/GPa)
#
#
# Indices 1 2 3 4 5 6 
#
# 1 0.012928 -0.002045 0.001109 -0.000216 -0.000643 0.002878
# 2 -0.002045 0.009580 -0.002179 0.006844 -0.002137 -0.000667
# 3 0.001109 -0.002179 0.011593 -0.006004 0.001693 0.004134
# 4 -0.000216 0.006844 -0.006004 0.035549 -0.003500 -0.006223
# 5 -0.000643 -0.002137 0.001693 -0.003500 0.035520 0.000507
# 6 0.002878 -0.000667 0.004134 -0.006223 0.000507 0.022943
#
#
# Mechanical properties :
#
#
# Convention : Reuss Voigt Hill
#
# Bulk Modulus (GPa) = 35.87935 41.29050 38.58493
# Shear Modulus (GPa) = 34.81119 41.74138 38.27629
#
# Velocity S-wave (km/s) = 3.78842 4.14841 3.97249
# Velocity P-wave (km/s) = 5.82483 6.32212 6.07856
#
# Compressibility (1/GPa) = 0.02787118
#
# Stress axis : x y z
#
# Youngs Moduli (GPa) = 77.35375 104.38862 86.25900
#
# Poissons Ratio (x) = 0.21344 -0.09566
# Poissons Ratio (y) = 0.15816 0.18795
# Poissons Ratio (z) = -0.08579 0.22745
#
# Static dielectric constant tensor:
#      x y z
#    x 1.916560 -0.059570 0.051030 
#    y -0.059570 2.436930 0.298580 
#    z 0.051030 0.298580 2.158680 
# 
# From -- ./inp_files/556704.got.cif
#   From: 2010.05.17/outbox.cif.g08.bks.cpg/sg2_279_cif.got.tgz:556704.got - 2010.06.03 11:33:40.
