data_PCOD9033072
_publ_section_title
;
Structure prediction by ZEFSAII (Michael W. Deem and Ramdas Pophale) SiO2 
 PCOD9033072
Probable space group: P -1
;
_chemical_formula_sum "Si O2"
_cell_formula_units_Z 14
_cell_length_a 11.320351
_cell_length_b 18.760670
_cell_length_c 9.754360
_cell_angle_alpha 28.353591
_cell_angle_beta 129.490102
_cell_angle_gamma 138.364919
_cell_volume 652.080605
_symmetry_space_group_name_H-M "P -1"
_symmetry_group_IT_number 2
_symmetry_cell_setting 'triclinic'
loop_
_space_group_symop_operation_xyz
x,y,z
-x,-y,-z
loop_
_atom_site_type_symbol
_atom_site_label
_atom_site_fract_x
_atom_site_fract_y
_atom_site_fract_z
Si Si1 0.773269 0.735978 0.811010
Si Si2 0.332197 0.511899 0.312137
Si Si3 0.170348 0.921267 0.880614
Si Si4 0.318244 0.897204 0.313354
Si Si5 0.039540 0.701114 0.680031
Si Si6 0.705277 0.205856 0.054784
Si Si7 0.588525 0.382831 0.111204
O O1 0.612572 0.674709 0.903391
O O2 0.958705 0.793841 0.923548
O O3 0.787719 0.897609 0.463590
O O4 0.715893 0.575890 0.936368
O O5 0.500000 0.500000 0.500000
O O6 0.153388 0.331139 0.446782
O O7 0.285469 0.610990 0.225930
O O8 0.385293 0.621304 0.024630
O O9 0.269263 0.844019 0.993660
O O10 0.235806 0.942736 0.047340
O O11 0.179211 0.816920 0.470633
O O12 0.358904 0.745354 0.561069
O O13 0.511564 0.061811 0.211669
O O14 0.135747 0.786400 0.749741
O O15 0.000000 0.500000 0.000000
#
# Coordination Sequence:
#
# PCOD9033072 Si02
#       7
#     2   2   2   2   2   2   2
#     4  10  25  44  66  97 139 176 213 283 332 388
#     4  11  26  43  69  99 133 176 225 277 335 392
#     4  11  25  43  69 100 135 175 225 270 334 394
#     4  12  24  41  69 103 129 177 228 266 331 399
#     4  10  22  44  65  95 132 176 218 269 334 395
#     4  11  23  44  69  96 135 178 216 275 330 400
#     4  11  23  44  67  96 137 174 224 274 332 392
#
# _framework density 21.469738
#
# number of rings (size 3 to 8) (size 9 to 14) (size 15 to 20)
#    0.000    1.143    4.286    1.714    6.000    1.714 
#    0.000    0.714    0.000    0.000    0.000    0.000 
#    0.000    0.000    0.000    0.000    0.000    0.000 
#
# Total GULP energy -78272.282603 kJ/mol
# GULP energy per Si atom -5590.877329 kJ/mol
# Density = 2.142087 g / cm^3
# Si number density = 21.469738 Si / 1000 Ang^3
#
#
#
# Elastic Constant Matrix: (Units=GPa)
#
#
# Indices 1 2 3 4 5 6 
#
# 1 47.7097 24.2821 3.2161 4.0369 -3.0549 23.5003
# 2 24.2821 96.6796 33.2687 2.9116 -5.3792 34.9674
# 3 3.2161 33.2687 31.8434 9.1510 1.9265 10.4396
# 4 4.0369 2.9116 9.1510 27.7386 3.8524 3.0983
# 5 -3.0549 -5.3792 1.9265 3.8524 34.4656 -2.5278
# 6 23.5003 34.9674 10.4396 3.0983 -2.5278 46.4982
#
#
#
# Elastic Compliance Matrix: (Units=1/GPa)
#
#
# Indices 1 2 3 4 5 6 
#
# 1 0.029880 -0.005791 0.008518 -0.005316 0.000964 -0.012253
# 2 -0.005791 0.022850 -0.022178 0.006428 0.002874 -0.009550
# 3 0.008518 -0.022178 0.059058 -0.017848 -0.004006 0.000085
# 4 -0.005316 0.006428 -0.017848 0.042629 -0.003320 -0.001161
# 5 0.000964 0.002874 -0.004006 -0.003320 0.030152 0.000111
# 6 -0.012253 -0.009550 0.000085 -0.001161 0.000111 0.034944
#
#
# Mechanical properties :
#
#
# Convention : Reuss Voigt Hill
#
# Bulk Modulus (GPa) = 13.71999 33.08517 23.40258
# Shear Modulus (GPa) = 17.68605 29.43821 23.56213
#
# Velocity S-wave (km/s) = 2.87325 3.70692 3.31638
# Velocity P-wave (km/s) = 4.17273 5.81079 5.05850
#
# Compressibility (1/GPa) = 0.07288634
#
# Stress axis : x y z
#
# Youngs Moduli (GPa) = 33.46739 43.76389 16.93256
#
# Poissons Ratio (x) = 0.25342 -0.14424
# Poissons Ratio (y) = 0.19380 0.37553
# Poissons Ratio (z) = -0.28509 0.97061
#
# Static dielectric constant tensor:
#      x y z
#    x 1.803310 0.019850 0.018910 
#    y 0.019850 1.775020 -0.012500 
#    z 0.018910 -0.012500 1.761830 
# 
# From -- ./inp_files/150457.got.cif
#   From: 2010.05.17/outbox.cif.g08.bks.cpg/sg2_76_cif.got.tgz:150457.got - 2010.06.03 11:33:40.
