data_PCOD9033886
_publ_section_title
;
Structure prediction by ZEFSAII (Michael W. Deem and Ramdas Pophale) SiO2 
 PCOD9033886
Probable space group: P -1
;
_chemical_formula_sum "Si O2"
_cell_formula_units_Z 15
_cell_length_a 5.652234
_cell_length_b 11.390129
_cell_length_c 19.488411
_cell_angle_alpha 149.624851
_cell_angle_beta 96.490888
_cell_angle_gamma 77.546352
_cell_volume 612.693525
_symmetry_space_group_name_H-M "P -1"
_symmetry_group_IT_number 2
_symmetry_cell_setting 'triclinic'
loop_
_space_group_symop_operation_xyz
x,y,z
-x,-y,-z
loop_
_atom_site_type_symbol
_atom_site_label
_atom_site_fract_x
_atom_site_fract_y
_atom_site_fract_z
Si Si1 0.315855 0.447097 0.137179
Si Si2 0.413097 0.896743 0.715673
Si Si3 0.168184 0.258398 0.238278
Si Si4 0.500000 0.000000 0.000000
Si Si5 0.110807 0.761211 0.531361
Si Si6 0.008095 0.816662 0.064210
Si Si7 0.711023 0.129256 0.546882
Si Si8 0.304266 0.809383 0.206215
O O1 0.325836 0.638275 0.291108
O O2 0.380070 0.571946 0.133071
O O3 0.046035 0.394327 0.089939
O O4 0.493899 0.197985 0.038754
O O5 0.637165 0.776635 0.710529
O O6 0.256516 0.726221 0.590877
O O7 0.239741 0.089897 0.854524
O O8 0.494727 0.047836 0.733899
O O9 0.019542 0.531404 0.384555
O O10 0.021979 0.051569 0.139449
O O11 0.308157 0.203693 0.143292
O O12 0.295403 0.801422 0.498175
O O13 0.901369 0.999500 0.660920
O O14 0.202017 0.758180 0.102218
O O15 0.500000 0.000000 0.500000
O O16 0.000000 0.000000 0.500000
#
# Coordination Sequence:
#
# PCOD9033886 Si02
#       8
#     2   2   2   1   2   2   2   2
#     4  12  24  49  70 105 145 191 247 303 374 453
#     4  10  22  44  70 106 138 182 242 305 378 436
#     4  11  24  46  66 105 145 186 247 297 373 454
#     4  12  26  46  66 100 142 196 234 292 378 440
#     4  11  23  43  71 105 140 193 241 309 375 435
#     4  10  24  44  72 104 139 187 239 302 373 439
#     4  12  27  50  76 113 148 198 252 312 376 448
#     4  10  23  44  73 105 137 182 246 308 374 436
#
# _framework density 24.482059
#
# number of rings (size 3 to 8) (size 9 to 14) (size 15 to 20)
#    0.000    1.067    4.000    1.600    0.000    8.000 
#    7.200    0.000    0.000    0.000    0.000    0.000 
#    0.000    0.000    0.000    0.000    0.000    0.000 
#
# Total GULP energy -83590.517318 kJ/mol
# GULP energy per Si atom -5572.701155 kJ/mol
# Density = 2.442634 g / cm^3
# Si number density = 24.482059 Si / 1000 Ang^3
#
#
#
# Elastic Constant Matrix: (Units=GPa)
#
#
# Indices 1 2 3 4 5 6 
#
# 1 61.1293 14.4604 43.7912 1.4663 -2.4679 21.4938
# 2 14.4604 99.3665 46.1700 12.4110 -1.9788 20.0155
# 3 43.7912 46.1700 155.9811 -25.5887 4.6370 7.3016
# 4 1.4663 12.4110 -25.5887 1.8331 -24.4109 -12.1617
# 5 -2.4679 -1.9788 4.6370 -24.4109 20.8498 -2.4967
# 6 21.4938 20.0155 7.3016 -12.1617 -2.4967 34.6447
#
#
#
# Elastic Compliance Matrix: (Units=1/GPa)
#
#
# Indices 1 2 3 4 5 6 
#
# 1 0.023929 0.000191 -0.005304 0.008419 0.012693 -0.009968
# 2 0.000191 0.010901 -0.002248 0.007306 0.009791 -0.002673
# 3 -0.005304 -0.002248 0.007813 -0.006431 -0.010113 -0.000043
# 4 0.008419 0.007306 -0.006431 -0.020644 -0.023085 -0.016999
# 5 0.012693 0.009791 -0.010113 -0.023085 0.023481 -0.017812
# 6 -0.009968 -0.002673 -0.000043 -0.016999 -0.017812 0.029351
#
#
# Mechanical properties :
#
#
# Convention : Reuss Voigt Hill
#
# Bulk Modulus (GPa) = 35.81421 58.36890 47.09155
# Shear Modulus (GPa) = 50.57636 25.60255 38.08946
#
# Velocity S-wave (km/s) = 4.55010 3.23734 3.94866
# Velocity P-wave (km/s) = 6.50116 6.15362 6.32978
#
# Compressibility (1/GPa) = 0.02792188
#
# Stress axis : x y z
#
# Youngs Moduli (GPa) = 41.79088 91.73246 127.98707
#
# Poissons Ratio (x) = -0.01756 0.67887
# Poissons Ratio (y) = -0.00800 0.28771
# Poissons Ratio (z) = 0.22167 0.20621
#
# Static dielectric constant tensor:
#      x y z
#    x 1.980600 -0.029790 0.013770 
#    y -0.029790 1.982590 0.012570 
#    z 0.013770 0.012570 1.943560 
# 
# From -- ./inp_files/583373.got.cif
#   From: 2010.05.17/outbox.cif.g08.bks.cpg/sg2_292_cif.got.tgz:583373.got - 2010.06.03 11:33:40.
