data_PCOD9033585
_publ_section_title
;
Structure prediction by ZEFSAII (Michael W. Deem and Ramdas Pophale) SiO2 
 PCOD9033585
Probable space group: P -1
;
_chemical_formula_sum "Si O2"
_cell_formula_units_Z 13
_cell_length_a 13.189982
_cell_length_b 13.084300
_cell_length_c 5.199163
_cell_angle_alpha 99.522315
_cell_angle_beta 89.208455
_cell_angle_gamma 33.124841
_cell_volume 463.849385
_symmetry_space_group_name_H-M "P -1"
_symmetry_group_IT_number 2
_symmetry_cell_setting 'triclinic'
loop_
_space_group_symop_operation_xyz
x,y,z
-x,-y,-z
loop_
_atom_site_type_symbol
_atom_site_label
_atom_site_fract_x
_atom_site_fract_y
_atom_site_fract_z
Si Si1 0.500000 0.000000 0.000000
Si Si2 0.629806 0.471626 0.701454
Si Si3 0.023019 0.873105 0.798366
Si Si4 0.137665 0.326653 0.222623
Si Si5 0.965409 0.305632 0.893235
Si Si6 0.360923 0.770453 0.224823
Si Si7 0.660048 0.989642 0.520565
O O1 0.695201 0.749397 0.936592
O O2 0.421590 0.997143 0.718769
O O3 0.593471 0.380797 0.717811
O O4 0.767581 0.345910 0.394876
O O5 0.773701 0.412140 0.859621
O O6 0.429234 0.698548 0.893860
O O7 0.869543 0.022650 0.640792
O O8 0.941172 0.855280 0.975365
O O9 0.000000 0.000000 0.000000
O O10 0.320177 0.094857 0.246339
O O11 0.000000 0.500000 0.500000
O O12 0.993758 0.388383 0.076513
O O13 0.109353 0.197963 0.608255
O O14 0.433306 0.816499 0.353073
#
# Coordination Sequence:
#
# PCOD9033585 Si02
#       7
#     1   2   2   2   2   2   2
#     4   8  22  46  64  94 132 170 222 292 326 398
#     4  11  25  42  66 106 140 177 228 269 331 415
#     4  12  22  41  69  94 142 178 219 276 328 395
#     4  10  23  45  69  95 131 172 228 284 340 396
#     4  12  22  42  71 101 130 184 221 274 346 401
#     4  11  22  45  67  99 144 177 222 274 330 405
#     4  10  22  44  68  98 132 176 225 279 340 394
#
# _framework density 28.026337999999999
#
# number of rings (size 3 to 8) (size 9 to 14) (size 15 to 20)
#    0.923    0.308    4.615    1.385    0.000    4.308 
#    5.538    0.000    0.000    0.000    0.000    0.000 
#    0.000    0.000    0.000    0.000    0.000    0.000 
#
# Total GULP energy -72407.608263 kJ/mol
# GULP energy per Si atom -5569.816020 kJ/mol
# Density = 2.796255 g / cm^3
# Si number density = 28.026338 Si / 1000 Ang^3
#
#
#
# Elastic Constant Matrix: (Units=GPa)
#
#
# Indices 1 2 3 4 5 6 
#
# 1 102.7788 65.3527 73.5464 12.9217 1.2845 -22.9025
# 2 65.3527 127.3713 42.7837 4.7693 -3.3542 -37.1470
# 3 73.5464 42.7837 197.2325 28.5710 4.0252 -4.6360
# 4 12.9217 4.7693 28.5710 38.8135 -5.8607 -8.3840
# 5 1.2845 -3.3542 4.0252 -5.8607 61.9658 -14.0823
# 6 -22.9025 -37.1470 -4.6360 -8.3840 -14.0823 38.3982
#
#
#
# Elastic Compliance Matrix: (Units=1/GPa)
#
#
# Indices 1 2 3 4 5 6 
#
# 1 0.018774 -0.006502 -0.005439 -0.000419 0.000565 0.004367
# 2 -0.006502 0.015692 -0.001480 0.005057 0.004732 0.013963
# 3 -0.005439 -0.001480 0.008143 -0.005602 -0.002338 -0.005773
# 4 -0.000419 0.005057 -0.005602 0.033439 0.006949 0.013815
# 5 0.000565 0.004732 -0.002338 0.006949 0.020279 0.013587
# 6 0.004367 0.013963 -0.005773 0.013815 0.013587 0.049458
#
#
# Mechanical properties :
#
#
# Convention : Reuss Voigt Hill
#
# Bulk Modulus (GPa) = 63.42161 87.86091 75.64126
# Shear Modulus (GPa) = 28.10842 44.21550 36.16196
#
# Velocity S-wave (km/s) = 3.17034 3.97626 3.59595
# Velocity P-wave (km/s) = 6.00665 7.24557 6.65500
#
# Compressibility (1/GPa) = 0.01576750
#
# Stress axis : x y z
#
# Youngs Moduli (GPa) = 53.26382 63.72705 122.80956
#
# Poissons Ratio (x) = 0.41436 0.66791
# Poissons Ratio (y) = 0.34632 0.18178
# Poissons Ratio (z) = 0.28968 0.09433
#
# Static dielectric constant tensor:
#      x y z
#    x 2.236630 -0.035540 -0.006920 
#    y -0.035540 2.326360 -0.072660 
#    z -0.006920 -0.072660 2.360910 
# 
# From -- ./inp_files/36633.got.cif
#   From: 2010.05.17/outbox.cif.g08.bks.cpg/sg2_19_cif.got.tgz:36633.got - 2010.06.03 11:33:40.
