data_PCOD9033958
_publ_section_title
;
Structure prediction by ZEFSAII (Michael W. Deem and Ramdas Pophale) SiO2 
 PCOD9033958
Probable space group: P -1
;
_chemical_formula_sum "Si O2"
_cell_formula_units_Z 10
_cell_length_a 9.300607
_cell_length_b 15.524319
_cell_length_c 7.873631
_cell_angle_alpha 58.032247
_cell_angle_beta 83.245695
_cell_angle_gamma 35.133573
_cell_volume 423.675731
_symmetry_space_group_name_H-M "P -1"
_symmetry_group_IT_number 2
_symmetry_cell_setting 'triclinic'
loop_
_space_group_symop_operation_xyz
x,y,z
-x,-y,-z
loop_
_atom_site_type_symbol
_atom_site_label
_atom_site_fract_x
_atom_site_fract_y
_atom_site_fract_z
Si Si1 0.436342 0.923689 0.645160
Si Si2 0.459624 0.911774 0.036582
Si Si3 0.878435 0.170189 0.950664
Si Si4 0.461159 0.771933 0.488804
Si Si5 0.343660 0.614392 0.718021
O O1 0.572809 0.823209 0.921476
O O2 0.045566 0.149976 0.473108
O O3 0.500000 0.000000 0.500000
O O4 0.567560 0.761473 0.656246
O O5 0.067558 0.141858 0.862293
O O6 0.500000 0.000000 0.000000
O O7 0.594154 0.747244 0.329482
O O8 0.507318 0.426735 0.769637
O O9 0.000000 0.000000 0.000000
O O10 0.068962 0.037424 0.241202
O O11 0.482110 0.638117 0.620942
O O12 0.500000 0.500000 0.000000
#
# Coordination Sequence:
#
# PCOD9033958 Si02
#       5
#     2   2   2   2   2
#     4  12  23  44  76 101 147 188 226 300 359 413
#     4  10  22  44  70  96 143 185 229 289 355 411
#     4  10  23  44  68 103 139 184 239 290 345 414
#     4  10  24  44  69 102 142 187 235 290 352 415
#     4  12  25  43  76 108 139 187 246 286 355 431
#
# _framework density 23.602957
#
# number of rings (size 3 to 8) (size 9 to 14) (size 15 to 20)
#    1.200    0.000    4.000    1.800    2.800    3.200 
#    0.000    4.000    0.000    0.000    0.000    0.000 
#    0.000    0.000    0.000    0.000    0.000    0.000 
#
# Total GULP energy -55805.239653 kJ/mol
# GULP energy per Si atom -5580.523965 kJ/mol
# Density = 2.354924 g / cm^3
# Si number density = 23.602957 Si / 1000 Ang^3
#
#
#
# Elastic Constant Matrix: (Units=GPa)
#
#
# Indices 1 2 3 4 5 6 
#
# 1 150.0958 55.0964 32.6940 13.4721 -29.1352 15.7493
# 2 55.0964 138.1500 54.0308 22.3447 -6.3916 25.8961
# 3 32.6940 54.0308 82.5439 37.3104 -23.6797 6.9522
# 4 13.4721 22.3447 37.3104 43.0030 -2.0081 5.5181
# 5 -29.1352 -6.3916 -23.6797 -2.0081 36.4266 8.6929
# 6 15.7493 25.8961 6.9522 5.5181 8.6929 34.7603
#
#
#
# Elastic Compliance Matrix: (Units=1/GPa)
#
#
# Indices 1 2 3 4 5 6 
#
# 1 0.009975 -0.003236 0.002704 -0.002704 0.010155 -0.004759
# 2 -0.003236 0.012357 -0.009126 0.002939 -0.004965 -0.005139
# 3 0.002704 -0.009126 0.035219 -0.025187 0.022826 -0.003180
# 4 -0.002704 0.002939 -0.025187 0.043540 -0.015892 0.001136
# 5 0.010155 -0.004965 0.022826 -0.015892 0.052502 -0.016075
# 6 -0.004759 -0.005139 -0.003180 0.001136 -0.016075 0.039229
#
#
# Mechanical properties :
#
#
# Convention : Reuss Voigt Hill
#
# Bulk Modulus (GPa) = 26.15574 72.71467 49.43521
# Shear Modulus (GPa) = 22.23388 38.10255 30.16822
#
# Velocity S-wave (km/s) = 3.07252 4.02221 3.57901
# Velocity P-wave (km/s) = 4.86753 7.24191 6.17001
#
# Compressibility (1/GPa) = 0.03823252
#
# Stress axis : x y z
#
# Youngs Moduli (GPa) = 100.25460 80.92721 28.39410
#
# Poissons Ratio (x) = 0.26189 -0.07678
# Poissons Ratio (y) = 0.32444 0.25914
# Poissons Ratio (z) = -0.27108 0.73858
#
# Static dielectric constant tensor:
#      x y z
#    x 1.881810 0.003790 0.016630 
#    y 0.003790 1.917650 0.044390 
#    z 0.016630 0.044390 1.923160 
# 
# From -- ./inp_files/25619.got.cif
#   From: 2010.05.17/outbox.cif.g08.bks.cpg/sg2_13_cif.got.tgz:25619.got - 2010.06.03 11:33:40.
