data_PCOD9033069
_publ_section_title
;
Structure prediction by ZEFSAII (Michael W. Deem and Ramdas Pophale) SiO2 
 PCOD9033069
Probable space group: P -1
;
_chemical_formula_sum "Si O2"
_cell_formula_units_Z 12
_cell_length_a 14.320083
_cell_length_b 5.520466
_cell_length_c 13.927407
_cell_angle_alpha 115.796239
_cell_angle_beta 148.818576
_cell_angle_gamma 60.395765
_cell_volume 495.440811
_symmetry_space_group_name_H-M "P -1"
_symmetry_group_IT_number 2
_symmetry_cell_setting 'triclinic'
loop_
_space_group_symop_operation_xyz
x,y,z
-x,-y,-z
loop_
_atom_site_type_symbol
_atom_site_label
_atom_site_fract_x
_atom_site_fract_y
_atom_site_fract_z
Si Si1 0.092702 0.091803 0.250347
Si Si2 0.376559 0.313310 0.635923
Si Si3 0.778634 0.073936 0.307336
Si Si4 0.397011 0.622492 0.333200
Si Si5 0.089668 0.388674 0.956280
Si Si6 0.460714 0.812133 0.058384
O O1 0.219090 0.149340 0.458762
O O2 0.996881 0.384268 0.163626
O O3 0.232793 0.895683 0.262803
O O4 0.962102 0.905229 0.144145
O O5 0.288698 0.615512 0.655358
O O6 0.453746 0.318574 0.598238
O O7 0.548656 0.188921 0.836198
O O8 0.648121 0.909241 0.218417
O O9 0.714683 0.036022 0.134440
O O10 0.000000 0.000000 0.500000
O O11 0.500000 0.500000 0.500000
O O12 0.301052 0.407948 0.158543
O O13 0.000000 0.500000 0.000000
O O14 0.500000 0.500000 0.000000
#
# Coordination Sequence:
#
# PCOD9033069 Si02
#       6
#     2   2   2   2   2   2
#     4  11  24  44  66 101 145 189 239 287 346 428
#     4  11  24  42  68 105 135 186 236 285 364 427
#     4  10  23  49  73  98 140 180 233 304 365 427
#     4  11  24  44  70  99 149 191 231 295 351 419
#     4  10  22  44  65  94 139 192 242 287 342 415
#     4   9  22  46  71 101 137 172 239 298 363 429
#
# _framework density 24.220852000000001
#
# number of rings (size 3 to 8) (size 9 to 14) (size 15 to 20)
#    0.000    1.667    0.000    4.500    4.667    4.000 
#   12.000    1.667    0.000    0.000    0.000    0.000 
#    0.000    0.000    0.000    0.000    0.000    0.000 
#
# Total GULP energy -67102.746242 kJ/mol
# GULP energy per Si atom -5591.895520 kJ/mol
# Density = 2.416572 g / cm^3
# Si number density = 24.220852 Si / 1000 Ang^3
#
#
#
# Elastic Constant Matrix: (Units=GPa)
#
#
# Indices 1 2 3 4 5 6 
#
# 1 83.6016 35.9604 56.6955 -12.1192 -13.1778 14.1488
# 2 35.9604 125.3267 67.7915 17.0970 12.5757 7.7971
# 3 56.6955 67.7915 214.9165 12.5975 4.8629 24.7944
# 4 -12.1192 17.0970 12.5975 58.2537 10.5668 2.5731
# 5 -13.1778 12.5757 4.8629 10.5668 51.6291 -6.5465
# 6 14.1488 7.7971 24.7944 2.5731 -6.5465 32.9775
#
#
#
# Elastic Compliance Matrix: (Units=1/GPa)
#
#
# Indices 1 2 3 4 5 6 
#
# 1 0.018215 -0.004295 -0.003422 0.005140 0.004492 -0.003736
# 2 -0.004295 0.011074 -0.002170 -0.003177 -0.002871 0.000534
# 3 -0.003422 -0.002170 0.006704 -0.001177 -0.001140 -0.003193
# 4 0.005140 -0.003177 -0.001177 0.019936 -0.002209 -0.002564
# 5 0.004492 -0.002871 -0.001140 -0.002209 0.022308 0.004210
# 6 -0.003736 0.000534 -0.003193 -0.002564 0.004210 0.035237
#
#
# Mechanical properties :
#
#
# Convention : Reuss Voigt Hill
#
# Bulk Modulus (GPa) = 61.66309 82.74883 72.20596
# Shear Modulus (GPa) = 36.06059 46.13190 41.09625
#
# Velocity S-wave (km/s) = 3.86271 4.36895 4.12361
# Velocity P-wave (km/s) = 6.73855 7.72585 7.24903
#
# Compressibility (1/GPa) = 0.01621716
#
# Stress axis : x y z
#
# Youngs Moduli (GPa) = 54.89861 90.30315 149.17286
#
# Poissons Ratio (x) = 0.38784 0.51054
# Poissons Ratio (y) = 0.23578 0.32378
# Poissons Ratio (z) = 0.18789 0.19600
#
# Static dielectric constant tensor:
#      x y z
#    x 2.100930 0.042560 0.131750 
#    y 0.042560 2.047230 -0.046610 
#    z 0.131750 -0.046610 2.126360 
# 
# From -- ./inp_files/287509.got.cif
#   From: 2010.05.17/outbox.cif.g08.bks.cpg/sg2_144_cif.got.tgz:287509.got - 2010.06.03 11:33:40.
