data_PCOD9033788
_publ_section_title
;
Structure prediction by ZEFSAII (Michael W. Deem and Ramdas Pophale) SiO2 
 PCOD9033788
Probable space group: P -1
;
_chemical_formula_sum "Si O2"
_cell_formula_units_Z 16
_cell_length_a 20.373185
_cell_length_b 8.913417
_cell_length_c 12.377893
_cell_angle_alpha 53.350059
_cell_angle_beta 34.095635
_cell_angle_gamma 38.557554
_cell_volume 777.091960
_symmetry_space_group_name_H-M "P -1"
_symmetry_group_IT_number 2
_symmetry_cell_setting 'triclinic'
loop_
_space_group_symop_operation_xyz
x,y,z
-x,-y,-z
loop_
_atom_site_type_symbol
_atom_site_label
_atom_site_fract_x
_atom_site_fract_y
_atom_site_fract_z
Si Si1 0.730493 0.008606 0.462536
Si Si2 0.410287 0.132995 0.454135
Si Si3 0.066848 0.093530 0.293150
Si Si4 0.403178 0.778722 0.989308
Si Si5 0.841908 0.271473 0.121051
Si Si6 0.924779 0.514928 0.761683
Si Si7 0.656088 0.956893 0.816882
Si Si8 0.106735 0.568388 0.798305
O O1 0.633414 0.982536 0.522946
O O2 0.667788 0.066375 0.645082
O O3 0.903509 0.746996 0.355328
O O4 0.730679 0.213629 0.321294
O O5 0.248621 0.368812 0.617106
O O6 0.500000 0.000000 0.500000
O O7 0.508793 0.177645 0.231341
O O8 0.058385 0.309534 0.266970
O O9 0.981469 0.189337 0.255585
O O10 0.241735 0.881563 0.119334
O O11 0.000000 0.000000 0.500000
O O12 0.366389 0.910762 0.097586
O O13 0.500000 0.500000 0.000000
O O14 0.847039 0.387747 0.172068
O O15 0.824173 0.449256 0.978775
O O16 0.000000 0.000000 0.000000
O O17 0.819632 0.681874 0.730210
O O18 0.500000 0.000000 0.000000
O O19 0.000000 0.500000 0.000000
#
# Coordination Sequence:
#
# PCOD9033788 Si02
#       8
#     2   2   2   2   2   2   2   2
#     4  11  23  46  69 103 138 179 236 283 347 415
#     4  12  26  45  72  99 139 184 226 290 357 413
#     4  11  23  40  72  99 128 179 236 282 336 408
#     4  11  26  46  63 100 142 177 232 284 352 414
#     4  10  23  42  67 103 137 170 228 288 342 405
#     4  10  22  44  69  99 135 178 227 289 337 406
#     4  11  24  44  69  94 141 185 220 279 352 411
#     4  12  22  43  72  98 134 183 231 286 342 409
#
# _framework density 20.589583999999999
#
# number of rings (size 3 to 8) (size 9 to 14) (size 15 to 20)
#    0.000    1.000    3.750    2.625    7.000    0.000 
#    6.750    1.250    0.000    0.000    0.000    0.000 
#    0.000    0.000    0.000    0.000    0.000    0.000 
#
# Total GULP energy -89249.441553 kJ/mol
# GULP energy per Si atom -5578.090097 kJ/mol
# Density = 2.054272 g / cm^3
# Si number density = 20.589584 Si / 1000 Ang^3
#
#
#
# Elastic Constant Matrix: (Units=GPa)
#
#
# Indices 1 2 3 4 5 6 
#
# 1 75.2873 15.2085 39.9587 -12.3331 8.1178 -19.6844
# 2 15.2085 63.2786 47.3532 -18.5265 -3.1857 -4.0912
# 3 39.9587 47.3532 175.0547 -28.5694 3.3111 -1.0703
# 4 -12.3331 -18.5265 -28.5694 43.4810 -4.8446 1.6070
# 5 8.1178 -3.1857 3.3111 -4.8446 38.7663 2.4338
# 6 -19.6844 -4.0912 -1.0703 1.6070 2.4338 28.9078
#
#
#
# Elastic Compliance Matrix: (Units=1/GPa)
#
#
# Indices 1 2 3 4 5 6 
#
# 1 0.019785 -0.000691 -0.003872 0.001773 -0.004496 0.013511
# 2 -0.000691 0.021570 -0.004717 0.006160 0.002976 0.001814
# 3 -0.003872 -0.004717 0.008249 0.002454 0.000223 -0.003154
# 4 0.001773 0.006160 0.002454 0.028107 0.003418 0.000319
# 5 -0.004496 0.002976 0.000223 0.003418 0.027713 -0.005155
# 6 0.013511 0.001814 -0.003154 0.000319 -0.005155 0.044349
#
#
# Mechanical properties :
#
#
# Convention : Reuss Voigt Hill
#
# Bulk Modulus (GPa) = 32.21311 57.62902 44.92107
# Shear Modulus (GPa) = 27.98272 36.30437 32.14354
#
# Velocity S-wave (km/s) = 3.69056 4.20365 3.95543
# Velocity P-wave (km/s) = 5.81718 7.18408 6.53646
#
# Compressibility (1/GPa) = 0.03104326
#
# Stress axis : x y z
#
# Youngs Moduli (GPa) = 50.54319 46.36171 121.22322
#
# Poissons Ratio (x) = 0.03204 0.46941
# Poissons Ratio (y) = 0.03493 0.57179
# Poissons Ratio (z) = 0.19572 0.21868
#
# Static dielectric constant tensor:
#      x y z
#    x 1.687500 0.001990 -0.006080 
#    y 0.001990 1.768990 -0.001460 
#    z -0.006080 -0.001460 1.776750 
# 
# From -- ./inp_files/347650.got.cif
#   From: 2010.05.17/outbox.cif.g08.bks.cpg/sg2_174_cif.got.tgz:347650.got - 2010.06.03 11:33:40.
