data_PCOD9033603
_publ_section_title
;
Structure prediction by ZEFSAII (Michael W. Deem and Ramdas Pophale) SiO2 
 PCOD9033603
Probable space group: P -1
;
_chemical_formula_sum "Si O2"
_cell_formula_units_Z 13
_cell_length_a 13.234435
_cell_length_b 8.070735
_cell_length_c 11.646307
_cell_angle_alpha 105.055848
_cell_angle_beta 112.288736
_cell_angle_gamma 132.991657
_cell_volume 541.285189
_symmetry_space_group_name_H-M "P -1"
_symmetry_group_IT_number 2
_symmetry_cell_setting 'triclinic'
loop_
_space_group_symop_operation_xyz
x,y,z
-x,-y,-z
loop_
_atom_site_type_symbol
_atom_site_label
_atom_site_fract_x
_atom_site_fract_y
_atom_site_fract_z
Si Si1 0.215543 0.762238 0.218561
Si Si2 0.012016 0.785065 0.630994
Si Si3 0.336449 0.985556 0.698393
Si Si4 0.432753 0.665702 0.711704
Si Si5 0.899424 0.754212 0.809299
Si Si6 0.500000 0.000000 0.000000
Si Si7 0.527064 0.669086 0.402788
O O1 0.178179 0.537400 0.231987
O O2 0.426516 0.041166 0.273486
O O3 0.260443 0.975664 0.368139
O O4 0.000000 0.500000 0.000000
O O5 0.833613 0.661244 0.466879
O O6 0.052419 0.928961 0.796461
O O7 0.865294 0.408494 0.511516
O O8 0.227902 0.016836 0.698754
O O9 0.491912 0.243281 0.704672
O O10 0.433934 0.016503 0.854305
O O11 0.475831 0.527980 0.675505
O O12 0.519347 0.850186 0.904434
O O13 0.682831 0.569876 0.650905
O O14 0.000000 0.000000 0.000000
#
# Coordination Sequence:
#
# PCOD9033603 Si02
#       7
#     2   2   2   2   2   1   2
#     4  12  26  43  72 106 142 187 244 297 358 424
#     4  10  22  44  68  98 143 186 234 292 359 414
#     4  10  23  44  74  99 137 194 233 298 355 426
#     4  11  25  45  71 102 145 191 237 300 350 432
#     4  12  25  43  71 105 142 191 239 295 356 431
#     4  10  24  44  68  98 142 180 240 286 354 420
#     4  12  25  47  73 104 146 190 241 295 365 420
#
# _framework density 24.016915999999998
#
# number of rings (size 3 to 8) (size 9 to 14) (size 15 to 20)
#    0.000    0.923    3.077    3.692    6.462    2.462 
#    2.769    0.000    0.000    0.000    0.000    0.000 
#    0.000    0.000    0.000    0.000    0.000    0.000 
#
# Total GULP energy -72453.684083 kJ/mol
# GULP energy per Si atom -5573.360314 kJ/mol
# Density = 2.396225 g / cm^3
# Si number density = 24.016916 Si / 1000 Ang^3
#
#
#
# Elastic Constant Matrix: (Units=GPa)
#
#
# Indices 1 2 3 4 5 6 
#
# 1 140.1041 7.5610 34.6349 -5.8338 -26.2861 1.7066
# 2 7.5610 68.6161 20.0138 -19.5413 -10.0565 0.5046
# 3 34.6349 20.0138 108.6702 -25.0622 -40.2491 11.9471
# 4 -5.8338 -19.5413 -25.0622 31.2657 6.8052 -9.4311
# 5 -26.2861 -10.0565 -40.2491 6.8052 59.7104 -3.6296
# 6 1.7066 0.5046 11.9471 -9.4311 -3.6296 39.5043
#
#
#
# Elastic Compliance Matrix: (Units=1/GPa)
#
#
# Indices 1 2 3 4 5 6 
#
# 1 0.008009 -0.000145 -0.001787 -0.000452 0.002367 0.000306
# 2 -0.000145 0.018199 -0.000346 0.011558 0.001620 0.002787
# 3 -0.001787 -0.000346 0.015229 0.009402 0.008256 -0.001521
# 4 -0.000452 0.011558 0.009402 0.048684 0.003080 0.008934
# 5 0.002367 0.001620 0.008256 0.003080 0.023292 0.000255
# 6 0.000306 0.002787 -0.001521 0.008934 0.000255 0.027881
#
#
# Mechanical properties :
#
#
# Convention : Reuss Voigt Hill
#
# Bulk Modulus (GPa) = 27.11502 49.08997 38.10249
# Shear Modulus (GPa) = 31.61650 43.10813 37.36231
#
# Velocity S-wave (km/s) = 3.63219 4.24123 3.94847
# Velocity P-wave (km/s) = 5.37633 6.66845 6.05694
#
# Compressibility (1/GPa) = 0.03687993
#
# Stress axis : x y z
#
# Youngs Moduli (GPa) = 124.86518 54.94678 65.66433
#
# Poissons Ratio (x) = 0.00799 0.11734
# Poissons Ratio (y) = 0.01815 0.02274
# Poissons Ratio (z) = 0.22313 0.01903
#
# Static dielectric constant tensor:
#      x y z
#    x 1.932910 -0.000270 0.067570 
#    y -0.000270 1.891540 0.093610 
#    z 0.067570 0.093610 2.045690 
# 
# From -- ./inp_files/152894.got.cif
#   From: 2010.05.17/outbox.cif.g08.bks.cpg/sg2_77_cif.got.tgz:152894.got - 2010.06.03 11:33:40.
