data_PCOD9033091
_publ_section_title
;
Structure prediction by ZEFSAII (Michael W. Deem and Ramdas Pophale) SiO2 
 PCOD9033091
Probable space group: P -1
;
_chemical_formula_sum "Si O2"
_cell_formula_units_Z 16
_cell_length_a 8.146483
_cell_length_b 14.562208
_cell_length_c 25.342133
_cell_angle_alpha 20.679306
_cell_angle_beta 37.937641
_cell_angle_gamma 48.644216
_cell_volume 610.127510
_symmetry_space_group_name_H-M "P -1"
_symmetry_group_IT_number 2
_symmetry_cell_setting 'triclinic'
loop_
_space_group_symop_operation_xyz
x,y,z
-x,-y,-z
loop_
_atom_site_type_symbol
_atom_site_label
_atom_site_fract_x
_atom_site_fract_y
_atom_site_fract_z
Si Si1 0.976860 0.020694 0.245895
Si Si2 0.590948 0.049102 0.075413
Si Si3 0.847094 0.710876 0.347474
Si Si4 0.555239 0.868594 0.721972
Si Si5 0.331701 0.194706 0.916743
Si Si6 0.648006 0.183907 0.628404
Si Si7 0.328085 0.200166 0.450220
Si Si8 0.898680 0.638527 0.688887
O O1 0.907697 0.744768 0.375702
O O2 0.762177 0.165971 0.198632
O O3 0.896153 0.954758 0.362983
O O4 0.317043 0.148555 0.080991
O O5 0.624720 0.831879 0.141957
O O6 0.522841 0.924853 0.216812
O O7 0.866940 0.324669 0.856008
O O8 0.901358 0.459761 0.438729
O O9 0.519363 0.674171 0.443284
O O10 0.020002 0.009522 0.116522
O O11 0.616321 0.918667 0.741944
O O12 0.787553 0.156475 0.484702
O O13 0.674576 0.646648 0.786142
O O14 0.460112 0.504886 0.739330
O O15 0.500000 0.000000 0.000000
O O16 0.186606 0.250357 0.404348
O O17 0.500000 0.000000 0.500000
#
# Coordination Sequence:
#
# PCOD9033091 Si02
#       8
#     2   2   2   2   2   2   2   2
#     4  11  23  41  68 103 131 174 225 284 341 405
#     4  12  25  41  71 104 135 176 227 288 342 405
#     4  10  22  44  65  97 136 176 221 285 340 401
#     4  10  23  43  65  92 139 184 227 276 340 411
#     4  12  24  42  71 101 138 176 228 285 341 406
#     4  10  23  41  65  96 134 179 221 279 344 404
#     4  12  25  45  69 103 135 182 229 283 344 410
#     4  11  23  44  66  97 136 185 226 281 340 406
#
# _framework density 26.224024
#
# number of rings (size 3 to 8) (size 9 to 14) (size 15 to 20)
#    0.000    1.000    3.750    2.250    1.750    3.500 
#    4.500    0.000    0.000    0.000    0.000    0.000 
#    0.000    0.000    0.000    0.000    0.000    0.000 
#
# Total GULP energy -89420.678949 kJ/mol
# GULP energy per Si atom -5588.792434 kJ/mol
# Density = 2.616434 g / cm^3
# Si number density = 26.224024 Si / 1000 Ang^3
#
#
#
# Elastic Constant Matrix: (Units=GPa)
#
#
# Indices 1 2 3 4 5 6 
#
# 1 72.4686 35.2573 10.1141 -2.2329 -5.0803 19.6661
# 2 35.2573 150.0364 10.8989 -1.3206 3.3333 35.0490
# 3 10.1141 10.8989 79.9960 -7.6987 -8.1563 5.9694
# 4 -2.2329 -1.3206 -7.6987 38.7283 12.5303 -3.0068
# 5 -5.0803 3.3333 -8.1563 12.5303 33.7553 9.4476
# 6 19.6661 35.0490 5.9694 -3.0068 9.4476 61.7022
#
#
#
# Elastic Compliance Matrix: (Units=1/GPa)
#
#
# Indices 1 2 3 4 5 6 
#
# 1 0.016809 -0.002982 -0.001079 -0.001011 0.004126 -0.004240
# 2 -0.002982 0.008263 -0.000524 -0.000181 -0.000301 -0.003655
# 3 -0.001079 -0.000524 0.013216 0.001573 0.002775 -0.000985
# 4 -0.001011 -0.000181 0.001573 0.030221 -0.011974 0.003579
# 5 0.004126 -0.000301 0.002775 -0.011974 0.037559 -0.007747
# 6 -0.004240 -0.003655 -0.000985 0.003579 -0.007747 0.021091
#
#
# Mechanical properties :
#
#
# Convention : Reuss Voigt Hill
#
# Bulk Modulus (GPa) = 34.34276 46.11573 40.22924
# Shear Modulus (GPa) = 34.23835 43.25255 38.74545
#
# Velocity S-wave (km/s) = 3.61724 4.06562 3.84797
# Velocity P-wave (km/s) = 5.52904 6.29782 5.92591
#
# Compressibility (1/GPa) = 0.02911822
#
# Stress axis : x y z
#
# Youngs Moduli (GPa) = 59.49159 121.02534 75.66438
#
# Poissons Ratio (x) = 0.36085 0.08166
# Poissons Ratio (y) = 0.17738 0.03966
# Poissons Ratio (z) = 0.06421 0.06343
#
# Static dielectric constant tensor:
#      x y z
#    x 2.139230 -0.044240 -0.068210 
#    y -0.044240 2.187620 0.052230 
#    z -0.068210 0.052230 2.089900 
# 
# From -- ./inp_files/617277.got.cif
#   From: 2010.05.17/outbox.cif.g08.bks.cpg/sg2_309_cif.got.tgz:617277.got - 2010.06.03 11:33:40.
