data_PCOD9033251
_publ_section_title
;
Structure prediction by ZEFSAII (Michael W. Deem and Ramdas Pophale) SiO2 
 PCOD9033251
Probable space group: P -1
;
_chemical_formula_sum "Si O2"
_cell_formula_units_Z 16
_cell_length_a 20.651389
_cell_length_b 5.489330
_cell_length_c 6.416576
_cell_angle_alpha 79.734349
_cell_angle_beta 78.735540
_cell_angle_gamma 83.617433
_cell_volume 699.764667
_symmetry_space_group_name_H-M "P -1"
_symmetry_group_IT_number 2
_symmetry_cell_setting 'triclinic'
loop_
_space_group_symop_operation_xyz
x,y,z
-x,-y,-z
loop_
_atom_site_type_symbol
_atom_site_label
_atom_site_fract_x
_atom_site_fract_y
_atom_site_fract_z
Si Si1 0.967818 0.667251 0.675929
Si Si2 0.635750 0.996915 0.705350
Si Si3 0.669014 0.288906 0.261263
Si Si4 0.578665 0.481591 0.934522
Si Si5 0.210029 0.597646 0.575623
Si Si6 0.760974 0.099061 0.853928
Si Si7 0.871548 0.738925 0.047648
Si Si8 0.085321 0.948507 0.687970
O O1 0.930550 0.893916 0.535572
O O2 0.000000 0.500000 0.500000
O O3 0.913828 0.568915 0.880853
O O4 0.031061 0.750608 0.746175
O O5 0.602724 0.739410 0.791709
O O6 0.637875 0.082760 0.452250
O O7 0.602028 0.234584 0.821252
O O8 0.711346 0.970703 0.747724
O O9 0.717115 0.424146 0.366236
O O10 0.613045 0.448579 0.144911
O O11 0.718359 0.175363 0.071253
O O12 0.500000 0.500000 0.000000
O O13 0.217844 0.656702 0.318234
O O14 0.170609 0.380377 0.727052
O O15 0.160930 0.831495 0.648310
O O16 0.821587 0.918244 0.917408
O O17 0.921715 0.892120 0.123399
#
# Coordination Sequence:
#
# PCOD9033251 Si02
#       8
#     2   2   2   2   2   2   2   2
#     4  11  26  45  66  96 132 176 222 287 350 429
#     4  10  24  43  70 105 145 188 241 288 347 423
#     4  10  23  43  69 101 141 182 228 295 344 414
#     4  11  24  44  71 107 148 192 238 289 346 414
#     4  11  23  41  68 101 124 172 229 276 348 412
#     4  10  22  44  67 100 134 172 229 286 342 416
#     4  12  24  42  73  93 129 179 222 291 355 417
#     4  11  24  44  65  95 132 166 228 281 345 424
#
# _framework density 22.864826000000001
#
# number of rings (size 3 to 8) (size 9 to 14) (size 15 to 20)
#    0.000    1.250    2.500    2.250    0.000   12.000 
#    0.000    0.000    0.000    0.000    0.000    0.000 
#    0.000    0.000    0.000    0.000    0.000    0.000 
#
# Total GULP energy -89451.760668 kJ/mol
# GULP energy per Si atom -5590.735042 kJ/mol
# Density = 2.281279 g / cm^3
# Si number density = 22.864826 Si / 1000 Ang^3
#
#
#
# Elastic Constant Matrix: (Units=GPa)
#
#
# Indices 1 2 3 4 5 6 
#
# 1 132.3947 45.6273 65.8874 -18.6668 1.0037 1.2792
# 2 45.6273 91.2375 58.5235 -21.2523 2.6850 11.1046
# 3 65.8874 58.5235 154.8283 -29.1510 -12.0926 -1.9299
# 4 -18.6668 -21.2523 -29.1510 31.6528 4.7157 -3.2943
# 5 1.0037 2.6850 -12.0926 4.7157 7.5368 -12.3176
# 6 1.2792 11.1046 -1.9299 -3.2943 -12.3176 27.1149
#
#
#
# Elastic Compliance Matrix: (Units=1/GPa)
#
#
# Indices 1 2 3 4 5 6 
#
# 1 0.009610 -0.006539 -0.000206 -0.000480 0.017610 0.010151
# 2 -0.006539 -0.002652 0.011067 -0.005318 0.098653 0.046352
# 3 -0.000206 0.011067 -0.001574 0.013327 -0.076516 -0.037774
# 4 -0.000480 -0.005318 0.013327 0.035533 0.051680 0.030943
# 5 0.017610 0.098653 -0.076516 0.051680 -0.488964 -0.262524
# 6 0.010151 0.046352 -0.037774 0.030943 -0.262524 -0.100768
#
#
# Mechanical properties :
#
#
# Convention : Reuss Voigt Hill
#
# Bulk Modulus (GPa) = 71.29409 79.83744 75.56577
# Shear Modulus (GPa) = -9.04516 27.15570 9.05527
#
# Velocity S-wave (km/s) = -1.99111 3.44999 1.99222
# Velocity P-wave (km/s) = 5.09533 7.13182 6.19779
#
# Compressibility (1/GPa) = 0.01402641
#
# Stress axis : x y z
#
# Youngs Moduli (GPa) = 104.05627 -377.13856 -635.20616
#
# Poissons Ratio (x) = -2.46621 -0.13107
# Poissons Ratio (y) = 0.68045 7.02960
# Poissons Ratio (z) = 0.02147 4.17366
#
# Static dielectric constant tensor:
#      x y z
#    x 1.821990 -0.001680 -0.005020 
#    y -0.001680 1.921650 -0.013020 
#    z -0.005020 -0.013020 1.904950 
# 
# From -- ./inp_files/10554.got.cif
#   From: 2010.05.17/outbox.cif.g08.bks.cpg/sg2_6_cif.got.tgz:10554.got - 2010.06.03 11:33:40.
