data_PCOD9033342
_publ_section_title
;
Structure prediction by ZEFSAII (Michael W. Deem and Ramdas Pophale) SiO2 
 PCOD9033342
Probable space group: P -1
;
_chemical_formula_sum "Si O2"
_cell_formula_units_Z 15
_cell_length_a 8.111234
_cell_length_b 8.624262
_cell_length_c 11.146610
_cell_angle_alpha 120.642885
_cell_angle_beta 70.831227
_cell_angle_gamma 120.719142
_cell_volume 574.284784
_symmetry_space_group_name_H-M "P -1"
_symmetry_group_IT_number 2
_symmetry_cell_setting 'triclinic'
loop_
_space_group_symop_operation_xyz
x,y,z
-x,-y,-z
loop_
_atom_site_type_symbol
_atom_site_label
_atom_site_fract_x
_atom_site_fract_y
_atom_site_fract_z
Si Si1 0.567945 0.823833 0.932196
Si Si2 0.166889 0.385944 0.487104
Si Si3 0.239335 0.178902 0.752086
Si Si4 0.105480 0.435648 0.050617
Si Si5 0.481583 0.738714 0.664635
Si Si6 0.422976 0.803907 0.218433
Si Si7 0.000000 0.000000 0.500000
Si Si8 0.033870 0.206297 0.205419
O O1 0.457330 0.687774 0.792271
O O2 0.788309 0.859336 0.874086
O O3 0.516260 0.763628 0.057113
O O4 0.500000 0.000000 0.000000
O O5 0.280641 0.606511 0.597319
O O6 0.336588 0.306667 0.430925
O O7 0.996364 0.205427 0.522729
O O8 0.108305 0.373928 0.357348
O O9 0.462367 0.221796 0.705097
O O10 0.116161 0.130026 0.642185
O O11 0.222402 0.345946 0.905482
O O12 0.147097 0.978385 0.774131
O O13 0.217121 0.626236 0.182065
O O14 0.991633 0.271082 0.111872
O O15 0.000000 0.500000 0.000000
O O16 0.558850 0.973232 0.710123
#
# Coordination Sequence:
#
# PCOD9033342 Si02
#       8
#     2   2   2   2   2   2   1   2
#     4   9  19  34  67  97 135 170 229 275 334 407
#     4   9  20  42  67  94 133 181 220 279 337 407
#     4  11  25  47  69  96 144 181 226 284 345 410
#     4  12  28  42  70 103 140 178 231 290 348 397
#     4   9  20  38  65  96 134 177 224 272 343 405
#     4  11  24  41  65 103 133 179 231 282 339 406
#     4  10  24  42  70 100 134 180 224 280 340 400
#     4  10  22  44  67  95 138 186 224 278 350 407
#
# _framework density 26.119446
#
# number of rings (size 3 to 8) (size 9 to 14) (size 15 to 20)
#    0.000    1.867    1.333    0.800    9.333    3.200 
#    2.400    2.667    0.000    0.000    0.000    0.000 
#    0.000    0.000    0.000    0.000    0.000    0.000 
#
# Total GULP energy -83652.285973 kJ/mol
# GULP energy per Si atom -5576.819065 kJ/mol
# Density = 2.606000 g / cm^3
# Si number density = 26.119446 Si / 1000 Ang^3
#
#
#
# Elastic Constant Matrix: (Units=GPa)
#
#
# Indices 1 2 3 4 5 6 
#
# 1 103.0191 25.6551 25.2386 4.7789 24.3587 -28.1442
# 2 25.6551 95.2890 41.2641 13.6307 30.4964 -13.0123
# 3 25.2386 41.2641 97.3748 17.4817 25.9738 -4.0151
# 4 4.7789 13.6307 17.4817 46.3861 1.8074 17.0677
# 5 24.3587 30.4964 25.9738 1.8074 41.2252 -5.2009
# 6 -28.1442 -13.0123 -4.0151 17.0677 -5.2009 36.0812
#
#
#
# Elastic Compliance Matrix: (Units=1/GPa)
#
#
# Indices 1 2 3 4 5 6 
#
# 1 0.015770 0.001672 -0.000828 -0.007019 -0.007833 0.015003
# 2 0.001672 0.016819 -0.003356 -0.006672 -0.009922 0.008723
# 3 -0.000828 -0.003356 0.014268 -0.004459 -0.005693 0.001020
# 4 -0.007019 -0.006672 -0.004459 0.034291 0.007421 -0.023529
# 5 -0.007833 -0.009922 -0.005693 0.007421 0.038441 -0.008291
# 6 0.015003 0.008723 0.001020 -0.023529 -0.008291 0.052612
#
#
# Mechanical properties :
#
#
# Convention : Reuss Voigt Hill
#
# Bulk Modulus (GPa) = 23.90500 53.33316 38.61908
# Shear Modulus (GPa) = 26.15507 38.30683 32.23095
#
# Velocity S-wave (km/s) = 3.16787 3.83378 3.51662
# Velocity P-wave (km/s) = 4.74895 6.32933 5.59522
#
# Compressibility (1/GPa) = 0.04183226
#
# Stress axis : x y z
#
# Youngs Moduli (GPa) = 63.41262 59.45765 70.08850
#
# Poissons Ratio (x) = -0.09944 0.05803
# Poissons Ratio (y) = -0.10606 0.23525
# Poissons Ratio (z) = 0.05250 0.19957
#
# Static dielectric constant tensor:
#      x y z
#    x 2.077760 -0.001300 -0.057460 
#    y -0.001300 2.025470 0.000250 
#    z -0.057460 0.000250 2.084560 
# 
# From -- ./inp_files/380264.got.cif
#   From: 2010.05.17/outbox.cif.g08.bks.cpg/sg2_191_cif.got.tgz:380264.got - 2010.06.03 11:33:40.
