data_PCOD9033329
_publ_section_title
;
Structure prediction by ZEFSAII (Michael W. Deem and Ramdas Pophale) SiO2 
 PCOD9033329
Probable space group: P -1
;
_chemical_formula_sum "Si O2"
_cell_formula_units_Z 15
_cell_length_a 15.028384
_cell_length_b 13.129193
_cell_length_c 18.787690
_cell_angle_alpha 19.098161
_cell_angle_beta 38.980474
_cell_angle_gamma 38.641218
_cell_volume 743.248542
_symmetry_space_group_name_H-M "P -1"
_symmetry_group_IT_number 2
_symmetry_cell_setting 'triclinic'
loop_
_space_group_symop_operation_xyz
x,y,z
-x,-y,-z
loop_
_atom_site_type_symbol
_atom_site_label
_atom_site_fract_x
_atom_site_fract_y
_atom_site_fract_z
Si Si1 0.000000 0.000000 0.500000
Si Si2 0.387417 0.207597 0.490336
Si Si3 0.131561 0.460119 0.888355
Si Si4 0.751787 0.649414 0.902870
Si Si5 0.566933 0.674963 0.131504
Si Si6 0.985006 0.999489 0.218059
Si Si7 0.332708 0.634397 0.994912
Si Si8 0.852970 0.445680 0.700734
O O1 0.093816 0.729537 0.674629
O O2 0.851919 0.896169 0.686012
O O3 0.466020 0.424453 0.347803
O O4 0.262699 0.419395 0.378951
O O5 0.500000 0.000000 0.500000
O O6 0.326403 0.965066 0.738774
O O7 0.281637 0.465421 0.829556
O O8 0.000000 0.500000 0.000000
O O9 0.121936 0.122794 0.081408
O O10 0.613423 0.738897 0.980044
O O11 0.851258 0.302945 0.092280
O O12 0.711330 0.607338 0.874589
O O13 0.500000 0.000000 0.000000
O O14 0.934480 0.734164 0.472772
O O15 0.031126 0.843001 0.216063
O O16 0.500000 0.500000 0.000000
O O17 0.229469 0.650286 0.116911
#
# Coordination Sequence:
#
# PCOD9033329 Si02
#       8
#     1   2   2   2   2   2   2   2
#     4  10  24  40  68  96 126 170 230 270 318 412
#     4  12  23  45  67  98 136 176 227 272 333 416
#     4  11  23  43  69  94 131 179 222 268 338 401
#     4  11  23  44  66  99 129 174 230 269 335 410
#     4  12  25  45  72 101 139 182 223 281 349 400
#     4  10  22  44  67  94 136 169 222 282 327 405
#     4  12  25  38  70  96 130 177 223 272 338 399
#     4  11  23  42  67  99 132 173 218 285 336 386
#
# _framework density 20.181676
#
# number of rings (size 3 to 8) (size 9 to 14) (size 15 to 20)
#    0.000    0.800    6.667    0.800    3.733    0.533 
#    4.800    0.667    0.000    0.000    0.000    0.000 
#    0.000    0.000    0.000    0.000    0.000    0.000 
#
# Total GULP energy -83530.785708 kJ/mol
# GULP energy per Si atom -5568.719047 kJ/mol
# Density = 2.013574 g / cm^3
# Si number density = 20.181676 Si / 1000 Ang^3
#
#
#
# Elastic Constant Matrix: (Units=GPa)
#
#
# Indices 1 2 3 4 5 6 
#
# 1 96.8017 5.9247 21.2062 -1.5640 -3.9906 -1.7753
# 2 5.9247 118.9878 47.4903 9.9427 17.5368 13.5592
# 3 21.2062 47.4903 111.6238 26.8051 13.3627 17.7583
# 4 -1.5640 9.9427 26.8051 36.4173 3.6281 2.1673
# 5 -3.9906 17.5368 13.3627 3.6281 26.0110 4.2509
# 6 -1.7753 13.5592 17.7583 2.1673 4.2509 22.4548
#
#
#
# Elastic Compliance Matrix: (Units=1/GPa)
#
#
# Indices 1 2 3 4 5 6 
#
# 1 0.011329 -0.000121 -0.003554 0.002680 0.002782 0.002994
# 2 -0.000121 0.010905 -0.003657 0.000382 -0.005091 -0.002775
# 3 -0.003554 -0.003657 0.015226 -0.009534 -0.003167 -0.008594
# 4 0.002680 0.000382 -0.009534 0.034275 -0.000431 0.004295
# 5 0.002782 -0.005091 -0.003167 -0.000431 0.044411 -0.002567
# 6 0.002994 -0.002775 -0.008594 0.004295 -0.002567 0.053314
#
#
# Mechanical properties :
#
#
# Convention : Reuss Voigt Hill
#
# Bulk Modulus (GPa) = 43.86768 52.96172 48.41470
# Shear Modulus (GPa) = 26.07936 33.82943 29.95439
#
# Velocity S-wave (km/s) = 3.59866 4.09864 3.85676
# Velocity P-wave (km/s) = 6.24906 6.97839 6.62377
#
# Compressibility (1/GPa) = 0.02279582
#
# Stress axis : x y z
#
# Youngs Moduli (GPa) = 88.26729 91.70466 65.67899
#
# Poissons Ratio (x) = 0.01108 0.23341
# Poissons Ratio (y) = 0.01067 0.24019
# Poissons Ratio (z) = 0.31369 0.33537
#
# Static dielectric constant tensor:
#      x y z
#    x 1.902060 0.018590 -0.106550 
#    y 0.018590 1.716500 -0.041790 
#    z -0.106550 -0.041790 1.763810 
# 
# From -- ./inp_files/573321.got.cif
#   From: 2010.05.17/outbox.cif.g08.bks.cpg/sg2_287_cif.got.tgz:573321.got - 2010.06.03 11:33:40.
