data_PCOD9033064
_publ_section_title
;
Structure prediction by ZEFSAII (Michael W. Deem and Ramdas Pophale) SiO2 
 PCOD9033064
Probable space group: P -1
;
_chemical_formula_sum "Si O2"
_cell_formula_units_Z 14
_cell_length_a 10.063494
_cell_length_b 8.022480
_cell_length_c 10.610179
_cell_angle_alpha 101.348476
_cell_angle_beta 104.321342
_cell_angle_gamma 48.458296
_cell_volume 620.587582
_symmetry_space_group_name_H-M "P -1"
_symmetry_group_IT_number 2
_symmetry_cell_setting 'triclinic'
loop_
_space_group_symop_operation_xyz
x,y,z
-x,-y,-z
loop_
_atom_site_type_symbol
_atom_site_label
_atom_site_fract_x
_atom_site_fract_y
_atom_site_fract_z
Si Si1 0.819351 0.730768 0.618155
Si Si2 0.215285 0.708853 0.298943
Si Si3 0.668418 0.099541 0.806179
Si Si4 0.004009 0.428624 0.848912
Si Si5 0.348866 0.981070 0.933806
Si Si6 0.588056 0.418757 0.250087
Si Si7 0.105731 0.690855 0.529581
O O1 0.959616 0.588329 0.746262
O O2 0.792530 0.567959 0.525918
O O3 0.914380 0.776315 0.545582
O O4 0.654590 0.953326 0.684212
O O5 0.190465 0.887230 0.226579
O O6 0.148218 0.593247 0.198857
O O7 0.431544 0.528033 0.335803
O O8 0.113347 0.794278 0.419354
O O9 0.488338 0.357666 0.812133
O O10 0.728322 0.998354 0.942750
O O11 0.196440 0.185543 0.841379
O O12 0.000000 0.500000 0.000000
O O13 0.412217 0.753983 0.854326
O O14 0.500000 0.000000 0.000000
O O15 0.778390 0.309335 0.337583
#
# Coordination Sequence:
#
# PCOD9033064 Si02
#       7
#     2   2   2   2   2   2   2
#     4  10  23  43  66  99 128 167 221 258 317 383
#     4   9  23  42  62  97 126 169 213 263 314 379
#     4  10  24  42  66  93 128 168 210 270 314 384
#     4  11  22  41  67  91 128 173 211 262 321 375
#     4  12  26  43  65  97 132 166 212 271 320 386
#     4  10  24  42  65  96 130 170 210 264 325 374
#     4  10  22  44  65  94 133 170 214 264 313 383
#
# _framework density 22.559267999999999
#
# number of rings (size 3 to 8) (size 9 to 14) (size 15 to 20)
#    0.857    0.857    1.429    1.714    6.000    2.857 
#    5.143    0.000    0.000    0.000    0.000    0.000 
#    0.000    0.000    0.000    0.000    0.000    0.000 
#
# Total GULP energy -78130.818437 kJ/mol
# GULP energy per Si atom -5580.772745 kJ/mol
# Density = 2.250792 g / cm^3
# Si number density = 22.559268 Si / 1000 Ang^3
#
#
#
# Elastic Constant Matrix: (Units=GPa)
#
#
# Indices 1 2 3 4 5 6 
#
# 1 73.7452 4.9986 22.2591 -8.7536 -6.4121 14.1325
# 2 4.9986 89.9605 14.2792 14.2711 -3.3286 3.7369
# 3 22.2591 14.2792 81.9609 12.6779 -9.1121 18.5487
# 4 -8.7536 14.2711 12.6779 44.8022 8.6030 -0.0538
# 5 -6.4121 -3.3286 -9.1121 8.6030 41.0410 -4.5514
# 6 14.1325 3.7369 18.5487 -0.0538 -4.5514 27.4010
#
#
#
# Elastic Compliance Matrix: (Units=1/GPa)
#
#
# Indices 1 2 3 4 5 6 
#
# 1 0.016377 -0.000790 -0.003671 0.004464 0.000097 -0.005829
# 2 -0.000790 0.012018 -0.001041 -0.003960 0.001417 -0.000299
# 3 -0.003671 -0.001041 0.016586 -0.005716 0.003262 -0.008662
# 4 0.004464 -0.003960 -0.005716 0.027321 -0.006500 0.001081
# 5 0.000097 0.001417 0.003262 -0.006500 0.026803 0.001988
# 6 -0.005829 -0.000299 -0.008662 0.001081 0.001988 0.045738
#
#
# Mechanical properties :
#
#
# Convention : Reuss Voigt Hill
#
# Bulk Modulus (GPa) = 29.43082 36.52669 32.97876
# Shear Modulus (GPa) = 29.90889 36.25750 33.08319
#
# Velocity S-wave (km/s) = 3.64509 4.01335 3.83365
# Velocity P-wave (km/s) = 5.54887 6.14024 5.85203
#
# Compressibility (1/GPa) = 0.03397798
#
# Stress axis : x y z
#
# Youngs Moduli (GPa) = 61.06037 83.20640 60.29042
#
# Poissons Ratio (x) = 0.06572 0.22130
# Poissons Ratio (y) = 0.04823 0.06279
# Poissons Ratio (z) = 0.22413 0.08666
#
# Static dielectric constant tensor:
#      x y z
#    x 1.812180 -0.000810 -0.031030 
#    y -0.000810 1.944350 0.035820 
#    z -0.031030 0.035820 1.818750 
# 
# From -- ./inp_files/244623.got.cif
#   From: 2010.05.17/outbox.cif.g08.bks.cpg/sg2_123_cif.got.tgz:244623.got - 2010.06.03 11:33:40.
