data_PCOD9033692
_publ_section_title
;
Structure prediction by ZEFSAII (Michael W. Deem and Ramdas Pophale) SiO2 
 PCOD9033692
Probable space group: P -1
;
_chemical_formula_sum "Si O2"
_cell_formula_units_Z 10
_cell_length_a 9.278111
_cell_length_b 18.196882
_cell_length_c 5.885895
_cell_angle_alpha 127.880251
_cell_angle_beta 127.601234
_cell_angle_gamma 32.668092
_cell_volume 413.096774
_symmetry_space_group_name_H-M "P -1"
_symmetry_group_IT_number 2
_symmetry_cell_setting 'triclinic'
loop_
_space_group_symop_operation_xyz
x,y,z
-x,-y,-z
loop_
_atom_site_type_symbol
_atom_site_label
_atom_site_fract_x
_atom_site_fract_y
_atom_site_fract_z
Si Si1 0.622421 0.301956 0.179455
Si Si2 0.289951 0.548512 0.696144
Si Si3 0.225069 0.911950 0.746975
Si Si4 0.635997 0.938501 0.758778
Si Si5 0.279153 0.305081 0.512474
O O1 0.440140 0.429307 0.426004
O O2 0.784759 0.322665 0.244972
O O3 0.794813 0.160407 0.219938
O O4 0.419606 0.325522 0.855555
O O5 0.048142 0.575879 0.615071
O O6 0.500000 0.500000 0.000000
O O7 0.203217 0.025746 0.020961
O O8 0.525994 0.775383 0.671690
O O9 0.000000 0.000000 0.500000
O O10 0.696864 0.805730 0.561702
O O11 0.500000 0.000000 0.500000
O O12 0.500000 0.000000 0.000000
#
# Coordination Sequence:
#
# PCOD9033692 Si02
#       5
#     2   2   2   2   2
#     4  11  25  47  72 103 142 191 242 304 369 444
#     4  11  27  47  73 104 139 189 250 303 368 438
#     4  11  26  45  73 109 146 191 242 303 372 448
#     4  10  22  44  69 108 145 195 243 303 377 452
#     4  11  25  46  72 101 149 189 240 306 369 442
#
# _framework density 24.207405999999999
#
# number of rings (size 3 to 8) (size 9 to 14) (size 15 to 20)
#    0.000    1.200    2.000    1.800    5.600   10.400 
#    0.000    0.000    0.000    0.000    0.000    0.000 
#    0.000    0.000    0.000    0.000    0.000    0.000 
#
# Total GULP energy -55750.279289 kJ/mol
# GULP energy per Si atom -5575.027929 kJ/mol
# Density = 2.415231 g / cm^3
# Si number density = 24.207406 Si / 1000 Ang^3
#
#
#
# Elastic Constant Matrix: (Units=GPa)
#
#
# Indices 1 2 3 4 5 6 
#
# 1 221.9747 57.6386 54.4261 -4.1729 13.4388 14.2842
# 2 57.6386 56.5596 18.9099 9.4176 1.3607 33.0516
# 3 54.4261 18.9099 163.8957 11.9063 29.8886 6.1342
# 4 -4.1729 9.4176 11.9063 44.8801 9.4124 0.4394
# 5 13.4388 1.3607 29.8886 9.4124 47.3195 11.6688
# 6 14.2842 33.0516 6.1342 0.4394 11.6688 60.9087
#
#
#
# Elastic Compliance Matrix: (Units=1/GPa)
#
#
# Indices 1 2 3 4 5 6 
#
# 1 0.007459 -0.010433 -0.001180 0.003770 -0.002949 0.004569
# 2 -0.010433 0.044388 -0.001932 -0.011860 0.011056 -0.023478
# 3 -0.001180 -0.001932 0.007554 -0.000760 -0.004586 0.001449
# 4 0.003770 -0.011860 -0.000760 0.026778 -0.007259 0.006826
# 5 -0.002949 0.011056 -0.004586 -0.007259 0.028523 -0.010258
# 6 0.004569 -0.023478 0.001449 0.006826 -0.010258 0.029856
#
#
# Mechanical properties :
#
#
# Convention : Reuss Voigt Hill
#
# Bulk Modulus (GPa) = 30.95209 78.26435 54.60822
# Shear Modulus (GPa) = 27.40935 51.38536 39.39735
#
# Velocity S-wave (km/s) = 3.36857 4.61229 4.03859
# Velocity P-wave (km/s) = 5.28618 7.79520 6.65991
#
# Compressibility (1/GPa) = 0.03230800
#
# Stress axis : x y z
#
# Youngs Moduli (GPa) = 134.06653 22.52885 132.38478
#
# Poissons Ratio (x) = 0.23505 0.15624
# Poissons Ratio (y) = 1.39878 0.25583
# Poissons Ratio (z) = 0.15822 0.04354
#
# Static dielectric constant tensor:
#      x y z
#    x 1.944480 -0.037840 -0.044310 
#    y -0.037840 1.638920 0.323620 
#    z -0.044310 0.323620 1.556790 
# 
# From -- ./inp_files/42876.got.cif
#   From: 2010.05.17/outbox.cif.g08.bks.cpg/sg2_22_cif.got.tgz:42876.got - 2010.06.03 11:33:40.
