data_PCOD9033106
_publ_section_title
;
Structure prediction by ZEFSAII (Michael W. Deem and Ramdas Pophale) SiO2 
 PCOD9033106
Probable space group: P -1
;
_chemical_formula_sum "Si O2"
_cell_formula_units_Z 15
_cell_length_a 8.839469
_cell_length_b 17.445143
_cell_length_c 5.122108
_cell_angle_alpha 113.891926
_cell_angle_beta 76.487364
_cell_angle_gamma 69.347571
_cell_volume 606.813362
_symmetry_space_group_name_H-M "P -1"
_symmetry_group_IT_number 2
_symmetry_cell_setting 'triclinic'
loop_
_space_group_symop_operation_xyz
x,y,z
-x,-y,-z
loop_
_atom_site_type_symbol
_atom_site_label
_atom_site_fract_x
_atom_site_fract_y
_atom_site_fract_z
Si Si1 0.095084 0.536800 0.707370
Si Si2 0.531101 0.399371 0.963387
Si Si3 0.732331 0.639756 0.252082
Si Si4 0.473724 0.845749 0.479214
Si Si5 0.500000 0.000000 0.500000
Si Si6 0.150728 0.852876 0.313972
Si Si7 0.777853 0.997332 0.814074
Si Si8 0.247005 0.669363 0.709332
O O1 0.245209 0.441196 0.661412
O O2 0.156348 0.603972 0.635862
O O3 0.000000 0.500000 0.500000
O O4 0.937936 0.608323 0.070059
O O5 0.361265 0.384922 0.981966
O O6 0.679565 0.326260 0.595760
O O7 0.500000 0.500000 0.000000
O O8 0.599531 0.385262 0.208437
O O9 0.602008 0.755825 0.489938
O O10 0.332853 0.823723 0.360965
O O11 0.576696 0.879115 0.286831
O O12 0.352225 0.953047 0.815015
O O13 0.339410 0.018282 0.376052
O O14 0.973679 0.903037 0.636048
O O15 0.164798 0.926085 0.204198
O O16 0.140675 0.772950 0.032628
#
# Coordination Sequence:
#
# PCOD9033106 Si02
#       8
#     2   2   2   2   1   2   2   2
#     4  11  27  46  66 101 148 191 235 300 367 442
#     4  12  24  45  73 103 139 188 241 302 353 434
#     4  11  25  43  69  99 141 187 240 295 369 430
#     4  11  22  44  69  97 135 184 238 291 360 426
#     4  10  24  40  62 100 136 178 234 278 358 428
#     4  10  23  41  69 100 133 179 241 298 353 422
#     4  10  22  44  65  98 140 181 229 296 360 424
#     4  12  26  45  72 108 141 188 247 297 366 429
#
# _framework density 24.719294999999999
#
# number of rings (size 3 to 8) (size 9 to 14) (size 15 to 20)
#    0.000    1.067    2.667    2.800    5.600    2.133 
#    0.000    0.000    0.000    0.000    0.000    0.000 
#    0.000    0.000    0.000    0.000    0.000    0.000 
#
# Total GULP energy -83577.759847 kJ/mol
# GULP energy per Si atom -5571.850656 kJ/mol
# Density = 2.466303 g / cm^3
# Si number density = 24.719295 Si / 1000 Ang^3
#
#
#
# Elastic Constant Matrix: (Units=GPa)
#
#
# Indices 1 2 3 4 5 6 
#
# 1 91.3878 33.9613 30.7161 5.5539 23.3904 7.5255
# 2 33.9613 65.6405 15.9923 39.0024 4.2678 9.7656
# 3 30.7161 15.9923 96.5248 14.3692 0.2085 -7.7413
# 4 5.5539 39.0024 14.3692 34.8848 0.3353 0.7957
# 5 23.3904 4.2678 0.2085 0.3353 45.0305 5.2098
# 6 7.5255 9.7656 -7.7413 0.7957 5.2098 37.1264
#
#
#
# Elastic Compliance Matrix: (Units=1/GPa)
#
#
# Indices 1 2 3 4 5 6 
#
# 1 0.025842 -0.031530 -0.007930 0.034459 -0.010909 0.002194
# 2 -0.031530 0.089188 0.008656 -0.098026 0.010305 -0.014609
# 3 -0.007930 0.008656 0.013713 -0.014140 0.003102 0.002058
# 4 0.034459 -0.098026 -0.014140 0.138379 -0.011247 0.014464
# 5 -0.010909 0.010305 0.003102 -0.011247 0.027366 -0.003452
# 6 0.002194 -0.014609 0.002058 0.014464 -0.003452 0.030936
#
#
# Mechanical properties :
#
#
# Convention : Reuss Voigt Hill
#
# Bulk Modulus (GPa) = 14.89557 46.09915 30.49736
# Shear Modulus (GPa) = 12.21272 34.93390 23.57331
#
# Velocity S-wave (km/s) = 2.22515 3.76337 3.09146
# Velocity P-wave (km/s) = 3.55537 6.12972 5.01069
#
# Compressibility (1/GPa) = 0.06713407
#
# Stress axis : x y z
#
# Youngs Moduli (GPa) = 38.69685 11.21230 72.92576
#
# Poissons Ratio (x) = 0.35353 0.57827
# Poissons Ratio (y) = 1.22012 -0.63122
# Poissons Ratio (z) = 0.30685 -0.09705
#
# Static dielectric constant tensor:
#      x y z
#    x 1.669410 -0.325460 0.210350 
#    y -0.325460 1.709430 0.343440 
#    z 0.210350 0.343440 1.776040 
# 
# From -- ./inp_files/45714.got.cif
#   From: 2010.05.17/outbox.cif.g08.bks.cpg/sg2_23_cif.got.tgz:45714.got - 2010.06.03 11:33:40.
