data_PCOD9033752
_publ_section_title
;
Structure prediction by ZEFSAII (Michael W. Deem and Ramdas Pophale) SiO2 
 PCOD9033752
Probable space group: P -1
;
_chemical_formula_sum "Si O2"
_cell_formula_units_Z 12
_cell_length_a 8.705264
_cell_length_b 6.930453
_cell_length_c 11.268513
_cell_angle_alpha 60.759214
_cell_angle_beta 51.992962
_cell_angle_gamma 70.529667
_cell_volume 466.892028
_symmetry_space_group_name_H-M "P -1"
_symmetry_group_IT_number 2
_symmetry_cell_setting 'triclinic'
loop_
_space_group_symop_operation_xyz
x,y,z
-x,-y,-z
loop_
_atom_site_type_symbol
_atom_site_label
_atom_site_fract_x
_atom_site_fract_y
_atom_site_fract_z
Si Si1 0.382034 0.481626 0.436271
Si Si2 0.969597 0.253351 0.137909
Si Si3 0.575041 0.695578 0.770825
Si Si4 0.658717 0.937459 0.292599
Si Si5 0.344103 0.974047 0.980812
Si Si6 0.984199 0.255687 0.402702
O O1 0.500000 0.500000 0.500000
O O2 0.478317 0.463794 0.265051
O O3 0.194449 0.644547 0.465710
O O4 0.294762 0.244479 0.579139
O O5 0.921521 0.292270 0.285991
O O6 0.801750 0.136166 0.181452
O O7 0.000000 0.500000 0.000000
O O8 0.140177 0.055165 0.112102
O O9 0.554220 0.941126 0.644418
O O10 0.429572 0.748534 0.937592
O O11 0.800190 0.650372 0.711793
O O12 0.668356 0.856962 0.176589
O O13 0.500000 0.000000 0.000000
O O14 0.000000 0.000000 0.500000
#
# Coordination Sequence:
#
# PCOD9033752 Si02
#       6
#     2   2   2   2   2   2
#     4  12  24  44  74 104 140 192 241 296 358 423
#     4  12  24  46  73 107 141 191 240 292 360 425
#     4  10  23  43  68 102 141 186 234 292 358 421
#     4  10  23  44  70 103 142 181 245 294 350 428
#     4  10  22  44  69  96 145 186 232 294 350 429
#     4  12  25  44  72 104 144 185 241 300 360 426
#
# _framework density 25.701874
#
# number of rings (size 3 to 8) (size 9 to 14) (size 15 to 20)
#    1.000    0.000    1.667    5.500    0.000    0.000 
#    0.000    6.667    0.000    0.000    0.000    0.000 
#    0.000    0.000    0.000    0.000    0.000    0.000 
#
# Total GULP energy -66861.884581 kJ/mol
# GULP energy per Si atom -5571.823715 kJ/mol
# Density = 2.564338 g / cm^3
# Si number density = 25.701874 Si / 1000 Ang^3
#
#
#
# Elastic Constant Matrix: (Units=GPa)
#
#
# Indices 1 2 3 4 5 6 
#
# 1 146.8643 38.4474 16.9065 14.8577 -7.7999 19.3347
# 2 38.4474 109.4096 39.4625 31.2255 -10.5937 11.8753
# 3 16.9065 39.4625 61.6651 1.5969 9.3175 14.3207
# 4 14.8577 31.2255 1.5969 54.0390 -12.3342 -4.7909
# 5 -7.7999 -10.5937 9.3175 -12.3342 38.6662 14.2339
# 6 19.3347 11.8753 14.3207 -4.7909 14.2339 51.5346
#
#
#
# Elastic Compliance Matrix: (Units=1/GPa)
#
#
# Indices 1 2 3 4 5 6 
#
# 1 0.007954 -0.001760 -0.000635 -0.000943 0.002105 -0.003072
# 2 -0.001760 0.016276 -0.009917 -0.007719 0.004919 -0.002411
# 3 -0.000635 -0.009917 0.024139 0.003457 -0.006832 -0.001976
# 4 -0.000943 -0.007719 0.003457 0.024178 0.003691 0.002400
# 5 0.002105 0.004919 -0.006832 0.003691 0.033776 -0.009011
# 6 -0.003072 -0.002411 -0.001976 0.002400 -0.009011 0.024373
#
#
# Mechanical properties :
#
#
# Convention : Reuss Voigt Hill
#
# Bulk Modulus (GPa) = 42.11278 56.39684 49.25481
# Shear Modulus (GPa) = 30.63064 43.72280 37.17672
#
# Velocity S-wave (km/s) = 3.45594 4.12898 3.80736
# Velocity P-wave (km/s) = 5.68730 6.68742 6.20754
#
# Compressibility (1/GPa) = 0.02374576
#
# Stress axis : x y z
#
# Youngs Moduli (GPa) = 125.71668 61.43893 41.42710
#
# Poissons Ratio (x) = 0.10812 0.02631
# Poissons Ratio (y) = 0.22123 0.41084
# Poissons Ratio (z) = 0.07983 0.60929
#
# Static dielectric constant tensor:
#      x y z
#    x 2.065900 0.004730 0.075520 
#    y 0.004730 2.137510 -0.008800 
#    z 0.075520 -0.008800 2.543880 
# 
# From -- ./inp_files/372864.got.cif
#   From: 2010.05.17/outbox.cif.g08.bks.cpg/sg2_187_cif.got.tgz:372864.got - 2010.06.03 11:33:40.
