data_PCOD9033605
_publ_section_title
;
Structure prediction by ZEFSAII (Michael W. Deem and Ramdas Pophale) SiO2 
 PCOD9033605
Probable space group: P -1
;
_chemical_formula_sum "Si O2"
_cell_formula_units_Z 15
_cell_length_a 8.087644
_cell_length_b 18.277206
_cell_length_c 6.523830
_cell_angle_alpha 125.665991
_cell_angle_beta 91.211755
_cell_angle_gamma 66.479307
_cell_volume 688.799006
_symmetry_space_group_name_H-M "P -1"
_symmetry_group_IT_number 2
_symmetry_cell_setting 'triclinic'
loop_
_space_group_symop_operation_xyz
x,y,z
-x,-y,-z
loop_
_atom_site_type_symbol
_atom_site_label
_atom_site_fract_x
_atom_site_fract_y
_atom_site_fract_z
Si Si1 0.405806 0.752281 0.119813
Si Si2 0.049361 0.721964 0.535488
Si Si3 0.807215 0.050988 0.356750
Si Si4 0.946681 0.412303 0.302045
Si Si5 0.752995 0.769205 0.274867
Si Si6 0.806814 0.124635 0.045004
Si Si7 0.500000 0.000000 0.500000
Si Si8 0.654989 0.420718 0.023473
O O1 0.226417 0.840498 0.376651
O O2 0.582841 0.742449 0.233264
O O3 0.411929 0.644199 0.942672
O O4 0.374417 0.803442 0.978317
O O5 0.071933 0.642341 0.583727
O O6 0.098993 0.806855 0.764596
O O7 0.194399 0.660501 0.260409
O O8 0.847974 0.767034 0.491417
O O9 0.756669 0.073954 0.151378
O O10 0.662849 0.022271 0.420897
O O11 0.025737 0.967336 0.225207
O O12 0.000000 0.500000 0.500000
O O13 0.757757 0.463363 0.244811
O O14 0.097633 0.318409 0.014262
O O15 0.662290 0.882569 0.364208
O O16 0.500000 0.500000 0.000000
#
# Coordination Sequence:
#
# PCOD9033605 Si02
#       8
#     2   2   2   2   2   2   1   2
#     4  11  23  44  66 100 137 175 227 283 340 406
#     4  11  24  45  68  97 136 179 223 281 342 413
#     4  10  23  40  69 102 137 183 226 286 341 413
#     4  11  26  46  69  99 136 179 226 281 347 413
#     4  10  26  43  68  98 139 180 220 281 342 409
#     4  11  22  41  71 101 134 180 236 277 344 409
#     4  10  22  44  68  98 146 180 224 278 350 402
#     4  11  26  43  71  98 131 176 227 286 340 402
#
# _framework density 21.777037
#
# number of rings (size 3 to 8) (size 9 to 14) (size 15 to 20)
#    0.000    1.333    2.667    1.200    5.600    9.067 
#    0.000    6.000    0.000    0.000    0.000    0.000 
#    0.000    0.000    0.000    0.000    0.000    0.000 
#
# Total GULP energy -83536.184172 kJ/mol
# GULP energy per Si atom -5569.078945 kJ/mol
# Density = 2.172747 g / cm^3
# Si number density = 21.777037 Si / 1000 Ang^3
#
#
#
# Elastic Constant Matrix: (Units=GPa)
#
#
# Indices 1 2 3 4 5 6 
#
# 1 79.5170 54.1112 22.1984 -0.0883 25.6435 -3.2565
# 2 54.1112 138.0706 28.0420 -4.9936 14.0757 -5.2662
# 3 22.1984 28.0420 56.4408 -3.1563 23.9530 1.0069
# 4 -0.0883 -4.9936 -3.1563 23.8122 0.3929 3.7884
# 5 25.6435 14.0757 23.9530 0.3929 35.1283 -8.8464
# 6 -3.2565 -5.2662 1.0069 3.7884 -8.8464 41.4481
#
#
#
# Elastic Compliance Matrix: (Units=1/GPa)
#
#
# Indices 1 2 3 4 5 6 
#
# 1 0.021845 -0.007455 0.001194 -0.000729 -0.014333 -0.002252
# 2 -0.007455 0.010680 -0.004223 0.001307 0.004457 0.001706
# 3 0.001194 -0.004223 0.028088 0.004080 -0.019820 -0.005728
# 4 -0.000729 0.001307 0.004080 0.043668 -0.004507 -0.004944
# 5 -0.014333 0.004457 -0.019820 -0.004507 0.053679 0.011791
# 6 -0.002252 0.001706 -0.005728 -0.004944 0.011791 0.027274
#
#
# Mechanical properties :
#
#
# Convention : Reuss Voigt Hill
#
# Bulk Modulus (GPa) = 25.22338 53.63685 39.43011
# Shear Modulus (GPa) = 22.78777 31.38951 27.08864
#
# Velocity S-wave (km/s) = 3.23834 3.80070 3.53073
# Velocity P-wave (km/s) = 5.05867 6.62902 5.89636
#
# Compressibility (1/GPa) = 0.03964576
#
# Stress axis : x y z
#
# Youngs Moduli (GPa) = 45.77775 93.63336 35.60226
#
# Poissons Ratio (x) = 0.69802 -0.04252
# Poissons Ratio (y) = 0.34127 0.15035
# Poissons Ratio (z) = -0.05468 0.39542
#
# Static dielectric constant tensor:
#      x y z
#    x 1.825200 -0.022050 -0.007850 
#    y -0.022050 1.799320 -0.022860 
#    z -0.007850 -0.022860 1.829480 
# 
# From -- ./inp_files/48302.got.cif
#   From: 2010.05.17/outbox.cif.g08.bks.cpg/sg2_25_cif.got.tgz:48302.got - 2010.06.03 11:33:40.
