data_PCOD9033030
_publ_section_title
;
Structure prediction by ZEFSAII (Michael W. Deem and Ramdas Pophale) SiO2 
 PCOD9033030
Probable space group: P -1
;
_chemical_formula_sum "Si O2"
_cell_formula_units_Z 14
_cell_length_a 9.656048
_cell_length_b 8.590299
_cell_length_c 11.468979
_cell_angle_alpha 39.419602
_cell_angle_beta 101.407762
_cell_angle_gamma 105.815720
_cell_volume 581.095791
_symmetry_space_group_name_H-M "P -1"
_symmetry_group_IT_number 2
_symmetry_cell_setting 'triclinic'
loop_
_space_group_symop_operation_xyz
x,y,z
-x,-y,-z
loop_
_atom_site_type_symbol
_atom_site_label
_atom_site_fract_x
_atom_site_fract_y
_atom_site_fract_z
Si Si1 0.444080 0.496727 0.623466
Si Si2 0.275847 0.302216 0.012670
Si Si3 0.589603 0.464273 0.883335
Si Si4 0.795184 0.233043 0.624926
Si Si5 0.742753 0.019716 0.155419
Si Si6 0.985040 0.455926 0.883921
Si Si7 0.074414 0.264733 0.500948
O O1 0.500000 0.500000 0.500000
O O2 0.582532 0.527433 0.710820
O O3 0.344364 0.701627 0.500017
O O4 0.341390 0.225165 0.781995
O O5 0.301990 0.346084 0.130526
O O6 0.250795 0.007926 0.162823
O O7 0.424367 0.449652 0.900674
O O8 0.137414 0.407544 0.891429
O O9 0.630867 0.195585 0.066651
O O10 0.857395 0.473528 0.575073
O O11 0.919875 0.187199 0.584068
O O12 0.823609 0.925016 0.334031
O O13 0.865774 0.202994 0.998351
O O14 0.942846 0.674444 0.672409
O O15 0.000000 0.500000 0.000000
#
# Coordination Sequence:
#
# PCOD9033030 Si02
#       7
#     2   2   2   2   2   2   2
#     4  11  25  43  68 100 136 179 227 274 336 402
#     4  11  24  44  67  97 140 178 221 278 338 398
#     4  11  25  44  66 100 137 179 226 272 337 407
#     4  10  22  44  65 101 132 178 223 276 337 392
#     4  11  24  44  72 101 129 180 226 278 337 386
#     4  12  25  45  69 104 136 177 223 280 340 396
#     4  10  24  43  70 102 136 168 229 279 335 399
#
# _framework density 24.092413000000001
#
# number of rings (size 3 to 8) (size 9 to 14) (size 15 to 20)
#    0.000    1.143    2.857    2.143    6.000    1.714 
#    2.571    0.000    0.000    0.000    0.000    0.000 
#    0.000    0.000    0.000    0.000    0.000    0.000 
#
# Total GULP energy -78384.399493 kJ/mol
# GULP energy per Si atom -5598.885678 kJ/mol
# Density = 2.403758 g / cm^3
# Si number density = 24.092413 Si / 1000 Ang^3
#
#
#
# Elastic Constant Matrix: (Units=GPa)
#
#
# Indices 1 2 3 4 5 6 
#
# 1 112.6422 -9.5674 17.5894 4.0135 19.7443 2.9952
# 2 -9.5674 42.5343 12.2193 20.6331 8.7119 7.2692
# 3 17.5894 12.2193 101.1049 24.5032 19.7383 1.2151
# 4 4.0135 20.6331 24.5032 37.9411 0.9527 -0.0085
# 5 19.7443 8.7119 19.7383 0.9527 46.2939 -6.3871
# 6 2.9952 7.2692 1.2151 -0.0085 -6.3871 27.1561
#
#
#
# Elastic Compliance Matrix: (Units=1/GPa)
#
#
# Indices 1 2 3 4 5 6 
#
# 1 0.010887 0.006758 -0.000352 -0.004442 -0.006291 -0.004475
# 2 0.006758 0.041583 0.002569 -0.024655 -0.013386 -0.015147
# 3 -0.000352 0.002569 0.013238 -0.009756 -0.006148 -0.002690
# 4 -0.004442 -0.024655 -0.009756 0.046257 0.011144 0.010162
# 5 -0.006291 -0.013386 -0.006148 0.011144 0.030824 0.011805
# 6 -0.004475 -0.015147 -0.002690 0.010162 0.011805 0.044273
#
#
# Mechanical properties :
#
#
# Convention : Reuss Voigt Hill
#
# Bulk Modulus (GPa) = 11.95339 32.97380 22.46359
# Shear Modulus (GPa) = 25.38101 38.01421 31.69761
#
# Velocity S-wave (km/s) = 3.24927 3.97653 3.63115
# Velocity P-wave (km/s) = 4.36454 5.89913 5.18888
#
# Compressibility (1/GPa) = 0.08365829
#
# Stress axis : x y z
#
# Youngs Moduli (GPa) = 91.85584 24.04838 75.53746
#
# Poissons Ratio (x) = -0.16252 0.02660
# Poissons Ratio (y) = -0.62078 -0.19407
# Poissons Ratio (z) = 0.03235 -0.06178
#
# Static dielectric constant tensor:
#      x y z
#    x 1.929320 -0.027330 -0.032220 
#    y -0.027330 1.975370 0.044400 
#    z -0.032220 0.044400 1.918840 
# 
# From -- ./inp_files/243271.got.cif
#   From: 2010.05.17/outbox.cif.g08.bks.cpg/sg2_122_cif.got.tgz:243271.got - 2010.06.03 11:33:40.
