data_PCOD9033295
_publ_section_title
;
Structure prediction by ZEFSAII (Michael W. Deem and Ramdas Pophale) SiO2 
 PCOD9033295
Probable space group: P -1
;
_chemical_formula_sum "Si O2"
_cell_formula_units_Z 16
_cell_length_a 14.219353
_cell_length_b 9.369827
_cell_length_c 9.601578
_cell_angle_alpha 121.696351
_cell_angle_beta 113.890740
_cell_angle_gamma 107.400856
_cell_volume 749.435279
_symmetry_space_group_name_H-M "P -1"
_symmetry_group_IT_number 2
_symmetry_cell_setting 'triclinic'
loop_
_space_group_symop_operation_xyz
x,y,z
-x,-y,-z
loop_
_atom_site_type_symbol
_atom_site_label
_atom_site_fract_x
_atom_site_fract_y
_atom_site_fract_z
Si Si1 0.754586 0.998299 0.436526
Si Si2 0.302744 0.665480 0.136040
Si Si3 0.366371 0.458985 0.854415
Si Si4 0.439860 0.903555 0.612574
Si Si5 0.023074 0.211053 0.176269
Si Si6 0.148926 0.813595 0.697593
Si Si7 0.691354 0.349444 0.313104
Si Si8 0.992466 0.519657 0.196718
O O1 0.626982 0.982339 0.379353
O O2 0.771700 0.997705 0.278665
O O3 0.737627 0.798319 0.387960
O O4 0.886095 0.248447 0.685729
O O5 0.359992 0.711727 0.349776
O O6 0.405096 0.906125 0.243588
O O7 0.310089 0.500037 0.973021
O O8 0.151700 0.572707 0.986283
O O9 0.383831 0.617487 0.827742
O O10 0.500000 0.500000 0.000000
O O11 0.404778 0.797754 0.689356
O O12 0.174602 0.405857 0.428538
O O13 0.910919 0.142698 0.191003
O O14 0.009368 0.338732 0.114278
O O15 0.000000 0.000000 0.000000
O O16 0.246927 0.760732 0.763303
O O17 0.023264 0.603614 0.420909
#
# Coordination Sequence:
#
# PCOD9033295 Si02
#       8
#     2   2   2   2   2   2   2   2
#     4   9  21  42  65  89 131 169 220 268 319 392
#     4  11  23  40  71  96 133 172 223 271 330 391
#     4  12  24  42  65  98 128 176 228 275 313 387
#     4  10  22  45  65  93 134 181 212 267 339 398
#     4  11  20  36  64 102 132 165 214 281 329 384
#     4   8  18  40  64  89 129 170 213 267 323 394
#     4  10  22  44  67  87 136 177 219 266 325 397
#     4   9  20  41  65  93 125 178 215 263 327 397
#
# _framework density 21.349408
#
# number of rings (size 3 to 8) (size 9 to 14) (size 15 to 20)
#    0.750    1.250    2.500    3.000    0.000    3.500 
#    4.500    0.625    0.000    0.000    0.000    0.000 
#    0.000    0.000    0.000    0.000    0.000    0.000 
#
# Total GULP energy -89342.968042 kJ/mol
# GULP energy per Si atom -5583.935503 kJ/mol
# Density = 2.130082 g / cm^3
# Si number density = 21.349408 Si / 1000 Ang^3
#
#
#
# Elastic Constant Matrix: (Units=GPa)
#
#
# Indices 1 2 3 4 5 6 
#
# 1 86.2477 49.5668 49.1591 -1.4593 -4.7155 -6.6588
# 2 49.5668 103.3448 31.9939 -3.4704 -10.1321 -12.7367
# 3 49.1591 31.9939 67.6399 -0.2141 -0.2882 -13.4626
# 4 -1.4593 -3.4704 -0.2141 33.1540 -1.9320 -3.6944
# 5 -4.7155 -10.1321 -0.2882 -1.9320 46.4352 2.2065
# 6 -6.6588 -12.7367 -13.4626 -3.6944 2.2065 31.4340
#
#
#
# Elastic Compliance Matrix: (Units=1/GPa)
#
#
# Indices 1 2 3 4 5 6 
#
# 1 0.023978 -0.007370 -0.014801 -0.000241 0.000931 -0.004340
# 2 -0.007370 0.014140 -0.000523 0.001726 0.002216 0.003992
# 3 -0.014801 -0.000523 0.027492 0.000322 -0.001841 0.008594
# 4 -0.000241 0.001726 0.000322 0.030899 0.001435 0.004317
# 5 0.000931 0.002216 -0.001841 0.001435 0.022213 -0.001084
# 6 -0.004340 0.003992 0.008594 0.004317 -0.001084 0.036775
#
#
# Mechanical properties :
#
#
# Convention : Reuss Voigt Hill
#
# Bulk Modulus (GPa) = 49.44888 57.63024 53.53956
# Shear Modulus (GPa) = 24.08165 30.63883 27.36024
#
# Velocity S-wave (km/s) = 3.36218 3.79240 3.58375
# Velocity P-wave (km/s) = 6.18743 6.79918 6.50051
#
# Compressibility (1/GPa) = 0.02022290
#
# Stress axis : x y z
#
# Youngs Moduli (GPa) = 41.70446 70.72067 36.37371
#
# Poissons Ratio (x) = 0.52121 0.53838
# Poissons Ratio (y) = 0.30736 0.01901
# Poissons Ratio (z) = 0.61728 0.03696
#
# Static dielectric constant tensor:
#      x y z
#    x 1.749820 0.044870 -0.003220 
#    y 0.044870 1.790070 0.000210 
#    z -0.003220 0.000210 1.853170 
# 
# From -- ./inp_files/237216.got.cif
#   From: 2010.05.17/outbox.cif.g08.bks.cpg/sg2_119_cif.got.tgz:237216.got - 2010.06.03 11:33:40.
