data_PCOD9033543
_publ_section_title
;
Structure prediction by ZEFSAII (Michael W. Deem and Ramdas Pophale) SiO2 
 PCOD9033543
Probable space group: P -1
;
_chemical_formula_sum "Si O2"
_cell_formula_units_Z 12
_cell_length_a 12.396839
_cell_length_b 10.383273
_cell_length_c 12.767894
_cell_angle_alpha 31.241864
_cell_angle_beta 147.121689
_cell_angle_gamma 148.822868
_cell_volume 403.765553
_symmetry_space_group_name_H-M "P -1"
_symmetry_group_IT_number 2
_symmetry_cell_setting 'triclinic'
loop_
_space_group_symop_operation_xyz
x,y,z
-x,-y,-z
loop_
_atom_site_type_symbol
_atom_site_label
_atom_site_fract_x
_atom_site_fract_y
_atom_site_fract_z
Si Si1 0.764491 0.826467 0.064962
Si Si2 0.294860 0.211471 0.587033
Si Si3 0.887878 0.291913 0.669378
Si Si4 0.327955 0.783708 0.787861
Si Si5 0.499790 0.342658 0.389724
Si Si6 0.047833 0.261523 0.159991
O O1 0.955742 0.726868 0.282122
O O2 0.798561 0.999754 0.865110
O O3 0.844992 0.054084 0.065815
O O4 0.417603 0.052231 0.593213
O O5 0.500000 0.500000 0.500000
O O6 0.319403 0.362662 0.611930
O O7 0.092206 0.139734 0.388898
O O8 0.342088 0.947517 0.794112
O O9 0.073988 0.546805 0.715926
O O10 0.658599 0.312266 0.452456
O O11 0.504679 0.346491 0.008675
O O12 0.266373 0.357619 0.194827
O O13 0.000000 0.500000 0.000000
#
# Coordination Sequence:
#
# PCOD9033543 Si02
#       6
#     2   2   2   2   2   2
#     4  10  20  33  52  78 103 130 168 209 249 295
#     4   8  16  32  54  73  96 133 167 201 249 296
#     4  10  20  34  52  74 103 138 168 200 248 304
#     4   9  17  34  54  72  99 137 171 201 246 300
#     4   9  19  35  54  75 101 134 169 204 250 302
#     4  10  17  32  56  75  99 132 166 211 256 290
#
# _framework density 29.720217999999999
#
# number of rings (size 3 to 8) (size 9 to 14) (size 15 to 20)
#    0.000    3.000    0.000    4.500    0.000    1.333 
#    0.000    6.667    0.000   19.000    0.000    0.000 
#    0.000    0.000    0.000    0.000    0.000    0.000 
#
# Total GULP energy -67133.086096 kJ/mol
# GULP energy per Si atom -5594.423841 kJ/mol
# Density = 2.965257 g / cm^3
# Si number density = 29.720218 Si / 1000 Ang^3
#
#
#
# Elastic Constant Matrix: (Units=GPa)
#
#
# Indices 1 2 3 4 5 6 
#
# 1 134.6651 -2.0848 38.0029 -2.6982 34.1815 22.9481
# 2 -2.0848 156.6406 28.7804 -10.6210 11.8780 -2.4911
# 3 38.0029 28.7804 245.6296 -18.8326 46.5114 7.2865
# 4 -2.6982 -10.6210 -18.8326 55.1973 -7.1104 13.8543
# 5 34.1815 11.8780 46.5114 -7.1104 50.0632 -1.5324
# 6 22.9481 -2.4911 7.2865 13.8543 -1.5324 42.2385
#
#
#
# Elastic Compliance Matrix: (Units=1/GPa)
#
#
# Indices 1 2 3 4 5 6 
#
# 1 0.010373 0.000678 -0.000033 0.001269 -0.007224 -0.006268
# 2 0.000678 0.006663 -0.000532 0.001019 -0.001413 -0.000269
# 3 -0.000033 -0.000532 0.005143 0.001462 -0.004468 -0.001542
# 4 0.001269 0.001019 0.001462 0.020842 0.000258 -0.007708
# 5 -0.007224 -0.001413 -0.004468 0.000258 0.029602 0.005602
# 6 -0.006268 -0.000269 -0.001542 -0.007708 0.005602 0.030062
#
#
# Mechanical properties :
#
#
# Convention : Reuss Voigt Hill
#
# Bulk Modulus (GPa) = 44.63331 74.03693 59.33512
# Shear Modulus (GPa) = 45.48516 60.98226 53.23371
#
# Velocity S-wave (km/s) = 3.91633 4.53468 4.23680
# Velocity P-wave (km/s) = 5.95824 7.23762 6.62887
#
# Compressibility (1/GPa) = 0.02240479
#
# Stress axis : x y z
#
# Youngs Moduli (GPa) = 96.40492 150.08729 194.45427
#
# Poissons Ratio (x) = -0.10180 0.00645
# Poissons Ratio (y) = -0.06539 0.10342
# Poissons Ratio (z) = 0.00320 0.07983
#
# Static dielectric constant tensor:
#      x y z
#    x 2.487830 0.065710 -0.048740 
#    y 0.065710 2.235630 0.017980 
#    z -0.048740 0.017980 2.395560 
# 
# From -- ./inp_files/613050.got.cif
#   From: 2010.05.17/outbox.cif.g08.bks.cpg/sg2_307_cif.got.tgz:613050.got - 2010.06.03 11:33:40.
