data_PCOD9033812
_publ_section_title
;
Structure prediction by ZEFSAII (Michael W. Deem and Ramdas Pophale) SiO2 
 PCOD9033812
Probable space group: P -1
;
_chemical_formula_sum "Si O2"
_cell_formula_units_Z 13
_cell_length_a 11.393543
_cell_length_b 13.796130
_cell_length_c 6.238050
_cell_angle_alpha 111.338609
_cell_angle_beta 89.801028
_cell_angle_gamma 138.399202
_cell_volume 546.189125
_symmetry_space_group_name_H-M "P -1"
_symmetry_group_IT_number 2
_symmetry_cell_setting 'triclinic'
loop_
_space_group_symop_operation_xyz
x,y,z
-x,-y,-z
loop_
_atom_site_type_symbol
_atom_site_label
_atom_site_fract_x
_atom_site_fract_y
_atom_site_fract_z
Si Si1 0.610076 0.785476 0.601295
Si Si2 0.553669 0.918452 0.392430
Si Si3 0.754982 0.583254 0.758323
Si Si4 0.000000 0.000000 0.000000
Si Si5 0.220019 0.229158 0.784078
Si Si6 0.840942 0.474775 0.031002
Si Si7 0.006880 0.774253 0.525749
O O1 0.580812 0.881342 0.594075
O O2 0.411277 0.588629 0.519826
O O3 0.778053 0.884024 0.846129
O O4 0.657463 0.759312 0.355749
O O5 0.373698 0.731325 0.124012
O O6 0.500000 0.000000 0.500000
O O7 0.761191 0.059563 0.380716
O O8 0.831365 0.549185 0.891567
O O9 0.928323 0.752314 0.743761
O O10 0.670129 0.619308 0.922238
O O11 0.934682 0.940601 0.205764
O O12 0.104640 0.230781 0.642682
O O13 0.922675 0.599499 0.330778
O O14 0.000000 0.500000 0.000000
#
# Coordination Sequence:
#
# PCOD9033812 Si02
#       7
#     2   2   2   1   2   2   2
#     4  11  25  45  69 105 140 188 231 288 360 414
#     4  11  23  45  75  97 144 189 232 295 350 416
#     4  10  25  44  70 103 140 185 235 290 356 425
#     4  12  24  38  70 102 142 174 236 282 346 426
#     4  11  24  43  70  99 144 181 229 299 345 429
#     4  10  22  44  70 100 142 186 235 294 345 416
#     4  11  23  46  71 106 139 183 239 290 354 417
#
# _framework density 23.801276999999999
#
# number of rings (size 3 to 8) (size 9 to 14) (size 15 to 20)
#    0.000    1.231    3.077    1.846    2.154    6.769 
#    0.000    0.769    0.000    0.000    0.000    0.000 
#    0.000    0.000    0.000    0.000    0.000    0.000 
#
# Total GULP energy -72567.047831 kJ/mol
# GULP energy per Si atom -5582.080602 kJ/mol
# Density = 2.374710 g / cm^3
# Si number density = 23.801277 Si / 1000 Ang^3
#
#
#
# Elastic Constant Matrix: (Units=GPa)
#
#
# Indices 1 2 3 4 5 6 
#
# 1 118.7818 19.1160 25.9731 1.4871 7.5666 -12.9273
# 2 19.1160 130.7284 29.1150 10.8041 2.5587 8.9132
# 3 25.9731 29.1150 80.5718 21.9223 -1.8723 -3.5834
# 4 1.4871 10.8041 21.9223 41.0963 13.0076 -0.9175
# 5 7.5666 2.5587 -1.8723 13.0076 31.7280 2.5325
# 6 -12.9273 8.9132 -3.5834 -0.9175 2.5325 39.9660
#
#
#
# Elastic Compliance Matrix: (Units=1/GPa)
#
#
# Indices 1 2 3 4 5 6 
#
# 1 0.009992 -0.001071 -0.003661 0.003257 -0.004125 0.003479
# 2 -0.001071 0.008642 -0.002658 -0.000858 -0.000045 -0.002529
# 3 -0.003661 -0.002658 0.017597 -0.010586 0.006439 0.000335
# 4 0.003257 -0.000858 -0.010586 0.035174 -0.015921 0.002112
# 5 -0.004125 -0.000045 0.006439 -0.015921 0.039702 -0.003628
# 6 0.003479 -0.002529 0.000335 0.002112 -0.003628 0.027019
#
#
# Mechanical properties :
#
#
# Convention : Reuss Voigt Hill
#
# Bulk Modulus (GPa) = 46.61798 53.16558 49.89178
# Shear Modulus (GPa) = 31.23875 39.61659 35.42767
#
# Velocity S-wave (km/s) = 3.62675 4.08422 3.86227
# Velocity P-wave (km/s) = 6.09644 6.68034 6.39506
#
# Compressibility (1/GPa) = 0.02145095
#
# Stress axis : x y z
#
# Youngs Moduli (GPa) = 100.07573 115.71121 56.82880
#
# Poissons Ratio (x) = 0.12397 0.20806
# Poissons Ratio (y) = 0.10722 0.15103
# Poissons Ratio (z) = 0.36640 0.30752
#
# Static dielectric constant tensor:
#      x y z
#    x 1.764620 0.053490 -0.019640 
#    y 0.053490 1.883780 -0.013930 
#    z -0.019640 -0.013930 1.960460 
# 
# From -- ./inp_files/34023.got.cif
#   From: 2010.05.17/outbox.cif.g08.bks.cpg/sg2_18_cif.got.tgz:34023.got - 2010.06.03 11:33:40.
