data_PCOD9033070
_publ_section_title
;
Structure prediction by ZEFSAII (Michael W. Deem and Ramdas Pophale) SiO2 
 PCOD9033070
Probable space group: P -1
;
_chemical_formula_sum "Si O2"
_cell_formula_units_Z 12
_cell_length_a 9.390242
_cell_length_b 7.816759
_cell_length_c 10.501222
_cell_angle_alpha 134.810486
_cell_angle_beta 61.056779
_cell_angle_gamma 108.113973
_cell_volume 477.974428
_symmetry_space_group_name_H-M "P -1"
_symmetry_group_IT_number 2
_symmetry_cell_setting 'triclinic'
loop_
_space_group_symop_operation_xyz
x,y,z
-x,-y,-z
loop_
_atom_site_type_symbol
_atom_site_label
_atom_site_fract_x
_atom_site_fract_y
_atom_site_fract_z
Si Si1 0.344390 0.783426 0.786247
Si Si2 0.903572 0.797942 0.813015
Si Si3 0.641582 0.559447 0.169445
Si Si4 0.117669 0.638853 0.239944
Si Si5 0.868606 0.953583 0.341080
Si Si6 0.345396 0.429523 0.366232
O O1 0.290186 0.607373 0.830345
O O2 0.331979 0.640697 0.585634
O O3 0.539056 0.786674 0.734654
O O4 0.240755 0.029378 0.975180
O O5 0.954754 0.595060 0.785864
O O6 0.820884 0.665732 0.660628
O O7 0.042936 0.950453 0.772100
O O8 0.706003 0.822808 0.305223
O O9 0.450495 0.527645 0.254824
O O10 0.720504 0.452129 0.952053
O O11 0.992984 0.761430 0.256743
O O12 0.152802 0.832245 0.435202
#
# Coordination Sequence:
#
# PCOD9033070 Si02
#       6
#     2   2   2   2   2   2
#     4   9  21  40  70  92 128 172 209 261 321 377
#     4  12  24  42  67 100 127 167 216 265 318 380
#     4  10  22  44  65  95 125 174 213 256 322 378
#     4  11  26  40  68  97 129 169 214 265 321 376
#     4  11  25  44  65  91 135 170 212 263 319 380
#     4   9  22  41  69  95 128 171 213 256 328 376
#
# _framework density 25.105945999999999
#
# number of rings (size 3 to 8) (size 9 to 14) (size 15 to 20)
#    1.000    0.667    1.667    1.500    4.667    4.000 
#    0.000    1.667    0.000    0.000    0.000    0.000 
#    0.000    0.000    0.000    0.000    0.000    0.000 
#
# Total GULP energy -67251.197865 kJ/mol
# GULP energy per Si atom -5604.266489 kJ/mol
# Density = 2.504880 g / cm^3
# Si number density = 25.105946 Si / 1000 Ang^3
#
#
#
# Elastic Constant Matrix: (Units=GPa)
#
#
# Indices 1 2 3 4 5 6 
#
# 1 84.4248 25.6827 8.6603 4.6559 -2.5671 -6.7598
# 2 25.6827 118.6638 38.7339 14.0597 -17.0344 -16.2032
# 3 8.6603 38.7339 108.5378 -19.8527 -1.7085 -10.0043
# 4 4.6559 14.0597 -19.8527 30.4777 2.9287 0.8776
# 5 -2.5671 -17.0344 -1.7085 2.9287 24.8625 5.8997
# 6 -6.7598 -16.2032 -10.0043 0.8776 5.8997 37.7719
#
#
#
# Elastic Compliance Matrix: (Units=1/GPa)
#
#
# Indices 1 2 3 4 5 6 
#
# 1 0.012760 -0.002515 -0.000174 -0.000879 -0.000617 0.001275
# 2 -0.002515 0.014251 -0.006589 -0.011498 0.009775 0.002658
# 3 -0.000174 -0.006589 0.013929 0.012617 -0.005389 0.001380
# 4 -0.000879 -0.011498 0.012617 0.047696 -0.012506 -0.000903
# 5 -0.000617 0.009775 -0.005389 -0.012506 0.049078 -0.004719
# 6 0.001275 0.002658 0.001380 -0.000903 -0.004719 0.028967
#
#
# Mechanical properties :
#
#
# Convention : Reuss Voigt Hill
#
# Bulk Modulus (GPa) = 44.67534 50.86447 47.76991
# Shear Modulus (GPa) = 25.94750 34.52571 30.23661
#
# Velocity S-wave (km/s) = 3.21833 3.71239 3.47415
# Velocity P-wave (km/s) = 5.62526 6.21930 5.92972
#
# Compressibility (1/GPa) = 0.02238371
#
# Stress axis : x y z
#
# Youngs Moduli (GPa) = 78.37198 70.17122 71.79292
#
# Poissons Ratio (x) = 0.17649 0.01246
# Poissons Ratio (y) = 0.19712 0.47306
# Poissons Ratio (z) = 0.01360 0.46237
#
# Static dielectric constant tensor:
#      x y z
#    x 2.000350 -0.024920 -0.038220 
#    y -0.024920 1.946660 0.006670 
#    z -0.038220 0.006670 1.952220 
# 
# From -- ./inp_files/418507.got.cif
#   From: 2010.05.17/outbox.cif.g08.bks.cpg/sg2_210_cif.got.tgz:418507.got - 2010.06.03 11:33:40.
