data_PCOD9033734
_publ_section_title
;
Structure prediction by ZEFSAII (Michael W. Deem and Ramdas Pophale) SiO2 
 PCOD9033734
Probable space group: P -1
;
_chemical_formula_sum "Si O2"
_cell_formula_units_Z 16
_cell_length_a 9.364326
_cell_length_b 14.505510
_cell_length_c 14.637301
_cell_angle_alpha 44.414664
_cell_angle_beta 37.865231
_cell_angle_gamma 39.793304
_cell_volume 751.149207
_symmetry_space_group_name_H-M "P -1"
_symmetry_group_IT_number 2
_symmetry_cell_setting 'triclinic'
loop_
_space_group_symop_operation_xyz
x,y,z
-x,-y,-z
loop_
_atom_site_type_symbol
_atom_site_label
_atom_site_fract_x
_atom_site_fract_y
_atom_site_fract_z
Si Si1 0.218643 0.136130 0.755105
Si Si2 0.154454 0.768036 0.885517
Si Si3 0.660896 0.040797 0.460514
Si Si4 0.115987 0.853297 0.481975
Si Si5 0.282352 0.475045 0.915147
Si Si6 0.668272 0.189009 0.029398
Si Si7 0.323609 0.528093 0.660776
Si Si8 0.703619 0.742883 0.196975
O O1 0.434393 0.138027 0.578011
O O2 0.177438 0.260470 0.761732
O O3 0.346981 0.965532 0.850063
O O4 0.928180 0.161793 0.858349
O O5 0.209300 0.871274 0.716408
O O6 0.269277 0.605380 0.895727
O O7 0.275042 0.775490 0.919527
O O8 0.840345 0.822229 0.014749
O O9 0.500000 0.000000 0.500000
O O10 0.889683 0.892106 0.494736
O O11 0.162498 0.707127 0.618090
O O12 0.389053 0.822271 0.315926
O O13 0.000000 0.000000 0.500000
O O14 0.436664 0.473459 0.744047
O O15 0.423202 0.322546 0.009380
O O16 0.000000 0.500000 0.000000
O O17 0.500000 0.500000 0.500000
O O18 0.194933 0.422807 0.775160
#
# Coordination Sequence:
#
# PCOD9033734 Si02
#       8
#     2   2   2   2   2   2   2   2
#     4  10  22  44  69  95 140 184 238 286 353 420
#     4  11  24  45  69 104 148 181 237 292 355 431
#     4  12  25  42  67 104 138 183 242 291 352 419
#     4  11  23  43  74  98 139 188 233 295 355 412
#     4  12  25  43  73 104 139 185 240 288 360 428
#     4  10  24  46  69  97 143 188 230 296 350 425
#     4  10  24  45  66 102 144 177 230 292 354 420
#     4  10  22  45  68 102 141 183 230 292 357 420
#
# _framework density 21.300694
#
# number of rings (size 3 to 8) (size 9 to 14) (size 15 to 20)
#    0.000    1.250    3.750    1.125    3.500    3.500 
#    4.500    0.625    0.000    0.000    0.000    0.000 
#    0.000    0.000    0.000    0.000    0.000    0.000 
#
# Total GULP energy -89179.037047 kJ/mol
# GULP energy per Si atom -5573.689815 kJ/mol
# Density = 2.125221 g / cm^3
# Si number density = 21.300694 Si / 1000 Ang^3
#
#
#
# Elastic Constant Matrix: (Units=GPa)
#
#
# Indices 1 2 3 4 5 6 
#
# 1 75.3071 35.0554 22.8235 -15.9765 0.4532 2.7155
# 2 35.0554 93.4181 24.4741 -16.7190 1.1198 11.3137
# 3 22.8235 24.4741 123.2174 17.3856 -5.2538 8.3093
# 4 -15.9765 -16.7190 17.3856 32.9938 1.8649 -4.1866
# 5 0.4532 1.1198 -5.2538 1.8649 30.0082 0.1834
# 6 2.7155 11.3137 8.3093 -4.1866 0.1834 37.1690
#
#
#
# Elastic Compliance Matrix: (Units=1/GPa)
#
#
# Indices 1 2 3 4 5 6 
#
# 1 0.018438 -0.004459 -0.004004 0.009103 -0.001391 0.001937
# 2 -0.004459 0.014644 -0.002873 0.006504 -0.001370 -0.002750
# 3 -0.004004 -0.002873 0.011074 -0.009691 0.002724 -0.002413
# 4 0.009103 0.006504 -0.009691 0.043963 -0.004836 0.004497
# 5 -0.001391 -0.001370 0.002724 -0.004836 0.034179 -0.000804
# 6 0.001937 -0.002750 -0.002413 0.004497 -0.000804 0.028650
#
#
# Mechanical properties :
#
#
# Convention : Reuss Voigt Hill
#
# Bulk Modulus (GPa) = 46.54656 50.73874 48.64265
# Shear Modulus (GPa) = 27.65787 34.00685 30.83236
#
# Velocity S-wave (km/s) = 3.60731 3.99997 3.80871
# Velocity P-wave (km/s) = 6.26497 6.72347 6.49826
#
# Compressibility (1/GPa) = 0.02148386
#
# Stress axis : x y z
#
# Youngs Moduli (GPa) = 54.23690 68.28733 90.29907
#
# Poissons Ratio (x) = 0.30447 0.36155
# Poissons Ratio (y) = 0.24182 0.25947
# Poissons Ratio (z) = 0.21716 0.19622
#
# Static dielectric constant tensor:
#      x y z
#    x 1.745850 0.051730 -0.008640 
#    y 0.051730 1.557060 -0.110740 
#    z -0.008640 -0.110740 1.677910 
# 
# From -- ./inp_files/505220.got.cif
#   From: 2010.05.17/outbox.cif.g08.bks.cpg/sg2_253_cif.got.tgz:505220.got - 2010.06.03 11:33:40.
