data_PCOD9033618
_publ_section_title
;
Structure prediction by ZEFSAII (Michael W. Deem and Ramdas Pophale) SiO2 
 PCOD9033618
Probable space group: P -1
;
_chemical_formula_sum "Si O2"
_cell_formula_units_Z 15
_cell_length_a 8.463868
_cell_length_b 20.413347
_cell_length_c 17.558488
_cell_angle_alpha 159.748433
_cell_angle_beta 49.438651
_cell_angle_gamma 137.681552
_cell_volume 694.578933
_symmetry_space_group_name_H-M "P -1"
_symmetry_group_IT_number 2
_symmetry_cell_setting 'triclinic'
loop_
_space_group_symop_operation_xyz
x,y,z
-x,-y,-z
loop_
_atom_site_type_symbol
_atom_site_label
_atom_site_fract_x
_atom_site_fract_y
_atom_site_fract_z
Si Si1 0.548411 0.234757 0.904763
Si Si2 0.042089 0.825702 0.207842
Si Si3 0.115620 0.351016 0.482773
Si Si4 0.776016 0.394601 0.738431
Si Si5 0.330225 0.290845 0.665875
Si Si6 0.466843 0.169392 0.145610
Si Si7 0.217379 0.994715 0.882971
Si Si8 0.500000 0.000000 0.500000
O O1 0.766494 0.225369 0.867775
O O2 0.329303 0.136343 0.926323
O O3 0.489664 0.090737 0.689501
O O4 0.630512 0.483715 0.132825
O O5 0.838733 0.779059 0.282918
O O6 0.189914 0.084484 0.428464
O O7 0.904150 0.653040 0.996655
O O8 0.253901 0.212737 0.288439
O O9 0.302995 0.595225 0.669842
O O10 0.985766 0.345986 0.595629
O O11 0.909393 0.250507 0.374066
O O12 0.581682 0.329513 0.661531
O O13 0.642628 0.252302 0.698548
O O14 0.417691 0.080071 0.977345
O O15 0.500000 0.000000 0.000000
O O16 0.000000 0.000000 0.000000
#
# Coordination Sequence:
#
# PCOD9033618 Si02
#       8
#     2   2   2   2   2   2   2   1
#     4  12  24  45  69 101 140 185 233 288 351 408
#     4  11  24  43  65  97 139 184 237 288 340 408
#     4  10  22  44  68  99 143 174 220 290 350 403
#     4  12  24  43  66 101 142 184 228 287 346 416
#     4  11  25  42  65  98 137 184 242 279 340 417
#     4  10  23  45  73 103 130 177 235 281 342 420
#     4  10  22  44  69  98 137 175 223 286 345 405
#     4  12  24  40  74  98 144 186 232 282 350 414
#
# _framework density 21.595817
#
# number of rings (size 3 to 8) (size 9 to 14) (size 15 to 20)
#    0.000    1.067    4.000    1.600    0.000    2.667 
#    0.000   14.667    0.000    0.000    0.000    0.000 
#    0.000    0.000    0.000    0.000    0.000    0.000 
#
# Total GULP energy -83523.745324 kJ/mol
# GULP energy per Si atom -5568.249688 kJ/mol
# Density = 2.154666 g / cm^3
# Si number density = 21.595817 Si / 1000 Ang^3
#
#
#
# Elastic Constant Matrix: (Units=GPa)
#
#
# Indices 1 2 3 4 5 6 
#
# 1 27.5316 46.6311 80.4268 8.6243 -7.9740 -1.4443
# 2 46.6311 92.1863 43.2492 -5.2141 3.9499 8.2488
# 3 80.4268 43.2492 140.4079 31.7798 24.8525 2.1728
# 4 8.6243 -5.2141 31.7798 29.2851 2.6321 1.9622
# 5 -7.9740 3.9499 24.8525 2.6321 38.0532 -0.6497
# 6 -1.4443 8.2488 2.1728 1.9622 -0.6497 28.5228
#
#
#
# Elastic Compliance Matrix: (Units=1/GPa)
#
#
# Indices 1 2 3 4 5 6 
#
# 1 -0.023925 0.004434 0.017379 -0.009327 -0.016239 -0.003546
# 2 0.004434 0.014521 -0.010830 0.012795 0.005543 -0.003904
# 3 0.017379 -0.010830 0.001888 -0.009792 0.004289 0.004639
# 4 -0.009327 0.012795 -0.009792 0.050303 -0.000485 -0.006898
# 5 -0.016239 0.005543 0.004289 -0.000485 0.019494 -0.002275
# 6 -0.003546 -0.003904 0.004639 -0.006898 -0.002275 0.036078
#
#
# Mechanical properties :
#
#
# Convention : Reuss Voigt Hill
#
# Bulk Modulus (GPa) = 69.19671 66.74890 67.97280
# Shear Modulus (GPa) = 61.56957 25.16013 43.36485
#
# Velocity S-wave (km/s) = 5.34526 3.41698 4.48596
# Velocity P-wave (km/s) = 8.37897 6.82224 7.64036
#
# Compressibility (1/GPa) = 0.01445155
#
# Stress axis : x y z
#
# Youngs Moduli (GPa) = -41.79672 68.86744 529.57348
#
# Poissons Ratio (x) = -0.30539 -9.20347
# Poissons Ratio (y) = 0.18535 5.73504
# Poissons Ratio (z) = 0.72639 0.74580
#
# Static dielectric constant tensor:
#      x y z
#    x 1.783200 0.041790 0.041530 
#    y 0.041790 1.796850 -0.029250 
#    z 0.041530 -0.029250 1.817330 
# 
# From -- ./inp_files/562749.got.cif
#   From: 2010.05.17/outbox.cif.g08.bks.cpg/sg2_282_cif.got.tgz:562749.got - 2010.06.03 11:33:40.
