data_PCOD9033359
_publ_section_title
;
Structure prediction by ZEFSAII (Michael W. Deem and Ramdas Pophale) SiO2 
 PCOD9033359
Probable space group: P -1
;
_chemical_formula_sum "Si O2"
_cell_formula_units_Z 14
_cell_length_a 9.408840
_cell_length_b 16.552094
_cell_length_c 9.676356
_cell_angle_alpha 41.282441
_cell_angle_beta 137.148343
_cell_angle_gamma 136.002144
_cell_volume 626.731493
_symmetry_space_group_name_H-M "P -1"
_symmetry_group_IT_number 2
_symmetry_cell_setting 'triclinic'
loop_
_space_group_symop_operation_xyz
x,y,z
-x,-y,-z
loop_
_atom_site_type_symbol
_atom_site_label
_atom_site_fract_x
_atom_site_fract_y
_atom_site_fract_z
Si Si1 0.783665 0.465150 0.987466
Si Si2 0.305928 0.359402 0.755835
Si Si3 0.857298 0.680101 0.996308
Si Si4 0.158108 0.753939 0.541403
Si Si5 0.154789 0.122402 0.768320
Si Si6 0.710243 0.127642 0.811115
Si Si7 0.761705 0.878230 0.473698
O O1 0.721446 0.314928 0.187586
O O2 0.550509 0.462786 0.759060
O O3 0.829879 0.559235 0.032145
O O4 0.000000 0.500000 0.000000
O O5 0.278155 0.214558 0.865284
O O6 0.085442 0.363730 0.515685
O O7 0.260271 0.360145 0.886152
O O8 0.757126 0.774378 0.721530
O O9 0.121777 0.763242 0.107715
O O10 0.271142 0.805065 0.411155
O O11 0.093799 0.871521 0.409235
O O12 0.246403 0.181784 0.607803
O O13 0.184006 0.984506 0.977067
O O14 0.449238 0.076513 0.729151
O O15 0.000000 0.000000 0.500000
#
# Coordination Sequence:
#
# PCOD9033359 Si02
#       7
#     2   2   2   2   2   2   2
#     4  12  25  42  68  98 132 171 223 269 328 384
#     4   9  24  44  65  93 134 174 217 268 319 389
#     4  11  25  43  68  96 134 174 221 264 323 398
#     4   9  23  43  66  96 126 178 214 267 324 384
#     4  10  22  44  67  96 137 163 223 270 327 383
#     4  11  23  42  70  97 130 175 215 271 330 385
#     4  12  25  40  66 102 134 170 215 270 334 383
#
# _framework density 22.338114000000001
#
# number of rings (size 3 to 8) (size 9 to 14) (size 15 to 20)
#    0.857    0.571    1.429    3.000    2.000    5.143 
#    0.000    2.143    0.000    0.000    0.000    0.000 
#    0.000    0.000    0.000    0.000    0.000    0.000 
#
# Total GULP energy -78123.921453 kJ/mol
# GULP energy per Si atom -5580.280104 kJ/mol
# Density = 2.228727 g / cm^3
# Si number density = 22.338114 Si / 1000 Ang^3
#
#
#
# Elastic Constant Matrix: (Units=GPa)
#
#
# Indices 1 2 3 4 5 6 
#
# 1 90.5471 53.4704 15.5504 17.5724 14.3227 -16.2995
# 2 53.4704 36.0944 -9.5044 9.4300 22.9500 17.6440
# 3 15.5504 -9.5044 75.4090 -3.2573 4.5432 3.8067
# 4 17.5724 9.4300 -3.2573 19.6742 -0.6349 0.7089
# 5 14.3227 22.9500 4.5432 -0.6349 32.3515 7.7132
# 6 -16.2995 17.6440 3.8067 0.7089 7.7132 12.5122
#
#
#
# Elastic Compliance Matrix: (Units=1/GPa)
#
#
# Indices 1 2 3 4 5 6 
#
# 1 0.000236 0.016248 0.003090 -0.007080 -0.007838 -0.018311
# 2 0.016248 -0.005826 -0.005982 -0.014511 -0.011887 0.039351
# 3 0.003090 -0.005982 0.011522 0.001643 -0.000965 0.009457
# 4 -0.007080 -0.014511 0.001643 0.064942 0.014993 -0.002182
# 5 -0.007838 -0.011887 -0.000965 0.014993 0.049018 -0.024221
# 6 -0.018311 0.039351 0.009457 -0.002182 -0.024221 0.012756
#
#
# Mechanical properties :
#
#
# Convention : Reuss Voigt Hill
#
# Bulk Modulus (GPa) = 30.63403 35.67594 33.15498
# Shear Modulus (GPa) = 42.80173 22.40984 32.60578
#
# Velocity S-wave (km/s) = 4.38206 3.17079 3.82468
# Velocity P-wave (km/s) = 6.27270 5.42317 5.86334
#
# Compressibility (1/GPa) = 0.03264344
#
# Stress axis : x y z
#
# Youngs Moduli (GPa) = 4229.97423 -171.65172 86.79307
#
# Poissons Ratio (x) = 2.78894 -0.26817
# Poissons Ratio (y) = -68.72721 0.51918
# Poissons Ratio (z) = -13.06963 -1.02680
#
# Static dielectric constant tensor:
#      x y z
#    x 1.827780 0.016470 0.006250 
#    y 0.016470 1.819080 0.006720 
#    z 0.006250 0.006720 1.812900 
# 
# From -- ./inp_files/195445.got.cif
#   From: 2010.05.17/outbox.cif.g08.bks.cpg/sg2_98_cif.got.tgz:195445.got - 2010.06.03 11:33:40.
