data_PCOD9033005
_publ_section_title
;
Structure prediction by ZEFSAII (Michael W. Deem and Ramdas Pophale) SiO2 
 PCOD9033005
Probable space group: P -1
;
_chemical_formula_sum "Si O2"
_cell_formula_units_Z 16
_cell_length_a 6.698318
_cell_length_b 13.228931
_cell_length_c 17.082289
_cell_angle_alpha 150.957870
_cell_angle_beta 105.444726
_cell_angle_gamma 71.496475
_cell_volume 696.632339
_symmetry_space_group_name_H-M "P -1"
_symmetry_group_IT_number 2
_symmetry_cell_setting 'triclinic'
loop_
_space_group_symop_operation_xyz
x,y,z
-x,-y,-z
loop_
_atom_site_type_symbol
_atom_site_label
_atom_site_fract_x
_atom_site_fract_y
_atom_site_fract_z
Si Si1 0.125214 0.685373 0.655054
Si Si2 0.309528 0.796765 0.953703
Si Si3 0.425536 0.241182 0.897561
Si Si4 0.839224 0.917028 0.484713
Si Si5 0.873155 0.791133 0.858523
Si Si6 0.500620 0.713479 0.242071
Si Si7 0.839703 0.093967 0.355032
Si Si8 0.452436 0.507499 0.349277
O O1 0.130597 0.831428 0.679469
O O2 0.362300 0.580100 0.630533
O O3 0.000000 0.500000 0.500000
O O4 0.998616 0.783734 0.784597
O O5 0.445061 0.585086 0.785152
O O6 0.068776 0.768039 0.923147
O O7 0.420076 0.862190 0.087162
O O8 0.290421 0.988795 0.018610
O O9 0.505487 0.207206 0.794448
O O10 0.214102 0.141618 0.811681
O O11 0.424343 0.489388 0.080706
O O12 0.732222 0.727917 0.310527
O O13 0.960905 0.875510 0.551396
O O14 0.657723 0.119893 0.612584
O O15 0.000000 0.000000 0.500000
O O16 0.744765 0.606620 0.732491
O O17 0.638741 0.246549 0.478290
#
# Coordination Sequence:
#
# PCOD9033005 Si02
#       8
#     2   2   2   2   2   2   2   2
#     4  11  24  41  67 103 142 185 232 292 337 408
#     4  10  24  40  68  94 141 181 232 279 349 415
#     4  11  25  46  69 106 137 181 231 292 353 406
#     4  11  25  50  75 104 139 181 236 286 357 422
#     4  10  22  44  64  97 138 186 230 284 342 407
#     4  10  26  50  73  98 145 179 224 306 348 410
#     4  12  26  42  76 106 136 189 234 284 354 421
#     4  11  24  43  67 100 144 183 232 284 339 418
#
# _framework density 22.967637
#
# number of rings (size 3 to 8) (size 9 to 14) (size 15 to 20)
#    0.000    1.250    2.500    1.500    7.000    2.500 
#    0.000    0.000    0.000    0.000    0.000    0.000 
#    0.000    0.000    0.000    0.000    0.000    0.000 
#
# Total GULP energy -89374.838013 kJ/mol
# GULP energy per Si atom -5585.927376 kJ/mol
# Density = 2.291536 g / cm^3
# Si number density = 22.967637 Si / 1000 Ang^3
#
#
#
# Elastic Constant Matrix: (Units=GPa)
#
#
# Indices 1 2 3 4 5 6 
#
# 1 95.4491 25.1291 43.1587 -0.7974 17.7066 -7.2440
# 2 25.1291 56.0073 13.3089 -18.9382 17.1490 -2.2091
# 3 43.1587 13.3089 106.4734 -1.4511 29.5592 1.9812
# 4 -0.7974 -18.9382 -1.4511 43.5847 -3.1535 11.4532
# 5 17.7066 17.1490 29.5592 -3.1535 36.6312 1.1815
# 6 -7.2440 -2.2091 1.9812 11.4532 1.1815 30.4511
#
#
#
# Elastic Compliance Matrix: (Units=1/GPa)
#
#
# Indices 1 2 3 4 5 6 
#
# 1 0.015018 -0.006528 -0.005298 -0.004083 -0.000441 0.004996
# 2 -0.006528 0.027343 0.002344 0.012107 -0.010370 -0.003873
# 3 -0.005298 0.002344 0.013979 0.001239 -0.009643 -0.002092
# 4 -0.004083 0.012107 0.001239 0.031162 -0.001630 -0.011831
# 5 -0.000441 -0.010370 -0.009643 -0.001630 0.040046 -0.001171
# 6 0.004996 -0.003873 -0.002092 -0.011831 -0.001171 0.038379
#
#
# Mechanical properties :
#
#
# Convention : Reuss Voigt Hill
#
# Bulk Modulus (GPa) = 26.75416 46.79144 36.77280
# Shear Modulus (GPa) = 25.33605 33.88893 29.61249
#
# Velocity S-wave (km/s) = 3.32493 3.84540 3.59460
# Velocity P-wave (km/s) = 5.13947 6.33507 5.76833
#
# Compressibility (1/GPa) = 0.03737737
#
# Stress axis : x y z
#
# Youngs Moduli (GPa) = 66.58845 36.57276 71.53447
#
# Poissons Ratio (x) = 0.23873 0.37896
# Poissons Ratio (y) = 0.43467 -0.16768
# Poissons Ratio (z) = 0.35276 -0.08573
#
# Static dielectric constant tensor:
#      x y z
#    x 1.836660 -0.023100 0.010300 
#    y -0.023100 1.886970 -0.020580 
#    z 0.010300 -0.020580 1.918160 
# 
# From -- ./inp_files/550208.got.cif
#   From: 2010.05.17/outbox.cif.g08.bks.cpg/sg2_276_cif.got.tgz:550208.got - 2010.06.03 11:33:40.
