data_PCOD9033617
_publ_section_title
;
Structure prediction by ZEFSAII (Michael W. Deem and Ramdas Pophale) SiO2 
 PCOD9033617
Probable space group: P -1
;
_chemical_formula_sum "Si O2"
_cell_formula_units_Z 16
_cell_length_a 15.674141
_cell_length_b 5.691634
_cell_length_c 9.239746
_cell_angle_alpha 95.988926
_cell_angle_beta 78.788890
_cell_angle_gamma 57.215287
_cell_volume 657.441284
_symmetry_space_group_name_H-M "P -1"
_symmetry_group_IT_number 2
_symmetry_cell_setting 'triclinic'
loop_
_space_group_symop_operation_xyz
x,y,z
-x,-y,-z
loop_
_atom_site_type_symbol
_atom_site_label
_atom_site_fract_x
_atom_site_fract_y
_atom_site_fract_z
Si Si1 0.122805 0.264280 0.479979
Si Si2 0.695006 0.339368 0.708951
Si Si3 0.057759 0.668144 0.006106
Si Si4 0.649258 0.152201 0.072707
Si Si5 0.798990 0.606419 0.806983
Si Si6 0.399737 0.207771 0.448151
Si Si7 0.473691 0.786441 0.132709
Si Si8 0.764132 0.782024 0.284816
O O1 0.179325 0.371746 0.365839
O O2 0.150756 0.223988 0.637853
O O3 0.000000 0.500000 0.500000
O O4 0.185342 0.939891 0.377891
O O5 0.715979 0.522879 0.822597
O O6 0.644216 0.476696 0.577158
O O7 0.612232 0.284991 0.799395
O O8 0.164125 0.489819 0.861227
O O9 0.096466 0.628224 0.155893
O O10 0.000000 0.500000 0.000000
O O11 0.000000 0.000000 0.000000
O O12 0.590198 0.497851 0.108039
O O13 0.686193 0.043583 0.217302
O O14 0.558284 0.133477 0.020671
O O15 0.752284 0.907310 0.928975
O O16 0.306848 0.239551 0.575658
O O17 0.500000 0.000000 0.500000
O O18 0.438789 0.034382 0.273350
#
# Coordination Sequence:
#
# PCOD9033617 Si02
#       8
#     2   2   2   2   2   2   2   2
#     4  12  26  45  72 102 141 191 248 310 377 443
#     4  12  23  44  75  95 147 187 242 311 373 452
#     4  11  28  51  77 111 153 201 260 323 389 456
#     4  10  22  44  68  99 142 187 231 298 370 457
#     4  11  24  47  69 102 143 188 249 300 373 456
#     4  12  26  46  71 109 145 192 248 307 385 467
#     4  11  23  46  70 101 145 187 241 298 383 457
#     4  11  24  47  70 110 147 187 257 311 384 456
#
# _framework density 24.336774999999999
#
# number of rings (size 3 to 8) (size 9 to 14) (size 15 to 20)
#    0.000    0.750    5.000    1.500    5.250    4.000 
#   11.250    0.000    0.000    0.000    0.000    0.000 
#    0.000    0.000    0.000    0.000    0.000    0.000 
#
# Total GULP energy -89209.637610 kJ/mol
# GULP energy per Si atom -5575.602351 kJ/mol
# Density = 2.428138 g / cm^3
# Si number density = 24.336775 Si / 1000 Ang^3
#
#
#
# Elastic Constant Matrix: (Units=GPa)
#
#
# Indices 1 2 3 4 5 6 
#
# 1 82.0445 35.5742 27.7970 -20.3337 -1.7764 -16.6751
# 2 35.5742 163.7107 44.9765 -19.6372 2.3303 -42.7416
# 3 27.7970 44.9765 131.8482 -29.1013 3.3086 -16.7565
# 4 -20.3337 -19.6372 -29.1013 54.4881 -19.1381 5.2684
# 5 -1.7764 2.3303 3.3086 -19.1381 43.7623 -3.4476
# 6 -16.6751 -42.7416 -16.7565 5.2684 -3.4476 34.5031
#
#
#
# Elastic Compliance Matrix: (Units=1/GPa)
#
#
# Indices 1 2 3 4 5 6 
#
# 1 0.015549 -0.001128 -0.001105 0.005585 0.003618 0.005089
# 2 -0.001128 0.009701 -0.001367 0.001711 0.001129 0.010660
# 3 -0.001105 -0.001367 0.009467 0.004470 0.001411 0.001828
# 4 0.005585 0.001711 0.004470 0.027282 0.012046 0.004027
# 5 0.003618 0.001129 0.001411 0.012046 0.028480 0.004839
# 6 0.005089 0.010660 0.001828 0.004027 0.004839 0.045405
#
#
# Mechanical properties :
#
#
# Convention : Reuss Voigt Hill
#
# Bulk Modulus (GPa) = 36.34092 66.03322 51.18707
# Shear Modulus (GPa) = 32.83907 44.50106 38.67006
#
# Velocity S-wave (km/s) = 3.67735 4.28080 3.99050
# Velocity P-wave (km/s) = 5.74417 7.18510 6.50466
#
# Compressibility (1/GPa) = 0.02751719
#
# Stress axis : x y z
#
# Youngs Moduli (GPa) = 64.31413 103.07703 105.62481
#
# Poissons Ratio (x) = 0.11629 0.11667
# Poissons Ratio (y) = 0.07256 0.14444
# Poissons Ratio (z) = 0.07104 0.14096
#
# Static dielectric constant tensor:
#      x y z
#    x 2.041870 0.006460 0.013630 
#    y 0.006460 2.148180 -0.052420 
#    z 0.013630 -0.052420 2.002010 
# 
# From -- ./inp_files/142668.got.cif
#   From: 2010.05.17/outbox.cif.g08.bks.cpg/sg2_72_cif.got.tgz:142668.got - 2010.06.03 11:33:40.
