data_PCOD9033828
_publ_section_title
;
Structure prediction by ZEFSAII (Michael W. Deem and Ramdas Pophale) SiO2 
 PCOD9033828
Probable space group: P -1
;
_chemical_formula_sum "Si O2"
_cell_formula_units_Z 16
_cell_length_a 9.686793
_cell_length_b 16.065721
_cell_length_c 7.550273
_cell_angle_alpha 64.135514
_cell_angle_beta 67.365322
_cell_angle_gamma 37.307894
_cell_volume 639.287050
_symmetry_space_group_name_H-M "P -1"
_symmetry_group_IT_number 2
_symmetry_cell_setting 'triclinic'
loop_
_space_group_symop_operation_xyz
x,y,z
-x,-y,-z
loop_
_atom_site_type_symbol
_atom_site_label
_atom_site_fract_x
_atom_site_fract_y
_atom_site_fract_z
Si Si1 0.926117 0.279381 0.796977
Si Si2 0.314981 0.940359 0.385766
Si Si3 0.671476 0.705358 0.941218
Si Si4 0.837940 0.015005 0.944348
Si Si5 0.193609 0.327178 0.717738
Si Si6 0.433418 0.329639 0.314850
Si Si7 0.556410 0.466623 0.293286
Si Si8 0.944562 0.755545 0.645770
O O1 0.655794 0.384123 0.837371
O O2 0.993605 0.346704 0.781918
O O3 0.995002 0.255754 0.578718
O O4 0.069758 0.132085 0.952707
O O5 0.567780 0.843093 0.268563
O O6 0.372884 0.840981 0.604052
O O7 0.178887 0.952463 0.284888
O O8 0.190957 0.090858 0.365055
O O9 0.652296 0.632324 0.877914
O O10 0.793903 0.734796 0.761436
O O11 0.793987 0.629442 0.138314
O O12 0.415970 0.854600 0.978286
O O13 0.000000 0.000000 0.000000
O O14 0.764745 0.617962 0.507902
O O15 0.528568 0.376365 0.314746
O O16 0.500000 0.500000 0.500000
O O17 0.821481 0.367223 0.246163
#
# Coordination Sequence:
#
# PCOD9033828 Si02
#       8
#     2   2   2   2   2   2   2   2
#     4  11  22  43  66  96 137 186 220 276 345 396
#     4   9  21  38  64  99 129 165 220 278 337 382
#     4  11  22  42  72 105 133 171 231 278 342 395
#     4  11  25  39  68 100 141 172 216 291 341 399
#     4   9  21  41  69 102 135 171 218 291 332 396
#     4  10  22  44  70 102 130 177 231 277 332 400
#     4  10  26  42  68  94 138 188 225 273 340 401
#     4  11  21  40  68 100 132 179 230 272 332 416
#
# _framework density 25.02788
#
# number of rings (size 3 to 8) (size 9 to 14) (size 15 to 20)
#    0.750    1.000    1.250    2.250    5.250    4.500 
#    0.000    3.125    5.500    0.000    0.000    0.000 
#    0.000    0.000    0.000    0.000    0.000    0.000 
#
# Total GULP energy -89599.082887 kJ/mol
# GULP energy per Si atom -5599.942680 kJ/mol
# Density = 2.497092 g / cm^3
# Si number density = 25.027880 Si / 1000 Ang^3
#
#
#
# Elastic Constant Matrix: (Units=GPa)
#
#
# Indices 1 2 3 4 5 6 
#
# 1 150.2842 48.3567 31.1311 13.9424 25.4386 3.5416
# 2 48.3567 110.6492 38.9483 1.7489 9.6984 0.6837
# 3 31.1311 38.9483 77.8592 17.6440 23.3645 14.2027
# 4 13.9424 1.7489 17.6440 23.4893 2.3894 7.8447
# 5 25.4386 9.6984 23.3645 2.3894 38.6363 4.9725
# 6 3.5416 0.6837 14.2027 7.8447 4.9725 49.8413
#
#
#
# Elastic Compliance Matrix: (Units=1/GPa)
#
#
# Indices 1 2 3 4 5 6 
#
# 1 0.009059 -0.003765 0.001021 -0.005490 -0.005364 0.000516
# 2 -0.003765 0.012949 -0.007556 0.006303 0.003289 0.000923
# 3 0.001021 -0.007556 0.023915 -0.015758 -0.011861 -0.003120
# 4 -0.005490 0.006303 -0.015758 0.058059 0.008642 -0.005206
# 5 -0.005364 0.003289 -0.011861 0.008642 0.035378 -0.001174
# 6 0.000516 0.000923 -0.003120 -0.005206 -0.001174 0.021840
#
#
# Mechanical properties :
#
#
# Convention : Reuss Voigt Hill
#
# Bulk Modulus (GPa) = 39.48989 63.96275 51.72632
# Shear Modulus (GPa) = 26.28250 37.08381 31.68316
#
# Velocity S-wave (km/s) = 3.24408 3.85346 3.56183
# Velocity P-wave (km/s) = 5.46303 6.73877 6.13415
#
# Compressibility (1/GPa) = 0.02532293
#
# Stress axis : x y z
#
# Youngs Moduli (GPa) = 110.38655 77.22658 41.81453
#
# Poissons Ratio (x) = 0.29073 -0.04268
# Poissons Ratio (y) = 0.41556 0.31595
# Poissons Ratio (z) = -0.11266 0.58353
#
# Static dielectric constant tensor:
#      x y z
#    x 1.942280 -0.007770 0.006330 
#    y -0.007770 2.083880 -0.057420 
#    z 0.006330 -0.057420 1.988550 
# 
# From -- ./inp_files/206326.got.cif
#   From: 2010.05.17/outbox.cif.g08.bks.cpg/sg2_104_cif.got.tgz:206326.got - 2010.06.03 11:33:40.
