data_PCOD9033131
_publ_section_title
;
Structure prediction by ZEFSAII (Michael W. Deem and Ramdas Pophale) SiO2 
 PCOD9033131
Probable space group: P -1
;
_chemical_formula_sum "Si O2"
_cell_formula_units_Z 15
_cell_length_a 7.489621
_cell_length_b 6.530553
_cell_length_c 16.788357
_cell_angle_alpha 89.983848
_cell_angle_beta 121.137568
_cell_angle_gamma 62.550552
_cell_volume 592.127371
_symmetry_space_group_name_H-M "P -1"
_symmetry_group_IT_number 2
_symmetry_cell_setting 'triclinic'
loop_
_space_group_symop_operation_xyz
x,y,z
-x,-y,-z
loop_
_atom_site_type_symbol
_atom_site_label
_atom_site_fract_x
_atom_site_fract_y
_atom_site_fract_z
Si Si1 0.000000 0.500000 0.500000
Si Si2 0.254662 0.210633 0.900606
Si Si3 0.952796 0.761101 0.308749
Si Si4 0.889232 0.371086 0.024987
Si Si5 0.395304 0.258068 0.377837
Si Si6 0.881786 0.925193 0.579714
Si Si7 0.792863 0.187408 0.860150
Si Si8 0.414945 0.193205 0.661477
O O1 0.969167 0.279802 0.451349
O O2 0.313210 0.319935 0.553933
O O3 0.251364 0.185028 0.804792
O O4 0.215324 0.464029 0.921014
O O5 0.021325 0.195955 0.876203
O O6 0.500000 0.000000 0.000000
O O7 0.871339 0.680715 0.370365
O O8 0.212780 0.545428 0.334877
O O9 0.964933 0.987279 0.336840
O O10 0.711537 0.345521 0.922211
O O11 0.094666 0.093594 0.092183
O O12 0.000000 0.500000 0.000000
O O13 0.226785 0.172360 0.380077
O O14 0.649593 0.154447 0.482650
O O15 0.470669 0.094032 0.314852
O O16 0.576680 0.260739 0.748285
#
# Coordination Sequence:
#
# PCOD9033131 Si02
#       8
#     1   2   2   2   2   2   2   2
#     4  10  22  44  66 102 136 172 226 268 340 396
#     4  11  26  44  65 102 136 173 228 283 338 404
#     4  12  25  43  67 102 131 178 234 273 338 409
#     4   9  21  42  71  97 128 173 225 277 337 399
#     4  10  22  45  66  97 138 174 226 277 336 404
#     4  10  22  44  69  98 136 178 218 283 337 401
#     4  10  22  45  68  96 136 180 221 278 344 393
#     4  11  24  43  70  99 136 181 223 282 333 406
#
# _framework density 25.332388000000002
#
# number of rings (size 3 to 8) (size 9 to 14) (size 15 to 20)
#    0.000    1.600    1.333    2.000    5.600    3.733 
#   16.800    0.000    0.000    0.000    0.000    0.000 
#    0.000    0.000    0.000    0.000    0.000    0.000 
#
# Total GULP energy -83762.975332 kJ/mol
# GULP energy per Si atom -5584.198355 kJ/mol
# Density = 2.527473 g / cm^3
# Si number density = 25.332388 Si / 1000 Ang^3
#
#
#
# Elastic Constant Matrix: (Units=GPa)
#
#
# Indices 1 2 3 4 5 6 
#
# 1 80.1459 32.2269 8.6946 7.2330 -8.6887 0.6404
# 2 32.2269 177.3831 71.2986 35.9356 7.1099 -13.9551
# 3 8.6946 71.2986 153.6139 44.6280 2.4556 -3.8431
# 4 7.2330 35.9356 44.6280 45.8111 4.5710 -2.7642
# 5 -8.6887 7.1099 2.4556 4.5710 22.0023 -5.4935
# 6 0.6404 -13.9551 -3.8431 -2.7642 -5.4935 29.3109
#
#
#
# Elastic Compliance Matrix: (Units=1/GPa)
#
#
# Indices 1 2 3 4 5 6 
#
# 1 0.014456 -0.002987 0.000885 -0.001507 0.006764 -0.000496
# 2 -0.002987 0.008162 -0.002654 -0.002952 -0.002179 0.002916
# 3 0.000885 -0.002654 0.009966 -0.007956 0.001643 -0.000418
# 4 -0.001507 -0.002952 -0.007956 0.032672 -0.005638 -0.000391
# 5 0.006764 -0.002179 0.001643 -0.005638 0.051865 0.008219
# 6 -0.000496 0.002916 -0.000418 -0.000391 0.008219 0.036965
#
#
# Mechanical properties :
#
#
# Convention : Reuss Voigt Hill
#
# Bulk Modulus (GPa) = 43.34161 70.62032 56.98096
# Shear Modulus (GPa) = 29.19075 39.35303 34.27189
#
# Velocity S-wave (km/s) = 3.39825 3.94568 3.68215
# Velocity P-wave (km/s) = 5.70472 6.97824 6.37337
#
# Compressibility (1/GPa) = 0.02307252
#
# Stress axis : x y z
#
# Youngs Moduli (GPa) = 69.17763 122.52370 100.34062
#
# Poissons Ratio (x) = 0.36599 -0.08884
# Poissons Ratio (y) = 0.20664 0.26627
# Poissons Ratio (z) = -0.06125 0.32514
#
# Static dielectric constant tensor:
#      x y z
#    x 2.127780 -0.002080 -0.152070 
#    y -0.002080 2.037990 -0.033130 
#    z -0.152070 -0.033130 2.198260 
# 
# From -- ./inp_files/368945.got.cif
#   From: 2010.05.17/outbox.cif.g08.bks.cpg/sg2_185_cif.got.tgz:368945.got - 2010.06.03 11:33:40.
