data_PCOD9033820
_publ_section_title
;
Structure prediction by ZEFSAII (Michael W. Deem and Ramdas Pophale) SiO2 
 PCOD9033820
Probable space group: P -1
;
_chemical_formula_sum "Si O2"
_cell_formula_units_Z 13
_cell_length_a 15.071412
_cell_length_b 10.267415
_cell_length_c 8.613288
_cell_angle_alpha 68.647176
_cell_angle_beta 48.797201
_cell_angle_gamma 35.130435
_cell_volume 528.041622
_symmetry_space_group_name_H-M "P -1"
_symmetry_group_IT_number 2
_symmetry_cell_setting 'triclinic'
loop_
_space_group_symop_operation_xyz
x,y,z
-x,-y,-z
loop_
_atom_site_type_symbol
_atom_site_label
_atom_site_fract_x
_atom_site_fract_y
_atom_site_fract_z
Si Si1 0.184942 0.239113 0.713439
Si Si2 0.272855 0.841012 0.806302
Si Si3 0.389336 0.966528 0.191344
Si Si4 0.734470 0.599267 0.205697
Si Si5 0.111003 0.851610 0.684544
Si Si6 0.407532 0.658020 0.191495
Si Si7 0.000000 0.500000 0.500000
O O1 0.262818 0.275224 0.732045
O O2 0.169648 0.325251 0.525624
O O3 0.307981 0.972921 0.709465
O O4 0.941059 0.430091 0.936095
O O5 0.170806 0.901852 0.731922
O O6 0.452836 0.551742 0.744907
O O7 0.123608 0.955442 0.076984
O O8 0.528449 0.789305 0.257019
O O9 0.431394 0.800269 0.095825
O O10 0.143166 0.237540 0.365622
O O11 0.500000 0.000000 0.000000
O O12 0.778523 0.407084 0.314726
O O13 0.181016 0.848565 0.442570
O O14 0.500000 0.500000 0.000000
#
# Coordination Sequence:
#
# PCOD9033820 Si02
#       7
#     2   2   2   2   2   2   1
#     4  10  23  42  72 106 142 184 243 296 365 434
#     4  10  22  44  74 100 141 190 236 301 363 436
#     4  12  27  46  72 106 149 188 242 305 369 432
#     4  10  22  45  71 102 140 190 241 299 356 438
#     4  10  22  44  70 101 136 188 243 291 362 432
#     4  12  28  44  71 108 147 190 243 302 365 440
#     4  12  26  44  72 108 144 188 238 310 364 428
#
# _framework density 24.619271000000001
#
# number of rings (size 3 to 8) (size 9 to 14) (size 15 to 20)
#    0.000    1.231    3.077    1.385    4.308    4.923 
#    0.000    0.000    0.000    0.000    0.000    0.000 
#    0.000    0.000    0.000    0.000    0.000    0.000 
#
# Total GULP energy -72383.727157 kJ/mol
# GULP energy per Si atom -5567.979012 kJ/mol
# Density = 2.456324 g / cm^3
# Si number density = 24.619271 Si / 1000 Ang^3
#
#
#
# Elastic Constant Matrix: (Units=GPa)
#
#
# Indices 1 2 3 4 5 6 
#
# 1 79.3027 53.7118 22.2256 2.1488 7.2612 33.8703
# 2 53.7118 144.7041 -1.7408 22.0620 -13.3241 40.0273
# 3 22.2256 -1.7408 117.9977 6.5191 3.8122 20.2417
# 4 2.1488 22.0620 6.5191 27.6133 6.9668 2.8084
# 5 7.2612 -13.3241 3.8122 6.9668 29.4874 3.8549
# 6 33.8703 40.0273 20.2417 2.8084 3.8549 50.8542
#
#
#
# Elastic Compliance Matrix: (Units=1/GPa)
#
#
# Indices 1 2 3 4 5 6 
#
# 1 0.023695 -0.009679 -0.003711 0.010272 -0.011320 -0.006395
# 2 -0.009679 0.016698 0.003956 -0.016287 0.014371 -0.008461
# 3 -0.003711 0.003956 0.010236 -0.005654 0.003323 -0.004657
# 4 0.010272 -0.016287 -0.005654 0.054867 -0.023029 0.006944
# 5 -0.011320 0.014371 0.003323 -0.023029 0.049193 -0.007552
# 6 -0.006395 -0.008461 -0.004657 0.006944 -0.007552 0.032626
#
#
# Mechanical properties :
#
#
# Convention : Reuss Voigt Hill
#
# Bulk Modulus (GPa) = 31.48395 54.48864 42.98629
# Shear Modulus (GPa) = 23.06609 39.44483 31.25546
#
# Velocity S-wave (km/s) = 3.06422 4.00708 3.56694
# Velocity P-wave (km/s) = 5.03343 6.60224 5.87047
#
# Compressibility (1/GPa) = 0.03176222
#
# Stress axis : x y z
#
# Youngs Moduli (GPa) = 42.20253 59.88750 97.69607
#
# Poissons Ratio (x) = 0.57967 0.36251
# Poissons Ratio (y) = 0.40849 -0.38653
# Poissons Ratio (z) = 0.15660 -0.23694
#
# Static dielectric constant tensor:
#      x y z
#    x 1.947370 -0.065070 -0.005120 
#    y -0.065070 1.978120 0.047980 
#    z -0.005120 0.047980 2.093840 
# 
# From -- ./inp_files/294689.got.cif
#   From: 2010.05.17/outbox.cif.g08.bks.cpg/sg2_148_cif.got.tgz:294689.got - 2010.06.03 11:33:40.
