data_PCOD9033042
_publ_section_title
;
Structure prediction by ZEFSAII (Michael W. Deem and Ramdas Pophale) SiO2 
 PCOD9033042
Probable space group: P -1
;
_chemical_formula_sum "Si O2"
_cell_formula_units_Z 16
_cell_length_a 8.820886
_cell_length_b 5.600917
_cell_length_c 24.052160
_cell_angle_alpha 46.216317
_cell_angle_beta 136.182397
_cell_angle_gamma 117.626192
_cell_volume 592.474865
_symmetry_space_group_name_H-M "P -1"
_symmetry_group_IT_number 2
_symmetry_cell_setting 'triclinic'
loop_
_space_group_symop_operation_xyz
x,y,z
-x,-y,-z
loop_
_atom_site_type_symbol
_atom_site_label
_atom_site_fract_x
_atom_site_fract_y
_atom_site_fract_z
Si Si1 0.676046 0.986612 0.865997
Si Si2 0.352237 0.399835 0.868224
Si Si3 0.756633 0.315828 0.644826
Si Si4 0.974768 0.088394 0.124529
Si Si5 0.340524 0.716620 0.494711
Si Si6 0.115491 0.747229 0.656775
Si Si7 0.725675 0.578705 0.359104
Si Si8 0.251980 0.378797 0.957927
O O1 0.552056 0.640898 0.881227
O O2 0.896124 0.963643 0.890533
O O3 0.513998 0.286370 0.750398
O O4 0.706104 0.979002 0.942393
O O5 0.257959 0.452701 0.773739
O O6 0.186960 0.522194 0.855793
O O7 0.281119 0.022411 0.924650
O O8 0.498029 0.381588 0.575549
O O9 0.794965 0.196812 0.610937
O O10 0.871735 0.660674 0.620149
O O11 0.870827 0.098107 0.758560
O O12 0.931701 0.455979 0.076712
O O13 0.253365 0.626264 0.545779
O O14 0.500000 0.000000 0.500000
O O15 0.164207 0.667550 0.618440
O O16 0.178277 0.077074 0.650984
O O17 0.500000 0.500000 0.000000
#
# Coordination Sequence:
#
# PCOD9033042 Si02
#       8
#     2   2   2   2   2   2   2   2
#     4  10  22  44  65 104 142 184 242 296 358 427
#     4   9  23  41  64  99 133 189 234 294 351 422
#     4  10  25  44  70 104 139 191 242 295 369 434
#     4  11  22  44  69 100 140 190 238 299 358 434
#     4  11  26  45  72 103 145 186 238 302 365 437
#     4  10  25  44  74 100 146 187 246 290 369 423
#     4  11  25  48  70 108 142 193 235 309 355 436
#     4  10  23  41  69 101 145 184 244 296 355 428
#
# _framework density 27.005362000000002
#
# number of rings (size 3 to 8) (size 9 to 14) (size 15 to 20)
#    0.000    1.750    1.250    0.375   15.750    4.500 
#    6.750    0.000    0.000    0.000    0.000    0.000 
#    0.000    0.000    0.000    0.000    0.000    0.000 
#
# Total GULP energy -89102.317624 kJ/mol
# GULP energy per Si atom -5568.894852 kJ/mol
# Density = 2.694390 g / cm^3
# Si number density = 27.005362 Si / 1000 Ang^3
#
#
#
# Elastic Constant Matrix: (Units=GPa)
#
#
# Indices 1 2 3 4 5 6 
#
# 1 142.3954 11.1896 60.0728 13.4561 -19.4736 -13.1657
# 2 11.1896 59.2954 10.2874 9.9031 -3.9968 9.8420
# 3 60.0728 10.2874 135.3731 12.5551 -30.6431 -5.0970
# 4 13.4561 9.9031 12.5551 42.5721 -10.8864 -5.3537
# 5 -19.4736 -3.9968 -30.6431 -10.8864 55.8585 -2.0906
# 6 -13.1657 9.8420 -5.0970 -5.3537 -2.0906 39.6817
#
#
#
# Elastic Compliance Matrix: (Units=1/GPa)
#
#
# Indices 1 2 3 4 5 6 
#
# 1 0.009102 -0.001360 -0.003499 -0.000892 0.001089 0.002845
# 2 -0.001360 0.018975 -0.000781 -0.004672 -0.000677 -0.005924
# 3 -0.003499 -0.000781 0.010000 -0.000550 0.004120 0.000460
# 4 -0.000892 -0.004672 -0.000550 0.026738 0.004437 0.004633
# 5 0.001089 -0.000677 0.004120 0.004437 0.021463 0.002788
# 6 0.002845 -0.005924 0.000460 0.004633 0.002788 0.028445
#
#
# Mechanical properties :
#
#
# Convention : Reuss Voigt Hill
#
# Bulk Modulus (GPa) = 37.32057 55.57373 46.44715
# Shear Modulus (GPa) = 37.05443 44.65672 40.85557
#
# Velocity S-wave (km/s) = 3.70822 4.07089 3.89378
# Velocity P-wave (km/s) = 5.67312 6.53603 6.11980
#
# Compressibility (1/GPa) = 0.02679487
#
# Stress axis : x y z
#
# Youngs Moduli (GPa) = 109.86397 52.70140 99.99750
#
# Poissons Ratio (x) = 0.07169 0.34994
# Poissons Ratio (y) = 0.14945 0.07814
# Poissons Ratio (z) = 0.38447 0.04118
#
# Static dielectric constant tensor:
#      x y z
#    x 2.163360 -0.117080 0.048510 
#    y -0.117080 2.518600 0.099340 
#    z 0.048510 0.099340 2.176070 
# 
# From -- ./inp_files/358205.got.cif
#   From: 2010.05.17/outbox.cif.g08.bks.cpg/sg2_180_cif.got.tgz:358205.got - 2010.06.03 11:33:40.
