data_PCOD9033674
_publ_section_title
;
Structure prediction by ZEFSAII (Michael W. Deem and Ramdas Pophale) SiO2 
 PCOD9033674
Probable space group: P -1
;
_chemical_formula_sum "Si O2"
_cell_formula_units_Z 14
_cell_length_a 7.697582
_cell_length_b 7.045266
_cell_length_c 16.467098
_cell_angle_alpha 75.008558
_cell_angle_beta 64.343442
_cell_angle_gamma 39.765559
_cell_volume 510.633791
_symmetry_space_group_name_H-M "P -1"
_symmetry_group_IT_number 2
_symmetry_cell_setting 'triclinic'
loop_
_space_group_symop_operation_xyz
x,y,z
-x,-y,-z
loop_
_atom_site_type_symbol
_atom_site_label
_atom_site_fract_x
_atom_site_fract_y
_atom_site_fract_z
Si Si1 0.078407 0.841839 0.087357
Si Si2 0.585956 0.654226 0.559244
Si Si3 0.978108 0.565662 0.626715
Si Si4 0.983669 0.866178 0.275564
Si Si5 0.951533 0.480689 0.161567
Si Si6 0.371627 0.783340 0.326710
Si Si7 0.516661 0.168370 0.915943
O O1 0.059042 0.621806 0.110442
O O2 0.374158 0.721058 0.072017
O O3 0.220356 0.431118 0.898042
O O4 0.000000 0.000000 0.000000
O O5 0.696687 0.651166 0.451535
O O6 0.644377 0.377342 0.585778
O O7 0.779984 0.624032 0.588750
O O8 0.257951 0.930576 0.627474
O O9 0.956357 0.411455 0.714606
O O10 0.839806 0.877130 0.644672
O O11 0.265359 0.751199 0.270488
O O12 0.886792 0.021841 0.190164
O O13 0.693907 0.621449 0.261832
O O14 0.225767 0.126985 0.158966
O O15 0.500000 0.000000 0.000000
#
# Coordination Sequence:
#
# PCOD9033674 Si02
#       7
#     2   2   2   2   2   2   2
#     4  12  27  47  77 107 152 204 257 317 389 455
#     4  10  22  44  69 104 148 193 247 315 381 466
#     4  10  23  42  71 106 144 193 250 311 388 460
#     4  11  24  43  70 105 148 194 258 317 382 458
#     4  12  28  48  78 108 156 201 258 316 396 455
#     4  11  24  42  70 105 150 196 250 311 383 466
#     4  12  27  52  75 113 148 200 264 327 380 467
#
# _framework density 27.416906999999998
#
# number of rings (size 3 to 8) (size 9 to 14) (size 15 to 20)
#    0.000    0.857    2.857    3.000    2.000    4.571 
#    0.000    0.000    0.000    0.000    0.000    0.000 
#    0.000    0.000    0.000    0.000    0.000    0.000 
#
# Total GULP energy -78466.725456 kJ/mol
# GULP energy per Si atom -5604.766104 kJ/mol
# Density = 2.735451 g / cm^3
# Si number density = 27.416907 Si / 1000 Ang^3
#
#
#
# Elastic Constant Matrix: (Units=GPa)
#
#
# Indices 1 2 3 4 5 6 
#
# 1 219.6742 35.0914 29.7457 -11.8813 -19.7744 29.1008
# 2 35.0914 110.1993 35.7838 -10.3485 -16.6893 34.5019
# 3 29.7457 35.7838 137.3085 -19.3259 -22.1948 11.7659
# 4 -11.8813 -10.3485 -19.3259 58.9659 0.6499 -10.5962
# 5 -19.7744 -16.6893 -22.1948 0.6499 36.2658 -7.3457
# 6 29.1008 34.5019 11.7659 -10.5962 -7.3457 51.8071
#
#
#
# Elastic Compliance Matrix: (Units=1/GPa)
#
#
# Indices 1 2 3 4 5 6 
#
# 1 0.005165 -0.000520 -0.000443 0.000405 0.001872 -0.002106
# 2 -0.000520 0.012608 -0.002093 0.000095 0.002774 -0.007217
# 3 -0.000443 -0.002093 0.008925 0.002556 0.004365 0.000758
# 4 0.000405 0.000095 0.002556 0.018448 0.002148 0.003207
# 5 0.001872 0.002774 0.004365 0.002148 0.032746 0.001192
# 6 -0.002106 -0.007217 0.000758 0.003207 0.001192 0.025944
#
#
# Mechanical properties :
#
#
# Convention : Reuss Voigt Hill
#
# Bulk Modulus (GPa) = 48.57864 74.26932 61.42398
# Shear Modulus (GPa) = 42.80495 53.84518 48.32506
#
# Velocity S-wave (km/s) = 3.95557 4.43644 4.20289
# Velocity P-wave (km/s) = 6.21442 7.30687 6.78268
#
# Compressibility (1/GPa) = 0.02058518
#
# Stress axis : x y z
#
# Youngs Moduli (GPa) = 193.62446 79.31420 112.04748
#
# Poissons Ratio (x) = 0.04123 0.04968
# Poissons Ratio (y) = 0.10064 0.23452
# Poissons Ratio (z) = 0.08585 0.16601
#
# Static dielectric constant tensor:
#      x y z
#    x 2.119270 0.002650 0.030380 
#    y 0.002650 2.048020 0.019060 
#    z 0.030380 0.019060 2.307670 
# 
# From -- ./inp_files/554352.got.cif
#   From: 2010.05.17/outbox.cif.g08.bks.cpg/sg2_278_cif.got.tgz:554352.got - 2010.06.03 11:33:40.
