data_PCOD9033364
_publ_section_title
;
Structure prediction by ZEFSAII (Michael W. Deem and Ramdas Pophale) SiO2 
 PCOD9033364
Probable space group: P -1
;
_chemical_formula_sum "Si O2"
_cell_formula_units_Z 12
_cell_length_a 10.339607
_cell_length_b 8.000605
_cell_length_c 13.680000
_cell_angle_alpha 60.255282
_cell_angle_beta 146.233222
_cell_angle_gamma 132.581351
_cell_volume 457.006428
_symmetry_space_group_name_H-M "P -1"
_symmetry_group_IT_number 2
_symmetry_cell_setting 'triclinic'
loop_
_space_group_symop_operation_xyz
x,y,z
-x,-y,-z
loop_
_atom_site_type_symbol
_atom_site_label
_atom_site_fract_x
_atom_site_fract_y
_atom_site_fract_z
Si Si1 0.415264 0.135650 0.262569
Si Si2 0.142171 0.342120 0.923131
Si Si3 0.946713 0.027060 0.345907
Si Si4 0.020566 0.669102 0.380042
Si Si5 0.586409 0.139841 0.840320
Si Si6 0.117387 0.409055 0.206257
O O1 0.650998 0.218587 0.468523
O O2 0.118824 0.923071 0.174103
O O3 0.494518 0.030415 0.252316
O O4 0.369413 0.325227 0.131317
O O5 0.175989 0.434380 0.807615
O O6 0.039921 0.478304 0.879812
O O7 0.635173 0.966605 0.181481
O O8 0.962801 0.847611 0.341018
O O9 0.152574 0.274781 0.354233
O O10 0.000000 0.000000 0.500000
O O11 0.000000 0.500000 0.500000
O O12 0.636757 0.379827 0.761053
O O13 0.888815 0.211524 0.048201
#
# Coordination Sequence:
#
# PCOD9033364 Si02
#       6
#     2   2   2   2   2   2
#     4  10  22  45  68  94 131 170 219 268 323 387
#     4  10  23  43  69  96 129 172 215 270 326 387
#     4  12  24  43  64  95 134 169 216 272 321 388
#     4  12  26  43  63  98 133 171 216 266 330 390
#     4  10  22  44  67  97 127 168 224 264 324 389
#     4  10  23  43  70  97 125 173 217 270 328 382
#
# _framework density 26.257835
#
# number of rings (size 3 to 8) (size 9 to 14) (size 15 to 20)
#    0.000    1.333    1.667    3.000    2.333    2.667 
#    3.000    0.000    0.000    0.000    0.000    0.000 
#    0.000    0.000    0.000    0.000    0.000    0.000 
#
# Total GULP energy -67160.453363 kJ/mol
# GULP energy per Si atom -5596.704447 kJ/mol
# Density = 2.619807 g / cm^3
# Si number density = 26.257835 Si / 1000 Ang^3
#
#
#
# Elastic Constant Matrix: (Units=GPa)
#
#
# Indices 1 2 3 4 5 6 
#
# 1 77.0416 13.2809 7.1454 -16.2066 -8.2800 -4.6961
# 2 13.2809 86.7659 6.1165 -29.5418 -4.4012 15.5303
# 3 7.1454 6.1165 121.1265 -17.8467 -24.3572 0.7411
# 4 -16.2066 -29.5418 -17.8467 37.9870 10.0733 -5.8242
# 5 -8.2800 -4.4012 -24.3572 10.0733 35.6245 -5.6912
# 6 -4.6961 15.5303 0.7411 -5.8242 -5.6912 48.8782
#
#
#
# Elastic Compliance Matrix: (Units=1/GPa)
#
#
# Indices 1 2 3 4 5 6 
#
# 1 0.014674 -0.000674 0.000488 0.005709 0.002459 0.002583
# 2 -0.000674 0.016569 0.000741 0.012825 -0.001874 -0.004031
# 3 0.000488 0.000741 0.009988 0.004005 0.006036 0.000840
# 4 0.005709 0.012825 0.004005 0.042377 -0.006215 0.000739
# 5 0.002459 -0.001874 0.006036 -0.006215 0.034945 0.004068
# 6 0.002583 -0.004031 0.000840 0.000739 0.004068 0.022537
#
#
# Mechanical properties :
#
#
# Convention : Reuss Voigt Hill
#
# Bulk Modulus (GPa) = 23.61787 37.55773 30.58780
# Shear Modulus (GPa) = 32.44765 41.72403 37.08584
#
# Velocity S-wave (km/s) = 3.51911 3.99057 3.76223
# Velocity P-wave (km/s) = 5.05236 5.96383 5.52692
#
# Compressibility (1/GPa) = 0.04234082
#
# Stress axis : x y z
#
# Youngs Moduli (GPa) = 68.14889 60.35303 100.11646
#
# Poissons Ratio (x) = 0.04069 -0.04890
# Poissons Ratio (y) = 0.04595 -0.07414
# Poissons Ratio (z) = -0.03328 -0.04470
#
# Static dielectric constant tensor:
#      x y z
#    x 2.066050 0.107820 0.050170 
#    y 0.107820 2.143880 0.074640 
#    z 0.050170 0.074640 2.185290 
# 
# From -- ./inp_files/150331.got.cif
#   From: 2010.05.17/outbox.cif.g08.bks.cpg/sg2_76_cif.got.tgz:150331.got - 2010.06.03 11:33:40.
