data_PCOD9033427
_publ_section_title
;
Structure prediction by ZEFSAII (Michael W. Deem and Ramdas Pophale) SiO2 
 PCOD9033427
Probable space group: P -1
;
_chemical_formula_sum "Si O2"
_cell_formula_units_Z 14
_cell_length_a 10.868800
_cell_length_b 4.852458
_cell_length_c 19.495472
_cell_angle_alpha 93.595656
_cell_angle_beta 150.545800
_cell_angle_gamma 83.078199
_cell_volume 500.027755
_symmetry_space_group_name_H-M "P -1"
_symmetry_group_IT_number 2
_symmetry_cell_setting 'triclinic'
loop_
_space_group_symop_operation_xyz
x,y,z
-x,-y,-z
loop_
_atom_site_type_symbol
_atom_site_label
_atom_site_fract_x
_atom_site_fract_y
_atom_site_fract_z
Si Si1 0.027534 0.250102 0.453622
Si Si2 0.987984 0.812985 0.808390
Si Si3 0.546964 0.309931 0.717145
Si Si4 0.901016 0.618014 0.263894
Si Si5 0.575368 0.919413 0.210671
Si Si6 0.898740 0.701420 0.055754
Si Si7 0.558027 0.291039 0.459197
O O1 0.323199 0.126936 0.585915
O O2 0.000000 0.500000 0.500000
O O3 0.951504 0.413694 0.349994
O O4 0.828644 0.034770 0.362267
O O5 0.095426 0.599586 0.798837
O O6 0.061871 0.620523 0.908751
O O7 0.682238 0.879056 0.654951
O O8 0.098928 0.100832 0.872564
O O9 0.496451 0.309489 0.774279
O O10 0.487667 0.547438 0.633751
O O11 0.845511 0.233662 0.855490
O O12 0.646657 0.807123 0.167246
O O13 0.141769 0.791283 0.384493
O O14 0.346508 0.168030 0.101639
O O15 0.500000 0.500000 0.500000
#
# Coordination Sequence:
#
# PCOD9033427 Si02
#       7
#     2   2   2   2   2   2   2
#     4  11  24  43  68 102 140 175 230 291 355 413
#     4  10  24  47  70 101 141 189 237 286 348 415
#     4  10  22  44  68 100 136 182 231 289 347 418
#     4  10  23  42  69 103 137 181 232 294 347 415
#     4  12  26  41  68 104 138 183 232 291 352 418
#     4  11  27  46  71 100 143 190 236 285 347 420
#     4   8  18  41  67 100 131 178 229 289 340 410
#
# _framework density 27.998445
#
# number of rings (size 3 to 8) (size 9 to 14) (size 15 to 20)
#    0.000    1.714    1.429    0.857    6.000    3.429 
#    0.000    8.571    0.000    0.000    0.000    0.000 
#    0.000    0.000    0.000    0.000    0.000    0.000 
#
# Total GULP energy -78303.966213 kJ/mol
# GULP energy per Si atom -5593.140444 kJ/mol
# Density = 2.793472 g / cm^3
# Si number density = 27.998445 Si / 1000 Ang^3
#
#
#
# Elastic Constant Matrix: (Units=GPa)
#
#
# Indices 1 2 3 4 5 6 
#
# 1 127.5052 35.7335 32.9397 -8.3272 15.8066 -1.8914
# 2 35.7335 131.9405 27.4806 2.6548 7.8747 4.3720
# 3 32.9397 27.4806 120.5011 -17.7206 23.4950 -12.2551
# 4 -8.3272 2.6548 -17.7206 45.2902 -18.0186 6.1787
# 5 15.8066 7.8747 23.4950 -18.0186 40.0656 -15.2131
# 6 -1.8914 4.3720 -12.2551 6.1787 -15.2131 27.1440
#
#
#
# Elastic Compliance Matrix: (Units=1/GPa)
#
#
# Indices 1 2 3 4 5 6 
#
# 1 0.009134 -0.001937 -0.001634 0.000284 -0.002644 -0.001336
# 2 -0.001937 0.008699 -0.001652 -0.001883 -0.001940 -0.002941
# 3 -0.001634 -0.001652 0.010317 0.002252 -0.003095 0.002563
# 4 0.000284 -0.001883 0.002252 0.027680 0.012071 0.001805
# 5 -0.002644 -0.001940 -0.003095 0.012071 0.040780 0.018839
# 6 -0.001336 -0.002941 0.002563 0.001805 0.018839 0.048526
#
#
# Mechanical properties :
#
#
# Convention : Reuss Voigt Hill
#
# Bulk Modulus (GPa) = 56.48125 63.58381 60.03253
# Shear Modulus (GPa) = 30.96273 41.41951 36.19112
#
# Velocity S-wave (km/s) = 3.32907 3.85041 3.59919
# Velocity P-wave (km/s) = 5.91555 6.52124 6.22577
#
# Compressibility (1/GPa) = 0.01770499
#
# Stress axis : x y z
#
# Youngs Moduli (GPa) = 109.47737 114.95500 96.92462
#
# Poissons Ratio (x) = 0.22269 0.15834
# Poissons Ratio (y) = 0.21208 0.16012
# Poissons Ratio (z) = 0.17884 0.18991
#
# Static dielectric constant tensor:
#      x y z
#    x 2.304850 -0.103570 -0.079050 
#    y -0.103570 2.190140 0.047140 
#    z -0.079050 0.047140 2.235770 
# 
# From -- ./inp_files/592798.got.cif
#   From: 2010.05.17/outbox.cif.g08.bks.cpg/sg2_297_cif.got.tgz:592798.got - 2010.06.03 11:33:40.
