data_PCOD9033731
_publ_section_title
;
Structure prediction by ZEFSAII (Michael W. Deem and Ramdas Pophale) SiO2 
 PCOD9033731
Probable space group: P -1
;
_chemical_formula_sum "Si O2"
_cell_formula_units_Z 12
_cell_length_a 13.978583
_cell_length_b 16.846976
_cell_length_c 11.942507
_cell_angle_alpha 147.087269
_cell_angle_beta 33.451376
_cell_angle_gamma 159.461422
_cell_volume 518.704093
_symmetry_space_group_name_H-M "P -1"
_symmetry_group_IT_number 2
_symmetry_cell_setting 'triclinic'
loop_
_space_group_symop_operation_xyz
x,y,z
-x,-y,-z
loop_
_atom_site_type_symbol
_atom_site_label
_atom_site_fract_x
_atom_site_fract_y
_atom_site_fract_z
Si Si1 0.723173 0.342500 0.250947
Si Si2 0.140852 0.751859 0.676324
Si Si3 0.857235 0.980550 0.458845
Si Si4 0.192778 0.862273 0.508799
Si Si5 0.283652 0.475304 0.729458
Si Si6 0.002055 0.753788 0.054913
O O1 0.461066 0.241328 0.450669
O O2 0.695917 0.364877 0.173399
O O3 0.000878 0.607229 0.341154
O O4 0.757997 0.196833 0.075803
O O5 0.116976 0.821595 0.665281
O O6 0.000000 0.500000 0.500000
O O7 0.476087 0.954825 0.609748
O O8 0.994727 0.724138 0.894508
O O9 0.023035 0.941319 0.272952
O O10 0.866846 0.034071 0.383789
O O11 0.990611 0.203028 0.659905
O O12 0.500000 0.500000 0.500000
O O13 0.269966 0.475814 0.876975
#
# Coordination Sequence:
#
# PCOD9033731 Si02
#       6
#     2   2   2   2   2   2
#     4  11  23  46  67  99 137 172 223 273 326 397
#     4  11  22  44  71  97 136 170 227 275 321 396
#     4  11  24  45  67  98 140 167 221 281 321 397
#     4  10  22  44  69  95 136 174 212 286 320 381
#     4  11  25  45  67  99 139 171 222 276 324 399
#     4  12  24  42  72  98 129 186 215 267 345 382
#
# _framework density 23.134577
#
# number of rings (size 3 to 8) (size 9 to 14) (size 15 to 20)
#    0.000    1.000    5.000    1.000    0.000    2.667 
#    0.000    3.333    0.000    0.000    0.000    0.000 
#    0.000    0.000    0.000    0.000    0.000    0.000 
#
# Total GULP energy -67109.979986 kJ/mol
# GULP energy per Si atom -5592.498332 kJ/mol
# Density = 2.308192 g / cm^3
# Si number density = 23.134577 Si / 1000 Ang^3
#
#
#
# Elastic Constant Matrix: (Units=GPa)
#
#
# Indices 1 2 3 4 5 6 
#
# 1 182.5079 38.1140 52.4089 -14.4088 0.1318 -54.3803
# 2 38.1140 117.7311 32.3134 1.6019 8.5891 -0.0206
# 3 52.4089 32.3134 109.9762 -15.6262 0.9745 -22.6615
# 4 -14.4088 1.6019 -15.6262 32.5806 -20.3324 5.4901
# 5 0.1318 8.5891 0.9745 -20.3324 49.3348 -9.6032
# 6 -54.3803 -0.0206 -22.6615 5.4901 -9.6032 48.8128
#
#
#
# Elastic Compliance Matrix: (Units=1/GPa)
#
#
# Indices 1 2 3 4 5 6 
#
# 1 0.010327 -0.003603 -0.000717 0.005708 0.005215 0.011555
# 2 -0.003603 0.011178 -0.003695 -0.006448 -0.005713 -0.006123
# 3 -0.000717 -0.003695 0.012667 0.008006 0.004687 0.005102
# 4 0.005708 -0.006448 0.008006 0.050541 0.023534 0.009019
# 5 0.005215 -0.005713 0.004687 0.023534 0.033166 0.011862
# 6 0.011555 -0.006123 0.005102 0.009019 0.011862 0.037045
#
#
# Mechanical properties :
#
#
# Convention : Reuss Voigt Hill
#
# Bulk Modulus (GPa) = 55.11568 72.87643 63.99606
# Shear Modulus (GPa) = 28.24836 45.30421 36.77629
#
# Velocity S-wave (km/s) = 3.49814 4.43006 3.99139
# Velocity P-wave (km/s) = 6.33968 7.59847 6.99744
#
# Compressibility (1/GPa) = 0.01814366
#
# Stress axis : x y z
#
# Youngs Moduli (GPa) = 96.83094 89.46325 78.94223
#
# Poissons Ratio (x) = 0.32231 0.05661
# Poissons Ratio (y) = 0.34885 0.29167
# Poissons Ratio (z) = 0.06944 0.33054
#
# Static dielectric constant tensor:
#      x y z
#    x 1.899760 -0.025000 0.036360 
#    y -0.025000 1.896220 -0.023880 
#    z 0.036360 -0.023880 1.856660 
# 
# From -- ./inp_files/26364.got.cif
#   From: 2010.05.17/outbox.cif.g08.bks.cpg/sg2_14_cif.got.tgz:26364.got - 2010.06.03 11:33:40.
