data_PCOD9033477
_publ_section_title
;
Structure prediction by ZEFSAII (Michael W. Deem and Ramdas Pophale) SiO2 
 PCOD9033477
Probable space group: P -1
;
_chemical_formula_sum "Si O2"
_cell_formula_units_Z 13
_cell_length_a 10.500081
_cell_length_b 5.944180
_cell_length_c 11.868154
_cell_angle_alpha 98.658587
_cell_angle_beta 133.521471
_cell_angle_gamma 91.172948
_cell_volume 522.980656
_symmetry_space_group_name_H-M "P -1"
_symmetry_group_IT_number 2
_symmetry_cell_setting 'triclinic'
loop_
_space_group_symop_operation_xyz
x,y,z
-x,-y,-z
loop_
_atom_site_type_symbol
_atom_site_label
_atom_site_fract_x
_atom_site_fract_y
_atom_site_fract_z
Si Si1 0.152245 0.970711 0.366018
Si Si2 0.000000 0.000000 0.000000
Si Si3 0.357158 0.907095 0.104267
Si Si4 0.116239 0.692486 0.752534
Si Si5 0.690650 0.268822 0.348837
Si Si6 0.485429 0.342206 0.610277
Si Si7 0.869124 0.476264 0.771036
O O1 0.982586 0.086239 0.298112
O O2 0.328101 0.150629 0.448841
O O3 0.218473 0.874316 0.514797
O O4 0.103390 0.794683 0.216701
O O5 0.050348 0.289732 0.097700
O O6 0.195828 0.021988 0.062207
O O7 0.424033 0.769805 0.238353
O O8 0.524768 0.093764 0.182844
O O9 0.280954 0.745389 0.942226
O O10 0.820377 0.369576 0.335047
O O11 0.967216 0.514311 0.712899
O O12 0.607483 0.462859 0.376419
O O13 0.654908 0.436844 0.642792
#
# Coordination Sequence:
#
# PCOD9033477 Si02
#       7
#     2   1   2   2   2   2   2
#     4  11  26  44  72 105 143 190 235 289 351 420
#     4  10  22  44  68 104 138 176 230 290 354 402
#     4  10  24  43  71 105 139 185 236 291 358 412
#     4  11  26  44  72 107 141 190 237 289 354 417
#     4  11  24  48  71 101 149 186 237 290 348 429
#     4  11  25  45  73 103 146 187 231 292 357 418
#     4  11  25  44  71 106 141 182 235 293 350 422
#
# _framework density 24.857513999999998
#
# number of rings (size 3 to 8) (size 9 to 14) (size 15 to 20)
#    0.000    1.231    1.538    2.308    4.308   12.923 
#    0.000    0.000    0.000    0.000    0.000    0.000 
#    0.000    0.000    0.000    0.000    0.000    0.000 
#
# Total GULP energy -72530.110023 kJ/mol
# GULP energy per Si atom -5579.239233 kJ/mol
# Density = 2.480094 g / cm^3
# Si number density = 24.857514 Si / 1000 Ang^3
#
#
#
# Elastic Constant Matrix: (Units=GPa)
#
#
# Indices 1 2 3 4 5 6 
#
# 1 179.0873 13.9065 54.9599 16.7023 -2.9787 16.8371
# 2 13.9065 55.8520 26.7704 15.8868 1.8051 -3.7535
# 3 54.9599 26.7704 129.7907 7.6410 15.1838 14.7374
# 4 16.7023 15.8868 7.6410 35.6393 0.4243 12.0653
# 5 -2.9787 1.8051 15.1838 0.4243 25.6547 0.3180
# 6 16.8371 -3.7535 14.7374 12.0653 0.3180 37.1040
#
#
#
# Elastic Compliance Matrix: (Units=1/GPa)
#
#
# Indices 1 2 3 4 5 6 
#
# 1 0.006850 0.000213 -0.002979 -0.002298 0.002596 -0.001178
# 2 0.000213 0.024781 -0.005646 -0.012952 0.001727 0.008850
# 3 -0.002979 -0.005646 0.011246 0.003157 -0.006599 -0.004656
# 4 -0.002298 -0.012952 0.003157 0.039064 -0.001694 -0.014209
# 5 0.002596 0.001727 -0.006599 -0.001694 0.043070 0.001799
# 6 -0.001178 0.008850 -0.004656 -0.014209 0.001799 0.034835
#
#
# Mechanical properties :
#
#
# Convention : Reuss Voigt Hill
#
# Bulk Modulus (GPa) = 38.38434 61.77816 50.08125
# Shear Modulus (GPa) = 26.97551 37.61914 32.29732
#
# Velocity S-wave (km/s) = 3.29782 3.89445 3.60849
# Velocity P-wave (km/s) = 5.47504 6.71783 6.12802
#
# Compressibility (1/GPa) = 0.02605229
#
# Stress axis : x y z
#
# Youngs Moduli (GPa) = 145.98719 40.35415 88.92437
#
# Poissons Ratio (x) = -0.00860 0.26492
# Poissons Ratio (y) = -0.03111 0.50205
# Poissons Ratio (z) = 0.43492 0.22783
#
# Static dielectric constant tensor:
#      x y z
#    x 1.864150 -0.004140 0.000770 
#    y -0.004140 1.934030 0.105010 
#    z 0.000770 0.105010 1.914550 
# 
# From -- ./inp_files/511211.got.cif
#   From: 2010.05.17/outbox.cif.g08.bks.cpg/sg2_256_cif.got.tgz:511211.got - 2010.06.03 11:33:40.
