data_PCOD9033097
_publ_section_title
;
Structure prediction by ZEFSAII (Michael W. Deem and Ramdas Pophale) SiO2 
 PCOD9033097
Probable space group: P -1
;
_chemical_formula_sum "Si O2"
_cell_formula_units_Z 14
_cell_length_a 13.155155
_cell_length_b 14.239018
_cell_length_c 14.714884
_cell_angle_alpha 31.725544
_cell_angle_beta 147.492686
_cell_angle_gamma 147.946389
_cell_volume 691.274677
_symmetry_space_group_name_H-M "P -1"
_symmetry_group_IT_number 2
_symmetry_cell_setting 'triclinic'
loop_
_space_group_symop_operation_xyz
x,y,z
-x,-y,-z
loop_
_atom_site_type_symbol
_atom_site_label
_atom_site_fract_x
_atom_site_fract_y
_atom_site_fract_z
Si Si1 0.928232 0.642341 0.384177
Si Si2 0.315014 0.234070 0.352720
Si Si3 0.542492 0.652165 0.989066
Si Si4 0.151175 0.527856 0.929110
Si Si5 0.023159 0.857750 0.560425
Si Si6 0.683716 0.935804 0.701491
Si Si7 0.234521 0.524830 0.409955
O O1 0.909636 0.574467 0.528924
O O2 0.000000 0.500000 0.500000
O O3 0.702402 0.625046 0.199835
O O4 0.095083 0.869719 0.305144
O O5 0.343252 0.207950 0.287210
O O6 0.533277 0.325381 0.501160
O O7 0.158443 0.013431 0.455040
O O8 0.218489 0.392564 0.154526
O O9 0.327352 0.609790 0.913794
O O10 0.659780 0.857040 0.851431
O O11 0.500000 0.500000 0.000000
O O12 0.141055 0.728462 0.791125
O O13 0.907980 0.393928 0.819838
O O14 0.798441 0.674506 0.507148
O O15 0.000000 0.000000 0.500000
O O16 0.500000 0.000000 0.500000
#
# Coordination Sequence:
#
# PCOD9033097 Si02
#       7
#     2   2   2   2   2   2   2
#     4  12  23  38  61  93 136 180 216 267 324 392
#     4  12  22  45  72  92 138 176 219 280 337 390
#     4  12  21  37  61  92 133 174 222 262 319 399
#     4  10  23  43  66  99 133 171 227 273 324 399
#     4  10  25  48  70  99 136 169 225 289 336 394
#     4  12  23  38  58  95 132 183 219 264 328 390
#     4  10  22  44  65  98 132 172 225 274 330 397
#
# _framework density 20.252443
#
# number of rings (size 3 to 8) (size 9 to 14) (size 15 to 20)
#    0.857    0.000    4.286    4.714    0.000    1.143 
#    7.714    0.714    0.000    0.000    0.000    0.000 
#    0.000    0.000    0.000    0.000    0.000    0.000 
#
# Total GULP energy -78013.565840 kJ/mol
# GULP energy per Si atom -5572.397560 kJ/mol
# Density = 2.020635 g / cm^3
# Si number density = 20.252443 Si / 1000 Ang^3
#
#
#
# Elastic Constant Matrix: (Units=GPa)
#
#
# Indices 1 2 3 4 5 6 
#
# 1 32.6621 8.3155 6.6549 0.5262 18.0081 -20.6978
# 2 8.3155 105.8886 21.0575 10.1700 13.5774 2.8583
# 3 6.6549 21.0575 96.9010 7.6121 27.3236 7.3083
# 4 0.5262 10.1700 7.6121 34.2447 1.0066 3.0790
# 5 18.0081 13.5774 27.3236 1.0066 27.3759 -11.1679
# 6 -20.6978 2.8583 7.3083 3.0790 -11.1679 35.5658
#
#
#
# Elastic Compliance Matrix: (Units=1/GPa)
#
#
# Indices 1 2 3 4 5 6 
#
# 1 0.067954 -0.001960 0.004209 -0.002804 -0.036567 0.027599
# 2 -0.001960 0.010628 -0.000365 -0.002614 -0.004830 -0.003210
# 3 0.004209 -0.000365 0.017496 -0.002420 -0.023318 -0.008229
# 4 -0.002804 -0.002614 -0.002420 0.030685 0.003403 -0.002512
# 5 -0.036567 -0.004830 -0.023318 0.003403 0.091108 0.012213
# 6 0.027599 -0.003210 -0.008229 -0.002512 0.012213 0.050180
#
#
# Mechanical properties :
#
#
# Convention : Reuss Voigt Hill
#
# Bulk Modulus (GPa) = 10.01573 34.16748 22.09161
# Shear Modulus (GPa) = 16.80304 32.73222 24.76763
#
# Velocity S-wave (km/s) = 2.88354 4.02457 3.50086
# Velocity P-wave (km/s) = 4.00532 6.20513 5.22237
#
# Compressibility (1/GPa) = 0.09984292
#
# Stress axis : x y z
#
# Youngs Moduli (GPa) = 14.71594 94.09487 57.15618
#
# Poissons Ratio (x) = 0.18446 -0.24055
# Poissons Ratio (y) = 0.02885 0.02088
# Poissons Ratio (z) = -0.06194 0.03438
#
# Static dielectric constant tensor:
#      x y z
#    x 1.745480 -0.040790 -0.060580 
#    y -0.040790 1.804940 -0.010840 
#    z -0.060580 -0.010840 1.785080 
# 
# From -- ./inp_files/293935.got.cif
#   From: 2010.05.17/outbox.cif.g08.bks.cpg/sg2_147_cif.got.tgz:293935.got - 2010.06.03 11:33:40.
