data_PCOD9033562
_publ_section_title
;
Structure prediction by ZEFSAII (Michael W. Deem and Ramdas Pophale) SiO2 
 PCOD9033562
Probable space group: P -1
;
_chemical_formula_sum "Si O2"
_cell_formula_units_Z 12
_cell_length_a 10.220021
_cell_length_b 22.929142
_cell_length_c 15.272247
_cell_angle_alpha 162.021081
_cell_angle_beta 27.789248
_cell_angle_gamma 153.267088
_cell_volume 480.714844
_symmetry_space_group_name_H-M "P -1"
_symmetry_group_IT_number 2
_symmetry_cell_setting 'triclinic'
loop_
_space_group_symop_operation_xyz
x,y,z
-x,-y,-z
loop_
_atom_site_type_symbol
_atom_site_label
_atom_site_fract_x
_atom_site_fract_y
_atom_site_fract_z
Si Si1 0.614956 0.249837 0.186777
Si Si2 0.766672 0.408805 0.721565
Si Si3 0.162836 0.098300 0.394391
Si Si4 0.713643 0.870502 0.203186
Si Si5 0.172925 0.502449 0.993391
Si Si6 0.222514 0.990327 0.929636
O O1 0.675470 0.039368 0.856373
O O2 0.458805 0.213544 0.132120
O O3 0.377233 0.229418 0.376072
O O4 0.922672 0.435843 0.280861
O O5 0.671308 0.191928 0.421711
O O6 0.500000 0.500000 0.000000
O O7 0.861479 0.393113 0.745116
O O8 0.109228 0.272049 0.729326
O O9 0.853162 0.940095 0.314917
O O10 0.500000 0.000000 0.500000
O O11 0.519945 0.639430 0.968564
O O12 0.006290 0.926911 0.050997
O O13 0.000000 0.500000 0.000000
O O14 0.000000 0.000000 0.000000
#
# Coordination Sequence:
#
# PCOD9033562 Si02
#       6
#     2   2   2   2   2   2
#     4  10  24  44  70  96 134 179 229 284 339 412
#     4  12  27  46  70 102 141 184 229 285 345 411
#     4  10  22  44  68  97 132 178 229 280 343 405
#     4  11  22  42  67  97 138 176 224 280 342 409
#     4  12  25  39  67  99 134 177 226 278 339 404
#     4  11  26  43  69 102 137 179 228 287 343 401
#
# _framework density 24.962823
#
# number of rings (size 3 to 8) (size 9 to 14) (size 15 to 20)
#    0.000    1.000    1.667    4.000    4.667    4.667 
#    0.000    6.667    0.000    0.000    0.000    0.000 
#    0.000    0.000    0.000    0.000    0.000    0.000 
#
# Total GULP energy -67047.375335 kJ/mol
# GULP energy per Si atom -5587.281278 kJ/mol
# Density = 2.490601 g / cm^3
# Si number density = 24.962823 Si / 1000 Ang^3
#
#
#
# Elastic Constant Matrix: (Units=GPa)
#
#
# Indices 1 2 3 4 5 6 
#
# 1 60.1726 13.6698 11.4608 -0.3188 11.4776 21.7923
# 2 13.6698 111.0521 -1.1413 1.4535 17.8002 18.6194
# 3 11.4608 -1.1413 107.5518 1.7412 3.6121 9.5301
# 4 -0.3188 1.4535 1.7412 39.6182 8.6690 7.8024
# 5 11.4776 17.8002 3.6121 8.6690 36.1124 2.0512
# 6 21.7923 18.6194 9.5301 7.8024 2.0512 41.4143
#
#
#
# Elastic Compliance Matrix: (Units=1/GPa)
#
#
# Indices 1 2 3 4 5 6 
#
# 1 0.022670 0.000427 -0.001135 0.004309 -0.007638 -0.012293
# 2 0.000427 0.010723 0.000695 0.001851 -0.005635 -0.005275
# 3 -0.001135 0.000695 0.009622 0.000106 -0.000862 -0.001907
# 4 0.004309 0.001851 0.000106 0.028707 -0.008724 -0.008101
# 5 -0.007638 -0.005635 -0.000862 -0.008724 0.034698 0.006676
# 6 -0.012293 -0.005275 -0.001907 -0.008101 0.006676 0.034621
#
#
# Mechanical properties :
#
#
# Convention : Reuss Voigt Hill
#
# Bulk Modulus (GPa) = 23.26197 36.30610 29.78404
# Shear Modulus (GPa) = 32.17559 40.41481 36.29520
#
# Velocity S-wave (km/s) = 3.59408 4.02805 3.81723
# Velocity P-wave (km/s) = 5.15384 6.01741 5.60229
#
# Compressibility (1/GPa) = 0.04298861
#
# Stress axis : x y z
#
# Youngs Moduli (GPa) = 44.11123 93.25843 103.92471
#
# Poissons Ratio (x) = -0.03981 0.11797
# Poissons Ratio (y) = -0.01883 -0.07223
# Poissons Ratio (z) = 0.05007 -0.06482
#
# Static dielectric constant tensor:
#      x y z
#    x 1.920200 -0.014330 -0.100960 
#    y -0.014330 2.067570 -0.019180 
#    z -0.100960 -0.019180 1.929540 
# 
# From -- ./inp_files/459730.got.cif
#   From: 2010.05.17/outbox.cif.g08.bks.cpg/sg2_230_cif.got.tgz:459730.got - 2010.06.03 11:33:40.
