data_PCOD9033391
_publ_section_title
;
Structure prediction by ZEFSAII (Michael W. Deem and Ramdas Pophale) SiO2 
 PCOD9033391
Probable space group: P -1
;
_chemical_formula_sum "Si O2"
_cell_formula_units_Z 16
_cell_length_a 9.595196
_cell_length_b 16.966346
_cell_length_c 11.817711
_cell_angle_alpha 137.935102
_cell_angle_beta 124.923788
_cell_angle_gamma 88.150369
_cell_volume 738.914691
_symmetry_space_group_name_H-M "P -1"
_symmetry_group_IT_number 2
_symmetry_cell_setting 'triclinic'
loop_
_space_group_symop_operation_xyz
x,y,z
-x,-y,-z
loop_
_atom_site_type_symbol
_atom_site_label
_atom_site_fract_x
_atom_site_fract_y
_atom_site_fract_z
Si Si1 0.581927 0.000448 0.661291
Si Si2 0.769278 0.359838 0.825351
Si Si3 0.148896 0.621228 0.433495
Si Si4 0.096744 0.269298 0.561632
Si Si5 0.266419 0.689257 0.815373
Si Si6 0.490401 0.622177 0.449284
Si Si7 0.991653 0.969090 0.095811
Si Si8 0.517026 0.427752 0.107053
O O1 0.776551 0.993320 0.725973
O O2 0.500000 0.000000 0.500000
O O3 0.350457 0.827203 0.432159
O O4 0.700250 0.165332 0.962001
O O5 0.561214 0.343080 0.661731
O O6 0.000000 0.500000 0.000000
O O7 0.872574 0.436450 0.080923
O O8 0.280988 0.699142 0.697490
O O9 0.306489 0.602367 0.421218
O O10 0.101322 0.732764 0.492259
O O11 0.242745 0.399915 0.661460
O O12 0.981927 0.089207 0.280686
O O13 0.295695 0.340481 0.825749
O O14 0.441766 0.685835 0.958510
O O15 0.000000 0.500000 0.500000
O O16 0.466818 0.475121 0.249648
O O17 0.749437 0.773390 0.785821
O O18 0.000000 0.000000 0.000000
#
# Coordination Sequence:
#
# PCOD9033391 Si02
#       8
#     2   2   2   2   2   2   2   2
#     4  12  25  43  72 105 140 182 233 287 352 419
#     4  10  22  44  67  98 134 187 229 279 342 418
#     4  11  24  42  66  98 132 181 227 281 347 418
#     4  11  22  38  67  97 124 174 234 281 332 405
#     4  12  24  41  65 101 141 179 226 288 355 410
#     4  11  23  42  67  97 134 179 231 282 346 408
#     4  12  22  40  67  98 135 173 229 290 338 403
#     4  11  22  39  65  94 132 171 226 282 335 413
#
# _framework density 21.653379000000001
#
# number of rings (size 3 to 8) (size 9 to 14) (size 15 to 20)
#    0.000    0.750    5.000    3.000    1.750    1.000 
#    2.250    1.250    0.000    4.500    0.000    0.000 
#    0.000    0.000    0.000    0.000    0.000    0.000 
#
# Total GULP energy -89260.700834 kJ/mol
# GULP energy per Si atom -5578.793802 kJ/mol
# Density = 2.160409 g / cm^3
# Si number density = 21.653379 Si / 1000 Ang^3
#
#
#
# Elastic Constant Matrix: (Units=GPa)
#
#
# Indices 1 2 3 4 5 6 
#
# 1 79.6965 3.0124 13.7532 12.9349 -12.4149 -18.6804
# 2 3.0124 60.0952 11.6329 -0.8239 10.1632 -17.3707
# 3 13.7532 11.6329 88.7117 12.1990 -15.4512 3.2077
# 4 12.9349 -0.8239 12.1990 37.0389 -14.9280 -8.5325
# 5 -12.4149 10.1632 -15.4512 -14.9280 40.2902 0.3039
# 6 -18.6804 -17.3707 3.2077 -8.5325 0.3039 24.9537
#
#
#
# Elastic Compliance Matrix: (Units=1/GPa)
#
#
# Indices 1 2 3 4 5 6 
#
# 1 0.017146 0.003864 -0.003228 0.000018 0.002957 0.015910
# 2 0.003864 0.025438 -0.006427 0.004039 -0.006367 0.022885
# 3 -0.003228 -0.006427 0.014378 -0.004238 0.004648 -0.010244
# 4 0.000018 0.004039 -0.004238 0.036421 0.010738 0.015693
# 5 0.002957 -0.006367 0.004648 0.010738 0.033095 0.000453
# 6 0.015910 0.022885 -0.010244 0.015693 0.000453 0.074593
#
#
# Mechanical properties :
#
#
# Convention : Reuss Voigt Hill
#
# Bulk Modulus (GPa) = 22.03525 31.70006 26.86765
# Shear Modulus (GPa) = 21.95138 33.79686 27.87412
#
# Velocity S-wave (km/s) = 3.18742 3.95500 3.59177
# Velocity P-wave (km/s) = 4.87285 5.96050 5.44390
#
# Compressibility (1/GPa) = 0.04538182
#
# Stress axis : x y z
#
# Youngs Moduli (GPa) = 58.32426 39.31183 69.54945
#
# Poissons Ratio (x) = -0.15192 0.22448
# Poissons Ratio (y) = -0.22539 0.44696
# Poissons Ratio (z) = 0.18825 0.25264
#
# Static dielectric constant tensor:
#      x y z
#    x 0.993000 0.193180 -0.079160 
#    y 0.193180 1.837090 0.007380 
#    z -0.079160 0.007380 1.811520 
# 
# From -- ./inp_files/261478.got.cif
#   From: 2010.05.17/outbox.cif.g08.bks.cpg/sg2_131_cif.got.tgz:261478.got - 2010.06.03 11:33:40.
