data_PCOD9033982
_publ_section_title
;
Structure prediction by ZEFSAII (Michael W. Deem and Ramdas Pophale) SiO2 
 PCOD9033982
Probable space group: P -1
;
_chemical_formula_sum "Si O2"
_cell_formula_units_Z 14
_cell_length_a 18.396515
_cell_length_b 21.705599
_cell_length_c 17.488495
_cell_angle_alpha 160.523259
_cell_angle_beta 159.339721
_cell_angle_gamma 18.290882
_cell_volume 673.663948
_symmetry_space_group_name_H-M "P -1"
_symmetry_group_IT_number 2
_symmetry_cell_setting 'triclinic'
loop_
_space_group_symop_operation_xyz
x,y,z
-x,-y,-z
loop_
_atom_site_type_symbol
_atom_site_label
_atom_site_fract_x
_atom_site_fract_y
_atom_site_fract_z
Si Si1 0.391682 0.692729 0.401218
Si Si2 0.346604 0.436190 0.327239
Si Si3 0.041520 0.586500 0.870164
Si Si4 0.752265 0.812623 0.179313
Si Si5 0.357231 0.123551 0.580503
Si Si6 0.874352 0.285211 0.368086
Si Si7 0.655535 0.032381 0.921148
O O1 0.514072 0.632169 0.534516
O O2 0.154747 0.680549 0.147091
O O3 0.597136 0.492958 0.312937
O O4 0.317450 0.936646 0.592310
O O5 0.500000 0.500000 0.500000
O O6 0.052382 0.642488 0.281492
O O7 0.339728 0.239245 0.049563
O O8 0.241819 0.390151 0.779760
O O9 0.962844 0.441861 0.669061
O O10 0.823381 0.794653 0.850826
O O11 0.584376 0.804051 0.070143
O O12 0.543749 0.021740 0.717796
O O13 0.105921 0.129562 0.356571
O O14 0.500000 0.000000 0.500000
O O15 0.819329 0.133668 0.186917
#
# Coordination Sequence:
#
# PCOD9033982 Si02
#       7
#     2   2   2   2   2   2   2
#     4  12  23  44  69  97 139 175 233 282 328 405
#     4  11  27  44  65 101 138 179 228 282 340 399
#     4  10  26  41  68 104 131 181 229 272 339 405
#     4  11  26  43  70  98 133 183 230 277 347 398
#     4  10  24  45  69 104 141 174 227 284 336 406
#     4  10  22  44  70  98 136 177 229 274 335 409
#     4  12  23  45  74  95 138 184 223 280 345 404
#
# _framework density 20.781874999999999
#
# number of rings (size 3 to 8) (size 9 to 14) (size 15 to 20)
#    0.857    0.286    2.857    2.143    6.000    2.857 
#    0.000    0.714    0.000    0.000    0.000    0.000 
#    0.000    0.000    0.000    0.000    0.000    0.000 
#
# Total GULP energy -78020.258972 kJ/mol
# GULP energy per Si atom -5572.875641 kJ/mol
# Density = 2.073457 g / cm^3
# Si number density = 20.781875 Si / 1000 Ang^3
#
#
#
# Elastic Constant Matrix: (Units=GPa)
#
#
# Indices 1 2 3 4 5 6 
#
# 1 120.7330 54.0552 53.7522 -16.1426 6.6877 -19.9012
# 2 54.0552 100.6491 31.7628 -12.7274 -3.2477 -5.3199
# 3 53.7522 31.7628 100.4138 -4.4778 19.6197 -13.3227
# 4 -16.1426 -12.7274 -4.4778 32.5734 5.1418 -0.1805
# 5 6.6877 -3.2477 19.6197 5.1418 38.1009 -8.6274
# 6 -19.9012 -5.3199 -13.3227 -0.1805 -8.6274 22.6497
#
#
#
# Elastic Compliance Matrix: (Units=1/GPa)
#
#
# Indices 1 2 3 4 5 6 
#
# 1 0.015067 -0.005369 -0.005122 0.004551 0.001050 0.009401
# 2 -0.005369 0.013726 -0.002105 0.002004 0.002529 -0.001753
# 3 -0.005122 -0.002105 0.014801 -0.000279 -0.006593 0.001198
# 4 0.004551 0.002004 -0.000279 0.034423 -0.004479 0.002874
# 5 0.001050 0.002529 -0.006593 -0.004479 0.032541 0.009997
# 6 0.009401 -0.001753 0.001198 0.002874 0.009997 0.056535
#
#
# Mechanical properties :
#
#
# Convention : Reuss Voigt Hill
#
# Bulk Modulus (GPa) = 54.34233 66.77071 60.55652
# Shear Modulus (GPa) = 25.19923 30.81316 28.00619
#
# Velocity S-wave (km/s) = 3.48596 3.85475 3.67499
# Velocity P-wave (km/s) = 6.51216 7.21188 6.87093
#
# Compressibility (1/GPa) = 0.01840186
#
# Stress axis : x y z
#
# Youngs Moduli (GPa) = 66.36975 72.85541 67.56244
#
# Poissons Ratio (x) = 0.39119 0.34605
# Poissons Ratio (y) = 0.35636 0.14221
# Poissons Ratio (z) = 0.33994 0.15335
#
# Static dielectric constant tensor:
#      x y z
#    x 1.774450 -0.048720 0.021120 
#    y -0.048720 1.779140 -0.044040 
#    z 0.021120 -0.044040 1.796750 
# 
# From -- ./inp_files/576393.got.cif
#   From: 2010.05.17/outbox.cif.g08.bks.cpg/sg2_289_cif.got.tgz:576393.got - 2010.06.03 11:33:40.
