data_PCOD9033798
_publ_section_title
;
Structure prediction by ZEFSAII (Michael W. Deem and Ramdas Pophale) SiO2 
 PCOD9033798
Probable space group: P -1
;
_chemical_formula_sum "Si O2"
_cell_formula_units_Z 16
_cell_length_a 27.360167
_cell_length_b 18.233954
_cell_length_c 5.146998
_cell_angle_alpha 127.574592
_cell_angle_beta 51.230952
_cell_angle_gamma 162.104828
_cell_volume 614.135811
_symmetry_space_group_name_H-M "P -1"
_symmetry_group_IT_number 2
_symmetry_cell_setting 'triclinic'
loop_
_space_group_symop_operation_xyz
x,y,z
-x,-y,-z
loop_
_atom_site_type_symbol
_atom_site_label
_atom_site_fract_x
_atom_site_fract_y
_atom_site_fract_z
Si Si1 0.993247 0.604297 0.037565
Si Si2 0.157757 0.145819 0.653282
Si Si3 0.667870 0.236959 0.601106
Si Si4 0.771760 0.220824 0.518178
Si Si5 0.394141 0.175253 0.520051
Si Si6 0.129684 0.947505 0.008396
Si Si7 0.129914 0.311131 0.051914
Si Si8 0.554941 0.473095 0.152146
O O1 0.915597 0.465149 0.724712
O O2 0.133686 0.719137 0.873548
O O3 0.835039 0.416180 0.322092
O O4 0.079283 0.816862 0.139771
O O5 0.253090 0.271370 0.878891
O O6 0.229647 0.167558 0.269856
O O7 0.168987 0.260099 0.725925
O O8 0.976660 0.862874 0.714012
O O9 0.652849 0.144271 0.687350
O O10 0.719563 0.414767 0.826575
O O11 0.500000 0.000000 0.500000
O O12 0.672089 0.013488 0.578592
O O13 0.495965 0.317927 0.228688
O O14 0.481863 0.342212 0.837968
O O15 0.239239 0.028378 0.653513
O O16 0.982883 0.787543 0.986799
O O17 0.500000 0.500000 0.500000
#
# Coordination Sequence:
#
# PCOD9033798 Si02
#       8
#     2   2   2   2   2   2   2   2
#     4  10  22  44  70 100 134 179 248 289 365 435
#     4  11  25  42  70  95 140 188 238 295 356 440
#     4  12  26  44  71 103 144 185 237 310 373 437
#     4  10  24  45  70 103 136 192 236 303 360 439
#     4  11  27  42  76 109 148 185 240 302 371 426
#     4  11  21  44  69  99 131 191 233 299 351 437
#     4  11  25  45  66  99 134 190 245 288 365 440
#     4  12  25  47  69 110 146 189 237 304 367 431
#
# _framework density 26.052868
#
# number of rings (size 3 to 8) (size 9 to 14) (size 15 to 20)
#    0.000    1.000    3.750    1.875    5.250    0.500 
#    2.250    0.000    0.000    0.000    0.000    0.000 
#    0.000    0.000    0.000    0.000    0.000    0.000 
#
# Total GULP energy -89424.546304 kJ/mol
# GULP energy per Si atom -5589.034144 kJ/mol
# Density = 2.599357 g / cm^3
# Si number density = 26.052868 Si / 1000 Ang^3
#
#
#
# Elastic Constant Matrix: (Units=GPa)
#
#
# Indices 1 2 3 4 5 6 
#
# 1 137.8923 53.7696 36.7575 35.2703 -26.3029 -10.6190
# 2 53.7696 130.9449 19.0966 29.0502 -10.7279 -22.7743
# 3 36.7575 19.0966 66.3657 25.7457 -20.0156 -14.0628
# 4 35.2703 29.0502 25.7457 37.5035 -10.1687 -0.4646
# 5 -26.3029 -10.7279 -20.0156 -10.1687 50.7295 15.6942
# 6 -10.6190 -22.7743 -14.0628 -0.4646 15.6942 41.6832
#
#
#
# Elastic Compliance Matrix: (Units=1/GPa)
#
#
# Indices 1 2 3 4 5 6 
#
# 1 0.010966 -0.002764 -0.002204 -0.005770 0.003314 -0.000772
# 2 -0.002764 0.011285 0.002342 -0.008176 -0.001887 0.006871
# 3 -0.002204 0.002342 0.024176 -0.015285 0.003548 0.007368
# 4 -0.005770 -0.008176 -0.015285 0.049520 0.002758 -0.011580
# 5 0.003314 -0.001887 0.003548 0.002758 0.025650 -0.008617
# 6 -0.000772 0.006871 0.007368 -0.011580 -0.008617 0.033149
#
#
# Mechanical properties :
#
#
# Convention : Reuss Voigt Hill
#
# Bulk Modulus (GPa) = 24.28714 61.60561 42.94637
# Shear Modulus (GPa) = 28.78166 41.02186 34.90176
#
# Velocity S-wave (km/s) = 3.32737 3.97238 3.66410
# Velocity P-wave (km/s) = 4.90962 6.68861 5.86693
#
# Compressibility (1/GPa) = 0.04117406
#
# Stress axis : x y z
#
# Youngs Moduli (GPa) = 91.19165 88.61691 41.36412
#
# Poissons Ratio (x) = 0.24496 0.09117
# Poissons Ratio (y) = 0.25208 -0.09689
# Poissons Ratio (z) = 0.20100 -0.20758
#
# Static dielectric constant tensor:
#      x y z
#    x 2.105730 -0.085110 0.002870 
#    y -0.085110 2.187900 -0.116960 
#    z 0.002870 -0.116960 2.176420 
# 
# From -- ./inp_files/70887.got.cif
#   From: 2010.05.17/outbox.cif.g08.bks.cpg/sg2_36_cif.got.tgz:70887.got - 2010.06.03 11:33:40.
