data_PCOD9033227
_publ_section_title
;
Structure prediction by ZEFSAII (Michael W. Deem and Ramdas Pophale) SiO2 
 PCOD9033227
Probable space group: P -1
;
_chemical_formula_sum "Si O2"
_cell_formula_units_Z 16
_cell_length_a 17.173532
_cell_length_b 6.772680
_cell_length_c 11.220800
_cell_angle_alpha 91.642945
_cell_angle_beta 125.037624
_cell_angle_gamma 53.133013
_cell_volume 749.008045
_symmetry_space_group_name_H-M "P -1"
_symmetry_group_IT_number 2
_symmetry_cell_setting 'triclinic'
loop_
_space_group_symop_operation_xyz
x,y,z
-x,-y,-z
loop_
_atom_site_type_symbol
_atom_site_label
_atom_site_fract_x
_atom_site_fract_y
_atom_site_fract_z
Si Si1 0.948465 0.449108 0.065154
Si Si2 0.465441 0.745306 0.548915
Si Si3 0.288155 0.332944 0.296182
Si Si4 0.860888 0.925804 0.154470
Si Si5 0.850717 0.135359 0.389648
Si Si6 0.100896 0.877256 0.304265
Si Si7 0.444237 0.572009 0.141683
Si Si8 0.429876 0.301845 0.901798
O O1 0.809016 0.561117 0.899002
O O2 0.922136 0.629911 0.157544
O O3 0.000000 0.500000 0.000000
O O4 0.053609 0.122596 0.182082
O O5 0.500000 0.500000 0.500000
O O6 0.585245 0.726781 0.637583
O O7 0.468327 0.660879 0.683817
O O8 0.335676 0.055493 0.391338
O O9 0.208544 0.578005 0.329101
O O10 0.968175 0.938429 0.216006
O O11 0.835308 0.983494 0.275750
O O12 0.715928 0.170455 0.966365
O O13 0.843029 0.112493 0.523534
O O14 0.731317 0.466306 0.258492
O O15 0.000000 0.000000 0.500000
O O16 0.502083 0.698376 0.154269
O O17 0.450295 0.421768 0.030564
O O18 0.500000 0.000000 0.000000
#
# Coordination Sequence:
#
# PCOD9033227 Si02
#       8
#     2   2   2   2   2   2   2   2
#     4  12  25  40  68  97 131 182 224 273 338 404
#     4  11  26  43  67  97 139 177 229 280 337 403
#     4  11  26  42  65 104 132 186 226 279 342 398
#     4  10  22  44  66  98 134 174 224 276 343 400
#     4   9  22  43  67  97 130 173 222 278 340 396
#     4  11  24  42  68  96 140 171 227 284 334 407
#     4  10  23  41  65  97 130 170 222 271 324 409
#     4  10  23  42  69  95 131 174 218 273 339 400
#
# _framework density 21.361585999999999
#
# number of rings (size 3 to 8) (size 9 to 14) (size 15 to 20)
#    0.000    1.500    1.250    1.875    7.000    5.500 
#    0.000    2.500    0.000    0.000    0.000    0.000 
#    0.000    0.000    0.000    0.000    0.000    0.000 
#
# Total GULP energy -89416.679420 kJ/mol
# GULP energy per Si atom -5588.542464 kJ/mol
# Density = 2.131297 g / cm^3
# Si number density = 21.361586 Si / 1000 Ang^3
#
#
#
# Elastic Constant Matrix: (Units=GPa)
#
#
# Indices 1 2 3 4 5 6 
#
# 1 67.2586 25.5137 27.9919 -16.2140 -8.0160 6.5918
# 2 25.5137 124.6516 48.8236 -23.5844 -15.1770 0.2313
# 3 27.9919 48.8236 119.7499 -19.6446 -19.7440 5.2070
# 4 -16.2140 -23.5844 -19.6446 42.8461 4.2721 -5.1829
# 5 -8.0160 -15.1770 -19.7440 4.2721 31.4865 -4.8781
# 6 6.5918 0.2313 5.2070 -5.1829 -4.8781 26.3038
#
#
#
# Elastic Compliance Matrix: (Units=1/GPa)
#
#
# Indices 1 2 3 4 5 6 
#
# 1 0.018019 -0.001771 -0.002477 0.004235 0.001147 -0.002962
# 2 -0.001771 0.010569 -0.002933 0.003803 0.002624 0.002168
# 3 -0.002477 -0.002933 0.011256 0.002106 0.004682 -0.000298
# 4 0.004235 0.003803 0.002106 0.028415 0.001040 0.004280
# 5 0.001147 0.002624 0.004682 0.001040 0.037015 0.005832
# 6 -0.002962 0.002168 -0.000298 0.004280 0.005832 0.040725
#
#
# Mechanical properties :
#
#
# Convention : Reuss Voigt Hill
#
# Bulk Modulus (GPa) = 39.24478 57.36874 48.30676
# Shear Modulus (GPa) = 29.61143 34.08269 31.84706
#
# Velocity S-wave (km/s) = 3.72721 3.99872 3.86535
# Velocity P-wave (km/s) = 6.07736 6.94507 6.52566
#
# Compressibility (1/GPa) = 0.02548110
#
# Stress axis : x y z
#
# Youngs Moduli (GPa) = 55.49736 94.61984 88.84276
#
# Poissons Ratio (x) = 0.16761 0.22007
# Poissons Ratio (y) = 0.09831 0.26054
# Poissons Ratio (z) = 0.13747 0.27748
#
# Static dielectric constant tensor:
#      x y z
#    x 1.770900 -0.011570 0.000890 
#    y -0.011570 1.791320 0.056980 
#    z 0.000890 0.056980 1.820600 
# 
# From -- ./inp_files/81234.got.cif
#   From: 2010.05.17/outbox.cif.g08.bks.cpg/sg2_41_cif.got.tgz:81234.got - 2010.06.03 11:33:40.
