data_PCOD9033214
_publ_section_title
;
Structure prediction by ZEFSAII (Michael W. Deem and Ramdas Pophale) SiO2 
 PCOD9033214
Probable space group: P -1
;
_chemical_formula_sum "Si O2"
_cell_formula_units_Z 10
_cell_length_a 5.247481
_cell_length_b 4.692270
_cell_length_c 16.125044
_cell_angle_alpha 83.440410
_cell_angle_beta 113.978284
_cell_angle_gamma 89.081523
_cell_volume 359.546747
_symmetry_space_group_name_H-M "P -1"
_symmetry_group_IT_number 2
_symmetry_cell_setting 'triclinic'
loop_
_space_group_symop_operation_xyz
x,y,z
-x,-y,-z
loop_
_atom_site_type_symbol
_atom_site_label
_atom_site_fract_x
_atom_site_fract_y
_atom_site_fract_z
Si Si1 0.252620 0.189253 0.556806
Si Si2 0.675871 0.955655 0.136017
Si Si3 0.176978 0.670120 0.391075
Si Si4 0.928773 0.597986 0.783113
Si Si5 0.302504 0.451173 0.081854
O O1 0.234967 0.467634 0.485795
O O2 0.583171 0.102771 0.593559
O O3 0.150377 0.243066 0.635955
O O4 0.000000 0.000000 0.500000
O O5 0.857777 0.156168 0.212249
O O6 0.507238 0.234182 0.060737
O O7 0.911398 0.700923 0.153642
O O8 0.427800 0.743727 0.117621
O O9 0.206082 0.492751 0.316654
O O10 0.736922 0.709391 0.829868
O O11 0.000000 0.500000 0.000000
#
# Coordination Sequence:
#
# PCOD9033214 Si02
#       5
#     2   2   2   2   2
#     4  10  22  44  66  97 131 183 230 291 350 420
#     4  10  25  43  67 100 136 182 228 289 348 418
#     4  10  24  40  66  98 136 179 237 286 352 418
#     4  11  25  43  65 102 136 184 229 290 347 420
#     4  11  24  44  70 101 138 181 231 287 349 417
#
# _framework density 27.812792000000002
#
# number of rings (size 3 to 8) (size 9 to 14) (size 15 to 20)
#    0.000    1.600    0.000    2.400    8.400    4.800 
#    0.000    0.000    0.000    0.000    0.000    0.000 
#    0.000    0.000    0.000    0.000    0.000    0.000 
#
# Total GULP energy -55689.185867 kJ/mol
# GULP energy per Si atom -5568.918587 kJ/mol
# Density = 2.774949 g / cm^3
# Si number density = 27.812792 Si / 1000 Ang^3
#
#
#
# Elastic Constant Matrix: (Units=GPa)
#
#
# Indices 1 2 3 4 5 6 
#
# 1 159.6135 68.2611 42.8330 19.0741 3.7745 41.7302
# 2 68.2611 201.1813 35.6400 9.0176 10.2874 15.9883
# 3 42.8330 35.6400 81.8932 13.8932 -21.1389 6.9071
# 4 19.0741 9.0176 13.8932 50.6497 1.9213 12.8809
# 5 3.7745 10.2874 -21.1389 1.9213 34.4755 8.3501
# 6 41.7302 15.9883 6.9071 12.8809 8.3501 59.4758
#
#
#
# Elastic Compliance Matrix: (Units=1/GPa)
#
#
# Indices 1 2 3 4 5 6 
#
# 1 0.009783 -0.002056 -0.004037 -0.000763 -0.001569 -0.005457
# 2 -0.002056 0.006252 -0.002624 0.000393 -0.003382 0.000456
# 3 -0.004037 -0.002624 0.019569 -0.003950 0.013386 0.000241
# 4 -0.000763 0.000393 -0.003950 0.022038 -0.002839 -0.003486
# 5 -0.001569 -0.003382 0.013386 -0.002839 0.039641 -0.004495
# 6 -0.005457 0.000456 0.000241 -0.003486 -0.004495 0.021878
#
#
# Mechanical properties :
#
#
# Convention : Reuss Voigt Hill
#
# Bulk Modulus (GPa) = 55.03391 81.79516 68.41454
# Shear Modulus (GPa) = 35.05037 48.65046 41.85041
#
# Velocity S-wave (km/s) = 3.55382 4.18689 3.88328
# Velocity P-wave (km/s) = 6.05555 7.26956 6.69015
#
# Compressibility (1/GPa) = 0.01817061
#
# Stress axis : x y z
#
# Youngs Moduli (GPa) = 102.22027 159.94705 51.10067
#
# Poissons Ratio (x) = 0.32885 0.20630
# Poissons Ratio (y) = 0.21017 0.13407
# Poissons Ratio (z) = 0.41268 0.41963
#
# Static dielectric constant tensor:
#      x y z
#    x 2.398790 -0.171360 0.073300 
#    y -0.171360 2.174140 -0.001350 
#    z 0.073300 -0.001350 2.251590 
# 
# From -- ./inp_files/545800.got.cif
#   From: 2010.05.17/outbox.cif.g08.bks.cpg/sg2_273_cif.got.tgz:545800.got - 2010.06.03 11:33:40.
