data_PCOD9033232
_publ_section_title
;
Structure prediction by ZEFSAII (Michael W. Deem and Ramdas Pophale) SiO2 
 PCOD9033232
Probable space group: P -1
;
_chemical_formula_sum "Si O2"
_cell_formula_units_Z 13
_cell_length_a 9.894317
_cell_length_b 8.464560
_cell_length_c 9.079523
_cell_angle_alpha 127.656642
_cell_angle_beta 59.110429
_cell_angle_gamma 127.535779
_cell_volume 465.153697
_symmetry_space_group_name_H-M "P -1"
_symmetry_group_IT_number 2
_symmetry_cell_setting 'triclinic'
loop_
_space_group_symop_operation_xyz
x,y,z
-x,-y,-z
loop_
_atom_site_type_symbol
_atom_site_label
_atom_site_fract_x
_atom_site_fract_y
_atom_site_fract_z
Si Si1 0.000000 0.500000 0.500000
Si Si2 0.814464 0.312481 0.945578
Si Si3 0.602346 0.220242 0.282920
Si Si4 0.270191 0.935471 0.447130
Si Si5 0.354482 0.351999 0.819785
Si Si6 0.324591 0.368578 0.375540
Si Si7 0.141527 0.205369 0.119682
O O1 0.833617 0.253571 0.485262
O O2 0.925131 0.605564 0.731910
O O3 0.704111 0.166952 0.065350
O O4 0.707865 0.454929 0.047446
O O5 0.814483 0.166089 0.722183
O O6 0.000000 0.500000 0.000000
O O7 0.449063 0.283386 0.339778
O O8 0.734673 0.465875 0.410050
O O9 0.481023 0.024883 0.349426
O O10 0.257550 0.153637 0.643925
O O11 0.552590 0.460161 0.718119
O O12 0.311259 0.263587 0.957632
O O13 0.171429 0.186156 0.265307
O O14 0.000000 0.000000 0.000000
#
# Coordination Sequence:
#
# PCOD9033232 Si02
#       7
#     1   2   2   2   2   2   2
#     4  12  26  44  66  96 142 180 232 288 334 408
#     4  11  24  40  71 104 141 176 226 289 345 411
#     4   9  21  44  69 102 136 181 230 278 342 414
#     4  11  23  45  67  92 141 183 227 284 336 408
#     4  10  22  44  66  98 135 181 227 280 344 411
#     4   9  21  42  72  98 135 179 229 279 343 414
#     4  12  24  42  69  99 141 179 226 285 347 402
#
# _framework density 27.947754
#
# number of rings (size 3 to 8) (size 9 to 14) (size 15 to 20)
#    0.000    1.538    3.077    1.846    2.154    1.846 
#    0.000    9.231    0.000    0.000    0.000    0.000 
#    0.000    0.000    0.000    0.000    0.000    0.000 
#
# Total GULP energy -72508.770688 kJ/mol
# GULP energy per Si atom -5577.597745 kJ/mol
# Density = 2.788414 g / cm^3
# Si number density = 27.947754 Si / 1000 Ang^3
#
#
#
# Elastic Constant Matrix: (Units=GPa)
#
#
# Indices 1 2 3 4 5 6 
#
# 1 59.3099 10.8199 26.3864 6.0822 -1.0477 -0.8123
# 2 10.8199 133.0212 25.4367 -16.7400 0.4900 18.9633
# 3 26.3864 25.4367 184.4504 16.1147 23.3994 8.0864
# 4 6.0822 -16.7400 16.1147 66.9916 13.9957 -2.1277
# 5 -1.0477 0.4900 23.3994 13.9957 38.1776 -0.0743
# 6 -0.8123 18.9633 8.0864 -2.1277 -0.0743 27.1745
#
#
#
# Elastic Compliance Matrix: (Units=1/GPa)
#
#
# Indices 1 2 3 4 5 6 
#
# 1 0.018661 -0.001583 -0.002756 -0.001968 0.002948 0.002336
# 2 -0.001583 0.008973 -0.000907 0.002532 -0.000542 -0.005842
# 3 -0.002756 -0.000907 0.006557 -0.000809 -0.003789 -0.001474
# 4 -0.001968 0.002532 -0.000809 0.017153 -0.005880 -0.000258
# 5 0.002948 -0.000542 -0.003789 -0.005880 0.030761 0.001218
# 6 0.002336 -0.005842 -0.001474 -0.000258 0.001218 0.041368
#
#
# Mechanical properties :
#
#
# Convention : Reuss Voigt Hill
#
# Bulk Modulus (GPa) = 42.19385 55.78528 48.98956
# Shear Modulus (GPa) = 35.24470 47.41131 41.32800
#
# Velocity S-wave (km/s) = 3.55504 4.12324 3.84964
# Velocity P-wave (km/s) = 5.65520 6.53238 6.10955
#
# Compressibility (1/GPa) = 0.02370013
#
# Stress axis : x y z
#
# Youngs Moduli (GPa) = 53.58708 111.44108 152.51271
#
# Poissons Ratio (x) = 0.17636 0.42028
# Poissons Ratio (y) = 0.08480 0.13839
# Poissons Ratio (z) = 0.14767 0.10112
#
# Static dielectric constant tensor:
#      x y z
#    x 2.392040 -0.046390 0.124240 
#    y -0.046390 2.259040 0.019660 
#    z 0.124240 0.019660 2.125800 
# 
# From -- ./inp_files/241238.got.cif
#   From: 2010.05.17/outbox.cif.g08.bks.cpg/sg2_121_cif.got.tgz:241238.got - 2010.06.03 11:33:40.
