data_PCOD9033367
_publ_section_title
;
Structure prediction by ZEFSAII (Michael W. Deem and Ramdas Pophale) SiO2 
 PCOD9033367
Probable space group: P -1
;
_chemical_formula_sum "Si O2"
_cell_formula_units_Z 14
_cell_length_a 12.461491
_cell_length_b 12.412433
_cell_length_c 9.431050
_cell_angle_alpha 129.257931
_cell_angle_beta 33.067848
_cell_angle_gamma 119.459514
_cell_volume 613.744422
_symmetry_space_group_name_H-M "P -1"
_symmetry_group_IT_number 2
_symmetry_cell_setting 'triclinic'
loop_
_space_group_symop_operation_xyz
x,y,z
-x,-y,-z
loop_
_atom_site_type_symbol
_atom_site_label
_atom_site_fract_x
_atom_site_fract_y
_atom_site_fract_z
Si Si1 0.571964 0.570355 0.123792
Si Si2 0.654914 0.397108 0.158465
Si Si3 0.202745 0.912459 0.588065
Si Si4 0.901667 0.773051 0.964410
Si Si5 0.473041 0.130525 0.029862
Si Si6 0.111253 0.026704 0.256474
Si Si7 0.812419 0.283848 0.161075
O O1 0.679325 0.461717 0.029593
O O2 0.375726 0.642008 0.482499
O O3 0.500000 0.500000 0.000000
O O4 0.738553 0.679228 0.005856
O O5 0.500000 0.500000 0.500000
O O6 0.550095 0.257722 0.131273
O O7 0.823821 0.354503 0.051939
O O8 0.116606 0.789604 0.669575
O O9 0.048307 0.928636 0.644925
O O10 0.409338 0.886930 0.261992
O O11 0.189306 0.064867 0.802367
O O12 0.977961 0.720622 0.991906
O O13 0.249823 0.145098 0.239185
O O14 0.500000 0.000000 0.000000
O O15 0.000000 0.000000 0.500000
O O16 0.222772 0.879860 0.959228
#
# Coordination Sequence:
#
# PCOD9033367 Si02
#       7
#     2   2   2   2   2   2   2
#     4  11  26  45  66  96 140 183 228 275 339 411
#     4  10  24  43  65  98 132 179 229 269 344 402
#     4  10  23  41  65 105 128 174 227 278 347 396
#     4  10  24  43  69  95 141 173 225 285 336 408
#     4  12  22  40  71  96 135 173 226 287 335 399
#     4  11  21  37  68 102 131 169 223 284 343 395
#     4  10  22  44  67  97 132 176 231 277 337 400
#
# _framework density 22.810797000000001
#
# number of rings (size 3 to 8) (size 9 to 14) (size 15 to 20)
#    0.000    1.429    2.857    0.857    6.000    1.143 
#    0.000    5.714    0.000    0.000    0.000    0.000 
#    0.000    0.000    0.000    0.000    0.000    0.000 
#
# Total GULP energy -78149.575312 kJ/mol
# GULP energy per Si atom -5582.112522 kJ/mol
# Density = 2.275888 g / cm^3
# Si number density = 22.810797 Si / 1000 Ang^3
#
#
#
# Elastic Constant Matrix: (Units=GPa)
#
#
# Indices 1 2 3 4 5 6 
#
# 1 119.8806 56.3060 9.4143 -9.4884 15.1205 0.0733
# 2 56.3060 124.4627 24.2793 -8.9678 11.2234 16.3738
# 3 9.4143 24.2793 73.9240 -11.5299 12.7459 10.6465
# 4 -9.4884 -8.9678 -11.5299 25.7236 -0.9155 -3.3751
# 5 15.1205 11.2234 12.7459 -0.9155 28.8099 1.3872
# 6 0.0733 16.3738 10.6465 -3.3751 1.3872 42.4829
#
#
#
# Elastic Compliance Matrix: (Units=1/GPa)
#
#
# Indices 1 2 3 4 5 6 
#
# 1 0.011431 -0.005033 0.001174 0.003091 -0.004558 0.002020
# 2 -0.005033 0.011349 -0.002378 0.000529 -0.000533 -0.003710
# 3 0.001174 -0.002378 0.016704 0.006519 -0.006751 -0.002533
# 4 0.003091 0.000529 0.006519 0.043223 -0.003421 0.001703
# 5 -0.004558 -0.000533 -0.006751 -0.003421 0.040172 0.000321
# 6 0.002020 -0.003710 -0.002533 0.001703 0.000321 0.025725
#
#
# Mechanical properties :
#
#
# Convention : Reuss Voigt Hill
#
# Bulk Modulus (GPa) = 37.02020 55.36294 46.19157
# Shear Modulus (GPa) = 29.39749 34.62113 32.00931
#
# Velocity S-wave (km/s) = 3.59382 3.90006 3.75007
# Velocity P-wave (km/s) = 5.78664 6.67861 6.24856
#
# Compressibility (1/GPa) = 0.02701228
#
# Stress axis : x y z
#
# Youngs Moduli (GPa) = 87.47814 88.11085 59.86417
#
# Poissons Ratio (x) = 0.44342 -0.07029
# Poissons Ratio (y) = 0.44024 0.14236
# Poissons Ratio (z) = -0.10271 0.20953
#
# Static dielectric constant tensor:
#      x y z
#    x 1.887980 -0.062780 0.003970 
#    y -0.062780 1.796330 0.072450 
#    z 0.003970 0.072450 1.849680 
# 
# From -- ./inp_files/263269.got.cif
#   From: 2010.05.17/outbox.cif.g08.bks.cpg/sg2_132_cif.got.tgz:263269.got - 2010.06.03 11:33:40.
