data_PCOD9033081
_publ_section_title
;
Structure prediction by ZEFSAII (Michael W. Deem and Ramdas Pophale) SiO2 
 PCOD9033081
Probable space group: P -1
;
_chemical_formula_sum "Si O2"
_cell_formula_units_Z 16
_cell_length_a 21.973440
_cell_length_b 28.021634
_cell_length_c 20.077107
_cell_angle_alpha 18.891810
_cell_angle_beta 160.026354
_cell_angle_gamma 168.578762
_cell_volume 777.508309
_symmetry_space_group_name_H-M "P -1"
_symmetry_group_IT_number 2
_symmetry_cell_setting 'triclinic'
loop_
_space_group_symop_operation_xyz
x,y,z
-x,-y,-z
loop_
_atom_site_type_symbol
_atom_site_label
_atom_site_fract_x
_atom_site_fract_y
_atom_site_fract_z
Si Si1 0.544521 0.162960 0.102854
Si Si2 0.789672 0.830709 0.572534
Si Si3 0.829302 0.278650 0.441822
Si Si4 0.268277 0.655215 0.515651
Si Si5 0.225595 0.522174 0.332788
Si Si6 0.389956 0.260713 0.691918
Si Si7 0.082106 0.914965 0.321731
Si Si8 0.490918 0.677487 0.015330
O O1 0.922287 0.415596 0.160684
O O2 0.401244 0.902452 0.299913
O O3 0.453859 0.194280 0.904705
O O4 0.435864 0.168926 0.049799
O O5 0.482520 0.721146 0.392165
O O6 0.685407 0.590597 0.788987
O O7 0.000000 0.000000 0.500000
O O8 0.018532 0.019031 0.618879
O O9 0.889407 0.208136 0.535094
O O10 0.100075 0.462416 0.534090
O O11 0.500000 0.000000 0.500000
O O12 0.740025 0.383763 0.187541
O O13 0.000000 0.500000 0.500000
O O14 0.575454 0.797412 0.681989
O O15 0.417366 0.660194 0.279557
O O16 0.089027 0.266638 0.548018
O O17 0.500000 0.500000 0.500000
O O18 0.836923 0.859215 0.108251
#
# Coordination Sequence:
#
# PCOD9033081 Si02
#       8
#     2   2   2   2   2   2   2   2
#     4  11  21  40  63  92 128 167 212 264 319 378
#     4   9  19  37  58  87 120 160 210 253 310 378
#     4  12  23  44  69  93 131 170 212 269 324 381
#     4  11  22  44  68  96 130 165 214 270 321 384
#     4   9  19  39  59  85 127 159 210 259 311 376
#     4  11  21  37  59  91 127 166 211 264 314 378
#     4  10  22  44  65  96 131 166 219 266 320 384
#     4  11  22  43  67  90 133 171 210 271 321 377
#
# _framework density 20.578558000000001
#
# number of rings (size 3 to 8) (size 9 to 14) (size 15 to 20)
#    0.000    1.500    3.750    3.375    0.000    0.500 
#   15.750    6.875    0.000    0.000    0.000    0.000 
#    0.000    0.000    0.000    0.000    0.000    0.000 
#
# Total GULP energy -89192.459450 kJ/mol
# GULP energy per Si atom -5574.528716 kJ/mol
# Density = 2.053172 g / cm^3
# Si number density = 20.578558 Si / 1000 Ang^3
#
#
#
# Elastic Constant Matrix: (Units=GPa)
#
#
# Indices 1 2 3 4 5 6 
#
# 1 44.1981 25.9440 19.7990 11.6862 -7.4379 -9.3868
# 2 25.9440 145.3654 35.1444 31.3916 5.4765 -10.3392
# 3 19.7990 35.1444 68.7339 23.5061 3.1184 -5.1831
# 4 11.6862 31.3916 23.5061 44.7697 0.2299 -2.3380
# 5 -7.4379 5.4765 3.1184 0.2299 19.0413 -6.0895
# 6 -9.3868 -10.3392 -5.1831 -2.3380 -6.0895 30.2075
#
#
#
# Elastic Compliance Matrix: (Units=1/GPa)
#
#
# Indices 1 2 3 4 5 6 
#
# 1 0.034521 -0.003867 -0.007289 -0.001948 0.019639 0.011961
# 2 -0.003867 0.009138 -0.001857 -0.004376 -0.003609 0.000541
# 3 -0.007289 -0.001857 0.020346 -0.007509 -0.005934 -0.001187
# 4 -0.001948 -0.004376 -0.007509 0.029805 0.001091 -0.000865
# 5 0.019639 -0.003609 -0.005934 0.001091 0.067816 0.017605
# 6 0.011961 0.000541 -0.001187 -0.000865 0.017605 0.040285
#
#
# Mechanical properties :
#
#
# Convention : Reuss Voigt Hill
#
# Bulk Modulus (GPa) = 26.33152 46.67471 36.50311
# Shear Modulus (GPa) = 20.78160 30.63103 25.70631
#
# Velocity S-wave (km/s) = 3.18129 3.86228 3.53821
# Velocity P-wave (km/s) = 5.13006 6.52841 5.87101
#
# Compressibility (1/GPa) = 0.03797730
#
# Stress axis : x y z
#
# Youngs Moduli (GPa) = 28.96768 109.43476 49.14991
#
# Poissons Ratio (x) = 0.42321 0.35827
# Poissons Ratio (y) = 0.11203 0.09129
# Poissons Ratio (z) = 0.21115 0.20325
#
# Static dielectric constant tensor:
#      x y z
#    x 1.689800 -0.043340 -0.088690 
#    y -0.043340 1.731450 -0.008750 
#    z -0.088690 -0.008750 1.683490 
# 
# From -- ./inp_files/602175.got.cif
#   From: 2010.05.17/outbox.cif.g08.bks.cpg/sg2_302_cif.got.tgz:602175.got - 2010.06.03 11:33:40.
