data_PCOD9033860
_publ_section_title
;
Structure prediction by ZEFSAII (Michael W. Deem and Ramdas Pophale) SiO2 
 PCOD9033860
Probable space group: P -1
;
_chemical_formula_sum "Si O2"
_cell_formula_units_Z 12
_cell_length_a 15.027270
_cell_length_b 5.648384
_cell_length_c 12.085779
_cell_angle_alpha 54.129994
_cell_angle_beta 138.539587
_cell_angle_gamma 129.265076
_cell_volume 513.240400
_symmetry_space_group_name_H-M "P -1"
_symmetry_group_IT_number 2
_symmetry_cell_setting 'triclinic'
loop_
_space_group_symop_operation_xyz
x,y,z
-x,-y,-z
loop_
_atom_site_type_symbol
_atom_site_label
_atom_site_fract_x
_atom_site_fract_y
_atom_site_fract_z
Si Si1 0.199099 0.462879 0.008068
Si Si2 0.334736 0.150051 0.952592
Si Si3 0.581008 0.357636 0.521682
Si Si4 0.512388 0.558171 0.181096
Si Si5 0.061832 0.306397 0.694029
Si Si6 0.888668 0.663822 0.816069
O O1 0.092074 0.426784 0.816254
O O2 0.240851 0.809574 0.999814
O O3 0.351226 0.479802 0.096480
O O4 0.149863 0.226994 0.129036
O O5 0.396415 0.146622 0.888544
O O6 0.219508 0.322446 0.794695
O O7 0.473297 0.288609 0.123686
O O8 0.500000 0.500000 0.500000
O O9 0.598575 0.551740 0.371864
O O10 0.739983 0.421278 0.696836
O O11 0.500000 0.000000 0.500000
O O12 0.000000 0.500000 0.500000
O O13 0.955833 0.947825 0.714951
O O14 0.000000 0.500000 0.000000
#
# Coordination Sequence:
#
# PCOD9033860 Si02
#       6
#     2   2   2   2   2   2
#     4  11  22  44  74  98 145 191 261 306 393 458
#     4  10  22  44  70 103 147 196 247 317 388 464
#     4  12  28  48  78 114 157 200 273 328 388 468
#     4  10  23  42  70 106 143 195 253 317 386 456
#     4  11  27  44  70 108 146 197 255 316 387 468
#     4  12  26  48  77 108 152 207 253 323 400 470
#
# _framework density 23.380856000000001
#
# number of rings (size 3 to 8) (size 9 to 14) (size 15 to 20)
#    0.000    1.000    3.333    2.000    4.667    4.667 
#    0.000    0.000    0.000    0.000    0.000    0.000 
#    0.000    0.000    0.000    0.000    0.000    0.000 
#
# Total GULP energy -66918.416314 kJ/mol
# GULP energy per Si atom -5576.534693 kJ/mol
# Density = 2.332764 g / cm^3
# Si number density = 23.380856 Si / 1000 Ang^3
#
#
#
# Elastic Constant Matrix: (Units=GPa)
#
#
# Indices 1 2 3 4 5 6 
#
# 1 136.4883 31.6483 67.0838 -8.8085 -19.5738 25.6108
# 2 31.6483 98.6916 51.4780 15.1804 3.1834 15.8064
# 3 67.0838 51.4780 185.6346 20.5599 -16.8407 8.1469
# 4 -8.8085 15.1804 20.5599 38.8059 5.8533 -3.5003
# 5 -19.5738 3.1834 -16.8407 5.8533 42.9492 -1.0968
# 6 25.6108 15.8064 8.1469 -3.5003 -1.0968 32.3850
#
#
#
# Elastic Compliance Matrix: (Units=1/GPa)
#
#
# Indices 1 2 3 4 5 6 
#
# 1 0.011420 -0.001393 -0.003583 0.003930 0.003191 -0.006917
# 2 -0.001393 0.013625 -0.002766 -0.004324 -0.002278 -0.005397
# 3 -0.003583 -0.002766 0.008047 -0.004187 0.002344 0.001786
# 4 0.003930 -0.004324 -0.004187 0.031434 -0.003729 0.003327
# 5 0.003191 -0.002278 0.002344 -0.003729 0.026295 -0.001513
# 6 -0.006917 -0.005397 0.001786 0.003327 -0.001513 0.038842
#
#
# Mechanical properties :
#
#
# Convention : Reuss Voigt Hill
#
# Bulk Modulus (GPa) = 56.79175 80.13717 68.46446
# Shear Modulus (GPa) = 33.10957 40.86830 36.98894
#
# Velocity S-wave (km/s) = 3.76719 4.18537 3.98177
# Velocity P-wave (km/s) = 6.57760 7.59642 7.10529
#
# Compressibility (1/GPa) = 0.01760819
#
# Stress axis : x y z
#
# Youngs Moduli (GPa) = 87.56845 73.39521 124.27622
#
# Poissons Ratio (x) = 0.10223 0.44526
# Poissons Ratio (y) = 0.12197 0.34373
# Poissons Ratio (z) = 0.31374 0.20300
#
# Static dielectric constant tensor:
#      x y z
#    x 2.083430 0.000490 0.009480 
#    y 0.000490 2.055860 -0.019810 
#    z 0.009480 -0.019810 1.866960 
# 
# From -- ./inp_files/22681.got.cif
#   From: 2010.05.17/outbox.cif.g08.bks.cpg/sg2_12_cif.got.tgz:22681.got - 2010.06.03 11:33:40.
