data_PCOD9033973
_publ_section_title
;
Structure prediction by ZEFSAII (Michael W. Deem and Ramdas Pophale) SiO2 
 PCOD9033973
Probable space group: P -1
;
_chemical_formula_sum "Si O2"
_cell_formula_units_Z 13
_cell_length_a 8.347737
_cell_length_b 8.994627
_cell_length_c 11.180052
_cell_angle_alpha 39.660836
_cell_angle_beta 75.443627
_cell_angle_gamma 82.175278
_cell_volume 516.336407
_symmetry_space_group_name_H-M "P -1"
_symmetry_group_IT_number 2
_symmetry_cell_setting 'triclinic'
loop_
_space_group_symop_operation_xyz
x,y,z
-x,-y,-z
loop_
_atom_site_type_symbol
_atom_site_label
_atom_site_fract_x
_atom_site_fract_y
_atom_site_fract_z
Si Si1 0.624685 0.192236 0.740053
Si Si2 0.127028 0.674121 0.603728
Si Si3 0.076192 0.953684 0.671421
Si Si4 0.571896 0.549861 0.736724
Si Si5 0.500000 0.500000 0.000000
Si Si6 0.777938 0.716922 0.009643
Si Si7 0.391227 0.011632 0.708382
O O1 0.734690 0.298461 0.542591
O O2 0.612208 0.370467 0.738812
O O3 0.446780 0.122172 0.756243
O O4 0.704770 0.958072 0.909150
O O5 0.156512 0.849710 0.603200
O O6 0.135357 0.421334 0.817434
O O7 0.969305 0.781720 0.506638
O O8 0.197528 0.949605 0.762648
O O9 0.909580 0.790758 0.836301
O O10 0.387697 0.455971 0.890863
O O11 0.566385 0.793182 0.522753
O O12 0.664488 0.518791 0.860960
O O13 0.507759 0.209295 0.191619
#
# Coordination Sequence:
#
# PCOD9033973 Si02
#       7
#     2   2   2   2   1   2   2
#     4  11  25  44  76 105 141 190 238 287 359 423
#     4  10  22  44  70  97 145 194 232 285 349 428
#     4  10  25  41  67 105 144 184 240 288 354 413
#     4  12  26  45  75 105 141 189 239 290 355 425
#     4  12  28  42  74 110 144 170 244 310 344 406
#     4  11  22  44  70 104 139 194 234 282 354 425
#     4  12  26  46  72 110 141 183 237 301 348 418
#
# _framework density 25.177385000000001
#
# number of rings (size 3 to 8) (size 9 to 14) (size 15 to 20)
#    0.000    0.923    3.077    2.769    2.154    2.462 
#    0.000    3.846    0.000    0.000    0.000    0.000 
#    0.000    0.000    0.000    0.000    0.000    0.000 
#
# Total GULP energy -72592.974460 kJ/mol
# GULP energy per Si atom -5584.074958 kJ/mol
# Density = 2.512008 g / cm^3
# Si number density = 25.177385 Si / 1000 Ang^3
#
#
#
# Elastic Constant Matrix: (Units=GPa)
#
#
# Indices 1 2 3 4 5 6 
#
# 1 96.5430 30.1221 30.3044 -1.5804 18.9447 -6.0927
# 2 30.1221 146.3562 71.8898 14.5618 3.4452 -0.0227
# 3 30.3044 71.8898 203.7484 0.5704 22.2762 -14.3709
# 4 -1.5804 14.5618 0.5704 45.8720 -14.3977 0.7281
# 5 18.9447 3.4452 22.2762 -14.3977 57.0930 -0.5685
# 6 -6.0927 -0.0227 -14.3709 0.7281 -0.5685 9.9583
#
#
#
# Elastic Compliance Matrix: (Units=1/GPa)
#
#
# Indices 1 2 3 4 5 6 
#
# 1 0.012346 -0.002411 -0.000046 -0.000148 -0.003898 0.007269
# 2 -0.002411 0.009250 -0.003426 -0.002609 0.000859 -0.006158
# 3 -0.000046 -0.003426 0.007099 0.000076 -0.002428 0.010064
# 4 -0.000148 -0.002609 0.000076 0.024647 0.006378 -0.001425
# 5 -0.003898 0.000859 -0.002428 0.006378 0.021262 -0.005140
# 6 0.007269 -0.006158 0.010064 -0.001425 -0.005140 0.119187
#
#
# Mechanical properties :
#
#
# Convention : Reuss Voigt Hill
#
# Bulk Modulus (GPa) = 59.07159 79.03114 69.05137
# Shear Modulus (GPa) = 23.67432 43.54008 33.60720
#
# Velocity S-wave (km/s) = 3.06976 4.16304 3.65748
# Velocity P-wave (km/s) = 6.00647 7.38686 6.73214
#
# Compressibility (1/GPa) = 0.01692861
#
# Stress axis : x y z
#
# Youngs Moduli (GPa) = 80.99779 108.10577 140.86574
#
# Poissons Ratio (x) = 0.26060 0.00654
# Poissons Ratio (y) = 0.19525 0.48264
# Poissons Ratio (z) = 0.00376 0.37040
#
# Static dielectric constant tensor:
#      x y z
#    x 2.306770 0.252500 0.104660 
#    y 0.252500 2.178380 0.162320 
#    z 0.104660 0.162320 2.110930 
# 
# From -- ./inp_files/377486.got.cif
#   From: 2010.05.17/outbox.cif.g08.bks.cpg/sg2_189_cif.got.tgz:377486.got - 2010.06.03 11:33:40.
