data_PCOD9033918
_publ_section_title
;
Structure prediction by ZEFSAII (Michael W. Deem and Ramdas Pophale) SiO2 
 PCOD9033918
Probable space group: P -1
;
_chemical_formula_sum "Si O2"
_cell_formula_units_Z 14
_cell_length_a 8.552438
_cell_length_b 6.691899
_cell_length_c 20.426234
_cell_angle_alpha 51.053036
_cell_angle_beta 38.300997
_cell_angle_gamma 57.015357
_cell_volume 560.333751
_symmetry_space_group_name_H-M "P -1"
_symmetry_group_IT_number 2
_symmetry_cell_setting 'triclinic'
loop_
_space_group_symop_operation_xyz
x,y,z
-x,-y,-z
loop_
_atom_site_type_symbol
_atom_site_label
_atom_site_fract_x
_atom_site_fract_y
_atom_site_fract_z
Si Si1 0.124333 0.503556 0.885232
Si Si2 0.379714 0.250349 0.741547
Si Si3 0.380729 0.269112 0.051612
Si Si4 0.059730 0.999482 0.402753
Si Si5 0.652782 0.724730 0.519133
Si Si6 0.406123 0.708379 0.168216
Si Si7 0.135278 0.425784 0.654865
O O1 0.179438 0.262805 0.864845
O O2 0.413398 0.518366 0.810402
O O3 0.921064 0.689032 0.873012
O O4 0.000000 0.500000 0.000000
O O5 0.488457 0.531130 0.650368
O O6 0.237978 0.250972 0.718120
O O7 0.638208 0.057946 0.695427
O O8 0.438853 0.995283 0.124015
O O9 0.500000 0.500000 0.000000
O O10 0.512977 0.271989 0.937259
O O11 0.947337 0.281030 0.356004
O O12 0.000000 0.000000 0.500000
O O13 0.905147 0.787713 0.461600
O O14 0.690791 0.592045 0.462712
O O15 0.500000 0.000000 0.500000
O O16 0.117957 0.667274 0.272463
#
# Coordination Sequence:
#
# PCOD9033918 Si02
#       7
#     2   2   2   2   2   2   2
#     4  10  24  44  69 103 136 181 236 291 356 414
#     4  12  25  44  72 102 143 195 236 294 359 417
#     4  10  22  44  70  93 133 174 227 287 349 409
#     4  12  26  45  70 105 148 189 239 289 352 431
#     4  12  25  44  70 104 146 186 239 294 353 429
#     4  10  24  42  66  99 130 177 227 284 346 413
#     4  12  26  46  69 107 145 187 239 290 357 429
#
# _framework density 24.985108
#
# number of rings (size 3 to 8) (size 9 to 14) (size 15 to 20)
#    0.000    0.857    2.857    3.429    4.000    5.143 
#    0.000    2.857    0.000    0.000    0.000    0.000 
#    0.000    0.000    0.000    0.000    0.000    0.000 
#
# Total GULP energy -78196.740901 kJ/mol
# GULP energy per Si atom -5585.481493 kJ/mol
# Density = 2.492824 g / cm^3
# Si number density = 24.985108 Si / 1000 Ang^3
#
#
#
# Elastic Constant Matrix: (Units=GPa)
#
#
# Indices 1 2 3 4 5 6 
#
# 1 128.0270 26.9869 40.0238 14.6214 13.5898 6.8795
# 2 26.9869 118.2657 28.9553 9.8037 0.7177 -3.2234
# 3 40.0238 28.9553 76.6177 32.6470 9.0305 5.0996
# 4 14.6214 9.8037 32.6470 43.1449 21.7373 -9.2488
# 5 13.5898 0.7177 9.0305 21.7373 31.4321 4.4466
# 6 6.8795 -3.2234 5.0996 -9.2488 4.4466 48.0990
#
#
#
# Elastic Compliance Matrix: (Units=1/GPa)
#
#
# Indices 1 2 3 4 5 6 
#
# 1 0.010011 -0.001121 -0.006052 0.004419 -0.005692 0.000511
# 2 -0.001121 0.009540 -0.003584 0.001000 0.000416 0.001333
# 3 -0.006052 -0.003584 0.028527 -0.028572 0.015582 -0.009334
# 4 0.004419 0.001000 -0.028572 0.070064 -0.045022 0.020099
# 5 -0.005692 0.000416 0.015582 -0.045022 0.063089 -0.015299
# 6 0.000511 0.001333 -0.009334 0.020099 -0.015299 0.027075
#
#
# Mechanical properties :
#
#
# Convention : Reuss Voigt Hill
#
# Bulk Modulus (GPa) = 37.64356 57.20471 47.42413
# Shear Modulus (GPa) = 20.94909 39.66484 30.30697
#
# Velocity S-wave (km/s) = 2.89876 3.98872 3.48660
# Velocity P-wave (km/s) = 5.12863 6.64518 5.93554
#
# Compressibility (1/GPa) = 0.02656497
#
# Stress axis : x y z
#
# Youngs Moduli (GPa) = 99.88834 104.82659 35.05454
#
# Poissons Ratio (x) = 0.11746 0.21215
# Poissons Ratio (y) = 0.11193 0.12563
# Poissons Ratio (z) = 0.60453 0.37568
#
# Static dielectric constant tensor:
#      x y z
#    x 2.037900 0.085910 0.006100 
#    y 0.085910 2.086030 0.042110 
#    z 0.006100 0.042110 2.000330 
# 
# From -- ./inp_files/585512.got.cif
#   From: 2010.05.17/outbox.cif.g08.bks.cpg/sg2_293_cif.got.tgz:585512.got - 2010.06.03 11:33:40.
