data_PCOD9033760
_publ_section_title
;
Structure prediction by ZEFSAII (Michael W. Deem and Ramdas Pophale) SiO2 
 PCOD9033760
Probable space group: P -1
;
_chemical_formula_sum "Si O2"
_cell_formula_units_Z 16
_cell_length_a 11.571368
_cell_length_b 21.684931
_cell_length_c 9.936811
_cell_angle_alpha 35.868426
_cell_angle_beta 113.687063
_cell_angle_gamma 140.661168
_cell_volume 736.825428
_symmetry_space_group_name_H-M "P -1"
_symmetry_group_IT_number 2
_symmetry_cell_setting 'triclinic'
loop_
_space_group_symop_operation_xyz
x,y,z
-x,-y,-z
loop_
_atom_site_type_symbol
_atom_site_label
_atom_site_fract_x
_atom_site_fract_y
_atom_site_fract_z
Si Si1 0.131513 0.720416 0.813134
Si Si2 0.961257 0.306199 0.472443
Si Si3 0.457695 0.563977 0.262751
Si Si4 0.679401 0.676117 0.878364
Si Si5 0.610907 0.966658 0.068655
Si Si6 0.181608 0.988864 0.663114
Si Si7 0.875025 0.434524 0.417300
Si Si8 0.429694 0.122698 0.275761
O O1 0.015451 0.625446 0.783010
O O2 0.338791 0.780884 0.815332
O O3 0.229422 0.905939 0.520554
O O4 0.975459 0.598828 0.085552
O O5 0.924665 0.370613 0.453638
O O6 0.188874 0.399370 0.434138
O O7 0.740961 0.077925 0.794264
O O8 0.500000 0.500000 0.500000
O O9 0.545777 0.593153 0.104466
O O10 0.567311 0.757470 0.993774
O O11 0.929520 0.800975 0.812170
O O12 0.760910 0.849427 0.563424
O O13 0.500000 0.500000 0.000000
O O14 0.393371 0.738880 0.370945
O O15 0.788793 0.056465 0.107441
O O16 0.500000 0.000000 0.000000
O O17 0.380363 0.095905 0.460471
O O18 0.000000 0.500000 0.500000
#
# Coordination Sequence:
#
# PCOD9033760 Si02
#       8
#     2   2   2   2   2   2   2   2
#     4  11  24  42  70 105 141 178 230 281 355 438
#     4  11  24  42  68  99 139 186 227 284 358 415
#     4  11  24  46  69  95 138 186 238 287 345 419
#     4  10  24  45  71 101 126 182 250 291 348 402
#     4  10  23  40  64  99 144 176 219 280 356 414
#     4  10  22  44  69  97 141 180 230 297 347 417
#     4  11  25  41  67 106 144 181 235 279 352 433
#     4  10  23  40  73  98 138 179 228 281 360 411
#
# _framework density 21.714780000000001
#
# number of rings (size 3 to 8) (size 9 to 14) (size 15 to 20)
#    0.000    1.500    1.250    2.625   12.250    0.000 
#    4.500    0.625    0.000    0.000    0.000    0.000 
#    0.000    0.000    0.000    0.000    0.000    0.000 
#
# Total GULP energy -89333.452030 kJ/mol
# GULP energy per Si atom -5583.340752 kJ/mol
# Density = 2.166536 g / cm^3
# Si number density = 21.714780 Si / 1000 Ang^3
#
#
#
# Elastic Constant Matrix: (Units=GPa)
#
#
# Indices 1 2 3 4 5 6 
#
# 1 71.1134 28.9860 49.8207 -5.7913 15.0667 -0.2257
# 2 28.9860 115.9300 59.9079 2.4958 18.1442 -0.3463
# 3 49.8207 59.9079 159.4946 0.1722 2.3283 2.7155
# 4 -5.7913 2.4958 0.1722 42.2363 13.2565 -3.0491
# 5 15.0667 18.1442 2.3283 13.2565 32.4242 0.7589
# 6 -0.2257 -0.3463 2.7155 -3.0491 0.7589 27.7837
#
#
#
# Elastic Compliance Matrix: (Units=1/GPa)
#
#
# Indices 1 2 3 4 5 6 
#
# 1 0.022102 -0.000254 -0.006665 0.007179 -0.012630 0.001961
# 2 -0.000254 0.011984 -0.004339 0.001513 -0.006917 0.000926
# 3 -0.006665 -0.004339 0.009924 -0.002674 0.005941 -0.001534
# 4 0.007179 0.001513 -0.002674 0.030010 -0.016355 0.004079
# 5 -0.012630 -0.006917 0.005941 -0.016355 0.046931 -0.003846
# 6 0.001961 0.000926 -0.001534 0.004079 -0.003846 0.036722
#
#
# Mechanical properties :
#
#
# Convention : Reuss Voigt Hill
#
# Bulk Modulus (GPa) = 46.52344 69.32969 57.92656
# Shear Modulus (GPa) = 26.68764 34.34373 30.51568
#
# Velocity S-wave (km/s) = 3.50952 3.98123 3.75279
# Velocity P-wave (km/s) = 6.15578 7.28905 6.74626
#
# Compressibility (1/GPa) = 0.02149454
#
# Stress axis : x y z
#
# Youngs Moduli (GPa) = 45.24496 83.44429 100.76866
#
# Poissons Ratio (x) = 0.02117 0.67166
# Poissons Ratio (y) = 0.01148 0.43719
# Poissons Ratio (z) = 0.30157 0.36203
#
# Static dielectric constant tensor:
#      x y z
#    x 1.790710 -0.027670 0.031080 
#    y -0.027670 1.817950 -0.050000 
#    z 0.031080 -0.050000 1.872020 
# 
# From -- ./inp_files/282771.got.cif
#   From: 2010.05.17/outbox.cif.g08.bks.cpg/sg2_142_cif.got.tgz:282771.got - 2010.06.03 11:33:40.
