data_PCOD9033140
_publ_section_title
;
Structure prediction by ZEFSAII (Michael W. Deem and Ramdas Pophale) SiO2 
 PCOD9033140
Probable space group: P -1
;
_chemical_formula_sum "Si O2"
_cell_formula_units_Z 14
_cell_length_a 17.795751
_cell_length_b 12.885874
_cell_length_c 4.901974
_cell_angle_alpha 128.891862
_cell_angle_beta 63.774439
_cell_angle_gamma 142.056765
_cell_volume 534.630573
_symmetry_space_group_name_H-M "P -1"
_symmetry_group_IT_number 2
_symmetry_cell_setting 'triclinic'
loop_
_space_group_symop_operation_xyz
x,y,z
-x,-y,-z
loop_
_atom_site_type_symbol
_atom_site_label
_atom_site_fract_x
_atom_site_fract_y
_atom_site_fract_z
Si Si1 0.165889 0.415690 0.644181
Si Si2 0.102829 0.827907 0.254221
Si Si3 0.339725 0.782290 0.614386
Si Si4 0.768411 0.134502 0.425630
Si Si5 0.361784 0.466796 0.659089
Si Si6 0.460163 0.167882 0.384852
Si Si7 0.237281 0.232964 0.979001
O O1 0.268665 0.484425 0.806074
O O2 0.223299 0.596091 0.662057
O O3 0.038933 0.309891 0.804731
O O4 0.155640 0.271254 0.229788
O O5 0.124840 0.746305 0.324615
O O6 0.156707 0.026533 0.627685
O O7 0.177369 0.866027 0.935368
O O8 0.290180 0.790641 0.431175
O O9 0.437254 0.775723 0.483588
O O10 0.408733 0.987082 0.984646
O O11 0.654970 0.923862 0.400458
O O12 0.483238 0.658793 0.628200
O O13 0.349492 0.401627 0.875267
O O14 0.296888 0.282817 0.262598
#
# Coordination Sequence:
#
# PCOD9033140 Si02
#       7
#     2   2   2   2   2   2   2
#     4   9  24  42  71 102 124 180 222 274 319 392
#     4  12  26  44  67  94 148 169 219 264 335 394
#     4  10  22  45  74  94 133 167 231 268 334 377
#     4  12  26  44  65 102 133 184 205 270 342 395
#     4   9  22  39  72  96 126 161 240 260 329 363
#     4  10  22  45  70  99 131 170 221 283 314 402
#     4  10  22  44  66 103 125 179 222 273 315 390
#
# _framework density 26.186304
#
# number of rings (size 3 to 8) (size 9 to 14) (size 15 to 20)
#    0.857    0.857    1.429    1.714    4.000    5.143 
#    0.000    4.286    0.000    0.000    0.000    0.000 
#    0.000    0.000    0.000    0.000    0.000    0.000 
#
# Total GULP energy -78369.678542 kJ/mol
# GULP energy per Si atom -5597.834182 kJ/mol
# Density = 2.612670 g / cm^3
# Si number density = 26.186304 Si / 1000 Ang^3
#
#
#
# Elastic Constant Matrix: (Units=GPa)
#
#
# Indices 1 2 3 4 5 6 
#
# 1 85.9507 17.2319 8.2699 -10.1921 6.9438 14.8187
# 2 17.2319 76.1284 0.4184 -10.7507 -0.5802 22.2486
# 3 8.2699 0.4184 76.1895 -13.3656 3.7577 2.7825
# 4 -10.1921 -10.7507 -13.3656 45.2746 -10.8954 -3.4174
# 5 6.9438 -0.5802 3.7577 -10.8954 34.6942 -8.0842
# 6 14.8187 22.2486 2.7825 -3.4174 -8.0842 41.5833
#
#
#
# Elastic Compliance Matrix: (Units=1/GPa)
#
#
# Indices 1 2 3 4 5 6 
#
# 1 0.013183 -0.001566 -0.000890 0.001241 -0.003185 -0.004317
# 2 -0.001566 0.016265 0.000935 0.003078 -0.000422 -0.008036
# 3 -0.000890 0.000935 0.013965 0.004021 -0.000251 -0.000836
# 4 0.001241 0.003078 0.004021 0.026297 0.007940 0.001347
# 5 -0.003185 -0.000422 -0.000251 0.007940 0.033987 0.008637
# 6 -0.004317 -0.008036 -0.000836 0.001347 0.008637 0.031732
#
#
# Mechanical properties :
#
#
# Convention : Reuss Voigt Hill
#
# Bulk Modulus (GPa) = 24.77093 32.23435 28.50264
# Shear Modulus (GPa) = 32.91032 38.46698 35.68865
#
# Velocity S-wave (km/s) = 3.54895 3.83688 3.69572
# Velocity P-wave (km/s) = 5.12576 5.65378 5.39623
#
# Compressibility (1/GPa) = 0.04036991
#
# Stress axis : x y z
#
# Youngs Moduli (GPa) = 75.85515 61.48180 71.60828
#
# Poissons Ratio (x) = 0.09631 0.06373
# Poissons Ratio (y) = 0.11882 -0.06694
# Poissons Ratio (z) = 0.06750 -0.05748
#
# Static dielectric constant tensor:
#      x y z
#    x 2.070960 -0.012640 -0.025650 
#    y -0.012640 1.992110 0.040310 
#    z -0.025650 0.040310 2.082730 
# 
# From -- ./inp_files/101690.got.cif
#   From: 2010.05.17/outbox.cif.g08.bks.cpg/sg2_51_cif.got.tgz:101690.got - 2010.06.03 11:33:40.
