data_PCOD9033575
_publ_section_title
;
Structure prediction by ZEFSAII (Michael W. Deem and Ramdas Pophale) SiO2 
 PCOD9033575
Probable space group: P -1
;
_chemical_formula_sum "Si O2"
_cell_formula_units_Z 15
_cell_length_a 9.393539
_cell_length_b 7.348711
_cell_length_c 11.101737
_cell_angle_alpha 122.843420
_cell_angle_beta 106.828384
_cell_angle_gamma 81.052650
_cell_volume 616.286064
_symmetry_space_group_name_H-M "P -1"
_symmetry_group_IT_number 2
_symmetry_cell_setting 'triclinic'
loop_
_space_group_symop_operation_xyz
x,y,z
-x,-y,-z
loop_
_atom_site_type_symbol
_atom_site_label
_atom_site_fract_x
_atom_site_fract_y
_atom_site_fract_z
Si Si1 0.874242 0.219726 0.284233
Si Si2 0.452463 0.931415 0.832476
Si Si3 0.127582 0.282337 0.525002
Si Si4 0.152185 0.619474 0.047326
Si Si5 0.000000 0.000000 0.000000
Si Si6 0.332164 0.329737 0.799771
Si Si7 0.592967 0.307660 0.693036
Si Si8 0.398780 0.194551 0.398319
O O1 0.700843 0.199611 0.259122
O O2 0.912564 0.471576 0.362042
O O3 0.982659 0.157708 0.399171
O O4 0.911037 0.084629 0.127112
O O5 0.577298 0.812610 0.740783
O O6 0.412774 0.156247 0.839149
O O7 0.500000 0.000000 0.000000
O O8 0.221085 0.206915 0.636081
O O9 0.244462 0.285762 0.443561
O O10 0.249944 0.613326 0.191269
O O11 0.110125 0.850596 0.063717
O O12 0.245409 0.493958 0.922339
O O13 0.000000 0.500000 0.000000
O O14 0.462281 0.423504 0.779829
O O15 0.537379 0.307800 0.542199
O O16 0.595874 0.054575 0.643373
#
# Coordination Sequence:
#
# PCOD9033575 Si02
#       8
#     2   2   2   2   1   2   2   2
#     4  11  25  42  65  99 136 186 226 286 353 410
#     4  11  26  41  65 106 140 175 232 293 349 423
#     4  10  22  44  70  94 133 185 233 282 352 421
#     4  12  25  42  68 106 139 187 237 288 353 422
#     4  12  26  44  70  96 148 190 228 292 350 418
#     4  10  22  44  68  97 138 182 232 284 354 419
#     4   9  20  40  71  96 131 184 231 285 348 421
#     4   9  20  41  68  99 128 182 231 283 357 413
#
# _framework density 24.339347
#
# number of rings (size 3 to 8) (size 9 to 14) (size 15 to 20)
#    0.000    1.600    1.333    2.800    5.600    4.267 
#    0.000    0.000    0.000    0.000    0.000    0.000 
#    0.000    0.000    0.000    0.000    0.000    0.000 
#
# Total GULP energy -83664.496890 kJ/mol
# GULP energy per Si atom -5577.633126 kJ/mol
# Density = 2.428395 g / cm^3
# Si number density = 24.339347 Si / 1000 Ang^3
#
#
#
# Elastic Constant Matrix: (Units=GPa)
#
#
# Indices 1 2 3 4 5 6 
#
# 1 90.3305 16.8739 47.1165 2.3721 14.9482 -16.1113
# 2 16.8739 42.3569 22.4692 -19.9606 -8.3322 -20.1831
# 3 47.1165 22.4692 114.5140 -34.3418 25.6548 5.4714
# 4 2.3721 -19.9606 -34.3418 42.2645 -19.1749 -0.2231
# 5 14.9482 -8.3322 25.6548 -19.1749 51.6084 3.5923
# 6 -16.1113 -20.1831 5.4714 -0.2231 3.5923 25.6269
#
#
#
# Elastic Compliance Matrix: (Units=1/GPa)
#
#
# Indices 1 2 3 4 5 6 
#
# 1 0.023316 -0.008780 -0.012071 -0.019909 -0.010375 0.011602
# 2 -0.008780 0.107577 -0.012524 0.061309 0.043605 0.076300
# 3 -0.012071 -0.012524 0.021026 0.010025 -0.003769 -0.021326
# 4 -0.019909 0.061309 0.010025 0.079336 0.038142 0.028972
# 5 -0.010375 0.043605 -0.003769 0.038142 0.043880 0.022806
# 6 0.011602 0.076300 -0.021326 0.028972 0.022806 0.108015
#
#
# Mechanical properties :
#
#
# Convention : Reuss Voigt Hill
#
# Bulk Modulus (GPa) = 11.74146 46.68007 29.21077
# Shear Modulus (GPa) = 10.45390 34.61608 22.53499
#
# Velocity S-wave (km/s) = 2.07470 3.77533 3.04611
# Velocity P-wave (km/s) = 3.25173 6.18261 4.93955
#
# Compressibility (1/GPa) = 0.08516830
#
# Stress axis : x y z
#
# Youngs Moduli (GPa) = 42.88917 9.29568 47.55966
#
# Poissons Ratio (x) = 0.08162 0.57410
# Poissons Ratio (y) = 0.37658 0.59564
# Poissons Ratio (z) = 0.51772 0.11642
#
# Static dielectric constant tensor:
#      x y z
#    x 1.935270 0.004690 0.034990 
#    y 0.004690 2.017350 0.006690 
#    z 0.034990 0.006690 1.958240 
# 
# From -- ./inp_files/380705.got.cif
#   From: 2010.05.17/outbox.cif.g08.bks.cpg/sg2_191_cif.got.tgz:380705.got - 2010.06.03 11:33:40.
