data_PCOD9033679
_publ_section_title
;
Structure prediction by ZEFSAII (Michael W. Deem and Ramdas Pophale) SiO2 
 PCOD9033679
Probable space group: P -1
;
_chemical_formula_sum "Si O2"
_cell_formula_units_Z 16
_cell_length_a 11.304875
_cell_length_b 17.058372
_cell_length_c 13.826707
_cell_angle_alpha 146.941573
_cell_angle_beta 148.649395
_cell_angle_gamma 53.100467
_cell_volume 691.428573
_symmetry_space_group_name_H-M "P -1"
_symmetry_group_IT_number 2
_symmetry_cell_setting 'triclinic'
loop_
_space_group_symop_operation_xyz
x,y,z
-x,-y,-z
loop_
_atom_site_type_symbol
_atom_site_label
_atom_site_fract_x
_atom_site_fract_y
_atom_site_fract_z
Si Si1 0.714251 0.960541 0.059000
Si Si2 0.722869 0.085453 0.817199
Si Si3 0.067982 0.567904 0.746812
Si Si4 0.285059 0.125085 0.237969
Si Si5 0.365331 0.457384 0.716088
Si Si6 0.858591 0.726735 0.281125
Si Si7 0.138226 0.517817 0.283832
Si Si8 0.693273 0.718386 0.947319
O O1 0.619308 0.867715 0.796718
O O2 0.788724 0.858292 0.081664
O O3 0.955705 0.120987 0.375553
O O4 0.500000 0.000000 0.000000
O O5 0.500000 0.000000 0.500000
O O6 0.661741 0.002923 0.793921
O O7 0.779887 0.267880 0.031618
O O8 0.987358 0.076499 0.969453
O O9 0.199507 0.453898 0.689948
O O10 0.796397 0.516936 0.457992
O O11 0.037556 0.579175 0.851009
O O12 0.384154 0.292964 0.535928
O O13 0.623370 0.606851 0.050927
O O14 0.017637 0.625522 0.263411
O O15 0.764022 0.770436 0.160117
O O16 0.398157 0.631608 0.632287
O O17 0.195747 0.406459 0.135077
#
# Coordination Sequence:
#
# PCOD9033679 Si02
#       8
#     2   2   2   2   2   2   2   2
#     4  12  27  49  72 104 147 191 234 303 363 417
#     4  10  23  44  72 106 138 189 231 285 357 428
#     4  10  22  44  69 105 145 181 230 295 359 416
#     4  10  25  48  69  99 147 182 233 294 352 418
#     4  10  23  44  73 101 139 188 233 293 354 425
#     4  12  26  43  72 105 137 192 247 290 355 428
#     4  11  24  43  74 103 141 188 238 297 356 421
#     4  11  24  48  70 102 146 187 244 294 356 423
#
# _framework density 23.140495000000001
#
# number of rings (size 3 to 8) (size 9 to 14) (size 15 to 20)
#    0.000    1.250    2.500    2.250    5.250    6.500 
#    2.250    0.000    0.000    0.000    0.000    0.000 
#    0.000    0.000    0.000    0.000    0.000    0.000 
#
# Total GULP energy -89502.419441 kJ/mol
# GULP energy per Si atom -5593.901215 kJ/mol
# Density = 2.308783 g / cm^3
# Si number density = 23.140495 Si / 1000 Ang^3
#
#
#
# Elastic Constant Matrix: (Units=GPa)
#
#
# Indices 1 2 3 4 5 6 
#
# 1 43.3218 14.4113 2.4375 -11.0141 -0.3918 12.5188
# 2 14.4113 94.1787 27.6013 -0.8324 -3.0055 14.2632
# 3 2.4375 27.6013 97.7284 6.5140 10.8681 -3.3489
# 4 -11.0141 -0.8324 6.5140 29.3676 5.5308 1.4415
# 5 -0.3918 -3.0055 10.8681 5.5308 22.4964 -3.2566
# 6 12.5188 14.2632 -3.3489 1.4415 -3.2566 33.3797
#
#
#
# Elastic Compliance Matrix: (Units=1/GPa)
#
#
# Indices 1 2 3 4 5 6 
#
# 1 0.030565 -0.002762 -0.000755 0.012916 -0.004288 -0.011335
# 2 -0.002762 0.013044 -0.004105 -0.000098 0.003028 -0.004650
# 3 -0.000755 -0.004105 0.012271 -0.002217 -0.005536 0.002824
# 4 0.012916 -0.000098 -0.002217 0.041668 -0.010092 -0.007809
# 5 -0.004288 0.003028 -0.005536 -0.010092 0.050681 0.005139
# 6 -0.011335 -0.004650 0.002824 -0.007809 0.005139 0.037318
#
#
# Mechanical properties :
#
#
# Convention : Reuss Voigt Hill
#
# Bulk Modulus (GPa) = 24.60837 36.01435 30.31136
# Shear Modulus (GPa) = 23.32806 29.76734 26.54770
#
# Velocity S-wave (km/s) = 3.17851 3.59050 3.39077
# Velocity P-wave (km/s) = 4.91203 5.72591 5.33451
#
# Compressibility (1/GPa) = 0.04063658
#
# Stress axis : x y z
#
# Youngs Moduli (GPa) = 32.71745 76.66538 81.49504
#
# Poissons Ratio (x) = 0.21174 0.06151
# Poissons Ratio (y) = 0.09036 0.33451
# Poissons Ratio (z) = 0.02469 0.31468
#
# Static dielectric constant tensor:
#      x y z
#    x 1.854980 -0.007530 0.025670 
#    y -0.007530 1.866200 0.004930 
#    z 0.025670 0.004930 1.902120 
# 
# From -- ./inp_files/523498.got.cif
#   From: 2010.05.17/outbox.cif.g08.bks.cpg/sg2_262_cif.got.tgz:523498.got - 2010.06.03 11:33:40.
