data_PCOD9033815
_publ_section_title
;
Structure prediction by ZEFSAII (Michael W. Deem and Ramdas Pophale) SiO2 
 PCOD9033815
Probable space group: P -1
;
_chemical_formula_sum "Si O2"
_cell_formula_units_Z 15
_cell_length_a 14.951968
_cell_length_b 10.659340
_cell_length_c 14.389201
_cell_angle_alpha 50.110248
_cell_angle_beta 18.557842
_cell_angle_gamma 50.423541
_cell_volume 556.018329
_symmetry_space_group_name_H-M "P -1"
_symmetry_group_IT_number 2
_symmetry_cell_setting 'triclinic'
loop_
_space_group_symop_operation_xyz
x,y,z
-x,-y,-z
loop_
_atom_site_type_symbol
_atom_site_label
_atom_site_fract_x
_atom_site_fract_y
_atom_site_fract_z
Si Si1 0.392433 0.927911 0.781097
Si Si2 0.000000 0.500000 0.500000
Si Si3 0.414889 0.414093 0.478327
Si Si4 0.998230 0.257181 0.056522
Si Si5 0.605147 0.743645 0.048794
Si Si6 0.322947 0.797929 0.110381
Si Si7 0.097733 0.887967 0.579195
Si Si8 0.905585 0.736263 0.301972
O O1 0.446947 0.879422 0.858799
O O2 0.215029 0.794554 0.970820
O O3 0.694105 0.903777 0.447068
O O4 0.204205 0.102319 0.885203
O O5 0.195331 0.639079 0.275425
O O6 0.102189 0.383684 0.545856
O O7 0.708105 0.304750 0.265329
O O8 0.516197 0.584272 0.264091
O O9 0.214425 0.355205 0.622914
O O10 0.206159 0.401459 0.778500
O O11 0.908104 0.196354 0.274789
O O12 0.538345 0.740220 0.007750
O O13 0.402014 0.888086 0.232935
O O14 0.921909 0.776413 0.740202
O O15 0.074630 0.932831 0.327727
#
# Coordination Sequence:
#
# PCOD9033815 Si02
#       8
#     2   1   2   2   2   2   2   2
#     4  10  24  42  68  96 138 182 227 271 346 404
#     4  10  22  44  70 100 146 168 218 278 344 418
#     4  12  25  42  68  99 139 175 232 281 339 396
#     4  11  25  45  66  99 135 181 231 284 331 410
#     4  12  25  45  69 103 136 180 230 287 333 410
#     4  10  23  45  70 105 135 180 223 286 342 410
#     4  11  26  45  72  96 137 183 233 278 342 395
#     4  11  23  42  64 103 133 186 217 279 343 407
#
# _framework density 26.977530000000002
#
# number of rings (size 3 to 8) (size 9 to 14) (size 15 to 20)
#    0.000    1.067    1.333    4.000    0.000   16.000 
#    2.400    0.000    0.000    0.000    0.000    0.000 
#    0.000    0.000    0.000    0.000    0.000    0.000 
#
# Total GULP energy -83987.001766 kJ/mol
# GULP energy per Si atom -5599.133451 kJ/mol
# Density = 2.691613 g / cm^3
# Si number density = 26.977530 Si / 1000 Ang^3
#
#
#
# Elastic Constant Matrix: (Units=GPa)
#
#
# Indices 1 2 3 4 5 6 
#
# 1 133.9429 27.0406 27.6663 5.3357 -13.7362 -21.6324
# 2 27.0406 62.6855 20.9621 -16.5196 -2.6766 -17.0885
# 3 27.6663 20.9621 117.7492 -3.0512 -2.2529 -13.1965
# 4 5.3357 -16.5196 -3.0512 36.6280 1.2464 -3.9462
# 5 -13.7362 -2.6766 -2.2529 1.2464 31.8145 1.8218
# 6 -21.6324 -17.0885 -13.1965 -3.9462 1.8218 34.8259
#
#
#
# Elastic Compliance Matrix: (Units=1/GPa)
#
#
# Indices 1 2 3 4 5 6 
#
# 1 0.009398 -0.003323 -0.001257 -0.002747 0.003612 0.003231
# 2 -0.003323 0.024142 -0.002039 0.012349 -0.000630 0.010441
# 3 -0.001257 -0.002039 0.009356 0.000242 -0.000164 0.001800
# 4 -0.002747 0.012349 0.000242 0.034266 -0.001955 0.008430
# 5 0.003612 -0.000630 -0.000164 -0.001955 0.033008 -0.000076
# 6 0.003231 0.010441 0.001800 0.008430 -0.000076 0.037486
#
#
# Mechanical properties :
#
#
# Convention : Reuss Voigt Hill
#
# Bulk Modulus (GPa) = 33.71692 51.74615 42.73153
# Shear Modulus (GPa) = 29.27786 36.56760 32.92273
#
# Velocity S-wave (km/s) = 3.29792 3.68568 3.49718
# Velocity P-wave (km/s) = 5.19874 6.11025 5.67284
#
# Compressibility (1/GPa) = 0.02965870
#
# Stress axis : x y z
#
# Youngs Moduli (GPa) = 106.40767 41.42230 106.88624
#
# Poissons Ratio (x) = 0.13764 0.13431
# Poissons Ratio (y) = 0.35356 0.21793
# Poissons Ratio (z) = 0.13371 0.08446
#
# Static dielectric constant tensor:
#      x y z
#    x 2.095430 0.033740 0.061920 
#    y 0.033740 2.126540 0.023040 
#    z 0.061920 0.023040 2.026760 
# 
# From -- ./inp_files/67821.got.cif
#   From: 2010.05.17/outbox.cif.g08.bks.cpg/sg2_34_cif.got.tgz:67821.got - 2010.06.03 11:33:40.
