data_PCOD9033572
_publ_section_title
;
Structure prediction by ZEFSAII (Michael W. Deem and Ramdas Pophale) SiO2 
 PCOD9033572
Probable space group: P -1
;
_chemical_formula_sum "Si O2"
_cell_formula_units_Z 12
_cell_length_a 10.474950
_cell_length_b 5.959089
_cell_length_c 12.738128
_cell_angle_alpha 81.358821
_cell_angle_beta 49.462376
_cell_angle_gamma 108.926965
_cell_volume 494.282577
_symmetry_space_group_name_H-M "P -1"
_symmetry_group_IT_number 2
_symmetry_cell_setting 'triclinic'
loop_
_space_group_symop_operation_xyz
x,y,z
-x,-y,-z
loop_
_atom_site_type_symbol
_atom_site_label
_atom_site_fract_x
_atom_site_fract_y
_atom_site_fract_z
Si Si1 0.381517 0.732553 0.807701
Si Si2 0.719202 0.340812 0.584034
Si Si3 0.080844 0.275586 0.374081
Si Si4 0.655710 0.338643 0.387057
Si Si5 0.294894 0.305328 0.055718
Si Si6 0.078468 0.844181 0.038748
O O1 0.423360 0.631587 0.684918
O O2 0.579896 0.022019 0.709204
O O3 0.304881 0.510581 0.952115
O O4 0.207247 0.792393 0.891400
O O5 0.731425 0.503164 0.669080
O O6 0.650370 0.403933 0.507231
O O7 0.933900 0.381916 0.441433
O O8 0.123376 0.222120 0.239183
O O9 0.000000 0.000000 0.500000
O O10 0.895390 0.564353 0.211965
O O11 0.500000 0.000000 0.500000
O O12 0.229220 0.039692 0.038911
O O13 0.500000 0.500000 0.000000
O O14 0.000000 0.000000 0.000000
#
# Coordination Sequence:
#
# PCOD9033572 Si02
#       6
#     2   2   2   2   2   2
#     4  11  24  44  68 100 142 175 235 291 347 409
#     4  10  23  42  65  95 133 184 224 282 350 410
#     4  11  23  41  65  94 136 178 230 281 346 414
#     4  10  22  44  68  97 137 180 225 288 345 406
#     4  12  26  43  72 105 139 183 233 290 349 419
#     4  12  25  43  72 104 138 185 234 282 353 418
#
# _framework density 24.277612999999999
#
# number of rings (size 3 to 8) (size 9 to 14) (size 15 to 20)
#    0.000    1.000    1.667    4.500    2.333    5.333 
#    0.000    1.667    0.000    0.000    0.000    0.000 
#    0.000    0.000    0.000    0.000    0.000    0.000 
#
# Total GULP energy -66836.609972 kJ/mol
# GULP energy per Si atom -5569.717498 kJ/mol
# Density = 2.422236 g / cm^3
# Si number density = 24.277613 Si / 1000 Ang^3
#
#
#
# Elastic Constant Matrix: (Units=GPa)
#
#
# Indices 1 2 3 4 5 6 
#
# 1 74.9961 50.1204 30.1220 10.6568 15.4762 1.7413
# 2 50.1204 120.5790 36.1432 12.8834 2.5995 45.3872
# 3 30.1220 36.1432 123.0642 -0.6853 34.0788 2.4862
# 4 10.6568 12.8834 -0.6853 45.2911 9.9459 -11.1077
# 5 15.4762 2.5995 34.0788 9.9459 50.3431 -1.7873
# 6 1.7413 45.3872 2.4862 -11.1077 -1.7873 41.3701
#
#
#
# Elastic Compliance Matrix: (Units=1/GPa)
#
#
# Indices 1 2 3 4 5 6 
#
# 1 0.027216 -0.021440 0.001703 0.007576 -0.009060 0.023916
# 2 -0.021440 0.039581 -0.009203 -0.020776 0.013213 -0.046976
# 3 0.001703 -0.009203 0.012968 0.007219 -0.009871 0.010757
# 4 0.007576 -0.020776 0.007219 0.036705 -0.012281 0.031366
# 5 -0.009060 0.013213 -0.009871 -0.012281 0.030525 -0.015501
# 6 0.023916 -0.046976 0.010757 0.031366 -0.015501 0.081809
#
#
# Mechanical properties :
#
#
# Convention : Reuss Voigt Hill
#
# Bulk Modulus (GPa) = 45.69028 61.26784 53.47906
# Shear Modulus (GPa) = 17.00805 40.88446 28.94625
#
# Velocity S-wave (km/s) = 2.64969 4.10816 3.45672
# Velocity P-wave (km/s) = 5.31243 6.91330 6.16505
#
# Compressibility (1/GPa) = 0.02188649
#
# Stress axis : x y z
#
# Youngs Moduli (GPa) = 36.74286 25.26466 77.11181
#
# Poissons Ratio (x) = 0.54167 -0.13132
# Poissons Ratio (y) = 0.78776 0.70964
# Poissons Ratio (z) = -0.06257 0.23250
#
# Static dielectric constant tensor:
#      x y z
#    x 1.990430 0.026480 -0.081620 
#    y 0.026480 1.981170 0.001820 
#    z -0.081620 0.001820 1.916530 
# 
# From -- ./inp_files/36527.got.cif
#   From: 2010.05.17/outbox.cif.g08.bks.cpg/sg2_19_cif.got.tgz:36527.got - 2010.06.03 11:33:40.
