data_PCOD9033887
_publ_section_title
;
Structure prediction by ZEFSAII (Michael W. Deem and Ramdas Pophale) SiO2 
 PCOD9033887
Probable space group: P -1
;
_chemical_formula_sum "Si O2"
_cell_formula_units_Z 15
_cell_length_a 13.664752
_cell_length_b 26.294425
_cell_length_c 14.414444
_cell_angle_alpha 157.057678
_cell_angle_beta 20.637630
_cell_angle_gamma 157.804604
_cell_volume 629.376574
_symmetry_space_group_name_H-M "P -1"
_symmetry_group_IT_number 2
_symmetry_cell_setting 'triclinic'
loop_
_space_group_symop_operation_xyz
x,y,z
-x,-y,-z
loop_
_atom_site_type_symbol
_atom_site_label
_atom_site_fract_x
_atom_site_fract_y
_atom_site_fract_z
Si Si1 0.659324 0.896343 0.666204
Si Si2 0.579148 0.635698 0.982028
Si Si3 0.711879 0.988760 0.177636
Si Si4 0.533305 0.274975 0.168461
Si Si5 0.000000 0.500000 0.000000
Si Si6 0.806253 0.346749 0.469918
Si Si7 0.209923 0.318503 0.689661
Si Si8 0.698580 0.241057 0.701623
O O1 0.449035 0.772236 0.570780
O O2 0.721779 0.811505 0.553386
O O3 0.000000 0.000000 0.500000
O O4 0.500000 0.000000 0.000000
O O5 0.362642 0.634706 0.257817
O O6 0.557905 0.721742 0.055214
O O7 0.432764 0.465628 0.793946
O O8 0.930001 0.698683 0.811908
O O9 0.404883 0.877814 0.323186
O O10 0.751779 0.151704 0.419564
O O11 0.671408 0.897130 0.966035
O O12 0.000000 0.000000 0.000000
O O13 0.324487 0.335441 0.509907
O O14 0.668002 0.369673 0.115044
O O15 0.851781 0.291462 0.964553
O O16 0.037422 0.602902 0.234141
O O17 0.000000 0.500000 0.500000
#
# Coordination Sequence:
#
# PCOD9033887 Si02
#       8
#     2   2   2   2   1   2   2   2
#     4  12  28  49  74 108 148 191 239 301 376 438
#     4  12  26  45  78 109 143 182 251 301 353 438
#     4  10  25  44  67  96 150 187 233 290 354 428
#     4  11  26  44  73 104 143 191 235 295 360 425
#     4  10  22  44  70 106 138 188 238 290 358 420
#     4  12  27  48  78 108 145 193 239 302 374 435
#     4  12  26  47  74 106 144 184 243 301 356 435
#     4  10  24  43  67 105 138 188 234 293 353 414
#
# _framework density 23.833107999999999
#
# number of rings (size 3 to 8) (size 9 to 14) (size 15 to 20)
#    0.000    0.800    2.667    2.800    9.333    3.733 
#    0.000    0.000    0.000    0.000    0.000    0.000 
#    0.000    0.000    0.000    0.000    0.000    0.000 
#
# Total GULP energy -83665.838906 kJ/mol
# GULP energy per Si atom -5577.722594 kJ/mol
# Density = 2.377886 g / cm^3
# Si number density = 23.833108 Si / 1000 Ang^3
#
#
#
# Elastic Constant Matrix: (Units=GPa)
#
#
# Indices 1 2 3 4 5 6 
#
# 1 76.4566 21.9281 2.2973 -0.4674 -8.4900 6.5773
# 2 21.9281 106.8279 45.6881 13.0305 12.9444 29.1239
# 3 2.2973 45.6881 90.5549 -2.5497 12.6319 1.8676
# 4 -0.4674 13.0305 -2.5497 51.1614 7.8488 5.7302
# 5 -8.4900 12.9444 12.6319 7.8488 49.4927 2.5791
# 6 6.5773 29.1239 1.8676 5.7302 2.5791 49.1929
#
#
#
# Elastic Compliance Matrix: (Units=1/GPa)
#
#
# Indices 1 2 3 4 5 6 
#
# 1 0.014531 -0.004017 0.001243 0.000726 0.003104 0.000141
# 2 -0.004017 0.016506 -0.007865 -0.003377 -0.002024 -0.008437
# 3 0.001243 -0.007865 0.015294 0.002707 -0.002256 0.003712
# 4 0.000726 -0.003377 0.002707 0.021063 -0.002997 -0.000497
# 5 0.003104 -0.002024 -0.002256 -0.002997 0.022315 0.000048
# 6 0.000141 -0.008437 0.003712 -0.000497 0.000048 0.025219
#
#
# Mechanical properties :
#
#
# Convention : Reuss Voigt Hill
#
# Bulk Modulus (GPa) = 39.91597 45.96290 42.93944
# Shear Modulus (GPa) = 34.58802 43.56448 39.07625
#
# Velocity S-wave (km/s) = 3.81367 4.28003 4.05356
# Velocity P-wave (km/s) = 6.01470 6.61453 6.32174
#
# Compressibility (1/GPa) = 0.02505263
#
# Stress axis : x y z
#
# Youngs Moduli (GPa) = 68.81785 60.58221 65.38511
#
# Poissons Ratio (x) = 0.24338 -0.08126
# Poissons Ratio (y) = 0.27647 0.51425
# Poissons Ratio (z) = -0.08553 0.47648
#
# Static dielectric constant tensor:
#      x y z
#    x 2.464370 -0.461480 -0.105390 
#    y -0.461480 2.266480 0.118450 
#    z -0.105390 0.118450 1.988480 
# 
# From -- ./inp_files/535830.got.cif
#   From: 2010.05.17/outbox.cif.g08.bks.cpg/sg2_268_cif.got.tgz:535830.got - 2010.06.03 11:33:40.
