data_PCOD9033606
_publ_section_title
;
Structure prediction by ZEFSAII (Michael W. Deem and Ramdas Pophale) SiO2 
 PCOD9033606
Probable space group: P -1
;
_chemical_formula_sum "Si O2"
_cell_formula_units_Z 15
_cell_length_a 8.423490
_cell_length_b 15.764254
_cell_length_c 10.628138
_cell_angle_alpha 102.777220
_cell_angle_beta 121.322351
_cell_angle_gamma 127.179586
_cell_volume 593.232596
_symmetry_space_group_name_H-M "P -1"
_symmetry_group_IT_number 2
_symmetry_cell_setting 'triclinic'
loop_
_space_group_symop_operation_xyz
x,y,z
-x,-y,-z
loop_
_atom_site_type_symbol
_atom_site_label
_atom_site_fract_x
_atom_site_fract_y
_atom_site_fract_z
Si Si1 0.249187 0.832704 0.605481
Si Si2 0.536963 0.822687 0.020525
Si Si3 0.341817 0.527322 0.400179
Si Si4 0.638383 0.314031 0.357934
Si Si5 0.704806 0.713419 0.157918
Si Si6 0.118044 0.450095 0.015201
Si Si7 0.500000 0.000000 0.000000
Si Si8 0.782023 0.140884 0.772994
O O1 0.258797 0.734720 0.546849
O O2 0.222682 0.830510 0.742653
O O3 0.976803 0.779591 0.392781
O O4 0.654199 0.038165 0.809482
O O5 0.606589 0.814405 0.904301
O O6 0.653200 0.969777 0.119618
O O7 0.100882 0.643309 0.817178
O O8 0.720583 0.824092 0.187161
O O9 0.500000 0.500000 0.500000
O O10 0.504785 0.672553 0.597563
O O11 0.389117 0.546345 0.276032
O O12 0.000000 0.500000 0.500000
O O13 0.312533 0.524441 0.984933
O O14 0.818444 0.722363 0.071490
O O15 0.000000 0.500000 0.000000
O O16 0.797181 0.249822 0.830069
O O17 0.500000 0.000000 0.500000
#
# Coordination Sequence:
#
# PCOD9033606 Si02
#       8
#     2   2   2   2   2   2   1   2
#     4  10  23  46  74 104 145 192 240 306 367 437
#     4  10  22  45  64 100 138 186 230 298 352 440
#     4  11  25  42  67 102 142 181 240 295 358 426
#     4   9  22  42  69  97 138 185 235 290 359 439
#     4  11  25  44  73 104 139 191 247 299 366 429
#     4  12  26  44  73 108 143 185 243 311 359 430
#     4  10  22  44  68  98 148 178 236 290 368 432
#     4  10  25  47  71 100 146 190 239 292 370 439
#
# _framework density 25.285193
#
# number of rings (size 3 to 8) (size 9 to 14) (size 15 to 20)
#    0.000    1.600    1.333    1.200   11.200    1.600 
#    4.800    1.333    0.000    0.000    0.000    0.000 
#    0.000    0.000    0.000    0.000    0.000    0.000 
#
# Total GULP energy -83615.829191 kJ/mol
# GULP energy per Si atom -5574.388613 kJ/mol
# Density = 2.522764 g / cm^3
# Si number density = 25.285193 Si / 1000 Ang^3
#
#
#
# Elastic Constant Matrix: (Units=GPa)
#
#
# Indices 1 2 3 4 5 6 
#
# 1 103.1432 52.3068 42.8103 -0.1552 -14.9151 -37.8464
# 2 52.3068 176.0651 31.4384 -11.3397 8.7856 -48.2737
# 3 42.8103 31.4384 60.1870 -22.9458 -6.7351 -14.9122
# 4 -0.1552 -11.3397 -22.9458 47.6144 -11.8888 11.6723
# 5 -14.9151 8.7856 -6.7351 -11.8888 34.7522 -0.6818
# 6 -37.8464 -48.2737 -14.9122 11.6723 -0.6818 65.9234
#
#
#
# Elastic Compliance Matrix: (Units=1/GPa)
#
#
# Indices 1 2 3 4 5 6 
#
# 1 0.020061 -0.001861 -0.013912 -0.008234 0.003734 0.008504
# 2 -0.001861 0.008026 -0.002747 -0.001438 -0.003766 0.004403
# 3 -0.013912 -0.002747 0.034916 0.019476 0.008046 -0.005465
# 4 -0.008234 -0.001438 0.019476 0.034939 0.012411 -0.007433
# 5 0.003734 -0.003766 0.008046 0.012411 0.037123 -0.000607
# 6 0.008504 0.004403 -0.005465 -0.007433 -0.000607 0.023349
#
#
# Mechanical properties :
#
#
# Convention : Reuss Voigt Hill
#
# Bulk Modulus (GPa) = 38.51579 65.83404 52.17492
# Shear Modulus (GPa) = 24.49682 43.84730 34.17206
#
# Velocity S-wave (km/s) = 3.11597 4.16878 3.68022
# Velocity P-wave (km/s) = 5.31143 7.01889 6.22399
#
# Compressibility (1/GPa) = 0.02596338
#
# Stress axis : x y z
#
# Youngs Moduli (GPa) = 49.84795 124.60172 28.63987
#
# Poissons Ratio (x) = 0.23186 0.39842
# Poissons Ratio (y) = 0.09276 0.07869
# Poissons Ratio (z) = 0.69346 0.34233
#
# Static dielectric constant tensor:
#      x y z
#    x 2.174910 -0.118180 0.091670 
#    y -0.118180 2.866630 -0.207020 
#    z 0.091670 -0.207020 2.082010 
# 
# From -- ./inp_files/397512.got.cif
#   From: 2010.05.17/outbox.cif.g08.bks.cpg/sg2_199_cif.got.tgz:397512.got - 2010.06.03 11:33:40.
