data_PCOD9033751
_publ_section_title
;
Structure prediction by ZEFSAII (Michael W. Deem and Ramdas Pophale) SiO2 
 PCOD9033751
Probable space group: P -1
;
_chemical_formula_sum "Si O2"
_cell_formula_units_Z 12
_cell_length_a 7.685579
_cell_length_b 21.990487
_cell_length_c 12.551055
_cell_angle_alpha 23.189836
_cell_angle_beta 49.283455
_cell_angle_gamma 37.307705
_cell_volume 477.874611
_symmetry_space_group_name_H-M "P -1"
_symmetry_group_IT_number 2
_symmetry_cell_setting 'triclinic'
loop_
_space_group_symop_operation_xyz
x,y,z
-x,-y,-z
loop_
_atom_site_type_symbol
_atom_site_label
_atom_site_fract_x
_atom_site_fract_y
_atom_site_fract_z
Si Si1 0.443936 0.724655 0.120378
Si Si2 0.260643 0.965133 0.147704
Si Si3 0.791005 0.294563 0.267073
Si Si4 0.605179 0.589006 0.039523
Si Si5 0.573849 0.000498 0.593763
Si Si6 0.315524 0.443385 0.484183
O O1 0.643378 0.615050 0.107987
O O2 0.613460 0.567612 0.402568
O O3 0.440861 0.910622 0.850012
O O4 0.088626 0.843957 0.047893
O O5 0.255477 0.859509 0.425228
O O6 0.404141 0.785926 0.294080
O O7 0.500000 0.000000 0.000000
O O8 0.846588 0.381657 0.209192
O O9 0.063759 0.171005 0.274402
O O10 0.500000 0.500000 0.000000
O O11 0.334386 0.584998 0.173374
O O12 0.528704 0.778978 0.701329
O O13 0.500000 0.000000 0.500000
O O14 0.000000 0.500000 0.500000
#
# Coordination Sequence:
#
# PCOD9033751 Si02
#       6
#     2   2   2   2   2   2
#     4  11  23  46  69  99 137 185 228 282 346 407
#     4  11  24  46  68  98 141 183 230 284 340 411
#     4  11  25  44  67 106 137 180 234 282 340 407
#     4  10  23  44  69  96 140 181 228 275 343 406
#     4  10  22  44  69  96 142 175 229 281 344 409
#     4  11  25  42  70 104 137 175 233 286 344 409
#
# _framework density 25.111191999999999
#
# number of rings (size 3 to 8) (size 9 to 14) (size 15 to 20)
#    0.000    1.333    3.333    2.000    4.667    4.667 
#    3.000    0.000    0.000    0.000    0.000    0.000 
#    0.000    0.000    0.000    0.000    0.000    0.000 
#
# Total GULP energy -67048.406423 kJ/mol
# GULP energy per Si atom -5587.367202 kJ/mol
# Density = 2.505404 g / cm^3
# Si number density = 25.111192 Si / 1000 Ang^3
#
#
#
# Elastic Constant Matrix: (Units=GPa)
#
#
# Indices 1 2 3 4 5 6 
#
# 1 97.5443 45.0214 62.2843 12.0091 6.7947 -15.8923
# 2 45.0214 104.0309 50.7419 0.6792 -1.8350 -27.0465
# 3 62.2843 50.7419 169.9568 -0.5615 -7.3965 -31.5889
# 4 12.0091 0.6792 -0.5615 29.8640 -0.2215 -9.4284
# 5 6.7947 -1.8350 -7.3965 -0.2215 55.5348 -1.1590
# 6 -15.8923 -27.0465 -31.5889 -9.4284 -1.1590 51.9264
#
#
#
# Elastic Compliance Matrix: (Units=1/GPa)
#
#
# Indices 1 2 3 4 5 6 
#
# 1 0.016730 -0.005320 -0.005099 -0.007408 -0.002976 -0.002164
# 2 -0.005320 0.013908 -0.001098 0.003586 0.001096 0.005624
# 3 -0.005099 -0.001098 0.008911 0.003509 0.001871 0.003967
# 4 -0.007408 0.003586 0.003509 0.039274 0.001835 0.008907
# 5 -0.002976 0.001096 0.001871 0.001835 0.018696 0.001549
# 6 -0.002164 0.005624 0.003967 0.008907 0.001549 0.025590
#
#
# Mechanical properties :
#
#
# Convention : Reuss Voigt Hill
#
# Bulk Modulus (GPa) = 60.55067 76.40302 68.47684
# Shear Modulus (GPa) = 32.97118 41.69732 37.33425
#
# Velocity S-wave (km/s) = 3.62748 4.07935 3.86003
# Velocity P-wave (km/s) = 6.45834 7.25811 6.86987
#
# Compressibility (1/GPa) = 0.01651510
#
# Stress axis : x y z
#
# Youngs Moduli (GPa) = 59.77432 71.89906 112.22494
#
# Poissons Ratio (x) = 0.38249 0.57222
# Poissons Ratio (y) = 0.31799 0.12324
# Poissons Ratio (z) = 0.30478 0.07895
#
# Static dielectric constant tensor:
#      x y z
#    x 2.138370 -0.011230 -0.139830 
#    y -0.011230 1.998700 0.044770 
#    z -0.139830 0.044770 2.177870 
# 
# From -- ./inp_files/508887.got.cif
#   From: 2010.05.17/outbox.cif.g08.bks.cpg/sg2_255_cif.got.tgz:508887.got - 2010.06.03 11:33:40.
