data_PCOD9033454
_publ_section_title
;
Structure prediction by ZEFSAII (Michael W. Deem and Ramdas Pophale) SiO2 
 PCOD9033454
Probable space group: P -1
;
_chemical_formula_sum "Si O2"
_cell_formula_units_Z 14
_cell_length_a 14.341593
_cell_length_b 7.222351
_cell_length_c 15.500412
_cell_angle_alpha 133.493487
_cell_angle_beta 33.494698
_cell_angle_gamma 138.914219
_cell_volume 574.341616
_symmetry_space_group_name_H-M "P -1"
_symmetry_group_IT_number 2
_symmetry_cell_setting 'triclinic'
loop_
_space_group_symop_operation_xyz
x,y,z
-x,-y,-z
loop_
_atom_site_type_symbol
_atom_site_label
_atom_site_fract_x
_atom_site_fract_y
_atom_site_fract_z
Si Si1 0.735614 0.058350 0.898857
Si Si2 0.333824 0.629940 0.105244
Si Si3 0.830319 0.729430 0.365116
Si Si4 0.975800 0.968919 0.907259
Si Si5 0.710081 0.230355 0.439207
Si Si6 0.754970 0.294699 0.136926
Si Si7 0.347783 0.835483 0.346251
O O1 0.712592 0.164667 0.856730
O O2 0.943437 0.083596 0.754280
O O3 0.722327 0.271544 0.051432
O O4 0.559869 0.755369 0.958815
O O5 0.208510 0.314364 0.068293
O O6 0.283438 0.659741 0.251687
O O7 0.782601 0.496895 0.403583
O O8 0.758854 0.546376 0.273830
O O9 0.732234 0.931294 0.519058
O O10 0.150074 0.917963 0.722557
O O11 0.933107 0.229959 0.996464
O O12 0.000000 0.000000 0.000000
O O13 0.707985 0.320592 0.569007
O O14 0.500000 0.000000 0.500000
O O15 0.573143 0.018964 0.225678
#
# Coordination Sequence:
#
# PCOD9033454 Si02
#       7
#     2   2   2   2   2   2   2
#     4  10  22  44  68 102 134 187 237 288 355 406
#     4  10  24  47  68 102 141 182 243 288 358 425
#     4  12  23  47  72 104 150 181 241 293 349 427
#     4  12  23  47  73 101 141 178 242 301 344 424
#     4  12  25  46  71 109 143 191 236 288 362 415
#     4  11  23  44  72 106 135 190 240 293 354 408
#     4  11  26  46  67 108 149 191 231 291 361 420
#
# _framework density 24.375736
#
# number of rings (size 3 to 8) (size 9 to 14) (size 15 to 20)
#    0.000    0.857    4.286    1.714    0.000    4.571 
#   18.000    0.000    0.000    0.000    0.000    0.000 
#    0.000    0.000    0.000    0.000    0.000    0.000 
#
# Total GULP energy -78473.731219 kJ/mol
# GULP energy per Si atom -5605.266516 kJ/mol
# Density = 2.432026 g / cm^3
# Si number density = 24.375736 Si / 1000 Ang^3
#
#
#
# Elastic Constant Matrix: (Units=GPa)
#
#
# Indices 1 2 3 4 5 6 
#
# 1 130.6910 52.0300 70.3003 11.2738 29.4898 3.6856
# 2 52.0300 135.4222 49.2458 3.6045 2.6565 17.1219
# 3 70.3003 49.2458 137.3133 -0.8293 13.5178 8.3017
# 4 11.2738 3.6045 -0.8293 39.2636 5.4648 -0.8772
# 5 29.4898 2.6565 13.5178 5.4648 65.9902 -1.8040
# 6 3.6856 17.1219 8.3017 -0.8772 -1.8040 50.3949
#
#
#
# Elastic Compliance Matrix: (Units=1/GPa)
#
#
# Indices 1 2 3 4 5 6 
#
# 1 0.012788 -0.002982 -0.005116 -0.002893 -0.004287 0.000717
# 2 -0.002982 0.009525 -0.001856 -0.000295 0.001281 -0.002672
# 3 -0.005116 -0.001856 0.010620 0.001846 0.000013 -0.000712
# 4 -0.002893 -0.000295 0.001846 0.026551 -0.001260 0.000425
# 5 -0.004287 0.001281 0.000013 -0.001260 0.017133 0.000468
# 6 0.000717 -0.002672 -0.000712 0.000425 0.000468 0.020840
#
#
# Mechanical properties :
#
#
# Convention : Reuss Voigt Hill
#
# Bulk Modulus (GPa) = 76.77307 82.95321 79.86314
# Shear Modulus (GPa) = 41.08232 46.58644 43.83438
#
# Velocity S-wave (km/s) = 4.10979 4.37645 4.24521
# Velocity P-wave (km/s) = 7.35422 7.72287 7.54080
#
# Compressibility (1/GPa) = 0.01302540
#
# Stress axis : x y z
#
# Youngs Moduli (GPa) = 78.20005 104.98175 94.15843
#
# Poissons Ratio (x) = 0.31307 0.48173
# Poissons Ratio (y) = 0.23321 0.17473
# Poissons Ratio (z) = 0.40008 0.19482
#
# Static dielectric constant tensor:
#      x y z
#    x 1.927450 -0.017410 0.009850 
#    y -0.017410 1.999310 -0.026670 
#    z 0.009850 -0.026670 1.913680 
# 
# From -- ./inp_files/261328.got.cif
#   From: 2010.05.17/outbox.cif.g08.bks.cpg/sg2_131_cif.got.tgz:261328.got - 2010.06.03 11:33:40.
