data_PCOD9033397
_publ_section_title
;
Structure prediction by ZEFSAII (Michael W. Deem and Ramdas Pophale) SiO2 
 PCOD9033397
Probable space group: P -1
;
_chemical_formula_sum "Si O2"
_cell_formula_units_Z 15
_cell_length_a 16.602231
_cell_length_b 9.095639
_cell_length_c 4.927528
_cell_angle_alpha 110.120960
_cell_angle_beta 69.193223
_cell_angle_gamma 73.450590
_cell_volume 578.643422
_symmetry_space_group_name_H-M "P -1"
_symmetry_group_IT_number 2
_symmetry_cell_setting 'triclinic'
loop_
_space_group_symop_operation_xyz
x,y,z
-x,-y,-z
loop_
_atom_site_type_symbol
_atom_site_label
_atom_site_fract_x
_atom_site_fract_y
_atom_site_fract_z
Si Si1 0.017642 0.751529 0.188830
Si Si2 0.396188 0.530206 0.759616
Si Si3 0.454508 0.911261 0.305044
Si Si4 0.324649 0.755564 0.499071
Si Si5 0.160087 0.502956 0.465923
Si Si6 0.000000 0.500000 0.500000
Si Si7 0.857919 0.140033 0.523388
Si Si8 0.359768 0.259947 0.359143
O O1 0.979256 0.683894 0.446609
O O2 0.104702 0.795114 0.211973
O O3 0.055383 0.593420 0.815987
O O4 0.942407 0.938613 0.270964
O O5 0.500000 0.500000 0.500000
O O6 0.316825 0.681156 0.752718
O O7 0.367304 0.373119 0.672792
O O8 0.383194 0.594929 0.121020
O O9 0.394271 0.843283 0.510307
O O10 0.500000 0.000000 0.500000
O O11 0.382426 0.063859 0.287812
O O12 0.545079 0.767449 0.940786
O O13 0.232976 0.878851 0.503908
O O14 0.119475 0.422656 0.234869
O O15 0.165908 0.679743 0.500646
O O16 0.256963 0.367495 0.406671
#
# Coordination Sequence:
#
# PCOD9033397 Si02
#       8
#     2   2   2   2   2   1   2   2
#     4  10  22  44  67  98 142 173 233 295 356 421
#     4  12  24  44  73 102 140 185 246 300 351 426
#     4  11  27  46  65 100 148 190 234 300 361 432
#     4  12  26  45  72 109 140 192 244 296 365 429
#     4  11  22  44  67  99 133 183 228 289 354 428
#     4  10  24  40  64  98 134 176 230 278 352 428
#     4  10  23  41  68 103 132 182 233 294 355 423
#     4  11  25  44  69 100 141 189 238 296 365 430
#
# _framework density 25.922701
#
# number of rings (size 3 to 8) (size 9 to 14) (size 15 to 20)
#    0.000    1.067    2.667    2.800    5.600    2.133 
#    2.400    0.000    0.000    0.000    0.000    0.000 
#    0.000    0.000    0.000    0.000    0.000    0.000 
#
# Total GULP energy -83537.776345 kJ/mol
# GULP energy per Si atom -5569.185090 kJ/mol
# Density = 2.586370 g / cm^3
# Si number density = 25.922701 Si / 1000 Ang^3
#
#
#
# Elastic Constant Matrix: (Units=GPa)
#
#
# Indices 1 2 3 4 5 6 
#
# 1 135.0246 51.3466 2.0670 24.8384 -9.2311 -13.4339
# 2 51.3466 153.7188 36.7293 13.7892 -25.2586 -35.3357
# 3 2.0670 36.7293 32.5823 7.5131 8.4354 -14.6120
# 4 24.8384 13.7892 7.5131 27.6755 -8.5068 -8.0303
# 5 -9.2311 -25.2586 8.4354 -8.5068 31.7166 5.5796
# 6 -13.4339 -35.3357 -14.6120 -8.0303 5.5796 56.2718
#
#
#
# Elastic Compliance Matrix: (Units=1/GPa)
#
#
# Indices 1 2 3 4 5 6 
#
# 1 0.011941 -0.007518 0.013747 -0.013537 -0.009931 0.000752
# 2 -0.007518 0.019498 -0.029958 0.013318 0.024503 0.002141
# 3 0.013747 -0.029958 0.089786 -0.036325 -0.054894 0.008044
# 4 -0.013537 0.013318 -0.036325 0.061938 0.032712 0.001294
# 5 -0.009931 0.024503 -0.054894 0.032712 0.072182 -0.003727
# 6 0.000752 0.002141 0.008044 0.001294 -0.003727 0.021938
#
#
# Mechanical properties :
#
#
# Convention : Reuss Voigt Hill
#
# Bulk Modulus (GPa) = 13.55602 55.73463 34.64532
# Shear Modulus (GPa) = 14.31315 38.54497 26.42906
#
# Velocity S-wave (km/s) = 2.35233 3.86024 3.19648
# Velocity P-wave (km/s) = 3.55228 6.43550 5.19780
#
# Compressibility (1/GPa) = 0.07376795
#
# Stress axis : x y z
#
# Youngs Moduli (GPa) = 83.74800 51.28615 11.13765
#
# Poissons Ratio (x) = 0.38556 -0.15311
# Poissons Ratio (y) = 0.62961 0.33366
# Poissons Ratio (z) = -1.15131 1.53642
#
# Static dielectric constant tensor:
#      x y z
#    x 1.625740 -0.041140 -0.334400 
#    y -0.041140 2.087260 -0.031910 
#    z -0.334400 -0.031910 2.110890 
# 
# From -- ./inp_files/107354.got.cif
#   From: 2010.05.17/outbox.cif.g08.bks.cpg/sg2_54_cif.got.tgz:107354.got - 2010.06.03 11:33:40.
