data_PCOD9033395
_publ_section_title
;
Structure prediction by ZEFSAII (Michael W. Deem and Ramdas Pophale) SiO2 
 PCOD9033395
Probable space group: P -1
;
_chemical_formula_sum "Si O2"
_cell_formula_units_Z 16
_cell_length_a 7.587798
_cell_length_b 7.983483
_cell_length_c 14.228449
_cell_angle_alpha 93.330374
_cell_angle_beta 100.105373
_cell_angle_gamma 128.549341
_cell_volume 647.741945
_symmetry_space_group_name_H-M "P -1"
_symmetry_group_IT_number 2
_symmetry_cell_setting 'triclinic'
loop_
_space_group_symop_operation_xyz
x,y,z
-x,-y,-z
loop_
_atom_site_type_symbol
_atom_site_label
_atom_site_fract_x
_atom_site_fract_y
_atom_site_fract_z
Si Si1 0.199865 0.091884 0.885242
Si Si2 0.738494 0.997106 0.902313
Si Si3 0.786370 0.673040 0.545075
Si Si4 0.994541 0.166792 0.628739
Si Si5 0.584526 0.243549 0.802943
Si Si6 0.438253 0.619943 0.720623
Si Si7 0.880563 0.650056 0.734824
Si Si8 0.506489 0.983654 0.615550
O O1 0.437889 0.276389 0.859032
O O2 0.990790 0.097388 0.884409
O O3 0.092934 0.886534 0.798844
O O4 0.248115 0.035797 0.988070
O O5 0.659455 0.132704 0.869434
O O6 0.537762 0.763666 0.827869
O O7 0.500000 0.500000 0.500000
O O8 0.879446 0.592328 0.625349
O O9 0.926402 0.729216 0.464219
O O10 0.896763 0.918969 0.597164
O O11 0.782779 0.127767 0.658746
O O12 0.223585 0.366959 0.709646
O O13 0.818186 0.473546 0.797254
O O14 0.453607 0.104237 0.687654
O O15 0.650559 0.629901 0.708061
O O16 0.401635 0.749090 0.644491
O O17 0.500000 0.000000 0.500000
#
# Coordination Sequence:
#
# PCOD9033395 Si02
#       8
#     2   2   2   2   2   2   2   2
#     4  10  23  47  76  97 138 188 220 290 357 397
#     4   9  22  49  73 103 142 169 237 289 339 425
#     4  11  23  40  66  99 133 180 241 282 337 416
#     4  11  23  39  70  90 132 197 222 292 342 396
#     4  11  26  41  70 103 141 179 227 290 341 414
#     4  10  22  44  67  98 137 179 230 284 345 422
#     4  11  24  39  67 103 134 174 239 280 338 425
#     4  11  26  42  60  99 145 182 235 285 337 418
#
# _framework density 24.701194000000001
#
# number of rings (size 3 to 8) (size 9 to 14) (size 15 to 20)
#    0.000    1.500    2.500    0.375    7.000    3.000 
#    0.000    9.375    0.000    0.000    0.000    0.000 
#    0.000    0.000    0.000    0.000    0.000    0.000 
#
# Total GULP energy -89325.616543 kJ/mol
# GULP energy per Si atom -5582.851034 kJ/mol
# Density = 2.464497 g / cm^3
# Si number density = 24.701194 Si / 1000 Ang^3
#
#
#
# Elastic Constant Matrix: (Units=GPa)
#
#
# Indices 1 2 3 4 5 6 
#
# 1 59.5582 28.9312 35.9281 -16.0943 -12.9926 11.3266
# 2 28.9312 83.9716 12.5044 -6.5135 5.6998 22.2337
# 3 35.9281 12.5044 133.1238 -26.6424 14.5894 10.9957
# 4 -16.0943 -6.5135 -26.6424 28.5975 4.8293 0.5186
# 5 -12.9926 5.6998 14.5894 4.8293 32.8877 -8.0252
# 6 11.3266 22.2337 10.9957 0.5186 -8.0252 29.9319
#
#
#
# Elastic Compliance Matrix: (Units=1/GPa)
#
#
# Indices 1 2 3 4 5 6 
#
# 1 0.033124 -0.012737 -0.009956 0.002845 0.020782 0.006106
# 2 -0.012737 0.021936 0.006108 0.006727 -0.017021 -0.018399
# 3 -0.009956 0.006108 0.014739 0.012408 -0.015958 -0.010678
# 4 0.002845 0.006727 0.012408 0.052869 -0.017256 -0.016174
# 5 0.020782 -0.017021 -0.015958 -0.017256 0.057619 0.026388
# 6 0.006106 -0.018399 -0.010678 -0.016174 0.026388 0.056043
#
#
# Mechanical properties :
#
#
# Convention : Reuss Voigt Hill
#
# Bulk Modulus (GPa) = 27.29950 47.93122 37.61536
# Shear Modulus (GPa) = 17.74876 31.56940 24.65908
#
# Velocity S-wave (km/s) = 2.68346 3.57886 3.16301
# Velocity P-wave (km/s) = 4.54722 6.04353 5.34796
#
# Compressibility (1/GPa) = 0.03663071
#
# Stress axis : x y z
#
# Youngs Moduli (GPa) = 30.18914 45.58702 67.84656
#
# Poissons Ratio (x) = 0.58063 0.67548
# Poissons Ratio (y) = 0.38451 -0.41442
# Poissons Ratio (z) = 0.30056 -0.27846
#
# Static dielectric constant tensor:
#      x y z
#    x 2.002310 -0.018690 0.006550 
#    y -0.018690 1.990370 -0.018970 
#    z 0.006550 -0.018970 2.062310 
# 
# From -- ./inp_files/495070.got.cif
#   From: 2010.05.17/outbox.cif.g08.bks.cpg/sg2_248_cif.got.tgz:495070.got - 2010.06.03 11:33:40.
