data_PCOD9033632
_publ_section_title
;
Structure prediction by ZEFSAII (Michael W. Deem and Ramdas Pophale) SiO2 
 PCOD9033632
Probable space group: P -1
;
_chemical_formula_sum "Si O2"
_cell_formula_units_Z 12
_cell_length_a 12.482428
_cell_length_b 9.389986
_cell_length_c 7.303606
_cell_angle_alpha 114.175144
_cell_angle_beta 70.710966
_cell_angle_gamma 140.251586
_cell_volume 499.194747
_symmetry_space_group_name_H-M "P -1"
_symmetry_group_IT_number 2
_symmetry_cell_setting 'triclinic'
loop_
_space_group_symop_operation_xyz
x,y,z
-x,-y,-z
loop_
_atom_site_type_symbol
_atom_site_label
_atom_site_fract_x
_atom_site_fract_y
_atom_site_fract_z
Si Si1 0.838732 0.726930 0.955559
Si Si2 0.658080 0.833113 0.067037
Si Si3 0.151829 0.676476 0.871016
Si Si4 0.382164 0.640254 0.850270
Si Si5 0.425704 0.137455 0.488244
Si Si6 0.771838 0.354465 0.577566
O O1 0.698071 0.696088 0.923907
O O2 0.850940 0.574699 0.764125
O O3 0.778443 0.625330 0.142462
O O4 0.000000 0.000000 0.000000
O O5 0.649229 0.834761 0.292469
O O6 0.799599 0.094282 0.054206
O O7 0.492786 0.739130 0.021774
O O8 0.308779 0.734879 0.891026
O O9 0.124096 0.586809 0.631869
O O10 0.000000 0.500000 0.000000
O O11 0.508206 0.718448 0.658842
O O12 0.596351 0.239233 0.530782
O O13 0.290335 0.861497 0.390431
#
# Coordination Sequence:
#
# PCOD9033632 Si02
#       6
#     2   2   2   2   2   2
#     4  12  26  44  64  98 146 181 209 276 351 394
#     4  11  23  44  68  99 136 170 229 278 326 399
#     4  10  22  44  69 101 130 176 227 275 337 400
#     4  11  23  41  74  96 132 175 226 277 327 400
#     4   9  20  41  70 104 119 172 235 279 325 380
#     4   9  20  41  70  93 141 166 222 285 324 398
#
# _framework density 24.038712
#
# number of rings (size 3 to 8) (size 9 to 14) (size 15 to 20)
#    0.000    1.667    1.667    3.000    2.333    0.667 
#    6.000    6.667    0.000    0.000    0.000    0.000 
#    0.000    0.000    0.000    0.000    0.000    0.000 
#
# Total GULP energy -67104.815333 kJ/mol
# GULP energy per Si atom -5592.067944 kJ/mol
# Density = 2.398400 g / cm^3
# Si number density = 24.038712 Si / 1000 Ang^3
#
#
#
# Elastic Constant Matrix: (Units=GPa)
#
#
# Indices 1 2 3 4 5 6 
#
# 1 97.0888 19.1032 28.6198 4.0250 -5.0751 -13.6247
# 2 19.1032 186.5851 88.3534 -22.4760 -4.9896 -31.8509
# 3 28.6198 88.3534 127.8256 -27.6056 3.1634 -22.4934
# 4 4.0250 -22.4760 -27.6056 50.5716 -2.4946 6.4891
# 5 -5.0751 -4.9896 3.1634 -2.4946 28.7343 -2.1877
# 6 -13.6247 -31.8509 -22.4934 6.4891 -2.1877 38.0575
#
#
#
# Elastic Compliance Matrix: (Units=1/GPa)
#
#
# Indices 1 2 3 4 5 6 
#
# 1 0.011831 0.000595 -0.003085 -0.002686 0.002567 0.003515
# 2 0.000595 0.008704 -0.005335 0.000470 0.002581 0.004412
# 3 -0.003085 -0.005335 0.013599 0.004988 -0.002423 0.001478
# 4 -0.002686 0.000470 0.004988 0.023161 0.000953 -0.001514
# 5 0.002567 0.002581 -0.002423 0.000953 0.036325 0.003572
# 6 0.003515 0.004412 0.001478 -0.001514 0.003572 0.032564
#
#
# Mechanical properties :
#
#
# Convention : Reuss Voigt Hill
#
# Bulk Modulus (GPa) = 54.10407 75.96138 65.03272
# Shear Modulus (GPa) = 33.78480 41.83420 37.80950
#
# Velocity S-wave (km/s) = 3.75298 4.17620 3.97023
# Velocity P-wave (km/s) = 6.42928 7.41096 6.93751
#
# Compressibility (1/GPa) = 0.01848290
#
# Stress axis : x y z
#
# Youngs Moduli (GPa) = 84.52319 114.89315 73.53498
#
# Poissons Ratio (x) = -0.06833 0.22685
# Poissons Ratio (y) = -0.05027 0.39233
# Poissons Ratio (z) = 0.26075 0.61298
#
# Static dielectric constant tensor:
#      x y z
#    x 1.950310 0.080900 -0.009900 
#    y 0.080900 1.997780 -0.017000 
#    z -0.009900 -0.017000 1.942960 
# 
# From -- ./inp_files/347020.got.cif
#   From: 2010.05.17/outbox.cif.g08.bks.cpg/sg2_174_cif.got.tgz:347020.got - 2010.06.03 11:33:40.
