data_PCOD9033907
_publ_section_title
;
Structure prediction by ZEFSAII (Michael W. Deem and Ramdas Pophale) SiO2 
 PCOD9033907
Probable space group: P -1
;
_chemical_formula_sum "Si O2"
_cell_formula_units_Z 10
_cell_length_a 9.271575
_cell_length_b 4.736888
_cell_length_c 8.331733
_cell_angle_alpha 98.407754
_cell_angle_beta 101.804392
_cell_angle_gamma 71.914817
_cell_volume 339.134741
_symmetry_space_group_name_H-M "P -1"
_symmetry_group_IT_number 2
_symmetry_cell_setting 'triclinic'
loop_
_space_group_symop_operation_xyz
x,y,z
-x,-y,-z
loop_
_atom_site_type_symbol
_atom_site_label
_atom_site_fract_x
_atom_site_fract_y
_atom_site_fract_z
Si Si1 0.000000 0.500000 0.500000
Si Si2 0.158167 0.720766 0.280078
Si Si3 0.500000 0.500000 0.500000
Si Si4 0.757700 0.267436 0.219206
Si Si5 0.443608 0.132823 0.761157
Si Si6 0.209508 0.151323 0.090808
O O1 0.971210 0.290614 0.625250
O O2 0.871143 0.395282 0.357528
O O3 0.326043 0.566565 0.381721
O O4 0.155284 0.040801 0.238226
O O5 0.151838 0.503860 0.112737
O O6 0.459953 0.265513 0.602347
O O7 0.646506 0.568954 0.139918
O O8 0.647629 0.117074 0.289069
O O9 0.831750 0.019251 0.083667
O O10 0.605850 0.978966 0.865834
#
# Coordination Sequence:
#
# PCOD9033907 Si02
#       6
#     1   2   1   2   2   2
#     4  12  30  48  70 108 148 196 232 288 364 428
#     4  11  26  45  73 104 145 188 234 295 352 426
#     4  10  22  44  70 110 134 180 238 292 348 410
#     4  12  26  46  71 107 148 188 236 294 356 430
#     4  11  23  43  77 106 144 182 239 305 350 415
#     4  11  25  45  75 105 140 187 243 294 358 412
#
# _framework density 29.486805
#
# number of rings (size 3 to 8) (size 9 to 14) (size 15 to 20)
#    0.000    0.800    2.000    4.800    2.800    7.200 
#    0.000    0.000    0.000    0.000    0.000    0.000 
#    0.000    0.000    0.000    0.000    0.000    0.000 
#
# Total GULP energy -55756.830146 kJ/mol
# GULP energy per Si atom -5575.683015 kJ/mol
# Density = 2.941969 g / cm^3
# Si number density = 29.486805 Si / 1000 Ang^3
#
#
#
# Elastic Constant Matrix: (Units=GPa)
#
#
# Indices 1 2 3 4 5 6 
#
# 1 157.3879 62.6822 42.7159 0.6430 24.9966 52.2785
# 2 62.6822 176.2091 26.5115 -3.1694 -4.6666 30.7824
# 3 42.7159 26.5115 78.8564 -14.1882 30.7799 21.5806
# 4 0.6430 -3.1694 -14.1882 60.9583 14.8976 -14.4340
# 5 24.9966 -4.6666 30.7799 14.8976 50.8797 1.2968
# 6 52.2785 30.7824 21.5806 -14.4340 1.2968 81.4382
#
#
#
# Elastic Compliance Matrix: (Units=1/GPa)
#
#
# Indices 1 2 3 4 5 6 
#
# 1 0.010214 -0.002529 -0.002074 -0.001084 -0.003546 -0.005187
# 2 -0.002529 0.007165 -0.002600 -0.001317 0.003875 -0.000691
# 3 -0.002074 -0.002600 0.022767 0.008490 -0.015428 -0.001969
# 4 -0.001084 -0.001317 0.008490 0.021759 -0.011172 0.002978
# 5 -0.003546 0.003875 -0.015428 -0.011172 0.034296 0.002374
# 6 -0.005187 -0.000691 -0.001969 0.002978 0.002374 0.016882
#
#
# Mechanical properties :
#
#
# Convention : Reuss Voigt Hill
#
# Bulk Modulus (GPa) = 38.84698 75.14140 56.99419
# Shear Modulus (GPa) = 36.74591 57.35816 47.05204
#
# Velocity S-wave (km/s) = 3.53396 4.41524 3.99895
# Velocity P-wave (km/s) = 5.46395 7.17850 6.37909
#
# Compressibility (1/GPa) = 0.02574203
#
# Stress axis : x y z
#
# Youngs Moduli (GPa) = 97.90173 139.55899 43.92257
#
# Poissons Ratio (x) = 0.35290 0.09111
# Poissons Ratio (y) = 0.24756 0.11418
# Poissons Ratio (z) = 0.20308 0.36279
#
# Static dielectric constant tensor:
#      x y z
#    x 2.013140 0.257650 0.253440 
#    y 0.257650 1.911270 -0.209880 
#    z 0.253440 -0.209880 2.030040 
# 
# From -- ./inp_files/21682.got.cif
#   From: 2010.05.17/outbox.cif.g08.bks.cpg/sg2_11_cif.got.tgz:21682.got - 2010.06.03 11:33:40.
