data_PCOD9033336
_publ_section_title
;
Structure prediction by ZEFSAII (Michael W. Deem and Ramdas Pophale) SiO2 
 PCOD9033336
Probable space group: P -1
;
_chemical_formula_sum "Si O2"
_cell_formula_units_Z 16
_cell_length_a 8.543682
_cell_length_b 20.221734
_cell_length_c 18.491979
_cell_angle_alpha 158.315218
_cell_angle_beta 37.790684
_cell_angle_gamma 141.201823
_cell_volume 708.928070
_symmetry_space_group_name_H-M "P -1"
_symmetry_group_IT_number 2
_symmetry_cell_setting 'triclinic'
loop_
_space_group_symop_operation_xyz
x,y,z
-x,-y,-z
loop_
_atom_site_type_symbol
_atom_site_label
_atom_site_fract_x
_atom_site_fract_y
_atom_site_fract_z
Si Si1 0.748556 0.942780 0.599665
Si Si2 0.158385 0.625797 0.752664
Si Si3 0.959600 0.685856 0.165942
Si Si4 0.721440 0.915076 0.050586
Si Si5 0.803263 0.511232 0.894451
Si Si6 0.810234 0.090208 0.479780
Si Si7 0.040064 0.992375 0.146646
Si Si8 0.336808 0.350861 0.319555
O O1 0.735877 0.771728 0.376179
O O2 0.002476 0.949012 0.563507
O O3 0.487312 0.954513 0.750637
O O4 0.804211 0.138670 0.737433
O O5 0.174705 0.506609 0.554314
O O6 0.377013 0.584790 0.686677
O O7 0.901606 0.578179 0.846960
O O8 0.210861 0.837718 0.929972
O O9 0.923118 0.639948 0.047811
O O10 0.000000 0.500000 0.000000
O O11 0.792390 0.911363 0.104623
O O12 0.637569 0.722812 0.845103
O O13 0.000000 0.000000 0.000000
O O14 0.848026 0.308260 0.684517
O O15 0.500000 0.500000 0.000000
O O16 0.500000 0.000000 0.500000
O O17 0.937797 0.027266 0.297620
O O18 0.194597 0.177805 0.243093
#
# Coordination Sequence:
#
# PCOD9033336 Si02
#       8
#     2   2   2   2   2   2   2   2
#     4  11  25  45  70  96 144 177 223 287 336 407
#     4  11  23  42  68  97 129 177 222 282 334 402
#     4  11  24  43  68 102 132 181 224 275 347 404
#     4  10  24  44  67  99 135 178 228 276 331 401
#     4  12  25  42  65 100 139 173 228 285 336 415
#     4  12  25  44  68 100 136 181 226 280 347 411
#     4  11  23  41  67  95 134 175 221 272 340 395
#     4  10  22  44  67  95 134 169 231 278 333 395
#
# _framework density 22.569284
#
# number of rings (size 3 to 8) (size 9 to 14) (size 15 to 20)
#    0.000    1.000    2.500    4.125    5.250    2.500 
#    0.000    0.000    0.000    0.000    0.000    0.000 
#    0.000    0.000    0.000    0.000    0.000    0.000 
#
# Total GULP energy -89378.524936 kJ/mol
# GULP energy per Si atom -5586.157809 kJ/mol
# Density = 2.251792 g / cm^3
# Si number density = 22.569284 Si / 1000 Ang^3
#
#
#
# Elastic Constant Matrix: (Units=GPa)
#
#
# Indices 1 2 3 4 5 6 
#
# 1 53.6519 -6.3234 21.1874 -10.0738 6.3926 2.8445
# 2 -6.3234 49.4594 24.7975 -1.2409 -15.2475 4.0214
# 3 21.1874 24.7975 202.1150 -0.6919 2.9835 -6.0996
# 4 -10.0738 -1.2409 -0.6919 37.3788 -4.7155 -8.4198
# 5 6.3926 -15.2475 2.9835 -4.7155 39.0793 -3.6525
# 6 2.8445 4.0214 -6.0996 -8.4198 -3.6525 25.7047
#
#
#
# Elastic Compliance Matrix: (Units=1/GPa)
#
#
# Indices 1 2 3 4 5 6 
#
# 1 0.021457 0.004040 -0.002773 0.005221 -0.001292 -0.002138
# 2 0.004040 0.025997 -0.003847 0.002377 0.009758 -0.003262
# 3 -0.002773 -0.003847 0.005787 -0.000508 -0.001371 0.001921
# 4 0.005221 0.002377 -0.000508 0.031033 0.004770 0.009773
# 5 -0.001292 0.009758 -0.001371 0.004770 0.030682 0.004213
# 6 -0.002138 -0.003262 0.001921 0.009773 0.004213 0.043906
#
#
# Mechanical properties :
#
#
# Convention : Reuss Voigt Hill
#
# Bulk Modulus (GPa) = 20.79812 42.72769 31.76291
# Shear Modulus (GPa) = 27.77023 38.13688 32.95355
#
# Velocity S-wave (km/s) = 3.51157 4.11514 3.82528
# Velocity P-wave (km/s) = 5.06722 6.44609 5.79779
#
# Compressibility (1/GPa) = 0.04808127
#
# Stress axis : x y z
#
# Youngs Moduli (GPa) = 46.60411 38.46565 172.80621
#
# Poissons Ratio (x) = -0.15540 0.47912
# Poissons Ratio (y) = -0.18828 0.66486
# Poissons Ratio (z) = 0.12921 0.14799
#
# Static dielectric constant tensor:
#      x y z
#    x 1.900360 -0.001410 -0.000890 
#    y -0.001410 1.884270 -0.005480 
#    z -0.000890 -0.005480 1.952140 
# 
# From -- ./inp_files/562975.got.cif
#   From: 2010.05.17/outbox.cif.g08.bks.cpg/sg2_282_cif.got.tgz:562975.got - 2010.06.03 11:33:40.
