data_PCOD9033019
_publ_section_title
;
Structure prediction by ZEFSAII (Michael W. Deem and Ramdas Pophale) SiO2 
 PCOD9033019
Probable space group: P -1
;
_chemical_formula_sum "Si O2"
_cell_formula_units_Z 13
_cell_length_a 8.024989
_cell_length_b 13.172000
_cell_length_c 5.408597
_cell_angle_alpha 89.446099
_cell_angle_beta 103.136155
_cell_angle_gamma 119.452371
_cell_volume 481.278262
_symmetry_space_group_name_H-M "P -1"
_symmetry_group_IT_number 2
_symmetry_cell_setting 'triclinic'
loop_
_space_group_symop_operation_xyz
x,y,z
-x,-y,-z
loop_
_atom_site_type_symbol
_atom_site_label
_atom_site_fract_x
_atom_site_fract_y
_atom_site_fract_z
Si Si1 0.236455 0.343488 0.405392
Si Si2 0.500000 0.000000 0.500000
Si Si3 0.389523 0.575097 0.758185
Si Si4 0.926083 0.590443 0.028626
Si Si5 0.640550 0.812709 0.311511
Si Si6 0.228002 0.041342 0.138889
Si Si7 0.737919 0.264843 0.516191
O O1 0.312956 0.473235 0.529685
O O2 0.384732 0.341449 0.245652
O O3 0.250315 0.262020 0.620065
O O4 0.049219 0.320638 0.182996
O O5 0.329939 0.962617 0.216227
O O6 0.643789 0.129599 0.416690
O O7 0.306111 0.498746 0.978732
O O8 0.285644 0.652245 0.689954
O O9 0.043800 0.667320 0.302077
O O10 0.000000 0.500000 0.000000
O O11 0.729792 0.908153 0.563363
O O12 0.411236 0.740083 0.313533
O O13 0.667056 0.872114 0.057284
O O14 0.000000 0.000000 0.000000
#
# Coordination Sequence:
#
# PCOD9033019 Si02
#       7
#     2   1   2   2   2   2   2
#     4  10  23  41  68 102 140 199 228 300 388 445
#     4  10  26  48  74  98 144 200 244 308 370 432
#     4  10  22  44  64  99 150 181 245 295 377 455
#     4  12  24  39  68 109 142 189 241 313 375 450
#     4  10  25  46  70 105 145 190 245 312 376 455
#     4  11  25  49  73 106 142 194 258 313 371 449
#     4  10  23  44  66 103 139 189 247 304 371 442
#
# _framework density 27.011403000000001
#
# number of rings (size 3 to 8) (size 9 to 14) (size 15 to 20)
#    0.000    1.538    1.538    1.385    4.308    6.154 
#    2.769    0.000    0.000    0.000    0.000    0.000 
#    0.000    0.000    0.000    0.000    0.000    0.000 
#
# Total GULP energy -72391.708209 kJ/mol
# GULP energy per Si atom -5568.592939 kJ/mol
# Density = 2.694992 g / cm^3
# Si number density = 27.011403 Si / 1000 Ang^3
#
#
#
# Elastic Constant Matrix: (Units=GPa)
#
#
# Indices 1 2 3 4 5 6 
#
# 1 81.5491 -15.0354 9.6650 -16.9555 -2.5900 13.5856
# 2 -15.0354 58.7708 21.1572 -19.3540 -19.7932 -1.3437
# 3 9.6650 21.1572 155.1035 -36.0374 6.5676 -4.3726
# 4 -16.9555 -19.3540 -36.0374 69.7973 -12.2407 8.1968
# 5 -2.5900 -19.7932 6.5676 -12.2407 30.0038 -3.2868
# 6 13.5856 -1.3437 -4.3726 8.1968 -3.2868 28.4666
#
#
#
# Elastic Compliance Matrix: (Units=1/GPa)
#
#
# Indices 1 2 3 4 5 6 
#
# 1 0.019873 0.014460 -0.001354 0.012081 0.015305 -0.010721
# 2 0.014460 0.040693 -0.003498 0.020198 0.036316 -0.007140
# 3 -0.001354 -0.003498 0.007628 0.001995 -0.003203 0.000709
# 4 0.012081 0.020198 0.001995 0.029435 0.024831 -0.010115
# 5 0.015305 0.036316 -0.003203 0.024831 0.068861 -0.005281
# 6 -0.010721 -0.007140 0.000709 -0.010115 -0.005281 0.042320
#
#
# Mechanical properties :
#
#
# Convention : Reuss Voigt Hill
#
# Bulk Modulus (GPa) = 11.44052 36.33298 23.88675
# Shear Modulus (GPa) = 22.85916 44.29598 33.57757
#
# Velocity S-wave (km/s) = 2.91224 4.05396 3.52957
# Velocity P-wave (km/s) = 3.94371 5.94920 5.04707
#
# Compressibility (1/GPa) = 0.08740858
#
# Stress axis : x y z
#
# Youngs Moduli (GPa) = 50.31925 24.57447 131.09841
#
# Poissons Ratio (x) = -0.35534 0.17751
# Poissons Ratio (y) = -0.72759 0.45858
# Poissons Ratio (z) = 0.06813 0.08596
#
# Static dielectric constant tensor:
#      x y z
#    x 7.126820 -3.572140 0.262220 
#    y -3.572140 4.741870 -0.164030 
#    z 0.262220 -0.164030 2.048910 
# 
# From -- ./inp_files/32218.got.cif
#   From: 2010.05.17/outbox.cif.g08.bks.cpg/sg2_17_cif.got.tgz:32218.got - 2010.06.03 11:33:40.
