data_PCOD9033018
_publ_section_title
;
Structure prediction by ZEFSAII (Michael W. Deem and Ramdas Pophale) SiO2 
 PCOD9033018
Probable space group: P -1
;
_chemical_formula_sum "Si O2"
_cell_formula_units_Z 16
_cell_length_a 8.666927
_cell_length_b 13.762132
_cell_length_c 18.625993
_cell_angle_alpha 158.573713
_cell_angle_beta 52.738976
_cell_angle_gamma 117.589285
_cell_volume 606.119999
_symmetry_space_group_name_H-M "P -1"
_symmetry_group_IT_number 2
_symmetry_cell_setting 'triclinic'
loop_
_space_group_symop_operation_xyz
x,y,z
-x,-y,-z
loop_
_atom_site_type_symbol
_atom_site_label
_atom_site_fract_x
_atom_site_fract_y
_atom_site_fract_z
Si Si1 0.591021 0.597080 0.612552
Si Si2 0.962834 0.835132 0.163326
Si Si3 0.549765 0.329839 0.679340
Si Si4 0.988952 0.061519 0.156814
Si Si5 0.620950 0.686743 0.129053
Si Si6 0.797549 0.869810 0.643618
Si Si7 0.605217 0.720104 0.455444
Si Si8 0.818262 0.700473 0.845987
O O1 0.500000 0.500000 0.500000
O O2 0.807368 0.366173 0.418330
O O3 0.638929 0.858221 0.743511
O O4 0.448250 0.542722 0.677286
O O5 0.756524 0.075798 0.419927
O O6 0.024335 0.935423 0.138924
O O7 0.140689 0.851585 0.178010
O O8 0.868943 0.589197 0.003248
O O9 0.483366 0.260101 0.727018
O O10 0.373091 0.353809 0.685766
O O11 0.625631 0.601067 0.848199
O O12 0.179250 0.115981 0.099816
O O13 0.895351 0.869405 0.001513
O O14 0.569187 0.965230 0.284203
O O15 0.500000 0.500000 0.000000
O O16 0.748750 0.790437 0.522569
O O17 0.995951 0.596682 0.419188
#
# Coordination Sequence:
#
# PCOD9033018 Si02
#       8
#     2   2   2   2   2   2   2   2
#     4   9  17  30  55  83 111 140 178 218 274 324
#     4  10  19  34  57  81 108 139 194 218 267 328
#     4  10  20  34  56  81 104 143 194 220 265 326
#     4  10  17  32  55  80 112 146 178 226 272 320
#     4  11  22  38  57  80 108 144 190 229 268 320
#     4   9  20  34  54  83 114 141 179 224 275 330
#     4  10  19  36  56  80 111 144 182 227 273 317
#     4   9  20  32  53  81 112 143 183 221 274 322
#
# _framework density 26.397411999999999
#
# number of rings (size 3 to 8) (size 9 to 14) (size 15 to 20)
#    0.000    2.250    2.500    2.250    1.750    1.500 
#    0.000    7.500    0.000    3.000    0.000    0.000 
#    0.000    0.000    0.000    0.000    0.000    0.000 
#
# Total GULP energy -89247.395473 kJ/mol
# GULP energy per Si atom -5577.962217 kJ/mol
# Density = 2.633733 g / cm^3
# Si number density = 26.397412 Si / 1000 Ang^3
#
#
#
# Elastic Constant Matrix: (Units=GPa)
#
#
# Indices 1 2 3 4 5 6 
#
# 1 107.5356 62.9292 27.7797 8.2062 44.9937 26.1378
# 2 62.9292 170.0123 36.3424 -8.0050 18.3708 -0.1783
# 3 27.7797 36.3424 73.1589 2.4578 23.6895 2.6351
# 4 8.2062 -8.0050 2.4578 46.5529 -4.2376 9.0509
# 5 44.9937 18.3708 23.6895 -4.2376 56.6699 14.3657
# 6 26.1378 -0.1783 2.6351 9.0509 14.3657 38.5711
#
#
#
# Elastic Compliance Matrix: (Units=1/GPa)
#
#
# Indices 1 2 3 4 5 6 
#
# 1 0.020739 -0.006504 -0.000158 -0.004263 -0.012474 -0.008427
# 2 -0.006504 0.008733 -0.003047 0.002518 0.003053 0.002928
# 3 -0.000158 -0.003047 0.017484 -0.002443 -0.006895 0.002040
# 4 -0.004263 0.002518 -0.002443 0.024411 0.006725 -0.005165
# 5 -0.012474 0.003053 -0.006895 0.006725 0.031007 -0.004188
# 6 -0.008427 0.002928 0.002040 -0.005165 -0.004188 0.034283
#
#
# Mechanical properties :
#
#
# Convention : Reuss Voigt Hill
#
# Bulk Modulus (GPa) = 36.31426 67.20105 51.75766
# Shear Modulus (GPa) = 30.25644 43.26915 36.76279
#
# Velocity S-wave (km/s) = 3.38921 4.05303 3.73589
# Velocity P-wave (km/s) = 5.39466 6.88588 6.18537
#
# Compressibility (1/GPa) = 0.02753739
#
# Stress axis : x y z
#
# Youngs Moduli (GPa) = 48.21756 114.51426 57.19583
#
# Poissons Ratio (x) = 0.74486 0.00903
# Poissons Ratio (y) = 0.31363 0.17426
# Poissons Ratio (z) = 0.00761 0.34890
#
# Static dielectric constant tensor:
#      x y z
#    x 2.197310 0.074870 -0.033240 
#    y 0.074870 2.041100 0.040650 
#    z -0.033240 0.040650 2.222080 
# 
# From -- ./inp_files/202062.got.cif
#   From: 2010.05.17/outbox.cif.g08.bks.cpg/sg2_102_cif.got.tgz:202062.got - 2010.06.03 11:33:40.
