data_PCOD9033316
_publ_section_title
;
Structure prediction by ZEFSAII (Michael W. Deem and Ramdas Pophale) SiO2 
 PCOD9033316
Probable space group: P -1
;
_chemical_formula_sum "Si O2"
_cell_formula_units_Z 12
_cell_length_a 8.910565
_cell_length_b 11.853613
_cell_length_c 8.672143
_cell_angle_alpha 123.794108
_cell_angle_beta 133.848547
_cell_angle_gamma 60.025384
_cell_volume 538.889603
_symmetry_space_group_name_H-M "P -1"
_symmetry_group_IT_number 2
_symmetry_cell_setting 'triclinic'
loop_
_space_group_symop_operation_xyz
x,y,z
-x,-y,-z
loop_
_atom_site_type_symbol
_atom_site_label
_atom_site_fract_x
_atom_site_fract_y
_atom_site_fract_z
Si Si1 0.393550 0.733201 0.845970
Si Si2 0.127589 0.130005 0.193988
Si Si3 0.821848 0.599727 0.041285
Si Si4 0.463420 0.004546 0.793581
Si Si5 0.943516 0.851968 0.489896
Si Si6 0.138023 0.579789 0.769879
O O1 0.306640 0.626958 0.812397
O O2 0.194644 0.819894 0.678397
O O3 0.597061 0.653007 0.838025
O O4 0.484872 0.844898 0.098008
O O5 0.148520 0.160213 0.412783
O O6 0.991237 0.273863 0.144641
O O7 0.352015 0.096898 0.241539
O O8 0.000000 0.000000 0.000000
O O9 0.912137 0.733361 0.259249
O O10 0.780893 0.519547 0.106917
O O11 0.000000 0.500000 0.000000
O O12 0.216816 0.010854 0.580285
O O13 0.500000 0.000000 0.000000
O O14 0.000000 0.500000 0.500000
#
# Coordination Sequence:
#
# PCOD9033316 Si02
#       6
#     2   2   2   2   2   2
#     4  10  22  44  67  93 135 176 227 271 328 404
#     4  11  21  43  71  96 131 179 225 270 328 402
#     4  11  24  41  68 101 136 173 223 282 336 395
#     4  11  24  41  68 101 136 173 223 282 336 395
#     4  10  22  44  67  93 135 176 227 271 328 404
#     4  11  21  43  71  96 131 179 225 270 328 402
#
# _framework density 22.268011000000001
#
# number of rings (size 3 to 8) (size 9 to 14) (size 15 to 20)
#    0.000    1.333    6.667    1.000    4.667    1.333 
#    0.000    0.000    0.000    0.000    0.000    0.000 
#    0.000    0.000    0.000    0.000    0.000    0.000 
#
# Total GULP energy -66901.560148 kJ/mol
# GULP energy per Si atom -5575.130012 kJ/mol
# Density = 2.221733 g / cm^3
# Si number density = 22.268011 Si / 1000 Ang^3
#
#
#
# Elastic Constant Matrix: (Units=GPa)
#
#
# Indices 1 2 3 4 5 6 
#
# 1 116.3468 45.1569 41.0800 -14.7580 6.1705 -47.0208
# 2 45.1569 87.8290 22.1763 -16.6372 12.3464 -34.6351
# 3 41.0800 22.1763 64.6545 -8.9703 13.2012 -23.5360
# 4 -14.7580 -16.6372 -8.9703 51.8433 -5.0308 7.2749
# 5 6.1705 12.3464 13.2012 -5.0308 34.8648 -2.9265
# 6 -47.0208 -34.6351 -23.5360 7.2749 -2.9265 68.7921
#
#
#
# Elastic Compliance Matrix: (Units=1/GPa)
#
#
# Indices 1 2 3 4 5 6 
#
# 1 0.014650 -0.003608 -0.006021 0.001279 0.001659 0.006072
# 2 -0.003608 0.016562 -0.000152 0.003101 -0.004276 0.005310
# 3 -0.006021 -0.000152 0.021929 0.000962 -0.006800 0.002920
# 4 0.001279 0.003101 0.000962 0.020861 0.001373 0.000617
# 5 0.001659 -0.004276 -0.006800 0.001373 0.032499 -0.002108
# 6 0.006072 0.005310 0.002920 0.000617 -0.002108 0.022204
#
#
# Mechanical properties :
#
#
# Convention : Reuss Voigt Hill
#
# Bulk Modulus (GPa) = 29.78094 53.96187 41.87141
# Shear Modulus (GPa) = 31.35565 41.79451 36.57508
#
# Velocity S-wave (km/s) = 3.75654 4.33700 4.05717
# Velocity P-wave (km/s) = 5.67612 7.02602 6.38684
#
# Compressibility (1/GPa) = 0.03357852
#
# Stress axis : x y z
#
# Youngs Moduli (GPa) = 68.26089 60.37963 45.60078
#
# Poissons Ratio (x) = 0.21786 0.27458
# Poissons Ratio (y) = 0.24629 0.00692
# Poissons Ratio (z) = 0.41103 0.00916
#
# Static dielectric constant tensor:
#      x y z
#    x 1.864390 -0.008660 0.052820 
#    y -0.008660 1.921230 -0.032900 
#    z 0.052820 -0.032900 1.817240 
# 
# From -- ./inp_files/170048.got.cif
#   From: 2010.05.17/outbox.cif.g08.bks.cpg/sg2_86_cif.got.tgz:170048.got - 2010.06.03 11:33:40.
