data_PCOD9033713
_publ_section_title
;
Structure prediction by ZEFSAII (Michael W. Deem and Ramdas Pophale) SiO2 
 PCOD9033713
Probable space group: P -1
;
_chemical_formula_sum "Si O2"
_cell_formula_units_Z 16
_cell_length_a 11.912868
_cell_length_b 8.150986
_cell_length_c 14.304880
_cell_angle_alpha 95.821247
_cell_angle_beta 149.142030
_cell_angle_gamma 71.295740
_cell_volume 630.128140
_symmetry_space_group_name_H-M "P -1"
_symmetry_group_IT_number 2
_symmetry_cell_setting 'triclinic'
loop_
_space_group_symop_operation_xyz
x,y,z
-x,-y,-z
loop_
_atom_site_type_symbol
_atom_site_label
_atom_site_fract_x
_atom_site_fract_y
_atom_site_fract_z
Si Si1 0.168012 0.868331 0.389325
Si Si2 0.019495 0.816465 0.953363
Si Si3 0.974068 0.698677 0.110575
Si Si4 0.529263 0.745233 0.308287
Si Si5 0.010448 0.368784 0.619981
Si Si6 0.211675 0.077437 0.593474
Si Si7 0.549387 0.818353 0.959229
Si Si8 0.357178 0.277022 0.398883
O O1 0.023350 0.868467 0.192973
O O2 0.097466 0.735253 0.394469
O O3 0.446645 0.787830 0.548583
O O4 0.100035 0.042576 0.417010
O O5 0.974130 0.705344 0.000109
O O6 0.299128 0.714129 0.111361
O O7 0.819245 0.821949 0.737379
O O8 0.000000 0.000000 0.000000
O O9 0.193102 0.498877 0.285506
O O10 0.733800 0.732247 0.997590
O O11 0.794311 0.573009 0.473807
O O12 0.546699 0.907414 0.271470
O O13 0.512516 0.770802 0.409892
O O14 0.054261 0.262847 0.548105
O O15 0.276370 0.337453 0.848997
O O16 0.297560 0.911802 0.722619
O O17 0.500000 0.000000 0.000000
#
# Coordination Sequence:
#
# PCOD9033713 Si02
#       8
#     2   2   2   2   2   2   2   2
#     4  11  21  39  68  96 131 172 227 274 327 402
#     4  12  27  41  66 100 139 176 219 273 344 403
#     4  11  21  41  61  94 134 170 222 273 328 396
#     4  12  24  45  67 102 140 174 222 280 334 406
#     4  10  22  44  69  93 133 179 227 279 328 398
#     4  11  24  40  68  99 134 179 223 276 341 389
#     4   9  19  38  62  90 124 172 223 270 317 385
#     4  12  24  43  68 100 133 179 219 277 339 395
#
# _framework density 25.391662
#
# number of rings (size 3 to 8) (size 9 to 14) (size 15 to 20)
#    0.000    1.000    3.750    4.500    1.750    2.000 
#    0.000    0.000    0.000    1.500    0.000    0.000 
#    0.000    0.000    0.000    0.000    0.000    0.000 
#
# Total GULP energy -89274.064908 kJ/mol
# GULP energy per Si atom -5579.629057 kJ/mol
# Density = 2.533387 g / cm^3
# Si number density = 25.391662 Si / 1000 Ang^3
#
#
#
# Elastic Constant Matrix: (Units=GPa)
#
#
# Indices 1 2 3 4 5 6 
#
# 1 128.4242 21.8682 1.5092 -1.6255 1.2801 -13.3387
# 2 21.8682 44.1017 15.5298 -5.6818 -16.8892 -18.4348
# 3 1.5092 15.5298 79.5334 -0.4647 -7.9900 -5.2225
# 4 -1.6255 -5.6818 -0.4647 44.3813 -1.3822 6.0242
# 5 1.2801 -16.8892 -7.9900 -1.3822 24.2367 3.5701
# 6 -13.3387 -18.4348 -5.2225 6.0242 3.5701 33.0684
#
#
#
# Elastic Compliance Matrix: (Units=1/GPa)
#
#
# Indices 1 2 3 4 5 6 
#
# 1 0.008969 -0.006209 0.000618 -0.000731 -0.004771 0.000902
# 2 -0.006209 0.047056 -0.004887 0.004055 0.028927 0.019095
# 3 0.000618 -0.004887 0.013597 -0.000376 0.001078 -0.000376
# 4 -0.000731 0.004055 -0.000376 0.023550 0.004506 -0.002871
# 5 -0.004771 0.028927 0.001078 0.004506 0.061260 0.006937
# 6 0.000902 0.019095 -0.000376 -0.002871 0.006937 0.040964
#
#
# Mechanical properties :
#
#
# Convention : Reuss Voigt Hill
#
# Bulk Modulus (GPa) = 20.54822 36.65265 28.60044
# Shear Modulus (GPa) = 21.49843 34.54742 28.02293
#
# Velocity S-wave (km/s) = 2.91292 3.69261 3.32569
# Velocity P-wave (km/s) = 4.40722 5.71373 5.10246
#
# Compressibility (1/GPa) = 0.04866602
#
# Stress axis : x y z
#
# Youngs Moduli (GPa) = 111.49843 21.25106 73.54390
#
# Poissons Ratio (x) = 0.13195 -0.04544
# Poissons Ratio (y) = 0.69231 0.35941
# Poissons Ratio (z) = -0.06889 0.10385
#
# Static dielectric constant tensor:
#      x y z
#    x 2.042850 0.059480 0.006710 
#    y 0.059480 2.021940 0.007530 
#    z 0.006710 0.007530 2.065860 
# 
# From -- ./inp_files/515800.got.cif
#   From: 2010.05.17/outbox.cif.g08.bks.cpg/sg2_258_cif.got.tgz:515800.got - 2010.06.03 11:33:40.
