data_PCOD9033922
_publ_section_title
;
Structure prediction by ZEFSAII (Michael W. Deem and Ramdas Pophale) SiO2 
 PCOD9033922
Probable space group: P -1
;
_chemical_formula_sum "Si O2"
_cell_formula_units_Z 13
_cell_length_a 12.457239
_cell_length_b 9.228791
_cell_length_c 8.126143
_cell_angle_alpha 63.276735
_cell_angle_beta 117.524917
_cell_angle_gamma 68.451572
_cell_volume 508.842304
_symmetry_space_group_name_H-M "P -1"
_symmetry_group_IT_number 2
_symmetry_cell_setting 'triclinic'
loop_
_space_group_symop_operation_xyz
x,y,z
-x,-y,-z
loop_
_atom_site_type_symbol
_atom_site_label
_atom_site_fract_x
_atom_site_fract_y
_atom_site_fract_z
Si Si1 0.366124 0.844547 0.303278
Si Si2 0.273910 0.542833 0.828914
Si Si3 0.620393 0.254053 0.006502
Si Si4 0.170275 0.177125 0.394025
Si Si5 0.893031 0.068284 0.724591
Si Si6 0.089883 0.393403 0.794847
Si Si7 0.500000 0.000000 0.500000
O O1 0.510000 0.827660 0.479466
O O2 0.305130 0.774029 0.430357
O O3 0.192617 0.126341 0.010372
O O4 0.406131 0.734062 0.211212
O O5 0.305524 0.642135 0.943382
O O6 0.118669 0.769150 0.490459
O O7 0.236318 0.393751 0.924778
O O8 0.448190 0.378445 0.926428
O O9 0.755891 0.987889 0.308328
O O10 0.332140 0.078409 0.446923
O O11 0.049783 0.437254 0.247235
O O12 0.065295 0.135376 0.244562
O O13 0.000000 0.000000 0.000000
O O14 0.000000 0.500000 0.500000
#
# Coordination Sequence:
#
# PCOD9033922 Si02
#       7
#     2   2   2   2   2   2   1
#     4  11  24  43  69  95 135 173 224 267 336 387
#     4  10  24  42  68  97 131 172 229 269 331 384
#     4  10  22  44  70  94 127 179 227 277 314 397
#     4  10  23  42  68  94 138 167 226 270 331 387
#     4  10  23  42  63  97 136 174 209 274 335 397
#     4  12  24  40  70 106 126 175 222 277 324 395
#     4  10  24  42  60  96 132 176 202 276 328 388
#
# _framework density 25.548190000000002
#
# number of rings (size 3 to 8) (size 9 to 14) (size 15 to 20)
#    0.000    1.538    1.538    1.846    4.308    6.769 
#    2.769    0.000    0.000    0.000    0.000    0.000 
#    0.000    0.000    0.000    0.000    0.000    0.000 
#
# Total GULP energy -72638.711427 kJ/mol
# GULP energy per Si atom -5587.593187 kJ/mol
# Density = 2.549004 g / cm^3
# Si number density = 25.548190 Si / 1000 Ang^3
#
#
#
# Elastic Constant Matrix: (Units=GPa)
#
#
# Indices 1 2 3 4 5 6 
#
# 1 127.0863 36.3604 7.3852 0.6826 6.8699 5.7111
# 2 36.3604 148.2442 28.6081 7.1165 -0.7837 -19.0192
# 3 7.3852 28.6081 75.3438 9.7614 -7.3048 4.2034
# 4 0.6826 7.1165 9.7614 58.5490 6.6588 -2.7812
# 5 6.8699 -0.7837 -7.3048 6.6588 40.4791 1.1934
# 6 5.7111 -19.0192 4.2034 -2.7812 1.1934 37.9068
#
#
#
# Elastic Compliance Matrix: (Units=1/GPa)
#
#
# Indices 1 2 3 4 5 6 
#
# 1 0.008775 -0.002506 0.000056 0.000243 -0.001493 -0.002521
# 2 -0.002506 0.008660 -0.003309 -0.000217 -0.000118 0.005077
# 3 0.000056 -0.003309 0.015396 -0.002711 0.003259 -0.003677
# 4 0.000243 -0.000217 -0.002711 0.018034 -0.003548 0.001590
# 5 -0.001493 -0.000118 0.003259 -0.003548 0.026165 -0.001280
# 6 -0.002521 0.005077 -0.003677 0.001590 -0.001280 0.029873
#
#
# Mechanical properties :
#
#
# Convention : Reuss Voigt Hill
#
# Bulk Modulus (GPa) = 46.92169 55.04242 50.98205
# Shear Modulus (GPa) = 39.83247 45.94168 42.88708
#
# Velocity S-wave (km/s) = 3.95284 4.24516 4.10161
# Velocity P-wave (km/s) = 6.26411 6.75425 6.51379
#
# Compressibility (1/GPa) = 0.02131211
#
# Stress axis : x y z
#
# Youngs Moduli (GPa) = 113.95842 115.47202 64.95249
#
# Poissons Ratio (x) = 0.28938 -0.00362
# Poissons Ratio (y) = 0.28558 0.21494
# Poissons Ratio (z) = -0.00635 0.38212
#
# Static dielectric constant tensor:
#      x y z
#    x 0.476520 1.498410 -5.334040 
#    y 1.498410 0.400720 5.412330 
#    z -5.334040 5.412330 -16.997550 
# 
# From -- ./inp_files/146459.got.cif
#   From: 2010.05.17/outbox.cif.g08.bks.cpg/sg2_74_cif.got.tgz:146459.got - 2010.06.03 11:33:40.
