data_PCOD9033813
_publ_section_title
;
Structure prediction by ZEFSAII (Michael W. Deem and Ramdas Pophale) SiO2 
 PCOD9033813
Probable space group: P -1
;
_chemical_formula_sum "Si O2"
_cell_formula_units_Z 15
_cell_length_a 21.690933
_cell_length_b 9.466890
_cell_length_c 11.775153
_cell_angle_alpha 51.925453
_cell_angle_beta 22.332988
_cell_angle_gamma 39.648371
_cell_volume 538.838353
_symmetry_space_group_name_H-M "P -1"
_symmetry_group_IT_number 2
_symmetry_cell_setting 'triclinic'
loop_
_space_group_symop_operation_xyz
x,y,z
-x,-y,-z
loop_
_atom_site_type_symbol
_atom_site_label
_atom_site_fract_x
_atom_site_fract_y
_atom_site_fract_z
Si Si1 0.000000 0.000000 0.500000
Si Si2 0.729437 0.733276 0.763171
Si Si3 0.776575 0.982052 0.742084
Si Si4 0.327009 0.888048 0.641053
Si Si5 0.325367 0.165305 0.813862
Si Si6 0.272358 0.456134 0.352941
Si Si7 0.136571 0.612476 0.761301
Si Si8 0.534440 0.409552 0.658517
O O1 0.787601 0.302248 0.708653
O O2 0.039993 0.004481 0.568849
O O3 0.653746 0.595702 0.001735
O O4 0.838150 0.780481 0.648724
O O5 0.826678 0.617470 0.531195
O O6 0.500000 0.000000 0.000000
O O7 0.797944 0.915884 0.878753
O O8 0.531379 0.228573 0.023045
O O9 0.530276 0.877664 0.303075
O O10 0.421132 0.667047 0.672573
O O11 0.307367 0.805784 0.594981
O O12 0.109793 0.142976 0.924469
O O13 0.187163 0.422400 0.863956
O O14 0.500000 0.000000 0.500000
O O15 0.191755 0.499856 0.597925
O O16 0.308355 0.642507 0.483863
#
# Coordination Sequence:
#
# PCOD9033813 Si02
#       8
#     1   2   2   2   2   2   2   2
#     4  12  30  44  76 104 138 196 246 298 358 438
#     4  10  24  46  74  97 145 197 237 293 362 421
#     4  11  25  52  72 104 145 190 248 301 365 429
#     4  10  23  43  68 104 142 188 236 294 363 431
#     4  11  23  43  70 102 142 181 232 309 365 416
#     4  11  27  46  72 106 148 191 237 299 356 433
#     4  11  25  40  72 111 142 185 242 293 362 440
#     4  10  22  44  70 100 144 192 234 298 360 426
#
# _framework density 27.837662000000002
#
# number of rings (size 3 to 8) (size 9 to 14) (size 15 to 20)
#    0.000    1.333    2.667    0.800    9.333    2.133 
#    0.000    0.000    0.000    0.000    0.000    0.933 
#    0.000    0.000    0.000    0.000    0.000    0.000 
#
# Total GULP energy -83880.884576 kJ/mol
# GULP energy per Si atom -5592.058972 kJ/mol
# Density = 2.777430 g / cm^3
# Si number density = 27.837662 Si / 1000 Ang^3
#
#
#
# Elastic Constant Matrix: (Units=GPa)
#
#
# Indices 1 2 3 4 5 6 
#
# 1 229.2476 56.6816 63.3757 16.4187 0.3141 48.5129
# 2 56.6816 141.0549 50.6234 32.8524 4.6154 1.8256
# 3 63.3757 50.6234 125.6431 25.6665 13.3382 2.7826
# 4 16.4187 32.8524 25.6665 41.7048 8.3887 9.1642
# 5 0.3141 4.6154 13.3382 8.3887 49.4239 -4.2905
# 6 48.5129 1.8256 2.7826 9.1642 -4.2905 61.3857
#
#
#
# Elastic Compliance Matrix: (Units=1/GPa)
#
#
# Indices 1 2 3 4 5 6 
#
# 1 0.006631 -0.002026 -0.002803 0.001854 0.000127 -0.005321
# 2 -0.002026 0.010059 -0.001806 -0.006739 0.000918 0.002454
# 3 -0.002803 -0.001806 0.011162 -0.004473 -0.001867 0.002300
# 4 0.001854 -0.006739 -0.004473 0.033605 -0.004434 -0.006389
# 5 0.000127 0.000918 -0.001867 -0.004434 0.021588 0.002128
# 6 -0.005321 0.002454 0.002300 -0.006389 0.002128 0.021421
#
#
# Mechanical properties :
#
#
# Convention : Reuss Voigt Hill
#
# Bulk Modulus (GPa) = 68.57819 93.03411 80.80615
# Shear Modulus (GPa) = 40.78434 52.18720 46.48577
#
# Velocity S-wave (km/s) = 3.83179 4.33448 4.09086
# Velocity P-wave (km/s) = 6.65322 7.65134 7.16967
#
# Compressibility (1/GPa) = 0.01458190
#
# Stress axis : x y z
#
# Youngs Moduli (GPa) = 150.81006 99.40863 89.59274
#
# Poissons Ratio (x) = 0.20137 0.25111
# Poissons Ratio (y) = 0.30550 0.16185
# Poissons Ratio (z) = 0.42270 0.17958
#
# Static dielectric constant tensor:
#      x y z
#    x 1.949740 -0.418570 0.365020 
#    y -0.418570 1.557670 0.427710 
#    z 0.365020 0.427710 1.823240 
# 
# From -- ./inp_files/469322.got.cif
#   From: 2010.05.17/outbox.cif.g08.bks.cpg/sg2_235_cif.got.tgz:469322.got - 2010.06.03 11:33:40.
