data_PCOD9033443
_publ_section_title
;
Structure prediction by ZEFSAII (Michael W. Deem and Ramdas Pophale) SiO2 
 PCOD9033443
Probable space group: P -1
;
_chemical_formula_sum "Si O2"
_cell_formula_units_Z 14
_cell_length_a 7.634090
_cell_length_b 14.237671
_cell_length_c 5.195811
_cell_angle_alpha 110.791679
_cell_angle_beta 82.605479
_cell_angle_gamma 81.611112
_cell_volume 512.272762
_symmetry_space_group_name_H-M "P -1"
_symmetry_group_IT_number 2
_symmetry_cell_setting 'triclinic'
loop_
_space_group_symop_operation_xyz
x,y,z
-x,-y,-z
loop_
_atom_site_type_symbol
_atom_site_label
_atom_site_fract_x
_atom_site_fract_y
_atom_site_fract_z
Si Si1 0.036153 0.161538 0.083385
Si Si2 0.843851 0.455837 0.737719
Si Si3 0.351778 0.585994 0.749201
Si Si4 0.356951 0.816780 0.001891
Si Si5 0.331221 0.162521 0.401423
Si Si6 0.793559 0.011459 0.447130
Si Si7 0.157889 0.332795 0.890502
O O1 0.160869 0.049698 0.886909
O O2 0.065956 0.245451 0.948873
O O3 0.128764 0.191386 0.348980
O O4 0.827832 0.157333 0.107464
O O5 0.803553 0.404303 0.430426
O O6 0.036448 0.400496 0.761705
O O7 0.710962 0.444541 0.989653
O O8 0.820064 0.578376 0.828555
O O9 0.500000 0.500000 0.500000
O O10 0.404638 0.694601 0.883679
O O11 0.518626 0.852588 0.859769
O O12 0.304428 0.874760 0.339429
O O13 0.323956 0.060048 0.456259
O O14 0.337893 0.262656 0.669122
O O15 0.000000 0.000000 0.500000
#
# Coordination Sequence:
#
# PCOD9033443 Si02
#       7
#     2   2   2   2   2   2   2
#     4  10  22  44  68 101 135 182 232 289 360 427
#     4  11  25  44  71  99 146 196 242 295 365 420
#     4  12  26  45  67 108 145 191 244 299 357 429
#     4  11  23  44  67 100 141 179 238 296 356 424
#     4  11  23  42  70 101 134 184 232 294 357 430
#     4   9  22  44  66 100 139 175 235 287 360 430
#     4  10  23  41  69  99 140 185 240 292 356 432
#
# _framework density 27.329193
#
# number of rings (size 3 to 8) (size 9 to 14) (size 15 to 20)
#    0.000    1.429    1.429    2.571    4.000    4.000 
#    5.143    0.000    0.000    0.000    0.000    0.000 
#    0.000    0.000    0.000    0.000    0.000    0.000 
#
# Total GULP energy -78454.556894 kJ/mol
# GULP energy per Si atom -5603.896921 kJ/mol
# Density = 2.726699 g / cm^3
# Si number density = 27.329193 Si / 1000 Ang^3
#
#
#
# Elastic Constant Matrix: (Units=GPa)
#
#
# Indices 1 2 3 4 5 6 
#
# 1 96.1857 39.5554 25.4677 1.2895 -1.2817 -6.1440
# 2 39.5554 146.6476 67.6495 26.6534 -15.0580 16.5373
# 3 25.4677 67.6495 170.7502 34.6250 -12.1394 5.3454
# 4 1.2895 26.6534 34.6250 68.4403 0.1245 -10.0629
# 5 -1.2817 -15.0580 -12.1394 0.1245 55.6254 0.3585
# 6 -6.1440 16.5373 5.3454 -10.0629 0.3585 40.0847
#
#
#
# Elastic Compliance Matrix: (Units=1/GPa)
#
#
# Indices 1 2 3 4 5 6 
#
# 1 0.012515 -0.003947 -0.001007 0.002445 -0.001033 0.004304
# 2 -0.003947 0.010560 -0.002536 -0.003574 0.002258 -0.005541
# 3 -0.001007 -0.002536 0.007726 -0.003038 0.000989 -0.000910
# 4 0.002445 -0.003574 -0.003038 0.018514 -0.001660 0.006917
# 5 -0.001033 0.002258 0.000989 -0.001660 0.018796 -0.001807
# 6 0.004304 -0.005541 -0.000910 0.006917 -0.001807 0.029767
#
#
# Mechanical properties :
#
#
# Convention : Reuss Voigt Hill
#
# Bulk Modulus (GPa) = 63.20954 75.43651 69.32303
# Shear Modulus (GPa) = 42.32574 51.55747 46.94161
#
# Velocity S-wave (km/s) = 3.93967 4.34814 4.14893
# Velocity P-wave (km/s) = 6.62373 7.27126 6.95504
#
# Compressibility (1/GPa) = 0.01582040
#
# Stress axis : x y z
#
# Youngs Moduli (GPa) = 79.90604 94.69769 129.42702
#
# Poissons Ratio (x) = 0.37377 0.13032
# Poissons Ratio (y) = 0.31539 0.32828
# Poissons Ratio (z) = 0.08046 0.24019
#
# Static dielectric constant tensor:
#      x y z
#    x 2.211770 -0.047540 0.009630 
#    y -0.047540 2.128450 0.013550 
#    z 0.009630 0.013550 2.072320 
# 
# From -- ./inp_files/40165.got.cif
#   From: 2010.05.17/outbox.cif.g08.bks.cpg/sg2_21_cif.got.tgz:40165.got - 2010.06.03 11:33:40.
