data_PCOD9033867
_publ_section_title
;
Structure prediction by ZEFSAII (Michael W. Deem and Ramdas Pophale) SiO2 
 PCOD9033867
Probable space group: P -1
;
_chemical_formula_sum "Si O2"
_cell_formula_units_Z 9
_cell_length_a 9.329065
_cell_length_b 8.102469
_cell_length_c 7.735257
_cell_angle_alpha 55.425942
_cell_angle_beta 133.463753
_cell_angle_gamma 106.587082
_cell_volume 344.006290
_symmetry_space_group_name_H-M "P -1"
_symmetry_group_IT_number 2
_symmetry_cell_setting 'triclinic'
loop_
_space_group_symop_operation_xyz
x,y,z
-x,-y,-z
loop_
_atom_site_type_symbol
_atom_site_label
_atom_site_fract_x
_atom_site_fract_y
_atom_site_fract_z
Si Si1 0.992992 0.065265 0.709357
Si Si2 0.864928 0.624496 0.164060
Si Si3 0.893086 0.703097 0.657110
Si Si4 0.500000 0.500000 0.500000
Si Si5 0.560764 0.220473 0.377338
O O1 0.761346 0.176323 0.456346
O O2 0.090649 0.147941 0.909237
O O3 0.500000 0.000000 0.500000
O O4 0.982494 0.834062 0.798476
O O5 0.884299 0.855690 0.393835
O O6 0.939594 0.489862 0.140120
O O7 0.627376 0.653880 0.956465
O O8 0.680224 0.637058 0.545615
O O9 0.000000 0.500000 0.500000
O O10 0.588850 0.351304 0.493852
#
# Coordination Sequence:
#
# PCOD9033867 Si02
#       5
#     2   2   2   1   2
#     4  10  22  47  70 103 141 191 240 291 355 431
#     4  10  24  46  73 104 141 191 241 294 352 434
#     4  10  22  44  70 104 141 187 238 294 354 426
#     4  12  24  44  70 112 144 184 240 300 362 422
#     4  12  26  45  73 107 148 186 236 300 365 419
#
# _framework density 26.162313000000001
#
# number of rings (size 3 to 8) (size 9 to 14) (size 15 to 20)
#    0.000    1.333    4.444    0.000    0.000    7.111 
#    0.000    5.556    0.000    0.000    0.000    0.000 
#    0.000    0.000    0.000    0.000    0.000    0.000 
#
# Total GULP energy -50133.389945 kJ/mol
# GULP energy per Si atom -5570.376661 kJ/mol
# Density = 2.610277 g / cm^3
# Si number density = 26.162313 Si / 1000 Ang^3
#
#
#
# Elastic Constant Matrix: (Units=GPa)
#
#
# Indices 1 2 3 4 5 6 
#
# 1 156.0320 64.5359 41.5442 16.2137 20.6048 19.2709
# 2 64.5359 272.0560 40.6767 44.1803 -11.1464 -0.7708
# 3 41.5442 40.6767 97.3687 4.5124 15.8487 2.3261
# 4 16.2137 44.1803 4.5124 42.2835 -2.8084 -6.4033
# 5 20.6048 -11.1464 15.8487 -2.8084 45.7361 18.7001
# 6 19.2709 -0.7708 2.3261 -6.4033 18.7001 74.1399
#
#
#
# Elastic Compliance Matrix: (Units=1/GPa)
#
#
# Indices 1 2 3 4 5 6 
#
# 1 0.008405 -0.001447 -0.002406 -0.001879 -0.002772 -0.001587
# 2 -0.001447 0.005101 -0.001685 -0.004513 0.002413 -0.000516
# 3 -0.002406 -0.001685 0.012588 0.001271 -0.004173 0.001375
# 4 -0.001879 -0.004513 0.001271 0.029393 -0.000102 0.002966
# 5 -0.002772 0.002413 -0.004173 -0.000102 0.027637 -0.006103
# 6 -0.001587 -0.000516 0.001375 0.002966 -0.006103 0.015648
#
#
# Mechanical properties :
#
#
# Convention : Reuss Voigt Hill
#
# Bulk Modulus (GPa) = 66.58052 90.99670 78.78861
# Shear Modulus (GPa) = 43.53372 57.67856 50.60614
#
# Velocity S-wave (km/s) = 4.08362 4.70046 4.40286
# Velocity P-wave (km/s) = 6.90934 8.01974 7.48515
#
# Compressibility (1/GPa) = 0.01501941
#
# Stress axis : x y z
#
# Youngs Moduli (GPa) = 118.97190 196.02962 79.44064
#
# Poissons Ratio (x) = 0.28369 0.19109
# Poissons Ratio (y) = 0.17218 0.13385
# Poissons Ratio (z) = 0.28619 0.33029
#
# Static dielectric constant tensor:
#      x y z
#    x 2.095490 0.023510 -0.131490 
#    y 0.023510 2.125830 -0.073090 
#    z -0.131490 -0.073090 2.103840 
# 
# From -- ./inp_files/149731.got.cif
#   From: 2010.05.17/outbox.cif.g08.bks.cpg/sg2_75_cif.got.tgz:149731.got - 2010.06.03 11:33:40.
