data_PCOD9033608
_publ_section_title
;
Structure prediction by ZEFSAII (Michael W. Deem and Ramdas Pophale) SiO2 
 PCOD9033608
Probable space group: P -1
;
_chemical_formula_sum "Si O2"
_cell_formula_units_Z 16
_cell_length_a 16.458812
_cell_length_b 14.840038
_cell_length_c 10.885863
_cell_angle_alpha 55.838669
_cell_angle_beta 36.303468
_cell_angle_gamma 30.285823
_cell_volume 708.951597
_symmetry_space_group_name_H-M "P -1"
_symmetry_group_IT_number 2
_symmetry_cell_setting 'triclinic'
loop_
_space_group_symop_operation_xyz
x,y,z
-x,-y,-z
loop_
_atom_site_type_symbol
_atom_site_label
_atom_site_fract_x
_atom_site_fract_y
_atom_site_fract_z
Si Si1 0.363315 0.136728 0.870268
Si Si2 0.408853 0.350563 0.642540
Si Si3 0.063319 0.913771 0.855053
Si Si4 0.821615 0.284340 0.493827
Si Si5 0.100914 0.230743 0.367943
Si Si6 0.183565 0.477728 0.300276
Si Si7 0.268016 0.970467 0.010159
Si Si8 0.692326 0.481219 0.104414
O O1 0.324360 0.285677 0.758216
O O2 0.292920 0.086706 0.898834
O O3 0.655851 0.935845 0.712195
O O4 0.203874 0.219728 0.126238
O O5 0.713241 0.158698 0.413600
O O6 0.289687 0.526332 0.569461
O O7 0.327006 0.428051 0.823816
O O8 0.196041 0.707384 0.844426
O O9 0.799710 0.058651 0.001642
O O10 0.000000 0.000000 0.000000
O O11 0.586132 0.361532 0.726369
O O12 0.974992 0.203924 0.492542
O O13 0.032082 0.102487 0.283493
O O14 0.873831 0.435604 0.563275
O O15 0.000000 0.500000 0.500000
O O16 0.460848 0.249297 0.110226
O O17 0.136151 0.591719 0.159620
#
# Coordination Sequence:
#
# PCOD9033608 Si02
#       8
#     2   2   2   2   2   2   2   2
#     4  10  23  43  70  95 133 185 220 277 329 401
#     4  11  22  44  72  98 132 178 226 275 336 401
#     4  11  25  45  69 100 135 174 224 283 338 395
#     4  10  22  44  68  99 130 175 231 275 325 410
#     4  10  23  42  63  96 138 170 233 264 333 393
#     4  12  26  43  64  97 140 178 220 283 333 390
#     4  11  23  45  67  98 138 173 228 271 332 404
#     4  11  24  45  69  96 136 180 223 281 334 395
#
# _framework density 22.568538
#
# number of rings (size 3 to 8) (size 9 to 14) (size 15 to 20)
#    0.000    1.250    3.750    1.500    8.750    4.000 
#    2.250    1.250    0.000    0.000    0.000    0.000 
#    0.000    0.000    0.000    0.000    0.000    0.000 
#
# Total GULP energy -89322.150712 kJ/mol
# GULP energy per Si atom -5582.634420 kJ/mol
# Density = 2.251717 g / cm^3
# Si number density = 22.568538 Si / 1000 Ang^3
#
#
#
# Elastic Constant Matrix: (Units=GPa)
#
#
# Indices 1 2 3 4 5 6 
#
# 1 100.8038 -9.8884 2.3873 -5.5400 -5.8421 14.6434
# 2 -9.8884 40.1448 20.8087 -0.5099 2.2758 5.0246
# 3 2.3873 20.8087 73.1400 -2.3499 -12.2126 -3.9295
# 4 -5.5400 -0.5099 -2.3499 21.2866 3.5730 -7.7183
# 5 -5.8421 2.2758 -12.2126 3.5730 32.9361 15.1373
# 6 14.6434 5.0246 -3.9295 -7.7183 15.1373 31.2008
#
#
#
# Elastic Compliance Matrix: (Units=1/GPa)
#
#
# Indices 1 2 3 4 5 6 
#
# 1 0.012094 0.004492 -0.001237 -0.001478 0.006071 -0.009866
# 2 0.004492 0.032327 -0.010036 -0.002139 -0.000953 -0.008645
# 3 -0.001237 -0.010036 0.017719 0.000965 0.006171 0.001673
# 4 -0.001478 -0.002139 0.000965 0.058124 -0.016992 0.023782
# 5 0.006071 -0.000953 0.006171 -0.016992 0.049483 -0.030129
# 6 -0.009866 -0.008645 0.001673 0.023782 -0.030129 0.058784
#
#
# Mechanical properties :
#
#
# Convention : Reuss Voigt Hill
#
# Bulk Modulus (GPa) = 20.58504 26.74487 23.66496
# Shear Modulus (GPa) = 19.35831 30.47009 24.91420
#
# Velocity S-wave (km/s) = 2.93193 3.67838 3.32616
# Velocity P-wave (km/s) = 4.53900 5.46963 5.02590
#
# Compressibility (1/GPa) = 0.04857897
#
# Stress axis : x y z
#
# Youngs Moduli (GPa) = 82.68530 30.93359 56.43533
#
# Poissons Ratio (x) = -0.13895 0.06978
# Poissons Ratio (y) = -0.37141 0.56640
# Poissons Ratio (z) = 0.10224 0.31046
#
# Static dielectric constant tensor:
#      x y z
#    x 1.747150 -0.090850 -0.056110 
#    y -0.090850 1.867190 -0.021320 
#    z -0.056110 -0.021320 1.784780 
# 
# From -- ./inp_files/188642.got.cif
#   From: 2010.05.17/outbox.cif.g08.bks.cpg/sg2_95_cif.got.tgz:188642.got - 2010.06.03 11:33:40.
