data_PCOD9033467
_publ_section_title
;
Structure prediction by ZEFSAII (Michael W. Deem and Ramdas Pophale) SiO2 
 PCOD9033467
Probable space group: P -1
;
_chemical_formula_sum "Si O2"
_cell_formula_units_Z 14
_cell_length_a 5.972148
_cell_length_b 5.760446
_cell_length_c 21.117274
_cell_angle_alpha 122.530159
_cell_angle_beta 68.511130
_cell_angle_gamma 103.073703
_cell_volume 569.531449
_symmetry_space_group_name_H-M "P -1"
_symmetry_group_IT_number 2
_symmetry_cell_setting 'triclinic'
loop_
_space_group_symop_operation_xyz
x,y,z
-x,-y,-z
loop_
_atom_site_type_symbol
_atom_site_label
_atom_site_fract_x
_atom_site_fract_y
_atom_site_fract_z
Si Si1 0.917676 0.162778 0.124445
Si Si2 0.753111 0.642648 0.519870
Si Si3 0.208411 0.299249 0.615999
Si Si4 0.358810 0.227153 0.003788
Si Si5 0.400956 0.352859 0.727773
Si Si6 0.772137 0.032616 0.684795
Si Si7 0.015984 0.899597 0.753837
O O1 0.729752 0.373156 0.202480
O O2 0.032551 0.053024 0.160848
O O3 0.770709 0.941069 0.065018
O O4 0.131300 0.307605 0.082787
O O5 0.500000 0.500000 0.500000
O O6 0.809814 0.784130 0.467077
O O7 0.665587 0.819935 0.614012
O O8 0.000000 0.500000 0.500000
O O9 0.435557 0.312827 0.642381
O O10 0.103262 0.600948 0.679404
O O11 0.040675 0.078896 0.638080
O O12 0.500000 0.500000 0.000000
O O13 0.500000 0.000000 0.000000
O O14 0.650488 0.321405 0.732031
O O15 0.227515 0.117381 0.743328
O O16 0.781704 0.944722 0.742403
#
# Coordination Sequence:
#
# PCOD9033467 Si02
#       7
#     2   2   2   2   2   2   2
#     4  10  26  49  76 111 157 195 255 322 389 482
#     4  12  26  44  74  99 146 206 262 330 405 466
#     4  10  23  43  64 102 141 191 255 318 385 461
#     4  11  28  50  84 118 157 205 262 317 402 491
#     4  10  24  42  70 105 145 197 248 321 387 470
#     4  11  24  42  72 103 145 193 261 316 395 473
#     4  10  22  44  68 102 148 189 250 309 389 462
#
# _framework density 24.581613000000001
#
# number of rings (size 3 to 8) (size 9 to 14) (size 15 to 20)
#    0.000    1.429    1.429    1.286    8.000    8.571 
#    0.000    0.000    0.000    0.000    0.000    0.000 
#    0.000    0.000    0.000    0.000    0.000    0.000 
#
# Total GULP energy -78086.292349 kJ/mol
# GULP energy per Si atom -5577.592311 kJ/mol
# Density = 2.452566 g / cm^3
# Si number density = 24.581613 Si / 1000 Ang^3
#
#
#
# Elastic Constant Matrix: (Units=GPa)
#
#
# Indices 1 2 3 4 5 6 
#
# 1 113.8820 44.4557 60.1856 -16.0169 19.2894 -25.0917
# 2 44.4557 112.0291 43.1290 -24.7276 20.5031 3.7498
# 3 60.1856 43.1290 116.0094 -34.0702 31.9979 -13.4760
# 4 -16.0169 -24.7276 -34.0702 35.5992 -11.2103 2.3524
# 5 19.2894 20.5031 31.9979 -11.2103 43.0297 -7.8569
# 6 -25.0917 3.7498 -13.4760 2.3524 -7.8569 55.2833
#
#
#
# Elastic Compliance Matrix: (Units=1/GPa)
#
#
# Indices 1 2 3 4 5 6 
#
# 1 0.014461 -0.004188 -0.006173 -0.002533 0.000450 0.005514
# 2 -0.004188 0.012703 -0.000427 0.005824 -0.002987 -0.003539
# 3 -0.006173 -0.000427 0.017159 0.011184 -0.006884 -0.000044
# 4 -0.002533 0.005824 0.011184 0.042016 0.000903 -0.000478
# 5 0.000450 -0.002987 -0.006884 0.000903 0.030364 0.003006
# 6 0.005514 -0.003539 -0.000044 -0.000478 0.003006 0.021268
#
#
# Mechanical properties :
#
#
# Convention : Reuss Voigt Hill
#
# Bulk Modulus (GPa) = 43.95962 70.82901 57.39432
# Shear Modulus (GPa) = 29.91715 39.72579 34.82147
#
# Velocity S-wave (km/s) = 3.49241 4.02441 3.76781
# Velocity P-wave (km/s) = 5.84676 7.10428 6.50597
#
# Compressibility (1/GPa) = 0.02274815
#
# Stress axis : x y z
#
# Youngs Moduli (GPa) = 69.15358 78.72111 58.27830
#
# Poissons Ratio (x) = 0.32968 0.35973
# Poissons Ratio (y) = 0.28962 0.02486
# Poissons Ratio (z) = 0.42686 0.03358
#
# Static dielectric constant tensor:
#      x y z
#    x 2.089490 0.017610 -0.021040 
#    y 0.017610 2.075080 -0.031750 
#    z -0.021040 -0.031750 1.258080 
# 
# From -- ./inp_files/7388.got.cif
#   From: 2010.05.17/outbox.cif.g08.bks.cpg/sg2_4_cif.got.tgz:7388.got - 2010.06.03 11:33:40.
