data_PCOD9033833
_publ_section_title
;
Structure prediction by ZEFSAII (Michael W. Deem and Ramdas Pophale) SiO2 
 PCOD9033833
Probable space group: P -1
;
_chemical_formula_sum "Si O2"
_cell_formula_units_Z 15
_cell_length_a 12.276610
_cell_length_b 8.038850
_cell_length_c 13.135537
_cell_angle_alpha 85.489637
_cell_angle_beta 144.332655
_cell_angle_gamma 75.184078
_cell_volume 629.404171
_symmetry_space_group_name_H-M "P -1"
_symmetry_group_IT_number 2
_symmetry_cell_setting 'triclinic'
loop_
_space_group_symop_operation_xyz
x,y,z
-x,-y,-z
loop_
_atom_site_type_symbol
_atom_site_label
_atom_site_fract_x
_atom_site_fract_y
_atom_site_fract_z
Si Si1 0.344741 0.844576 0.056481
Si Si2 0.713955 0.745824 0.022131
Si Si3 0.686673 0.200810 0.740356
Si Si4 0.213717 0.594473 0.365019
Si Si5 0.956061 0.122736 0.357433
Si Si6 0.601913 0.185759 0.383386
Si Si7 0.500000 0.000000 0.500000
Si Si8 0.764820 0.552651 0.276078
O O1 0.246485 0.832122 0.089635
O O2 0.578176 0.642876 0.216417
O O3 0.181866 0.899421 0.834805
O O4 0.378819 0.025322 0.082797
O O5 0.678713 0.715794 0.113591
O O6 0.979170 0.623961 0.209182
O O7 0.579367 0.691095 0.847632
O O8 0.416168 0.364186 0.525415
O O9 0.790907 0.298687 0.749031
O O10 0.702122 0.014559 0.707749
O O11 0.283258 0.701430 0.494704
O O12 0.817042 0.352244 0.272499
O O13 0.000000 0.000000 0.500000
O O14 0.200829 0.028513 0.500471
O O15 0.491284 0.141814 0.394011
O O16 0.000000 0.500000 0.500000
#
# Coordination Sequence:
#
# PCOD9033833 Si02
#       8
#     2   2   2   2   2   2   1   2
#     4  12  24  44  72 101 139 185 233 283 349 413
#     4  12  24  44  71 103 139 182 232 285 342 418
#     4  10  23  44  73  99 142 181 231 285 349 408
#     4  10  24  45  69 102 142 184 224 290 343 412
#     4  12  27  46  70 103 141 185 232 290 345 411
#     4  11  24  44  71 101 141 182 230 281 349 407
#     4  10  22  44  70 102 136 180 228 288 344 406
#     4  12  27  44  70 101 141 182 234 288 344 414
#
# _framework density 23.832063999999999
#
# number of rings (size 3 to 8) (size 9 to 14) (size 15 to 20)
#    0.000    0.800    2.667    4.000    5.600    1.600 
#    0.000    6.000    0.000    0.000    0.000    0.000 
#    0.000    0.000    0.000    0.000    0.000    0.000 
#
# Total GULP energy -83783.729043 kJ/mol
# GULP energy per Si atom -5585.581936 kJ/mol
# Density = 2.377782 g / cm^3
# Si number density = 23.832064 Si / 1000 Ang^3
#
#
#
# Elastic Constant Matrix: (Units=GPa)
#
#
# Indices 1 2 3 4 5 6 
#
# 1 68.6760 5.6365 38.1655 6.9662 -21.6121 -0.1756
# 2 5.6365 23.0294 7.9348 -5.2675 -1.6921 -0.0056
# 3 38.1655 7.9348 126.3918 23.5060 -14.1290 -4.6418
# 4 6.9662 -5.2675 23.5060 33.5139 -10.9647 -5.3891
# 5 -21.6121 -1.6921 -14.1290 -10.9647 50.4644 1.4011
# 6 -0.1756 -0.0056 -4.6418 -5.3891 1.4011 18.5045
#
#
#
# Elastic Compliance Matrix: (Units=1/GPa)
#
#
# Indices 1 2 3 4 5 6 
#
# 1 0.019861 -0.002136 -0.005371 0.001482 0.007288 -0.001280
# 2 -0.002136 0.048364 -0.004332 0.012127 0.002065 0.002283
# 3 -0.005371 -0.004332 0.011130 -0.007600 -0.000997 0.000602
# 4 0.001482 0.012127 -0.007600 0.040734 0.007503 0.009406
# 5 0.007288 0.002065 -0.000997 0.007503 0.024353 0.000161
# 6 -0.001280 0.002283 0.000602 0.009406 0.000161 0.056908
#
#
# Mechanical properties :
#
#
# Convention : Reuss Voigt Hill
#
# Bulk Modulus (GPa) = 17.96082 35.73011 26.84546
# Shear Modulus (GPa) = 20.52652 31.58724 26.05688
#
# Velocity S-wave (km/s) = 2.93797 3.64457 3.31018
# Velocity P-wave (km/s) = 4.36597 5.72149 5.08907
#
# Compressibility (1/GPa) = 0.05567676
#
# Stress axis : x y z
#
# Youngs Moduli (GPa) = 50.34927 20.67644 89.84907
#
# Poissons Ratio (x) = 0.04417 0.48259
# Poissons Ratio (y) = 0.10757 0.38920
# Poissons Ratio (z) = 0.27043 0.08956
#
# Static dielectric constant tensor:
#      x y z
#    x 1.882730 -0.048550 -0.029790 
#    y -0.048550 1.993500 0.022260 
#    z -0.029790 0.022260 1.956670 
# 
# From -- ./inp_files/417450.got.cif
#   From: 2010.05.17/outbox.cif.g08.bks.cpg/sg2_209_cif.got.tgz:417450.got - 2010.06.03 11:33:40.
