data_PCOD9033236
_publ_section_title
;
Structure prediction by ZEFSAII (Michael W. Deem and Ramdas Pophale) SiO2 
 PCOD9033236
Probable space group: P -1
;
_chemical_formula_sum "Si O2"
_cell_formula_units_Z 16
_cell_length_a 15.331686
_cell_length_b 9.099428
_cell_length_c 11.893921
_cell_angle_alpha 39.930036
_cell_angle_beta 109.945734
_cell_angle_gamma 130.640426
_cell_volume 764.275824
_symmetry_space_group_name_H-M "P -1"
_symmetry_group_IT_number 2
_symmetry_cell_setting 'triclinic'
loop_
_space_group_symop_operation_xyz
x,y,z
-x,-y,-z
loop_
_atom_site_type_symbol
_atom_site_label
_atom_site_fract_x
_atom_site_fract_y
_atom_site_fract_z
Si Si1 0.052184 0.785357 0.469674
Si Si2 0.197008 0.737092 0.387612
Si Si3 0.124601 0.411597 0.157031
Si Si4 0.375478 0.166129 0.616656
Si Si5 0.615407 0.020041 0.028285
Si Si6 0.630797 0.192393 0.385767
Si Si7 0.110900 0.730359 0.757549
Si Si8 0.381751 0.310940 0.979021
O O1 0.113248 0.793050 0.378542
O O2 0.081445 0.649635 0.660664
O O3 0.907374 0.591676 0.514955
O O4 0.114656 0.125479 0.319027
O O5 0.276848 0.741606 0.515621
O O6 0.282314 0.998100 0.182529
O O7 0.003973 0.313669 0.221485
O O8 0.250336 0.673012 0.122018
O O9 0.120817 0.525062 0.964164
O O10 0.500000 0.500000 0.500000
O O11 0.367568 0.011841 0.816528
O O12 0.378090 0.009103 0.599966
O O13 0.241636 0.069025 0.615414
O O14 0.500000 0.000000 0.000000
O O15 0.589164 0.768153 0.080201
O O16 0.500000 0.000000 0.500000
O O17 0.658770 0.491547 0.175725
O O18 0.500000 0.500000 0.000000
#
# Coordination Sequence:
#
# PCOD9033236 Si02
#       8
#     2   2   2   2   2   2   2   2
#     4  11  24  44  70  98 140 187 235 290 342 431
#     4  11  27  43  69 106 138 188 240 279 362 421
#     4  10  24  42  72  96 138 184 234 294 357 413
#     4  11  25  43  70 105 139 184 236 296 352 418
#     4  11  26  44  70 105 137 181 237 294 358 420
#     4  12  25  46  73 103 147 188 232 295 359 424
#     4  10  22  44  66  98 138 175 236 290 349 415
#     4  12  26  46  72 102 147 184 233 295 357 432
#
# _framework density 20.934850000000001
#
# number of rings (size 3 to 8) (size 9 to 14) (size 15 to 20)
#    0.000    1.000    2.500    2.625    7.000    5.000 
#    0.000    2.500    0.000    0.000    0.000    0.000 
#    0.000    0.000    0.000    0.000    0.000    0.000 
#
# Total GULP energy -89215.927549 kJ/mol
# GULP energy per Si atom -5575.995472 kJ/mol
# Density = 2.088720 g / cm^3
# Si number density = 20.934850 Si / 1000 Ang^3
#
#
#
# Elastic Constant Matrix: (Units=GPa)
#
#
# Indices 1 2 3 4 5 6 
#
# 1 97.8576 35.8559 27.3903 -8.3179 -11.3900 23.2297
# 2 35.8559 108.0210 17.7185 -4.8715 1.3007 28.7608
# 3 27.3903 17.7185 59.8042 -0.0756 3.2960 5.9750
# 4 -8.3179 -4.8715 -0.0756 37.4586 0.1820 -7.4652
# 5 -11.3900 1.3007 3.2960 0.1820 32.7500 -1.8616
# 6 23.2297 28.7608 5.9750 -7.4652 -1.8616 38.3651
#
#
#
# Elastic Compliance Matrix: (Units=1/GPa)
#
#
# Indices 1 2 3 4 5 6 
#
# 1 0.014892 -0.002472 -0.005828 0.001824 0.005534 -0.005633
# 2 -0.002472 0.012406 -0.001684 -0.000468 -0.001619 -0.007711
# 3 -0.005828 -0.001684 0.019977 -0.001203 -0.003892 0.001257
# 4 0.001824 -0.000468 -0.001203 0.028016 0.000899 0.004928
# 5 0.005534 -0.001619 -0.003892 0.000899 0.032924 0.000241
# 6 -0.005633 -0.007711 0.001257 0.004928 0.000241 0.036031
#
#
# Mechanical properties :
#
#
# Convention : Reuss Voigt Hill
#
# Bulk Modulus (GPa) = 36.62212 47.51248 42.06730
# Shear Modulus (GPa) = 28.84899 34.02929 31.43914
#
# Velocity S-wave (km/s) = 3.71622 4.03610 3.87946
# Velocity P-wave (km/s) = 5.99542 6.66820 6.34074
#
# Compressibility (1/GPa) = 0.02730590
#
# Stress axis : x y z
#
# Youngs Moduli (GPa) = 67.14898 80.60886 50.05766
#
# Poissons Ratio (x) = 0.19925 0.29175
# Poissons Ratio (y) = 0.16598 0.08432
# Poissons Ratio (z) = 0.39136 0.13578
#
# Static dielectric constant tensor:
#      x y z
#    x 1.925430 0.137730 -0.115200 
#    y 0.137730 1.900050 -0.109070 
#    z -0.115200 -0.109070 1.782540 
# 
# From -- ./inp_files/274260.got.cif
#   From: 2010.05.17/outbox.cif.g08.bks.cpg/sg2_138_cif.got.tgz:274260.got - 2010.06.03 11:33:40.
