data_PCOD9033233
_publ_section_title
;
Structure prediction by ZEFSAII (Michael W. Deem and Ramdas Pophale) SiO2 
 PCOD9033233
Probable space group: P -1
;
_chemical_formula_sum "Si O2"
_cell_formula_units_Z 14
_cell_length_a 8.817468
_cell_length_b 13.383239
_cell_length_c 12.153407
_cell_angle_alpha 147.625920
_cell_angle_beta 115.464216
_cell_angle_gamma 83.716435
_cell_volume 590.202007
_symmetry_space_group_name_H-M "P -1"
_symmetry_group_IT_number 2
_symmetry_cell_setting 'triclinic'
loop_
_space_group_symop_operation_xyz
x,y,z
-x,-y,-z
loop_
_atom_site_type_symbol
_atom_site_label
_atom_site_fract_x
_atom_site_fract_y
_atom_site_fract_z
Si Si1 0.292669 0.097473 0.979346
Si Si2 0.315391 0.916689 0.241832
Si Si3 0.741226 0.018098 0.397815
Si Si4 0.976636 0.802418 0.878507
Si Si5 0.294864 0.280058 0.703934
Si Si6 0.980466 0.549719 0.214154
Si Si7 0.254432 0.658597 0.603682
O O1 0.286249 0.058475 0.809715
O O2 0.234522 0.868814 0.808978
O O3 0.153256 0.186606 0.051071
O O4 0.516197 0.257639 0.238629
O O5 0.530353 0.964471 0.328278
O O6 0.325927 0.131332 0.490424
O O7 0.184926 0.707242 0.086029
O O8 0.184746 0.848519 0.028291
O O9 0.788587 0.870182 0.352617
O O10 0.899627 0.279288 0.686866
O O11 0.857296 0.561800 0.564808
O O12 0.000000 0.000000 0.000000
O O13 0.143514 0.348431 0.679407
O O14 0.500000 0.500000 0.000000
O O15 0.148129 0.576715 0.375426
#
# Coordination Sequence:
#
# PCOD9033233 Si02
#       7
#     2   2   2   2   2   2   2
#     4  10  22  44  66  98 136 176 224 272 327 403
#     4  11  25  47  65 100 140 170 230 281 331 402
#     4  11  24  45  72  97 136 184 220 277 340 389
#     4  11  25  41  68 102 137 176 219 274 338 396
#     4  12  25  47  70 100 135 175 230 280 336 401
#     4  10  23  45  68  99 132 178 225 272 340 397
#     4   9  21  42  68  93 135 171 221 267 329 397
#
# _framework density 23.720693000000001
#
# number of rings (size 3 to 8) (size 9 to 14) (size 15 to 20)
#    0.000    1.429    1.429    3.000    6.000    2.286 
#   15.429    0.000    0.000    0.000    0.000    0.000 
#    0.000    0.000    0.000    0.000    0.000    0.000 
#
# Total GULP energy -78258.181813 kJ/mol
# GULP energy per Si atom -5589.870129 kJ/mol
# Density = 2.366670 g / cm^3
# Si number density = 23.720693 Si / 1000 Ang^3
#
#
#
# Elastic Constant Matrix: (Units=GPa)
#
#
# Indices 1 2 3 4 5 6 
#
# 1 55.7749 0.3925 17.1088 0.7742 -11.3496 4.8326
# 2 0.3925 76.6323 11.4390 23.2327 -5.8859 -0.2992
# 3 17.1088 11.4390 146.5911 38.6982 4.8066 6.4585
# 4 0.7742 23.2327 38.6982 46.6610 -2.2029 0.8055
# 5 -11.3496 -5.8859 4.8066 -2.2029 32.4526 5.4623
# 6 4.8326 -0.2992 6.4585 0.8055 5.4623 34.2514
#
#
#
# Elastic Compliance Matrix: (Units=1/GPa)
#
#
# Indices 1 2 3 4 5 6 
#
# 1 0.021006 0.000198 -0.003320 0.002783 0.008701 -0.003789
# 2 0.000198 0.015642 0.000923 -0.008448 0.002234 -0.000223
# 3 -0.003320 0.000923 0.009473 -0.008384 -0.002855 -0.000657
# 4 0.002783 -0.008448 -0.008384 0.032685 0.002922 -0.000120
# 5 0.008701 0.002234 -0.002855 0.002922 0.035973 -0.006475
# 6 -0.003789 -0.000223 -0.000657 -0.000120 -0.006475 0.030888
#
#
# Mechanical properties :
#
#
# Convention : Reuss Voigt Hill
#
# Bulk Modulus (GPa) = 23.96724 37.43099 30.69912
# Shear Modulus (GPa) = 30.49256 39.34354 34.91805
#
# Velocity S-wave (km/s) = 3.58925 4.07703 3.84089
# Velocity P-wave (km/s) = 5.22521 6.16255 5.71314
#
# Compressibility (1/GPa) = 0.04172361
#
# Stress axis : x y z
#
# Youngs Moduli (GPa) = 47.60442 63.92889 105.56179
#
# Poissons Ratio (x) = -0.01265 0.35047
# Poissons Ratio (y) = -0.00942 -0.09743
# Poissons Ratio (z) = 0.15805 -0.05901
#
# Static dielectric constant tensor:
#      x y z
#    x 1.886510 0.063470 0.007180 
#    y 0.063470 1.924760 0.026540 
#    z 0.007180 0.026540 1.922510 
# 
# From -- ./inp_files/504766.got.cif
#   From: 2010.05.17/outbox.cif.g08.bks.cpg/sg2_253_cif.got.tgz:504766.got - 2010.06.03 11:33:40.
