data_PCOD9033866
_publ_section_title
;
Structure prediction by ZEFSAII (Michael W. Deem and Ramdas Pophale) SiO2 
 PCOD9033866
Probable space group: P -1
;
_chemical_formula_sum "Si O2"
_cell_formula_units_Z 12
_cell_length_a 4.870241
_cell_length_b 11.207546
_cell_length_c 14.677868
_cell_angle_alpha 141.586170
_cell_angle_beta 81.160928
_cell_angle_gamma 81.306984
_cell_volume 441.159998
_symmetry_space_group_name_H-M "P -1"
_symmetry_group_IT_number 2
_symmetry_cell_setting 'triclinic'
loop_
_space_group_symop_operation_xyz
x,y,z
-x,-y,-z
loop_
_atom_site_type_symbol
_atom_site_label
_atom_site_fract_x
_atom_site_fract_y
_atom_site_fract_z
Si Si1 0.819445 0.817976 0.628587
Si Si2 0.218865 0.591012 0.638704
Si Si3 0.590805 0.305168 0.124010
Si Si4 0.809892 0.815327 0.057620
Si Si5 0.318939 0.388182 0.827792
Si Si6 0.018642 0.901684 0.340308
O O1 0.837835 0.611910 0.449299
O O2 0.937267 0.734456 0.673976
O O3 0.470282 0.998053 0.767090
O O4 0.011024 0.921588 0.627269
O O5 0.500000 0.500000 0.500000
O O6 0.332744 0.693882 0.774566
O O7 0.558979 0.529634 0.218301
O O8 0.321871 0.256372 0.067456
O O9 0.911039 0.136935 0.960714
O O10 0.996098 0.606767 0.986673
O O11 0.634384 0.289716 0.811055
O O12 0.222619 0.198257 0.705923
O O13 0.000000 0.000000 0.500000
#
# Coordination Sequence:
#
# PCOD9033866 Si02
#       6
#     2   2   2   2   2   2
#     4  11  29  46  69 110 139 189 244 293 354 418
#     4  11  28  47  72 100 148 186 244 302 341 424
#     4  10  23  47  74 102 146 185 232 288 363 414
#     4  10  24  46  75 106 143 187 233 291 362 419
#     4  10  22  44  70 104 140 184 229 286 351 429
#     4  12  25  42  74 104 144 188 231 288 360 425
#
# _framework density 27.201014000000001
#
# number of rings (size 3 to 8) (size 9 to 14) (size 15 to 20)
#    1.000    0.333    1.667    1.500   11.667    2.667 
#    0.000    0.000    0.000    0.000    0.000    0.000 
#    0.000    0.000    0.000    0.000    0.000    0.000 
#
# Total GULP energy -67213.211003 kJ/mol
# GULP energy per Si atom -5601.100917 kJ/mol
# Density = 2.713910 g / cm^3
# Si number density = 27.201014 Si / 1000 Ang^3
#
#
#
# Elastic Constant Matrix: (Units=GPa)
#
#
# Indices 1 2 3 4 5 6 
#
# 1 140.4399 11.3105 23.6409 19.1232 12.1613 -13.8238
# 2 11.3105 103.8703 31.8526 13.8686 3.2482 -18.4361
# 3 23.6409 31.8526 106.2565 2.4038 5.6487 -8.5618
# 4 19.1232 13.8686 2.4038 37.3560 -6.6002 9.9892
# 5 12.1613 3.2482 5.6487 -6.6002 45.9632 0.2908
# 6 -13.8238 -18.4361 -8.5618 9.9892 0.2908 48.4565
#
#
#
# Elastic Compliance Matrix: (Units=1/GPa)
#
#
# Indices 1 2 3 4 5 6 
#
# 1 0.008877 0.001256 -0.001705 -0.006556 -0.003195 0.004080
# 2 0.001256 0.012570 -0.003304 -0.007035 -0.001863 0.006018
# 3 -0.001705 -0.003304 0.010764 0.001360 -0.000442 -0.000119
# 4 -0.006556 -0.007035 0.001360 0.037185 0.007480 -0.012017
# 5 -0.003195 -0.001863 -0.000442 0.007480 0.023884 -0.003384
# 6 0.004080 0.006018 -0.000119 -0.012017 -0.003384 0.026567
#
#
# Mechanical properties :
#
#
# Convention : Reuss Voigt Hill
#
# Bulk Modulus (GPa) = 40.47842 53.79719 47.13781
# Shear Modulus (GPa) = 36.87626 45.27265 41.07445
#
# Velocity S-wave (km/s) = 3.68597 4.08410 3.89013
# Velocity P-wave (km/s) = 5.74706 6.48540 6.12736
#
# Compressibility (1/GPa) = 0.02470452
#
# Stress axis : x y z
#
# Youngs Moduli (GPa) = 112.64606 79.55647 92.90160
#
# Poissons Ratio (x) = -0.09989 0.15836
# Poissons Ratio (y) = -0.14143 0.30697
# Poissons Ratio (z) = 0.19201 0.26288
#
# Static dielectric constant tensor:
#      x y z
#    x 2.109930 -0.026250 -0.034130 
#    y -0.026250 2.192230 0.027130 
#    z -0.034130 0.027130 2.148690 
# 
# From -- ./inp_files/481295.got.cif
#   From: 2010.05.17/outbox.cif.g08.bks.cpg/sg2_241_cif.got.tgz:481295.got - 2010.06.03 11:33:40.
