data_PCOD9033597
_publ_section_title
;
Structure prediction by ZEFSAII (Michael W. Deem and Ramdas Pophale) SiO2 
 PCOD9033597
Probable space group: P -1
;
_chemical_formula_sum "Si O2"
_cell_formula_units_Z 15
_cell_length_a 8.707169
_cell_length_b 12.477785
_cell_length_c 10.412472
_cell_angle_alpha 86.722970
_cell_angle_beta 126.820565
_cell_angle_gamma 55.082518
_cell_volume 588.591680
_symmetry_space_group_name_H-M "P -1"
_symmetry_group_IT_number 2
_symmetry_cell_setting 'triclinic'
loop_
_space_group_symop_operation_xyz
x,y,z
-x,-y,-z
loop_
_atom_site_type_symbol
_atom_site_label
_atom_site_fract_x
_atom_site_fract_y
_atom_site_fract_z
Si Si1 0.917586 0.298992 0.483080
Si Si2 0.700782 0.691765 0.183510
Si Si3 0.500000 0.000000 0.000000
Si Si4 0.886324 0.508110 0.806490
Si Si5 0.783556 0.185235 0.630802
Si Si6 0.784359 0.822168 0.914968
Si Si7 0.277756 0.020648 0.471570
Si Si8 0.670732 0.319133 0.850903
O O1 0.970788 0.191932 0.637581
O O2 0.579638 0.481294 0.293487
O O3 0.093888 0.330572 0.611548
O O4 0.044910 0.188715 0.427267
O O5 0.547889 0.849674 0.011925
O O6 0.474615 0.711004 0.135925
O O7 0.917201 0.532462 0.209387
O O8 0.624093 0.972453 0.918015
O O9 0.548163 0.662274 0.598123
O O10 0.974628 0.346156 0.871054
O O11 0.000000 0.500000 0.000000
O O12 0.857250 0.029333 0.655331
O O13 0.750256 0.233379 0.758290
O O14 0.013796 0.776161 0.931542
O O15 0.521236 0.874288 0.708160
O O16 0.500000 0.000000 0.500000
#
# Coordination Sequence:
#
# PCOD9033597 Si02
#       8
#     2   2   1   2   2   2   2   2
#     4  12  24  47  71 105 140 193 235 293 354 432
#     4  11  24  43  71 102 144 188 235 294 356 419
#     4  10  22  44  68  98 140 178 234 286 350 410
#     4  11  22  42  70 101 141 186 234 288 359 424
#     4  12  24  45  75 105 141 189 241 295 356 428
#     4  11  24  46  71 101 139 186 235 292 350 428
#     4  12  28  48  69 105 151 188 231 301 368 417
#     4  12  26  44  78 108 139 184 251 295 345 425
#
# _framework density 25.484560999999999
#
# number of rings (size 3 to 8) (size 9 to 14) (size 15 to 20)
#    0.000    0.533    5.333    3.600    1.867    0.533 
#    4.800    1.333    0.000    0.000    0.000    0.000 
#    0.000    0.000    0.000    0.000    0.000    0.000 
#
# Total GULP energy -83692.459223 kJ/mol
# GULP energy per Si atom -5579.497282 kJ/mol
# Density = 2.542656 g / cm^3
# Si number density = 25.484561 Si / 1000 Ang^3
#
#
#
# Elastic Constant Matrix: (Units=GPa)
#
#
# Indices 1 2 3 4 5 6 
#
# 1 136.7577 48.7599 -13.4586 3.8719 14.1173 -15.4284
# 2 48.7599 142.4280 27.0427 13.2877 6.2561 -21.6616
# 3 -13.4586 27.0427 71.2236 -7.9994 13.8300 -4.1674
# 4 3.8719 13.2877 -7.9994 37.0947 -0.1816 -3.8901
# 5 14.1173 6.2561 13.8300 -0.1816 35.7996 -6.1577
# 6 -15.4284 -21.6616 -4.1674 -3.8901 -6.1577 36.1142
#
#
#
# Elastic Compliance Matrix: (Units=1/GPa)
#
#
# Indices 1 2 3 4 5 6 
#
# 1 0.009758 -0.003861 0.004471 0.001489 -0.004593 0.001746
# 2 -0.003861 0.010197 -0.005294 -0.003977 0.002426 0.003841
# 3 0.004471 -0.005294 0.019110 0.005526 -0.008168 0.000142
# 4 0.001489 -0.003977 0.005526 0.029601 -0.001566 0.001810
# 5 -0.004593 0.002426 -0.008168 -0.001566 0.033162 0.004037
# 6 0.001746 0.003841 0.000142 0.001810 0.004037 0.031639
#
#
# Mechanical properties :
#
#
# Convention : Reuss Voigt Hill
#
# Bulk Modulus (GPa) = 33.67429 52.78861 43.23145
# Shear Modulus (GPa) = 32.73653 41.00603 36.87128
#
# Velocity S-wave (km/s) = 3.58797 4.01565 3.80782
# Velocity P-wave (km/s) = 5.51425 6.50073 6.02771
#
# Compressibility (1/GPa) = 0.02969624
#
# Stress axis : x y z
#
# Youngs Moduli (GPa) = 102.48251 98.07052 52.32773
#
# Poissons Ratio (x) = 0.37867 -0.23396
# Poissons Ratio (y) = 0.39570 0.27704
# Poissons Ratio (z) = -0.45821 0.51921
#
# Static dielectric constant tensor:
#      x y z
#    x 2.192360 -0.011370 -0.061300 
#    y -0.011370 2.177620 0.011910 
#    z -0.061300 0.011910 1.892530 
# 
# From -- ./inp_files/208318.got.cif
#   From: 2010.05.17/outbox.cif.g08.bks.cpg/sg2_105_cif.got.tgz:208318.got - 2010.06.03 11:33:40.
