data_PCOD9033627
_publ_section_title
;
Structure prediction by ZEFSAII (Michael W. Deem and Ramdas Pophale) SiO2 
 PCOD9033627
Probable space group: P -1
;
_chemical_formula_sum "Si O2"
_cell_formula_units_Z 14
_cell_length_a 9.887061
_cell_length_b 14.430370
_cell_length_c 13.108914
_cell_angle_alpha 146.318749
_cell_angle_beta 111.346877
_cell_angle_gamma 44.282948
_cell_volume 580.202260
_symmetry_space_group_name_H-M "P -1"
_symmetry_group_IT_number 2
_symmetry_cell_setting 'triclinic'
loop_
_space_group_symop_operation_xyz
x,y,z
-x,-y,-z
loop_
_atom_site_type_symbol
_atom_site_label
_atom_site_fract_x
_atom_site_fract_y
_atom_site_fract_z
Si Si1 0.994258 0.860304 0.627354
Si Si2 0.419476 0.934237 0.336938
Si Si3 0.659957 0.200701 0.421958
Si Si4 0.233273 0.752017 0.907436
Si Si5 0.319699 0.270777 0.266756
Si Si6 0.893994 0.497020 0.289716
Si Si7 0.952344 0.397622 0.973642
O O1 0.158109 0.872432 0.672022
O O2 0.175391 0.546569 0.418031
O O3 0.801173 0.974681 0.595765
O O4 0.797395 0.081246 0.862813
O O5 0.500000 0.000000 0.500000
O O6 0.294038 0.178747 0.447219
O O7 0.668242 0.613082 0.083994
O O8 0.489660 0.504802 0.696021
O O9 0.475846 0.232567 0.354945
O O10 0.851795 0.925903 0.291841
O O11 0.214074 0.585512 0.798870
O O12 0.000000 0.000000 0.000000
O O13 0.106925 0.330575 0.277730
O O14 0.500000 0.000000 0.000000
O O15 0.984264 0.416482 0.121313
O O16 0.000000 0.500000 0.000000
#
# Coordination Sequence:
#
# PCOD9033627 Si02
#       7
#     2   2   2   2   2   2   2
#     4  11  24  47  68 103 147 187 226 301 356 420
#     4   9  22  46  71  95 136 189 240 295 347 405
#     4  12  25  43  72 106 146 187 237 286 358 431
#     4  12  25  44  68 109 151 185 228 284 367 436
#     4  11  21  40  73 105 137 189 230 292 357 417
#     4  10  22  44  69 100 144 183 229 298 351 408
#     4  11  22  44  71 100 135 185 243 293 340 412
#
# _framework density 24.129517
#
# number of rings (size 3 to 8) (size 9 to 14) (size 15 to 20)
#    0.000    1.143    4.286    1.286    2.000    1.143 
#   10.286    0.714    0.000    0.000    0.000    0.000 
#    0.000    0.000    0.000    0.000    0.000    0.000 
#
# Total GULP energy -78048.361325 kJ/mol
# GULP energy per Si atom -5574.882952 kJ/mol
# Density = 2.407460 g / cm^3
# Si number density = 24.129517 Si / 1000 Ang^3
#
#
#
# Elastic Constant Matrix: (Units=GPa)
#
#
# Indices 1 2 3 4 5 6 
#
# 1 47.3225 24.9913 5.0767 2.4632 -2.1363 -10.2439
# 2 24.9913 68.0590 35.5972 22.8531 -17.6575 -13.3905
# 3 5.0767 35.5972 163.0884 29.7158 -11.8264 -2.8812
# 4 2.4632 22.8531 29.7158 50.9728 -6.9238 -8.6120
# 5 -2.1363 -17.6575 -11.8264 -6.9238 38.5668 6.2956
# 6 -10.2439 -13.3905 -2.8812 -8.6120 6.2956 35.1866
#
#
#
# Elastic Compliance Matrix: (Units=1/GPa)
#
#
# Indices 1 2 3 4 5 6 
#
# 1 0.028191 -0.012072 0.000855 0.003927 -0.003869 0.005337
# 2 -0.012072 0.026142 -0.003281 -0.007602 0.008474 0.002789
# 3 0.000855 -0.003281 0.007383 -0.003017 0.000466 -0.001217
# 4 0.003927 -0.007602 -0.003017 0.025266 -0.000346 0.004249
# 5 -0.003869 0.008474 0.000466 -0.000346 0.030223 -0.003356
# 6 0.005337 0.002789 -0.001217 0.004249 -0.003356 0.032576
#
#
# Mechanical properties :
#
#
# Convention : Reuss Voigt Hill
#
# Bulk Modulus (GPa) = 30.56139 45.53337 38.04738
# Shear Modulus (GPa) = 26.35964 39.13220 32.74592
#
# Velocity S-wave (km/s) = 3.30877 4.03147 3.68787
# Velocity P-wave (km/s) = 5.22401 6.37038 5.82546
#
# Compressibility (1/GPa) = 0.03272102
#
# Stress axis : x y z
#
# Youngs Moduli (GPa) = 35.47205 38.25265 135.44271
#
# Poissons Ratio (x) = 0.46178 -0.11587
# Poissons Ratio (y) = 0.42821 0.44443
# Poissons Ratio (z) = -0.03035 0.12552
#
# Static dielectric constant tensor:
#      x y z
#    x 2.265650 0.460000 0.969350 
#    y 0.460000 3.284520 2.116860 
#    z 0.969350 2.116860 6.147810 
# 
# From -- ./inp_files/505879.got.cif
#   From: 2010.05.17/outbox.cif.g08.bks.cpg/sg2_253_cif.got.tgz:505879.got - 2010.06.03 11:33:40.
