data_PCOD9033996
_publ_section_title
;
Structure prediction by ZEFSAII (Michael W. Deem and Ramdas Pophale) SiO2 
 PCOD9033996
Probable space group: P -1
;
_chemical_formula_sum "Si O2"
_cell_formula_units_Z 15
_cell_length_a 8.683027
_cell_length_b 16.807781
_cell_length_c 11.209409
_cell_angle_alpha 137.338821
_cell_angle_beta 42.804863
_cell_angle_gamma 138.805808
_cell_volume 667.900793
_symmetry_space_group_name_H-M "P -1"
_symmetry_group_IT_number 2
_symmetry_cell_setting 'triclinic'
loop_
_space_group_symop_operation_xyz
x,y,z
-x,-y,-z
loop_
_atom_site_type_symbol
_atom_site_label
_atom_site_fract_x
_atom_site_fract_y
_atom_site_fract_z
Si Si1 0.089975 0.370026 0.038731
Si Si2 0.000000 0.500000 0.000000
Si Si3 0.032736 0.902171 0.967118
Si Si4 0.363756 0.784399 0.693378
Si Si5 0.822286 0.870367 0.696324
Si Si6 0.666427 0.146251 0.618012
Si Si7 0.404945 0.651173 0.295451
Si Si8 0.541364 0.731114 0.943669
O O1 0.230787 0.505318 0.183766
O O2 0.844976 0.271332 0.144417
O O3 0.997013 0.404971 0.007005
O O4 0.301567 0.320722 0.843599
O O5 0.681564 0.416925 0.083106
O O6 0.788366 0.762864 0.922225
O O7 0.053080 0.977578 0.161944
O O8 0.285950 0.887266 0.787539
O O9 0.000000 0.000000 0.000000
O O10 0.642751 0.848831 0.662407
O O11 0.336062 0.674050 0.493013
O O12 0.045718 0.830326 0.505727
O O13 0.647545 0.780183 0.805410
O O14 0.644991 0.249420 0.652233
O O15 0.570353 0.177798 0.831365
O O16 0.500000 0.000000 0.500000
#
# Coordination Sequence:
#
# PCOD9033996 Si02
#       8
#     2   1   2   2   2   2   2   2
#     4  11  26  48  69 102 146 188 239 301 355 419
#     4  12  24  48  76 104 142 188 244 300 352 426
#     4  10  22  44  70  98 143 191 230 286 358 426
#     4  12  25  44  70 107 141 185 245 291 355 427
#     4  11  25  43  69 108 143 185 234 297 359 421
#     4  12  25  46  75 105 140 191 247 290 359 435
#     4  11  26  46  70 102 143 192 240 291 361 430
#     4  11  23  46  72 102 141 190 235 295 359 418
#
# _framework density 22.458424000000001
#
# number of rings (size 3 to 8) (size 9 to 14) (size 15 to 20)
#    0.000    0.800    4.000    3.200    5.600    0.000 
#    2.400    2.667    0.000    0.000    0.000    0.000 
#    0.000    0.000    0.000    0.000    0.000    0.000 
#
# Total GULP energy -83677.638890 kJ/mol
# GULP energy per Si atom -5578.509259 kJ/mol
# Density = 2.240731 g / cm^3
# Si number density = 22.458424 Si / 1000 Ang^3
#
#
#
# Elastic Constant Matrix: (Units=GPa)
#
#
# Indices 1 2 3 4 5 6 
#
# 1 141.2271 22.8454 46.6298 -4.7568 -33.1518 15.3845
# 2 22.8454 71.6628 -5.0146 -11.9661 -10.5980 -0.1541
# 3 46.6298 -5.0146 113.3447 -15.3839 -28.7818 -5.3391
# 4 -4.7568 -11.9661 -15.3839 27.6027 5.4518 -3.9940
# 5 -33.1518 -10.5980 -28.7818 5.4518 27.9736 -4.8316
# 6 15.3845 -0.1541 -5.3391 -3.9940 -4.8316 32.1579
#
#
#
# Elastic Compliance Matrix: (Units=1/GPa)
#
#
# Indices 1 2 3 4 5 6 
#
# 1 0.011076 -0.003151 -0.003309 -0.003688 0.008371 -0.005063
# 2 -0.003151 0.018142 0.005648 0.009616 0.007926 0.004917
# 3 -0.003309 0.005648 0.015447 0.008851 0.013652 0.007325
# 4 -0.003688 0.009616 0.008851 0.045812 0.001027 0.009124
# 5 0.008371 0.007926 0.013652 0.001027 0.063905 0.008029
# 6 -0.005063 0.004917 0.007325 0.009124 0.008029 0.037098
#
#
# Mechanical properties :
#
#
# Convention : Reuss Voigt Hill
#
# Bulk Modulus (GPa) = 23.23349 50.57287 36.90318
# Shear Modulus (GPa) = 24.10222 34.99842 29.55032
#
# Velocity S-wave (km/s) = 3.27952 3.95190 3.63130
# Velocity P-wave (km/s) = 4.97070 6.58716 5.83517
#
# Compressibility (1/GPa) = 0.04304132
#
# Stress axis : x y z
#
# Youngs Moduli (GPa) = 90.28868 55.11967 64.73813
#
# Poissons Ratio (x) = 0.17368 0.21423
# Poissons Ratio (y) = 0.28450 -0.36566
# Poissons Ratio (z) = 0.29878 -0.31134
#
# Static dielectric constant tensor:
#      x y z
#    x 1.858450 -0.001170 0.010870 
#    y -0.001170 1.869700 -0.000830 
#    z 0.010870 -0.000830 1.823460 
# 
# From -- ./inp_files/402272.got.cif
#   From: 2010.05.17/outbox.cif.g08.bks.cpg/sg2_202_cif.got.tgz:402272.got - 2010.06.03 11:33:40.
