data_PCOD9033396
_publ_section_title
;
Structure prediction by ZEFSAII (Michael W. Deem and Ramdas Pophale) SiO2 
 PCOD9033396
Probable space group: P -1
;
_chemical_formula_sum "Si O2"
_cell_formula_units_Z 16
_cell_length_a 11.665223
_cell_length_b 8.148144
_cell_length_c 9.189548
_cell_angle_alpha 95.937904
_cell_angle_beta 54.503540
_cell_angle_gamma 84.437798
_cell_volume 693.897647
_symmetry_space_group_name_H-M "P -1"
_symmetry_group_IT_number 2
_symmetry_cell_setting 'triclinic'
loop_
_space_group_symop_operation_xyz
x,y,z
-x,-y,-z
loop_
_atom_site_type_symbol
_atom_site_label
_atom_site_fract_x
_atom_site_fract_y
_atom_site_fract_z
Si Si1 0.276315 0.767346 0.683203
Si Si2 0.248859 0.338803 0.962582
Si Si3 0.580534 0.808625 0.454087
Si Si4 0.261819 0.724686 0.010475
Si Si5 0.006715 0.754420 0.415901
Si Si6 0.486959 0.820622 0.056259
Si Si7 0.941686 0.401191 0.322754
Si Si8 0.263386 0.008132 0.454274
O O1 0.449152 0.711314 0.543875
O O2 0.245674 0.819989 0.877813
O O3 0.192325 0.624975 0.677605
O O4 0.227051 0.922562 0.623172
O O5 0.308965 0.250888 0.761314
O O6 0.252290 0.534526 0.963559
O O7 0.360790 0.270011 0.002396
O O8 0.088811 0.323510 0.122831
O O9 0.659586 0.835825 0.547441
O O10 0.500000 0.000000 0.500000
O O11 0.411204 0.727786 0.981443
O O12 0.133973 0.788826 0.222425
O O13 0.060613 0.695416 0.531178
O O14 0.876002 0.911296 0.525003
O O15 0.952768 0.592155 0.371157
O O16 0.375064 0.865669 0.275982
O O17 0.500000 0.000000 0.000000
#
# Coordination Sequence:
#
# PCOD9033396 Si02
#       8
#     2   2   2   2   2   2   2   2
#     4  11  24  44  64 103 131 177 221 274 331 396
#     4  11  24  45  71  99 135 177 222 281 332 399
#     4  10  22  44  67  98 138 171 221 275 336 392
#     4  11  27  42  69 102 136 177 225 274 336 399
#     4  10  24  46  67  98 135 180 221 275 334 400
#     4  12  24  44  69  98 134 176 230 275 331 396
#     4  10  24  45  70  97 135 175 227 273 335 396
#     4  11  24  44  69  93 137 181 219 276 334 398
#
# _framework density 23.058154999999999
#
# number of rings (size 3 to 8) (size 9 to 14) (size 15 to 20)
#    0.000    1.250    2.500    2.625    5.250    5.000 
#    4.500    0.000    0.000    0.000    0.000    0.000 
#    0.000    0.000    0.000    0.000    0.000    0.000 
#
# Total GULP energy -89544.627892 kJ/mol
# GULP energy per Si atom -5596.539243 kJ/mol
# Density = 2.300567 g / cm^3
# Si number density = 23.058155 Si / 1000 Ang^3
#
#
#
# Elastic Constant Matrix: (Units=GPa)
#
#
# Indices 1 2 3 4 5 6 
#
# 1 106.8025 13.4445 17.6541 -6.2301 11.5602 22.9567
# 2 13.4445 43.8074 25.7732 -3.1963 0.3159 -2.7112
# 3 17.6541 25.7732 122.1365 -5.7795 7.3758 9.3343
# 4 -6.2301 -3.1963 -5.7795 36.4575 -0.5802 4.1506
# 5 11.5602 0.3159 7.3758 -0.5802 29.7184 4.0940
# 6 22.9567 -2.7112 9.3343 4.1506 4.0940 42.6828
#
#
#
# Elastic Compliance Matrix: (Units=1/GPa)
#
#
# Indices 1 2 3 4 5 6 
#
# 1 0.011756 -0.003757 -0.000088 0.002340 -0.003580 -0.006426
# 2 -0.003757 0.027683 -0.005768 0.000353 0.001942 0.004820
# 3 -0.000088 -0.005768 0.009780 0.001270 -0.001977 -0.002391
# 4 0.002340 0.000353 0.001270 0.028548 -0.000082 -0.004282
# 5 -0.003580 0.001942 -0.001977 -0.000082 0.035638 -0.000929
# 6 -0.006426 0.004820 -0.002391 -0.004282 -0.000929 0.028220
#
#
# Mechanical properties :
#
#
# Convention : Reuss Voigt Hill
#
# Bulk Modulus (GPa) = 33.34101 42.94333 38.14217
# Shear Modulus (GPa) = 29.26567 36.16338 32.71452
#
# Velocity S-wave (km/s) = 3.56646 3.96454 3.77076
# Velocity P-wave (km/s) = 5.60807 6.29453 5.96119
#
# Compressibility (1/GPa) = 0.02999309
#
# Stress axis : x y z
#
# Youngs Moduli (GPa) = 85.06320 36.12260 102.25262
#
# Poissons Ratio (x) = 0.13572 0.00904
# Poissons Ratio (y) = 0.31959 0.58975
# Poissons Ratio (z) = 0.00752 0.20834
#
# Static dielectric constant tensor:
#      x y z
#    x 1.904730 0.052820 0.002820 
#    y 0.052820 1.876780 -0.027630 
#    z 0.002820 -0.027630 1.871500 
# 
# From -- ./inp_files/244363.got.cif
#   From: 2010.05.17/outbox.cif.g08.bks.cpg/sg2_123_cif.got.tgz:244363.got - 2010.06.03 11:33:40.
