data_PCOD9033036
_publ_section_title
;
Structure prediction by ZEFSAII (Michael W. Deem and Ramdas Pophale) SiO2 
 PCOD9033036
Probable space group: P -1
;
_chemical_formula_sum "Si O2"
_cell_formula_units_Z 16
_cell_length_a 7.428522
_cell_length_b 14.797602
_cell_length_c 10.642773
_cell_angle_alpha 39.887679
_cell_angle_beta 107.566475
_cell_angle_gamma 88.451778
_cell_volume 648.119675
_symmetry_space_group_name_H-M "P -1"
_symmetry_group_IT_number 2
_symmetry_cell_setting 'triclinic'
loop_
_space_group_symop_operation_xyz
x,y,z
-x,-y,-z
loop_
_atom_site_type_symbol
_atom_site_label
_atom_site_fract_x
_atom_site_fract_y
_atom_site_fract_z
Si Si1 0.463472 0.154259 0.248270
Si Si2 0.852096 0.682326 0.799540
Si Si3 0.239373 0.689091 0.793214
Si Si4 0.539638 0.073301 0.680657
Si Si5 0.788971 0.648067 0.270304
Si Si6 0.421590 0.755056 0.271997
Si Si7 0.398969 0.538611 0.727451
Si Si8 0.971764 0.901319 0.983259
O O1 0.238554 0.276036 0.123811
O O2 0.500000 0.000000 0.500000
O O3 0.501259 0.076869 0.200897
O O4 0.636134 0.208648 0.267247
O O5 0.644004 0.770574 0.578221
O O6 0.439871 0.894838 0.203845
O O7 0.005238 0.761682 0.713633
O O8 0.621883 0.458135 0.930688
O O9 0.252766 0.634691 0.709458
O O10 0.000000 0.500000 0.000000
O O11 0.777117 0.024583 0.732224
O O12 0.630320 0.679554 0.318176
O O13 0.671379 0.593042 0.195938
O O14 0.879130 0.777878 0.132033
O O15 0.000000 0.500000 0.500000
O O16 0.400163 0.642231 0.497458
O O17 0.210100 0.811102 0.084958
O O18 0.000000 0.000000 0.000000
#
# Coordination Sequence:
#
# PCOD9033036 Si02
#       8
#     2   2   2   2   2   2   2   2
#     4  10  22  44  65 101 148 188 248 302 368 455
#     4  11  23  41  70 104 142 198 246 306 383 443
#     4  11  24  43  70 108 145 193 247 303 385 442
#     4  10  23  43  70 100 149 195 245 311 365 455
#     4  12  26  45  75 114 151 196 258 316 382 457
#     4  11  24  46  73 104 149 202 251 306 389 442
#     4  11  23  44  68 109 154 186 245 318 369 458
#     4  10  24  46  68 102 144 197 250 309 369 448
#
# _framework density 24.686800000000002
#
# number of rings (size 3 to 8) (size 9 to 14) (size 15 to 20)
#    0.000    1.250    1.250    4.875    1.750    5.000 
#    2.250    6.250    0.000    0.000    0.000    0.000 
#    0.000    0.000    0.000    0.000    0.000    0.000 
#
# Total GULP energy -89328.509033 kJ/mol
# GULP energy per Si atom -5583.031815 kJ/mol
# Density = 2.463061 g / cm^3
# Si number density = 24.686800 Si / 1000 Ang^3
#
#
#
# Elastic Constant Matrix: (Units=GPa)
#
#
# Indices 1 2 3 4 5 6 
#
# 1 187.6121 78.4451 64.5711 0.6407 31.9195 2.3677
# 2 78.4451 189.1309 34.6085 -16.0577 1.3439 13.0119
# 3 64.5711 34.6085 115.7208 -5.6509 32.6210 0.7646
# 4 0.6407 -16.0577 -5.6509 42.5378 3.9891 -1.6959
# 5 31.9195 1.3439 32.6210 3.9891 41.9629 -3.2323
# 6 2.3677 13.0119 0.7646 -1.6959 -3.2323 38.1872
#
#
#
# Elastic Compliance Matrix: (Units=1/GPa)
#
#
# Indices 1 2 3 4 5 6 
#
# 1 0.008151 -0.002993 -0.002599 -0.001220 -0.003954 0.000178
# 2 -0.002993 0.007015 -0.001003 0.002253 0.002473 -0.001875
# 3 -0.002599 -0.001003 0.012800 0.002113 -0.008169 -0.000351
# 4 -0.001220 0.002253 0.002113 0.024958 -0.003151 0.000107
# 5 -0.003954 0.002473 -0.008169 -0.003151 0.033584 0.002269
# 6 0.000178 -0.001875 -0.000351 0.000107 0.002269 0.027019
#
#
# Mechanical properties :
#
#
# Convention : Reuss Voigt Hill
#
# Bulk Modulus (GPa) = 67.67444 94.19033 80.93239
# Shear Modulus (GPa) = 37.98234 45.52687 41.75460
#
# Velocity S-wave (km/s) = 3.92671 4.29905 4.11709
# Velocity P-wave (km/s) = 6.93048 7.92965 7.44684
#
# Compressibility (1/GPa) = 0.01477663
#
# Stress axis : x y z
#
# Youngs Moduli (GPa) = 122.68982 142.55516 78.12528
#
# Poissons Ratio (x) = 0.42662 0.20306
# Poissons Ratio (y) = 0.36717 0.07833
# Poissons Ratio (z) = 0.31889 0.14292
#
# Static dielectric constant tensor:
#      x y z
#    x 1.930900 -0.013880 -0.087890 
#    y -0.013880 2.057480 0.008320 
#    z -0.087890 0.008320 2.249190 
# 
# From -- ./inp_files/506639.got.cif
#   From: 2010.05.17/outbox.cif.g08.bks.cpg/sg2_254_cif.got.tgz:506639.got - 2010.06.03 11:33:40.
