data_PCOD9033963
_publ_section_title
;
Structure prediction by ZEFSAII (Michael W. Deem and Ramdas Pophale) SiO2 
 PCOD9033963
Probable space group: P -1
;
_chemical_formula_sum "Si O2"
_cell_formula_units_Z 14
_cell_length_a 9.238413
_cell_length_b 7.272852
_cell_length_c 12.725827
_cell_angle_alpha 117.828373
_cell_angle_beta 52.807999
_cell_angle_gamma 100.553292
_cell_volume 596.383611
_symmetry_space_group_name_H-M "P -1"
_symmetry_group_IT_number 2
_symmetry_cell_setting 'triclinic'
loop_
_space_group_symop_operation_xyz
x,y,z
-x,-y,-z
loop_
_atom_site_type_symbol
_atom_site_label
_atom_site_fract_x
_atom_site_fract_y
_atom_site_fract_z
Si Si1 0.091395 0.966318 0.287564
Si Si2 0.479367 0.511995 0.183107
Si Si3 0.926463 0.335014 0.595181
Si Si4 0.801216 0.458334 0.376476
Si Si5 0.524881 0.748381 0.439824
Si Si6 0.505711 0.154707 0.919026
Si Si7 0.086879 0.083722 0.088219
O O1 0.077716 0.764383 0.311639
O O2 0.050223 0.965457 0.181802
O O3 0.305125 0.003389 0.219145
O O4 0.949829 0.145531 0.452526
O O5 0.262755 0.517968 0.291237
O O6 0.545856 0.604817 0.286766
O O7 0.544672 0.287489 0.041906
O O8 0.507505 0.683370 0.128442
O O9 0.104331 0.447497 0.541411
O O10 0.698317 0.652732 0.407853
O O11 0.651595 0.312163 0.436477
O O12 0.974036 0.316894 0.210022
O O13 0.500000 0.000000 0.500000
O O14 0.306641 0.080515 0.986436
O O15 0.000000 0.000000 0.000000
#
# Coordination Sequence:
#
# PCOD9033963 Si02
#       7
#     2   2   2   2   2   2   2
#     4  10  24  41  73 104 138 189 235 293 353 412
#     4  10  22  44  70  97 137 186 231 292 349 417
#     4  10  22  45  74 104 131 180 251 295 341 417
#     4  11  27  46  69 108 138 184 244 288 354 428
#     4  11  28  46  73 101 144 185 230 299 364 409
#     4  10  23  43  66 102 138 183 240 278 351 428
#     4  12  27  43  66 104 149 186 232 289 354 429
#
# _framework density 23.474824999999999
#
# number of rings (size 3 to 8) (size 9 to 14) (size 15 to 20)
#    0.000    1.429    1.429    1.286   14.000    2.286 
#    0.000    1.429    0.000    0.000    0.000    0.000 
#    0.000    0.000    0.000    0.000    0.000    0.000 
#
# Total GULP energy -78249.713566 kJ/mol
# GULP energy per Si atom -5589.265255 kJ/mol
# Density = 2.342140 g / cm^3
# Si number density = 23.474825 Si / 1000 Ang^3
#
#
#
# Elastic Constant Matrix: (Units=GPa)
#
#
# Indices 1 2 3 4 5 6 
#
# 1 79.9801 26.1673 36.3006 -17.0707 10.7722 2.9557
# 2 26.1673 91.2545 24.6294 -14.6582 -3.0290 -14.3424
# 3 36.3006 24.6294 92.3693 -6.1615 2.3782 -7.9067
# 4 -17.0707 -14.6582 -6.1615 35.0687 -1.6704 1.5154
# 5 10.7722 -3.0290 2.3782 -1.6704 45.3834 5.6379
# 6 2.9557 -14.3424 -7.9067 1.5154 5.6379 29.7032
#
#
#
# Elastic Compliance Matrix: (Units=1/GPa)
#
#
# Indices 1 2 3 4 5 6 
#
# 1 0.018498 -0.003450 -0.006241 0.006511 -0.003452 -0.004845
# 2 -0.003450 0.014000 -0.001627 0.003673 0.001197 0.006256
# 3 -0.006241 -0.001627 0.013921 -0.001420 0.000146 0.003586
# 4 0.006511 0.003673 -0.001420 0.033017 0.000108 -0.000958
# 5 -0.003452 0.001197 0.000146 0.000108 0.023362 -0.003480
# 6 -0.004845 0.006256 0.003586 -0.000958 -0.003480 0.038833
#
#
# Mechanical properties :
#
#
# Convention : Reuss Voigt Hill
#
# Bulk Modulus (GPa) = 42.04900 48.64428 45.34664
# Shear Modulus (GPa) = 29.03657 33.79817 31.41737
#
# Velocity S-wave (km/s) = 3.52081 3.79854 3.66231
# Velocity P-wave (km/s) = 5.87192 6.32498 6.10265
#
# Compressibility (1/GPa) = 0.02378178
#
# Stress axis : x y z
#
# Youngs Moduli (GPa) = 54.05895 71.42956 71.83249
#
# Poissons Ratio (x) = 0.24644 0.44833
# Poissons Ratio (y) = 0.18651 0.11690
# Poissons Ratio (z) = 0.33740 0.11624
#
# Static dielectric constant tensor:
#      x y z
#    x 1.887220 0.022870 0.042100 
#    y 0.022870 1.966370 -0.005580 
#    z 0.042100 -0.005580 1.904930 
# 
# From -- ./inp_files/383075.got.cif
#   From: 2010.05.17/outbox.cif.g08.bks.cpg/sg2_192_cif.got.tgz:383075.got - 2010.06.03 11:33:40.
