data_PCOD9033635
_publ_section_title
;
Structure prediction by ZEFSAII (Michael W. Deem and Ramdas Pophale) SiO2 
 PCOD9033635
Probable space group: P -1
;
_chemical_formula_sum "Si O2"
_cell_formula_units_Z 16
_cell_length_a 20.512330
_cell_length_b 5.766296
_cell_length_c 8.620539
_cell_angle_alpha 59.498445
_cell_angle_beta 58.092203
_cell_angle_gamma 84.168872
_cell_volume 726.167158
_symmetry_space_group_name_H-M "P -1"
_symmetry_group_IT_number 2
_symmetry_cell_setting 'triclinic'
loop_
_space_group_symop_operation_xyz
x,y,z
-x,-y,-z
loop_
_atom_site_type_symbol
_atom_site_label
_atom_site_fract_x
_atom_site_fract_y
_atom_site_fract_z
Si Si1 0.910092 0.759885 0.529810
Si Si2 0.648522 0.195855 0.009932
Si Si3 0.607930 0.968911 0.801823
Si Si4 0.749974 0.830159 0.188109
Si Si5 0.909264 0.098586 0.741780
Si Si6 0.398250 0.539224 0.543660
Si Si7 0.475230 0.573120 0.761920
Si Si8 0.751284 0.784674 0.569603
O O1 0.898452 0.420457 0.652181
O O2 0.841992 0.834120 0.485919
O O3 0.000761 0.873568 0.326111
O O4 0.902897 0.923146 0.646638
O O5 0.706884 0.488658 0.796625
O O6 0.613350 0.095210 0.922088
O O7 0.572217 0.202415 0.206657
O O8 0.702246 0.028865 0.092646
O O9 0.698326 0.972103 0.649328
O O10 0.576784 0.147501 0.651776
O O11 0.552269 0.667297 0.995161
O O12 0.696035 0.537866 0.300493
O O13 0.745094 0.816777 0.383233
O O14 0.839768 0.919593 0.992978
O O15 0.432914 0.471582 0.685041
O O16 0.433574 0.379091 0.415039
#
# Coordination Sequence:
#
# PCOD9033635 Si02
#       8
#     2   2   2   2   2   2   2   2
#     4  10  22  44  69 101 134 175 219 265 330 397
#     4  11  22  41  61  89 123 169 212 264 328 386
#     4  11  22  42  63  88 124 168 217 268 323 393
#     4  12  23  40  65  95 126 170 213 272 328 392
#     4  10  23  42  72  99 135 176 215 271 329 393
#     4  11  23  41  60  93 125 162 220 267 329 392
#     4  10  24  41  61  86 126 168 210 276 326 383
#     4  11  24  39  65  93 128 167 216 266 323 395
#
# _framework density 22.033494000000001
#
# number of rings (size 3 to 8) (size 9 to 14) (size 15 to 20)
#    0.000    1.250    3.750    1.875    1.750    2.500 
#    2.250    0.000    0.000    5.250    0.000    0.000 
#    0.000    0.000    0.000    0.000    0.000    0.000 
#
# Total GULP energy -89269.760459 kJ/mol
# GULP energy per Si atom -5579.360029 kJ/mol
# Density = 2.198335 g / cm^3
# Si number density = 22.033494 Si / 1000 Ang^3
#
#
#
# Elastic Constant Matrix: (Units=GPa)
#
#
# Indices 1 2 3 4 5 6 
#
# 1 107.9979 27.0387 58.1224 -2.0475 -21.5145 -0.8199
# 2 27.0387 72.4324 26.1987 2.8432 1.4829 -9.4321
# 3 58.1224 26.1987 116.1053 -3.0189 -10.5605 -14.4231
# 4 -2.0475 2.8432 -3.0189 33.8383 -12.7614 1.1763
# 5 -21.5145 1.4829 -10.5605 -12.7614 39.8677 -4.4090
# 6 -0.8199 -9.4321 -14.4231 1.1763 -4.4090 27.9031
#
#
#
# Elastic Compliance Matrix: (Units=1/GPa)
#
#
# Indices 1 2 3 4 5 6 
#
# 1 0.015227 -0.004112 -0.006310 0.003649 0.007516 -0.003170
# 2 -0.004112 0.016692 -0.001629 -0.003413 -0.003898 0.004207
# 3 -0.006310 -0.001629 0.013036 0.001139 0.001151 0.006136
# 4 0.003649 -0.003413 0.001139 0.035332 0.013732 0.000223
# 5 0.007516 -0.003898 0.001151 0.013732 0.034467 0.004366
# 6 -0.003170 0.004207 0.006136 0.000223 0.004366 0.041020
#
#
# Mechanical properties :
#
#
# Convention : Reuss Voigt Hill
#
# Bulk Modulus (GPa) = 47.95403 57.69501 52.82452
# Shear Modulus (GPa) = 26.76265 32.66686 29.71475
#
# Velocity S-wave (km/s) = 3.48894 3.85463 3.67634
# Velocity P-wave (km/s) = 6.16779 6.78623 6.48439
#
# Compressibility (1/GPa) = 0.02085330
#
# Stress axis : x y z
#
# Youngs Moduli (GPa) = 65.67099 59.91010 76.71079
#
# Poissons Ratio (x) = 0.24634 0.48407
# Poissons Ratio (y) = 0.27003 0.12494
# Poissons Ratio (z) = 0.41441 0.09757
#
# Static dielectric constant tensor:
#      x y z
#    x 1.784020 0.000410 -0.005280 
#    y 0.000410 1.924210 -0.029440 
#    z -0.005280 -0.029440 1.783480 
# 
# From -- ./inp_files/48005.got.cif
#   From: 2010.05.17/outbox.cif.g08.bks.cpg/sg2_25_cif.got.tgz:48005.got - 2010.06.03 11:33:40.
