data_PCOD9033486
_publ_section_title
;
Structure prediction by ZEFSAII (Michael W. Deem and Ramdas Pophale) SiO2 
 PCOD9033486
Probable space group: P -1
;
_chemical_formula_sum "Si O2"
_cell_formula_units_Z 14
_cell_length_a 8.036600
_cell_length_b 25.735818
_cell_length_c 9.381325
_cell_angle_alpha 31.334048
_cell_angle_beta 148.886787
_cell_angle_gamma 139.303730
_cell_volume 518.773513
_symmetry_space_group_name_H-M "P -1"
_symmetry_group_IT_number 2
_symmetry_cell_setting 'triclinic'
loop_
_space_group_symop_operation_xyz
x,y,z
-x,-y,-z
loop_
_atom_site_type_symbol
_atom_site_label
_atom_site_fract_x
_atom_site_fract_y
_atom_site_fract_z
Si Si1 0.742649 0.880455 0.233409
Si Si2 0.819769 0.996228 0.528491
Si Si3 0.697838 0.303917 0.591760
Si Si4 0.244737 0.514730 0.996722
Si Si5 0.848532 0.421815 0.691986
Si Si6 0.880879 0.693960 0.350302
Si Si7 0.312363 0.803910 0.643833
O O1 0.574302 0.787264 0.417556
O O2 0.024659 0.840956 0.439350
O O3 0.904087 0.973992 0.223369
O O4 0.436785 0.921043 0.836059
O O5 0.600739 0.892377 0.631178
O O6 0.000000 0.000000 0.500000
O O7 0.749129 0.325787 0.745258
O O8 0.031575 0.285393 0.800255
O O9 0.611599 0.402034 0.212347
O O10 0.081530 0.423153 0.995337
O O11 0.992927 0.583701 0.721925
O O12 0.544923 0.479596 0.381321
O O13 0.000000 0.500000 0.500000
O O14 0.133828 0.766351 0.456783
O O15 0.514384 0.714888 0.059870
#
# Coordination Sequence:
#
# PCOD9033486 Si02
#       7
#     2   2   2   2   2   2   2
#     4  12  25  41  61  90 120 154 190 242 294 350
#     4  12  25  42  66  87 118 149 200 241 289 343
#     4   9  21  35  61  88 117 147 203 243 291 332
#     4   9  20  32  59  86 116 147 199 242 290 331
#     4  10  17  32  55  92 112 149 189 256 285 333
#     4  10  22  36  62  84 117 153 203 236 284 344
#     4  12  23  42  59  85 121 160 191 233 298 351
#
# _framework density 26.986727999999999
#
# number of rings (size 3 to 8) (size 9 to 14) (size 15 to 20)
#    0.857    0.571    0.000    7.286    0.000    3.429 
#    0.000    0.000    0.000    5.143    0.000    0.000 
#    0.000    0.000    0.000    0.000    0.000    0.000 
#
# Total GULP energy -78437.146326 kJ/mol
# GULP energy per Si atom -5602.653309 kJ/mol
# Density = 2.692531 g / cm^3
# Si number density = 26.986728 Si / 1000 Ang^3
#
#
#
# Elastic Constant Matrix: (Units=GPa)
#
#
# Indices 1 2 3 4 5 6 
#
# 1 88.3394 6.2649 13.8379 -11.5279 36.2771 16.5163
# 2 6.2649 117.2297 7.2940 -2.5090 -5.4948 2.9733
# 3 13.8379 7.2940 127.2977 -3.3142 18.4340 9.8056
# 4 -11.5279 -2.5090 -3.3142 39.7032 -1.3550 -2.4072
# 5 36.2771 -5.4948 18.4340 -1.3550 43.7812 -1.3000
# 6 16.5163 2.9733 9.8056 -2.4072 -1.3000 50.9615
#
#
#
# Elastic Compliance Matrix: (Units=1/GPa)
#
#
# Indices 1 2 3 4 5 6 
#
# 1 0.020483 -0.001711 0.001100 0.004904 -0.017705 -0.006970
# 2 -0.001711 0.008797 -0.000748 0.000110 0.002848 0.000263
# 3 0.001100 -0.000748 0.008634 0.000708 -0.004680 -0.002060
# 4 0.004904 0.000110 0.000708 0.026521 -0.003544 -0.000570
# 5 -0.017705 0.002848 -0.004680 -0.003544 0.039947 0.007324
# 6 -0.006970 0.000263 -0.002060 -0.000570 0.007324 0.022423
#
#
# Mechanical properties :
#
#
# Convention : Reuss Voigt Hill
#
# Bulk Modulus (GPa) = 28.41264 43.07340 35.74302
# Shear Modulus (GPa) = 35.39694 47.25383 41.32539
#
# Velocity S-wave (km/s) = 3.62559 4.18904 3.91746
# Velocity P-wave (km/s) = 5.29885 6.27638 5.80822
#
# Compressibility (1/GPa) = 0.03519560
#
# Stress axis : x y z
#
# Youngs Moduli (GPa) = 48.82125 113.66970 115.82554
#
# Poissons Ratio (x) = 0.19451 -0.12740
# Poissons Ratio (y) = 0.08354 0.08663
# Poissons Ratio (z) = -0.05370 0.08501
#
# Static dielectric constant tensor:
#      x y z
#    x 2.272310 0.066850 -0.020940 
#    y 0.066850 2.060030 -0.089300 
#    z -0.020940 -0.089300 2.125480 
# 
# From -- ./inp_files/406884.got.cif
#   From: 2010.05.17/outbox.cif.g08.bks.cpg/sg2_204_cif.got.tgz:406884.got - 2010.06.03 11:33:40.
