data_PCOD9033941
_publ_section_title
;
Structure prediction by ZEFSAII (Michael W. Deem and Ramdas Pophale) SiO2 
 PCOD9033941
Probable space group: P -1
;
_chemical_formula_sum "Si O2"
_cell_formula_units_Z 16
_cell_length_a 8.889360
_cell_length_b 12.018762
_cell_length_c 14.939600
_cell_angle_alpha 151.003366
_cell_angle_beta 108.519413
_cell_angle_gamma 79.644844
_cell_volume 716.781469
_symmetry_space_group_name_H-M "P -1"
_symmetry_group_IT_number 2
_symmetry_cell_setting 'triclinic'
loop_
_space_group_symop_operation_xyz
x,y,z
-x,-y,-z
loop_
_atom_site_type_symbol
_atom_site_label
_atom_site_fract_x
_atom_site_fract_y
_atom_site_fract_z
Si Si1 0.056679 0.959214 0.082690
Si Si2 0.713041 0.393450 0.134192
Si Si3 0.835557 0.400382 0.844099
Si Si4 0.401308 0.302041 0.906387
Si Si5 0.814131 0.919350 0.441965
Si Si6 0.212284 0.409096 0.215896
Si Si7 0.556988 0.281106 0.211777
Si Si8 0.158992 0.469426 0.452848
O O1 0.167949 0.206971 0.301606
O O2 0.156262 0.758474 0.970283
O O3 0.883712 0.852020 0.018912
O O4 0.000000 0.000000 0.000000
O O5 0.771304 0.658422 0.294249
O O6 0.677460 0.381912 0.224222
O O7 0.541145 0.253895 0.962914
O O8 0.832550 0.428644 0.756170
O O9 0.784575 0.118564 0.646093
O O10 0.715256 0.561003 0.966762
O O11 0.000000 0.500000 0.000000
O O12 0.299999 0.103941 0.684174
O O13 0.500000 0.500000 0.000000
O O14 0.000000 0.000000 0.500000
O O15 0.398718 0.394448 0.254777
O O16 0.144175 0.469849 0.342286
O O17 0.673275 0.354551 0.369740
O O18 0.500000 0.000000 0.000000
O O19 0.000000 0.500000 0.500000
#
# Coordination Sequence:
#
# PCOD9033941 Si02
#       8
#     2   2   2   2   2   2   2   2
#     4  10  22  44  70  95 139 185 238 295 355 437
#     4  11  24  46  69 107 143 191 239 300 374 430
#     4  12  25  46  74 107 147 193 249 301 367 442
#     4  10  24  46  69 105 148 186 246 303 362 433
#     4  11  24  45  76 105 148 193 251 305 363 440
#     4  11  24  44  69 105 139 192 241 296 373 427
#     4  12  24  43  70 103 147 185 236 303 362 436
#     4  11  24  45  70 107 143 190 246 299 363 444
#
# _framework density 22.322008
#
# number of rings (size 3 to 8) (size 9 to 14) (size 15 to 20)
#    0.000    1.000    2.500    4.875    1.750    5.000 
#    2.250    1.250    0.000    0.000    0.000    0.000 
#    0.000    0.000    0.000    0.000    0.000    0.000 
#
# Total GULP energy -89283.957916 kJ/mol
# GULP energy per Si atom -5580.247370 kJ/mol
# Density = 2.227120 g / cm^3
# Si number density = 22.322008 Si / 1000 Ang^3
#
#
#
# Elastic Constant Matrix: (Units=GPa)
#
#
# Indices 1 2 3 4 5 6 
#
# 1 105.8947 28.3872 37.8815 -9.6124 11.0743 -14.1420
# 2 28.3872 93.6209 44.4047 -0.4197 1.1019 -7.0379
# 3 37.8815 44.4047 163.0877 -0.4859 21.7778 -18.8347
# 4 -9.6124 -0.4197 -0.4859 38.9211 -2.0099 5.0051
# 5 11.0743 1.1019 21.7778 -2.0099 36.1430 -5.5685
# 6 -14.1420 -7.0379 -18.8347 5.0051 -5.5685 44.3065
#
#
#
# Elastic Compliance Matrix: (Units=1/GPa)
#
#
# Indices 1 2 3 4 5 6 
#
# 1 0.011353 -0.002584 -0.001406 0.002382 -0.002099 0.002083
# 2 -0.002584 0.012980 -0.003224 -0.000444 0.002347 0.000212
# 3 -0.001406 -0.003224 0.008118 -0.000757 -0.004087 0.002062
# 4 0.002382 -0.000444 -0.000757 0.026636 0.000830 -0.002537
# 5 -0.002099 0.002347 -0.004087 0.000830 0.031021 0.001770
# 6 0.002083 0.000212 0.002062 -0.002537 0.001770 0.024654
#
#
# Mechanical properties :
#
#
# Convention : Reuss Voigt Hill
#
# Bulk Modulus (GPa) = 55.48274 64.88336 60.18305
# Shear Modulus (GPa) = 36.98312 40.66944 38.82628
#
# Velocity S-wave (km/s) = 4.07480 4.27305 4.17510
# Velocity P-wave (km/s) = 6.85917 7.31269 7.08956
#
# Compressibility (1/GPa) = 0.01802362
#
# Stress axis : x y z
#
# Youngs Moduli (GPa) = 88.08488 77.03923 123.18874
#
# Poissons Ratio (x) = 0.19905 0.17314
# Poissons Ratio (y) = 0.22758 0.39720
# Poissons Ratio (z) = 0.12380 0.24840
#
# Static dielectric constant tensor:
#      x y z
#    x 1.827350 0.100930 0.012600 
#    y 0.100930 2.094720 0.094760 
#    z 0.012600 0.094760 2.091830 
# 
# From -- ./inp_files/501280.got.cif
#   From: 2010.05.17/outbox.cif.g08.bks.cpg/sg2_251_cif.got.tgz:501280.got - 2010.06.03 11:33:40.
