data_PCOD9033341
_publ_section_title
;
Structure prediction by ZEFSAII (Michael W. Deem and Ramdas Pophale) SiO2 
 PCOD9033341
Probable space group: P -1
;
_chemical_formula_sum "Si O2"
_cell_formula_units_Z 14
_cell_length_a 16.393652
_cell_length_b 15.824145
_cell_length_c 25.420320
_cell_angle_alpha 161.405088
_cell_angle_beta 162.111206
_cell_angle_gamma 26.009010
_cell_volume 645.562002
_symmetry_space_group_name_H-M "P -1"
_symmetry_group_IT_number 2
_symmetry_cell_setting 'triclinic'
loop_
_space_group_symop_operation_xyz
x,y,z
-x,-y,-z
loop_
_atom_site_type_symbol
_atom_site_label
_atom_site_fract_x
_atom_site_fract_y
_atom_site_fract_z
Si Si1 0.845646 0.872821 0.281040
Si Si2 0.631032 0.764905 0.820302
Si Si3 0.288286 0.794654 0.418784
Si Si4 0.854757 0.080105 0.711138
Si Si5 0.402648 0.696235 0.216856
Si Si6 0.299676 0.740577 0.023455
Si Si7 0.049359 0.125419 0.020376
O O1 0.060163 0.827364 0.341057
O O2 0.630465 0.073840 0.248302
O O3 0.689558 0.592176 0.030290
O O4 0.000000 0.000000 0.500000
O O5 0.589374 0.484610 0.657265
O O6 0.746419 0.739352 0.816233
O O7 0.858183 0.915561 0.083414
O O8 0.159090 0.813623 0.293488
O O9 0.512947 0.021162 0.698478
O O10 0.682306 0.269309 0.754536
O O11 0.703443 0.793179 0.450334
O O12 0.217915 0.904841 0.196164
O O13 0.053753 0.707864 0.894302
O O14 0.500000 0.500000 0.000000
O O15 0.175403 0.860256 0.964430
#
# Coordination Sequence:
#
# PCOD9033341 Si02
#       7
#     2   2   2   2   2   2   2
#     4  12  28  43  69 105 141 178 230 280 343 416
#     4  11  26  44  71 100 134 189 222 281 348 401
#     4  12  25  43  68 102 145 176 223 289 341 406
#     4  10  22  47  72  95 137 183 234 280 334 403
#     4  10  22  46  73  97 136 184 229 284 337 402
#     4  11  26  41  69 101 138 177 233 287 336 410
#     4  10  22  44  67  95 136 180 230 279 344 399
#
# _framework density 21.686530000000001
#
# number of rings (size 3 to 8) (size 9 to 14) (size 15 to 20)
#    0.000    1.143    4.286    1.286    6.000    3.429 
#    0.000    1.429    0.000    0.000    0.000    0.000 
#    0.000    0.000    0.000    0.000    0.000    0.000 
#
# Total GULP energy -78250.786111 kJ/mol
# GULP energy per Si atom -5589.341865 kJ/mol
# Density = 2.163717 g / cm^3
# Si number density = 21.686530 Si / 1000 Ang^3
#
#
#
# Elastic Constant Matrix: (Units=GPa)
#
#
# Indices 1 2 3 4 5 6 
#
# 1 69.0709 45.5200 22.0826 23.0715 -20.3424 42.0502
# 2 45.5200 168.2430 59.6181 -10.0169 -15.1927 13.2120
# 3 22.0826 59.6181 133.0025 12.3724 -19.0651 9.9964
# 4 23.0715 -10.0169 12.3724 13.5615 3.7781 -7.2966
# 5 -20.3424 -15.1927 -19.0651 3.7781 17.4981 -5.7796
# 6 42.0502 13.2120 9.9964 -7.2966 -5.7796 24.6571
#
#
#
# Elastic Compliance Matrix: (Units=1/GPa)
#
#
# Indices 1 2 3 4 5 6 
#
# 1 -0.004618 0.002545 -0.004967 0.024117 -0.009327 0.013476
# 2 0.002545 0.006803 -0.002025 -0.002461 0.004968 -0.006728
# 3 -0.004967 -0.002025 0.009295 0.001027 0.004753 0.007206
# 4 0.024117 -0.002461 0.001027 0.007357 0.013943 -0.034781
# 5 -0.009327 0.004968 0.004753 0.013943 0.062746 0.030151
# 6 0.013476 -0.006728 0.007206 -0.034781 0.030151 0.015033
#
#
# Mechanical properties :
#
#
# Convention : Reuss Voigt Hill
#
# Bulk Modulus (GPa) = 386.79860 69.41753 228.10806
# Shear Modulus (GPa) = 47.00355 27.34972 37.17664
#
# Velocity S-wave (km/s) = 4.66059 3.55510 4.14487
# Velocity P-wave (km/s) = 14.41207 6.99505 11.32780
#
# Compressibility (1/GPa) = 0.00258532
#
# Stress axis : x y z
#
# Youngs Moduli (GPa) = -216.54770 146.98459 107.57940
#
# Poissons Ratio (x) = -0.37407 0.53438
# Poissons Ratio (y) = 0.55111 0.21790
# Poissons Ratio (z) = -1.07566 0.29772
#
# Static dielectric constant tensor:
#      x y z
#    x 1.840810 -0.004500 0.025980 
#    y -0.004500 1.773960 0.015360 
#    z 0.025980 0.015360 1.828470 
# 
# From -- ./inp_files/612161.got.cif
#   From: 2010.05.17/outbox.cif.g08.bks.cpg/sg2_307_cif.got.tgz:612161.got - 2010.06.03 11:33:40.
