data_PCOD9033560
_publ_section_title
;
Structure prediction by ZEFSAII (Michael W. Deem and Ramdas Pophale) SiO2 
 PCOD9033560
Probable space group: P -1
;
_chemical_formula_sum "Si O2"
_cell_formula_units_Z 12
_cell_length_a 7.348078
_cell_length_b 20.561095
_cell_length_c 14.265523
_cell_angle_alpha 20.240550
_cell_angle_beta 54.491870
_cell_angle_gamma 66.343777
_cell_volume 522.017391
_symmetry_space_group_name_H-M "P -1"
_symmetry_group_IT_number 2
_symmetry_cell_setting 'triclinic'
loop_
_space_group_symop_operation_xyz
x,y,z
-x,-y,-z
loop_
_atom_site_type_symbol
_atom_site_label
_atom_site_fract_x
_atom_site_fract_y
_atom_site_fract_z
Si Si1 0.760892 0.634667 0.128011
Si Si2 0.665846 0.162898 0.311155
Si Si3 0.237512 0.598911 0.368765
Si Si4 0.256371 0.389023 0.293506
Si Si5 0.281949 0.771709 0.417854
Si Si6 0.584802 0.930867 0.285688
O O1 0.523605 0.678617 0.131128
O O2 0.780363 0.568223 0.319904
O O3 0.695008 0.428395 0.359998
O O4 0.059865 0.818123 0.772360
O O5 0.492451 0.096784 0.545409
O O6 0.500000 0.000000 0.500000
O O7 0.733917 0.408072 0.930973
O O8 0.000000 0.500000 0.500000
O O9 0.257845 0.810380 0.127453
O O10 0.271723 0.203010 0.597362
O O11 0.998611 0.276799 0.460973
O O12 0.500000 0.500000 0.000000
O O13 0.328783 0.807941 0.465257
O O14 0.500000 0.000000 0.000000
#
# Coordination Sequence:
#
# PCOD9033560 Si02
#       6
#     2   2   2   2   2   2
#     4  10  24  43  62  95 135 164 218 274 317 380
#     4  10  22  44  68  97 132 170 216 272 324 391
#     4  11  24  41  64  94 129 175 217 263 323 390
#     4   9  23  42  65  98 132 166 218 271 319 389
#     4  11  23  42  66  96 132 168 218 273 319 386
#     4  11  24  41  70  94 128 177 214 260 336 383
#
# _framework density 22.987738
#
# number of rings (size 3 to 8) (size 9 to 14) (size 15 to 20)
#    0.000    1.667    1.667    1.000    2.333   14.000 
#    0.000    1.667    0.000    0.000    0.000    0.000 
#    0.000    0.000    0.000    0.000    0.000    0.000 
#
# Total GULP energy -67093.028537 kJ/mol
# GULP energy per Si atom -5591.085711 kJ/mol
# Density = 2.293542 g / cm^3
# Si number density = 22.987738 Si / 1000 Ang^3
#
#
#
# Elastic Constant Matrix: (Units=GPa)
#
#
# Indices 1 2 3 4 5 6 
#
# 1 144.5878 37.5547 61.1028 -32.1156 -35.6929 -7.2168
# 2 37.5547 57.4649 24.4761 -2.8738 -28.4591 4.5237
# 3 61.1028 24.4761 87.5320 -25.5958 -24.2369 -7.6774
# 4 -32.1156 -2.8738 -25.5958 32.1069 9.9710 -7.6065
# 5 -35.6929 -28.4591 -24.2369 9.9710 43.7815 -6.2391
# 6 -7.2168 4.5237 -7.6774 -7.6065 -6.2391 55.3207
#
#
#
# Elastic Compliance Matrix: (Units=1/GPa)
#
#
# Indices 1 2 3 4 5 6 
#
# 1 0.012778 -0.004776 -0.003623 0.009081 0.003699 0.003220
# 2 -0.004776 0.029448 -0.004306 -0.011015 0.014880 -0.003465
# 3 -0.003623 -0.004306 0.019977 0.012018 0.003235 0.004669
# 4 0.009081 -0.011015 0.012018 0.052425 -0.003539 0.010562
# 5 0.003699 0.014880 0.003235 -0.003539 0.038636 0.003586
# 6 0.003220 -0.003465 0.004669 0.010562 0.003586 0.021285
#
#
# Mechanical properties :
#
#
# Convention : Reuss Voigt Hill
#
# Bulk Modulus (GPa) = 27.17755 59.53912 43.35833
# Shear Modulus (GPa) = 23.56028 37.33855 30.44941
#
# Velocity S-wave (km/s) = 3.20489 4.03461 3.64345
# Velocity P-wave (km/s) = 5.05405 6.90367 6.04996
#
# Compressibility (1/GPa) = 0.03679507
#
# Stress axis : x y z
#
# Youngs Moduli (GPa) = 78.25729 33.95844 50.05793
#
# Poissons Ratio (x) = 0.16217 0.18135
# Poissons Ratio (y) = 0.37372 0.21553
# Poissons Ratio (z) = 0.28351 0.14621
#
# Static dielectric constant tensor:
#      x y z
#    x 1.857310 -0.026560 0.067320 
#    y -0.026560 1.881490 0.039710 
#    z 0.067320 0.039710 1.909560 
# 
# From -- ./inp_files/26321.got.cif
#   From: 2010.05.17/outbox.cif.g08.bks.cpg/sg2_14_cif.got.tgz:26321.got - 2010.06.03 11:33:40.
