data_PCOD9033274
_publ_section_title
;
Structure prediction by ZEFSAII (Michael W. Deem and Ramdas Pophale) SiO2 
 PCOD9033274
Probable space group: P -1
;
_chemical_formula_sum "Si O2"
_cell_formula_units_Z 16
_cell_length_a 9.176888
_cell_length_b 14.698874
_cell_length_c 11.640312
_cell_angle_alpha 66.022889
_cell_angle_beta 36.404374
_cell_angle_gamma 47.116008
_cell_volume 645.731970
_symmetry_space_group_name_H-M "P -1"
_symmetry_group_IT_number 2
_symmetry_cell_setting 'triclinic'
loop_
_space_group_symop_operation_xyz
x,y,z
-x,-y,-z
loop_
_atom_site_type_symbol
_atom_site_label
_atom_site_fract_x
_atom_site_fract_y
_atom_site_fract_z
Si Si1 0.129884 0.770847 0.210028
Si Si2 0.212388 0.283115 0.174433
Si Si3 0.751663 0.067659 0.311620
Si Si4 0.387750 0.606985 0.918508
Si Si5 0.351016 0.869277 0.392846
Si Si6 0.907145 0.633217 0.033519
Si Si7 0.182239 0.327457 0.418901
Si Si8 0.424078 0.997460 0.916167
O O1 0.073412 0.678624 0.353374
O O2 0.463134 0.738449 0.049434
O O3 0.174891 0.738940 0.063044
O O4 0.843354 0.926283 0.332561
O O5 0.073463 0.367393 0.334433
O O6 0.295862 0.149574 0.227982
O O7 0.053110 0.314882 0.135864
O O8 0.653515 0.136374 0.464386
O O9 0.499177 0.174088 0.323901
O O10 0.094936 0.027345 0.092289
O O11 0.669533 0.601016 0.685449
O O12 0.500000 0.500000 0.000000
O O13 0.165666 0.606266 0.972705
O O14 0.546551 0.732598 0.269314
O O15 0.577124 0.901695 0.201940
O O16 0.000000 0.000000 0.500000
O O17 0.000000 0.500000 0.000000
O O18 0.500000 0.000000 0.000000
#
# Coordination Sequence:
#
# PCOD9033274 Si02
#       8
#     2   2   2   2   2   2   2   2
#     4  10  22  44  67 102 138 178 233 293 354 417
#     4  10  23  41  65  97 137 181 231 287 349 427
#     4  11  23  39  68 106 139 184 235 294 361 425
#     4  11  26  47  73  99 136 189 243 292 351 428
#     4  12  23  40  69 106 145 186 237 294 352 426
#     4  12  25  46  72 101 142 189 235 293 362 422
#     4  11  23  41  69  98 137 182 234 292 354 424
#     4  11  20  39  63  99 146 185 230 289 359 421
#
# _framework density 24.778082999999999
#
# number of rings (size 3 to 8) (size 9 to 14) (size 15 to 20)
#    0.000    1.000    2.500    4.875    0.000    7.000 
#    0.000    2.500    0.000   12.750    0.000    0.000 
#    0.000    0.000    0.000    0.000    0.000    0.000 
#
# Total GULP energy -89383.249941 kJ/mol
# GULP energy per Si atom -5586.453121 kJ/mol
# Density = 2.472169 g / cm^3
# Si number density = 24.778083 Si / 1000 Ang^3
#
#
#
# Elastic Constant Matrix: (Units=GPa)
#
#
# Indices 1 2 3 4 5 6 
#
# 1 150.7984 22.3947 17.1541 12.8800 14.0977 -13.7078
# 2 22.3947 104.6393 29.3307 -8.7467 -1.4225 9.8245
# 3 17.1541 29.3307 96.8168 -2.1461 1.9956 -1.4839
# 4 12.8800 -8.7467 -2.1461 41.6092 10.2693 3.8124
# 5 14.0977 -1.4225 1.9956 10.2693 39.1898 -3.5757
# 6 -13.7078 9.8245 -1.4839 3.8124 -3.5757 46.3297
#
#
#
# Elastic Compliance Matrix: (Units=1/GPa)
#
#
# Indices 1 2 3 4 5 6 
#
# 1 0.007645 -0.001924 -0.000750 -0.002601 -0.001852 0.002717
# 2 -0.001924 0.011412 -0.003102 0.003104 0.000147 -0.003333
# 3 -0.000750 -0.003102 0.011426 0.000201 -0.000409 0.000754
# 4 -0.002601 0.003104 0.000201 0.027502 -0.006551 -0.004190
# 5 -0.001852 0.000147 -0.000409 -0.006551 0.028119 0.002117
# 6 0.002717 -0.003333 0.000754 -0.004190 0.002117 0.023627
#
#
# Mechanical properties :
#
#
# Convention : Reuss Voigt Hill
#
# Bulk Modulus (GPa) = 52.81946 54.44595 53.63270
# Shear Modulus (GPa) = 39.18764 44.31740 41.75252
#
# Velocity S-wave (km/s) = 3.98118 4.23374 4.10940
# Velocity P-wave (km/s) = 6.51892 6.77647 6.64894
#
# Compressibility (1/GPa) = 0.01893242
#
# Stress axis : x y z
#
# Youngs Moduli (GPa) = 130.81109 87.62637 87.52196
#
# Poissons Ratio (x) = 0.16857 0.06560
# Poissons Ratio (y) = 0.25164 0.27147
# Poissons Ratio (z) = 0.09805 0.27180
#
# Static dielectric constant tensor:
#      x y z
#    x 1.892950 -0.079260 -0.031390 
#    y -0.079260 2.031970 0.045190 
#    z -0.031390 0.045190 2.014260 
# 
# From -- ./inp_files/398879.got.cif
#   From: 2010.05.17/outbox.cif.g08.bks.cpg/sg2_200_cif.got.tgz:398879.got - 2010.06.03 11:33:40.
