data_PCOD9033202
_publ_section_title
;
Structure prediction by ZEFSAII (Michael W. Deem and Ramdas Pophale) SiO2 
 PCOD9033202
Probable space group: P -1
;
_chemical_formula_sum "Si O2"
_cell_formula_units_Z 16
_cell_length_a 14.613121
_cell_length_b 13.847072
_cell_length_c 14.094620
_cell_angle_alpha 146.839752
_cell_angle_beta 128.290005
_cell_angle_gamma 29.116869
_cell_volume 688.991515
_symmetry_space_group_name_H-M "P -1"
_symmetry_group_IT_number 2
_symmetry_cell_setting 'triclinic'
loop_
_space_group_symop_operation_xyz
x,y,z
-x,-y,-z
loop_
_atom_site_type_symbol
_atom_site_label
_atom_site_fract_x
_atom_site_fract_y
_atom_site_fract_z
Si Si1 0.136593 0.745572 0.793451
Si Si2 0.095432 0.447465 0.812102
Si Si3 0.218931 0.675328 0.446845
Si Si4 0.430326 0.661809 0.189738
Si Si5 0.101205 0.827941 0.194150
Si Si6 0.742860 0.750855 0.454693
Si Si7 0.744913 0.732672 0.938218
Si Si8 0.347751 0.896991 0.649953
O O1 0.368837 0.522991 0.777554
O O2 0.153239 0.511626 0.619538
O O3 0.041438 0.935393 0.791834
O O4 0.000000 0.000000 0.000000
O O5 0.139348 0.433093 0.719523
O O6 0.865340 0.668644 0.873642
O O7 0.261006 0.092337 0.659542
O O8 0.133458 0.578627 0.002870
O O9 0.173344 0.569941 0.260791
O O10 0.296839 0.754952 0.511281
O O11 0.409319 0.386126 0.402636
O O12 0.022389 0.958059 0.617561
O O13 0.314812 0.660773 0.176721
O O14 0.274941 0.016976 0.357683
O O15 0.500000 0.500000 0.000000
O O16 0.500000 0.000000 0.500000
O O17 0.500000 0.000000 0.000000
O O18 0.769776 0.840910 0.128389
#
# Coordination Sequence:
#
# PCOD9033202 Si02
#       8
#     2   2   2   2   2   2   2   2
#     4  11  22  45  68  93 138 183 220 290 344 392
#     4  12  23  43  68  98 135 176 223 285 346 403
#     4  10  23  44  67  97 132 176 226 280 345 413
#     4  11  23  44  65  99 135 178 235 278 338 415
#     4  12  24  43  68 100 137 179 229 279 345 413
#     4  10  23  42  68  96 135 176 226 282 341 410
#     4  10  22  44  66  96 134 174 227 280 343 414
#     4  10  23  44  68  93 137 173 220 288 342 405
#
# _framework density 23.222346999999999
#
# number of rings (size 3 to 8) (size 9 to 14) (size 15 to 20)
#    0.000    1.250    3.750    1.875    3.500    1.000 
#    6.750    0.000    0.000    0.000    0.000    0.000 
#    0.000    0.000    0.000    0.000    0.000    0.000 
#
# Total GULP energy -89500.593813 kJ/mol
# GULP energy per Si atom -5593.787113 kJ/mol
# Density = 2.316949 g / cm^3
# Si number density = 23.222347 Si / 1000 Ang^3
#
#
#
# Elastic Constant Matrix: (Units=GPa)
#
#
# Indices 1 2 3 4 5 6 
#
# 1 117.3876 27.5590 31.0740 12.0027 7.1347 -26.1660
# 2 27.5590 89.5969 -15.3876 20.0931 -4.1438 -10.8613
# 3 31.0740 -15.3876 128.0559 0.4082 9.1289 -15.6900
# 4 12.0027 20.0931 0.4082 34.3771 -3.9245 2.0423
# 5 7.1347 -4.1438 9.1289 -3.9245 48.1680 4.9477
# 6 -26.1660 -10.8613 -15.6900 2.0423 4.9477 44.6095
#
#
#
# Elastic Compliance Matrix: (Units=1/GPa)
#
#
# Indices 1 2 3 4 5 6 
#
# 1 0.011446 -0.002641 -0.002222 -0.003030 -0.002333 0.005687
# 2 -0.002641 0.014631 0.002825 -0.007847 0.000131 0.003351
# 3 -0.002222 0.002825 0.009151 -0.001331 -0.001562 0.002837
# 4 -0.003030 -0.007847 -0.001331 0.035522 0.003555 -0.006177
# 5 -0.002333 0.000131 -0.001562 0.003555 0.022166 -0.004507
# 6 0.005687 0.003351 0.002837 -0.006177 -0.004507 0.028349
#
#
# Mechanical properties :
#
#
# Convention : Reuss Voigt Hill
#
# Bulk Modulus (GPa) = 32.10086 46.83680 39.46883
# Shear Modulus (GPa) = 36.83895 44.88392 40.86143
#
# Velocity S-wave (km/s) = 3.98723 4.40112 4.19928
# Velocity P-wave (km/s) = 5.92036 6.78521 6.36749
#
# Compressibility (1/GPa) = 0.03115182
#
# Stress axis : x y z
#
# Youngs Moduli (GPa) = 87.36415 68.34847 109.27683
#
# Poissons Ratio (x) = 0.18053 0.24284
# Poissons Ratio (y) = 0.23076 -0.30875
# Poissons Ratio (z) = 0.19415 -0.19311
#
# Static dielectric constant tensor:
#      x y z
#    x 1.911430 -0.020170 -0.019040 
#    y -0.020170 1.907750 0.002880 
#    z -0.019040 0.002880 1.890790 
# 
# From -- ./inp_files/534582.got.cif
#   From: 2010.05.17/outbox.cif.g08.bks.cpg/sg2_268_cif.got.tgz:534582.got - 2010.06.03 11:33:40.
