data_PCOD9033853
_publ_section_title
;
Structure prediction by ZEFSAII (Michael W. Deem and Ramdas Pophale) SiO2 
 PCOD9033853
Probable space group: P -1
;
_chemical_formula_sum "Si O2"
_cell_formula_units_Z 16
_cell_length_a 18.839221
_cell_length_b 9.230077
_cell_length_c 5.435493
_cell_angle_alpha 120.462610
_cell_angle_beta 119.040316
_cell_angle_gamma 53.831183
_cell_volume 633.697152
_symmetry_space_group_name_H-M "P -1"
_symmetry_group_IT_number 2
_symmetry_cell_setting 'triclinic'
loop_
_space_group_symop_operation_xyz
x,y,z
-x,-y,-z
loop_
_atom_site_type_symbol
_atom_site_label
_atom_site_fract_x
_atom_site_fract_y
_atom_site_fract_z
Si Si1 0.832419 0.294576 0.115700
Si Si2 0.402241 0.154855 0.355421
Si Si3 0.325914 0.883676 0.820948
Si Si4 0.109357 0.386389 0.551970
Si Si5 0.499328 0.305051 0.267889
Si Si6 0.084942 0.295738 0.929978
Si Si7 0.645464 0.487546 0.158796
Si Si8 0.871601 0.073493 0.503331
O O1 0.882644 0.169293 0.853023
O O2 0.855645 0.465725 0.329585
O O3 0.721847 0.385880 0.990748
O O4 0.856942 0.187792 0.325261
O O5 0.438989 0.228150 0.245945
O O6 0.333549 0.360107 0.531023
O O7 0.500000 0.000000 0.500000
O O8 0.344618 0.037936 0.129956
O O9 0.395514 0.845087 0.679882
O O10 0.357154 0.682541 0.840481
O O11 0.223508 0.936224 0.625890
O O12 0.127493 0.243451 0.230412
O O13 0.000000 0.500000 0.500000
O O14 0.143541 0.319390 0.827903
O O15 0.500000 0.500000 0.500000
O O16 0.453289 0.362645 0.973382
O O17 0.000000 0.500000 0.000000
O O18 0.058025 0.140212 0.636613
#
# Coordination Sequence:
#
# PCOD9033853 Si02
#       8
#     2   2   2   2   2   2   2   2
#     4  11  25  45  71 102 142 183 233 287 356 413
#     4  12  25  41  63  99 129 184 242 291 358 413
#     4  11  24  43  64  97 137 178 240 293 350 416
#     4  10  22  44  71 104 139 177 222 281 349 419
#     4  12  22  41  65  89 134 183 231 293 349 408
#     4  10  22  44  70 103 139 175 224 280 346 417
#     4  11  25  43  64  94 137 180 236 295 349 408
#     4  11  25  46  69 104 139 185 233 288 351 420
#
# _framework density 25.248654999999999
#
# number of rings (size 3 to 8) (size 9 to 14) (size 15 to 20)
#    0.000    1.000    2.500    3.750    3.500    2.000 
#    0.000   15.000    0.000    0.000    0.000    0.000 
#    0.000    0.000    0.000    0.000    0.000    0.000 
#
# Total GULP energy -89276.870546 kJ/mol
# GULP energy per Si atom -5579.804409 kJ/mol
# Density = 2.519119 g / cm^3
# Si number density = 25.248655 Si / 1000 Ang^3
#
#
#
# Elastic Constant Matrix: (Units=GPa)
#
#
# Indices 1 2 3 4 5 6 
#
# 1 64.0492 22.0518 32.2517 1.5322 -0.2102 -2.4667
# 2 22.0518 94.5495 18.5225 25.7642 -14.1537 7.1376
# 3 32.2517 18.5225 119.6991 29.9301 -27.0958 10.3104
# 4 1.5322 25.7642 29.9301 41.9937 3.4900 11.8041
# 5 -0.2102 -14.1537 -27.0958 3.4900 46.4213 0.6657
# 6 -2.4667 7.1376 10.3104 11.8041 0.6657 26.8580
#
#
#
# Elastic Compliance Matrix: (Units=1/GPa)
#
#
# Indices 1 2 3 4 5 6 
#
# 1 0.023437 -0.008179 -0.010270 0.011255 -0.009279 0.003552
# 2 -0.008179 0.016810 0.005393 -0.014285 0.009328 -0.001242
# 3 -0.010270 0.005393 0.017349 -0.015681 0.012939 -0.002465
# 4 0.011255 -0.014285 -0.015681 0.047440 -0.016887 -0.009581
# 5 -0.009279 0.009328 0.012939 -0.016887 0.033190 -0.001699
# 6 0.003552 -0.001242 -0.002465 -0.009581 -0.001699 0.043089
#
#
# Mechanical properties :
#
#
# Convention : Reuss Voigt Hill
#
# Bulk Modulus (GPa) = 31.76155 47.10553 39.43354
# Shear Modulus (GPa) = 22.94398 36.75272 29.84835
#
# Velocity S-wave (km/s) = 3.01777 3.81941 3.44201
# Velocity P-wave (km/s) = 4.97488 6.17638 5.60790
#
# Compressibility (1/GPa) = 0.03148461
#
# Stress axis : x y z
#
# Youngs Moduli (GPa) = 42.66678 59.48810 57.63922
#
# Poissons Ratio (x) = 0.48653 0.59196
# Poissons Ratio (y) = 0.34895 -0.31083
# Poissons Ratio (z) = 0.43820 -0.32080
#
# Static dielectric constant tensor:
#      x y z
#    x 1.678410 0.077650 -0.835880 
#    y 0.077650 2.030220 0.257450 
#    z -0.835880 0.257450 0.178710 
# 
# From -- ./inp_files/107664.got.cif
#   From: 2010.05.17/outbox.cif.g08.bks.cpg/sg2_54_cif.got.tgz:107664.got - 2010.06.03 11:33:40.
