data_PCOD9033501
_publ_section_title
;
Structure prediction by ZEFSAII (Michael W. Deem and Ramdas Pophale) SiO2 
 PCOD9033501
Probable space group: P -1
;
_chemical_formula_sum "Si O2"
_cell_formula_units_Z 16
_cell_length_a 12.129295
_cell_length_b 20.963107
_cell_length_c 11.684481
_cell_angle_alpha 27.858926
_cell_angle_beta 28.709235
_cell_angle_gamma 35.676614
_cell_volume 657.830529
_symmetry_space_group_name_H-M "P -1"
_symmetry_group_IT_number 2
_symmetry_cell_setting 'triclinic'
loop_
_space_group_symop_operation_xyz
x,y,z
-x,-y,-z
loop_
_atom_site_type_symbol
_atom_site_label
_atom_site_fract_x
_atom_site_fract_y
_atom_site_fract_z
Si Si1 0.252063 0.842939 0.912904
Si Si2 0.893996 0.112697 0.772435
Si Si3 0.577325 0.883118 0.378386
Si Si4 0.723298 0.057377 0.646293
Si Si5 0.673827 0.287128 0.502326
Si Si6 0.049469 0.361233 0.597437
Si Si7 0.846957 0.558877 0.878893
Si Si8 0.682923 0.606713 0.180569
O O1 0.196860 0.814009 0.141507
O O2 0.152024 0.730754 0.101220
O O3 0.509478 0.841210 0.633852
O O4 0.125868 0.002759 0.758399
O O5 0.873987 0.220911 0.514872
O O6 0.720888 0.007126 0.061103
O O7 0.345269 0.930820 0.442069
O O8 0.734427 0.754170 0.376039
O O9 0.700498 0.204154 0.494480
O O10 0.000000 0.000000 0.500000
O O11 0.500000 0.000000 0.000000
O O12 0.683705 0.442738 0.212717
O O13 0.438683 0.281822 0.795709
O O14 0.000000 0.500000 0.500000
O O15 0.118290 0.400286 0.345576
O O16 0.742366 0.659976 0.916740
O O17 0.092148 0.481181 0.827671
O O18 0.500000 0.500000 0.500000
#
# Coordination Sequence:
#
# PCOD9033501 Si02
#       8
#     2   2   2   2   2   2   2   2
#     4  10  24  43  71  97 146 182 241 305 373 446
#     4  10  22  44  68 110 132 179 238 312 375 445
#     4  11  25  46  72 101 144 192 247 304 379 448
#     4  12  28  48  77 110 155 195 251 315 383 462
#     4  11  24  40  74 101 140 186 241 310 377 442
#     4  11  28  45  68 101 148 197 252 299 372 460
#     4  10  24  44  67 100 141 190 241 308 371 446
#     4   9  22  41  66 100 134 178 244 302 370 436
#
# _framework density 24.322372999999999
#
# number of rings (size 3 to 8) (size 9 to 14) (size 15 to 20)
#    0.000    1.500    1.250    1.125   14.000    2.500 
#    0.000    0.000    0.000    0.000    0.000    0.000 
#    0.000    0.000    0.000    0.000    0.000    0.000 
#
# Total GULP energy -89353.990349 kJ/mol
# GULP energy per Si atom -5584.624397 kJ/mol
# Density = 2.426701 g / cm^3
# Si number density = 24.322373 Si / 1000 Ang^3
#
#
#
# Elastic Constant Matrix: (Units=GPa)
#
#
# Indices 1 2 3 4 5 6 
#
# 1 92.4057 19.0280 7.6450 7.1286 0.2296 6.1391
# 2 19.0280 116.7556 15.9200 11.7520 -19.8899 18.5603
# 3 7.6450 15.9200 73.3185 1.2973 11.1387 7.1046
# 4 7.1286 11.7520 1.2973 28.2400 4.5586 0.6869
# 5 0.2296 -19.8899 11.1387 4.5586 37.1119 -2.5709
# 6 6.1391 18.5603 7.1046 0.6869 -2.5709 38.9345
#
#
#
# Elastic Compliance Matrix: (Units=1/GPa)
#
#
# Indices 1 2 3 4 5 6 
#
# 1 0.011412 -0.001481 -0.000666 -0.002135 -0.000469 -0.000965
# 2 -0.001481 0.011737 -0.003043 -0.005495 0.007596 -0.004208
# 3 -0.000666 -0.003043 0.015513 0.001834 -0.006629 -0.001745
# 4 -0.002135 -0.005495 0.001834 0.039447 -0.008232 0.001382
# 5 -0.000469 0.007596 -0.006629 -0.008232 0.034024 0.000054
# 6 -0.000965 -0.004208 -0.001745 0.001382 0.000054 0.028140
#
#
# Mechanical properties :
#
#
# Convention : Reuss Voigt Hill
#
# Bulk Modulus (GPa) = 35.35732 40.85177 38.10454
# Shear Modulus (GPa) = 31.23425 36.84973 34.04199
#
# Velocity S-wave (km/s) = 3.58743 3.89659 3.74520
# Velocity P-wave (km/s) = 5.63277 6.08909 5.86537
#
# Compressibility (1/GPa) = 0.02828269
#
# Stress axis : x y z
#
# Youngs Moduli (GPa) = 87.62862 85.19891 64.46157
#
# Poissons Ratio (x) = 0.12614 0.04292
# Poissons Ratio (y) = 0.12974 0.19617
# Poissons Ratio (z) = 0.05835 0.25928
#
# Static dielectric constant tensor:
#      x y z
#    x 1.980870 -0.011300 0.032200 
#    y -0.011300 1.987920 0.051330 
#    z 0.032200 0.051330 2.050000 
# 
# From -- ./inp_files/438557.got.cif
#   From: 2010.05.17/outbox.cif.g08.bks.cpg/sg2_220_cif.got.tgz:438557.got - 2010.06.03 11:33:40.
