data_PCOD9033529
_publ_section_title
;
Structure prediction by ZEFSAII (Michael W. Deem and Ramdas Pophale) SiO2 
 PCOD9033529
Probable space group: P -1
;
_chemical_formula_sum "Si O2"
_cell_formula_units_Z 16
_cell_length_a 17.140880
_cell_length_b 13.338491
_cell_length_c 8.654003
_cell_angle_alpha 94.030283
_cell_angle_beta 62.544682
_cell_angle_gamma 145.875713
_cell_volume 768.468034
_symmetry_space_group_name_H-M "P -1"
_symmetry_group_IT_number 2
_symmetry_cell_setting 'triclinic'
loop_
_space_group_symop_operation_xyz
x,y,z
-x,-y,-z
loop_
_atom_site_type_symbol
_atom_site_label
_atom_site_fract_x
_atom_site_fract_y
_atom_site_fract_z
Si Si1 0.170279 0.432459 0.621689
Si Si2 0.733712 0.018225 0.488408
Si Si3 0.732409 0.026959 0.975526
Si Si4 0.540646 0.426896 0.773602
Si Si5 0.167000 0.429216 0.996111
Si Si6 0.465986 0.576992 0.847437
Si Si7 0.485131 0.091830 0.102709
Si Si8 0.537707 0.930821 0.386355
O O1 0.269340 0.433104 0.462989
O O2 0.333631 0.685885 0.465067
O O3 0.145540 0.409857 0.828257
O O4 0.952127 0.233013 0.733587
O O5 0.641943 0.829321 0.644845
O O6 0.591768 0.902931 0.462212
O O7 0.703811 0.085985 0.630312
O O8 0.954285 0.225995 0.249109
O O9 0.650392 0.841626 0.110603
O O10 0.569651 0.887419 0.980706
O O11 0.717273 0.103612 0.118467
O O12 0.504870 0.502430 0.755129
O O13 0.554863 0.446437 0.949660
O O14 0.321224 0.670833 0.953237
O O15 0.267000 0.425512 0.947922
O O16 0.500000 0.000000 0.000000
O O17 0.500000 0.000000 0.500000
#
# Coordination Sequence:
#
# PCOD9033529 Si02
#       8
#     2   2   2   2   2   2   2   2
#     4  11  24  42  67  94 132 168 210 262 320 379
#     4  11  22  42  66  94 129 166 213 263 315 376
#     4  11  23  41  63  98 126 164 215 263 311 378
#     4  10  23  43  68  94 128 167 215 259 321 378
#     4  11  23  43  66  93 131 171 207 262 323 376
#     4  10  22  44  68  94 127 170 209 265 317 381
#     4  11  24  42  65  93 129 170 215 263 312 374
#     4  11  23  41  65  91 131 171 208 260 314 378
#
# _framework density 20.820643
#
# number of rings (size 3 to 8) (size 9 to 14) (size 15 to 20)
#    0.000    1.250    6.250    0.750    1.750    3.500 
#    0.000    3.750    0.000    0.000    0.000    0.000 
#    0.000    0.000    0.000    0.000    0.000    0.000 
#
# Total GULP energy -89234.339350 kJ/mol
# GULP energy per Si atom -5577.146209 kJ/mol
# Density = 2.077325 g / cm^3
# Si number density = 20.820643 Si / 1000 Ang^3
#
#
#
# Elastic Constant Matrix: (Units=GPa)
#
#
# Indices 1 2 3 4 5 6 
#
# 1 86.7425 35.2036 32.4692 -5.7392 -15.3448 -18.9599
# 2 35.2036 61.4301 38.0181 5.9775 -14.9534 -10.0318
# 3 32.4692 38.0181 165.8062 -6.0391 -31.3499 -8.9195
# 4 -5.7392 5.9775 -6.0391 33.6723 5.0820 -7.6842
# 5 -15.3448 -14.9534 -31.3499 5.0820 36.2931 15.6878
# 6 -18.9599 -10.0318 -8.9195 -7.6842 15.6878 28.1897
#
#
#
# Elastic Compliance Matrix: (Units=1/GPa)
#
#
# Indices 1 2 3 4 5 6 
#
# 1 0.018557 -0.009509 -0.001191 0.008235 -0.003942 0.013159
# 2 -0.009509 0.025533 -0.003255 -0.008827 0.006908 -0.004590
# 3 -0.001191 -0.003255 0.008061 0.000208 0.006332 -0.002876
# 4 0.008235 -0.008827 0.000208 0.039895 -0.014915 0.021639
# 5 -0.003942 0.006908 0.006332 -0.014915 0.049070 -0.029563
# 6 0.013159 -0.004590 -0.002876 0.021639 -0.029563 0.064131
#
#
# Mechanical properties :
#
#
# Convention : Reuss Voigt Hill
#
# Bulk Modulus (GPa) = 41.25199 58.37339 49.81269
# Shear Modulus (GPa) = 20.72636 33.51687 27.12161
#
# Velocity S-wave (km/s) = 3.15853 4.01657 3.61311
# Velocity P-wave (km/s) = 5.75828 7.04327 6.43294
#
# Compressibility (1/GPa) = 0.02424126
#
# Stress axis : x y z
#
# Youngs Moduli (GPa) = 53.88709 39.16427 124.05695
#
# Poissons Ratio (x) = 0.37243 0.14776
# Poissons Ratio (y) = 0.51244 0.40376
# Poissons Ratio (z) = 0.06418 0.12747
#
# Static dielectric constant tensor:
#      x y z
#    x 1.779380 0.018940 0.035710 
#    y 0.018940 1.803800 0.046020 
#    z 0.035710 0.046020 1.788850 
# 
# From -- ./inp_files/335718.got.cif
#   From: 2010.05.17/outbox.cif.g08.bks.cpg/sg2_168_cif.got.tgz:335718.got - 2010.06.03 11:33:40.
