data_PCOD9033634
_publ_section_title
;
Structure prediction by ZEFSAII (Michael W. Deem and Ramdas Pophale) SiO2 
 PCOD9033634
Probable space group: P -1
;
_chemical_formula_sum "Si O2"
_cell_formula_units_Z 12
_cell_length_a 11.490944
_cell_length_b 10.142386
_cell_length_c 12.333590
_cell_angle_alpha 92.687325
_cell_angle_beta 134.318067
_cell_angle_gamma 50.718261
_cell_volume 557.309191
_symmetry_space_group_name_H-M "P -1"
_symmetry_group_IT_number 2
_symmetry_cell_setting 'triclinic'
loop_
_space_group_symop_operation_xyz
x,y,z
-x,-y,-z
loop_
_atom_site_type_symbol
_atom_site_label
_atom_site_fract_x
_atom_site_fract_y
_atom_site_fract_z
Si Si1 0.849768 0.458203 0.388138
Si Si2 0.702621 0.422335 0.721172
Si Si3 0.107652 0.828859 0.468286
Si Si4 0.146704 0.921524 0.922221
Si Si5 0.200578 0.358571 0.232179
Si Si6 0.900973 0.813557 0.685747
O O1 0.491098 0.708972 0.165176
O O2 0.000000 0.500000 0.500000
O O3 0.940254 0.289311 0.531056
O O4 0.937374 0.331427 0.326192
O O5 0.500000 0.500000 0.500000
O O6 0.959123 0.139948 0.892044
O O7 0.821226 0.474154 0.744611
O O8 0.464824 0.609297 0.669651
O O9 0.000000 0.000000 0.500000
O O10 0.932092 0.977029 0.248142
O O11 0.043191 0.839926 0.843310
O O12 0.087381 0.324611 0.238386
O O13 0.555381 0.084808 0.441911
O O14 0.000000 0.500000 0.000000
#
# Coordination Sequence:
#
# PCOD9033634 Si02
#       6
#     2   2   2   2   2   2
#     4  12  29  43  68 104 138 180 234 288 344 408
#     4  10  22  44  69 101 132 179 227 276 340 405
#     4  11  23  45  74  98 139 179 231 276 345 414
#     4  11  25  47  70  97 140 187 226 286 342 408
#     4  11  25  43  72 100 138 176 225 287 344 402
#     4  11  25  46  67 102 139 178 233 278 342 416
#
# _framework density 21.532032999999998
#
# number of rings (size 3 to 8) (size 9 to 14) (size 15 to 20)
#    0.000    1.000    5.000    0.500    9.333    2.667 
#    0.000    0.000    0.000    0.000    0.000    0.000 
#    0.000    0.000    0.000    0.000    0.000    0.000 
#
# Total GULP energy -67046.779717 kJ/mol
# GULP energy per Si atom -5587.231643 kJ/mol
# Density = 2.148303 g / cm^3
# Si number density = 21.532033 Si / 1000 Ang^3
#
#
#
# Elastic Constant Matrix: (Units=GPa)
#
#
# Indices 1 2 3 4 5 6 
#
# 1 113.7499 72.3010 28.5587 -2.9927 2.2035 29.0752
# 2 72.3010 143.7387 28.5503 2.6830 5.2878 20.8744
# 3 28.5587 28.5503 99.0796 2.5557 5.1573 17.2217
# 4 -2.9927 2.6830 2.5557 19.2324 3.3881 6.1126
# 5 2.2035 5.2878 5.1573 3.3881 36.8063 -3.8841
# 6 29.0752 20.8744 17.2217 6.1126 -3.8841 68.4390
#
#
#
# Elastic Compliance Matrix: (Units=1/GPa)
#
#
# Indices 1 2 3 4 5 6 
#
# 1 0.014522 -0.006419 -0.001690 0.004838 -0.000604 -0.004252
# 2 -0.006419 0.010473 -0.001063 -0.002166 -0.000777 -0.000051
# 3 -0.001690 -0.001063 0.011297 -0.000785 -0.001448 -0.001813
# 4 0.004838 -0.002166 -0.000785 0.056246 -0.005737 -0.006546
# 5 -0.000604 -0.000777 -0.001448 -0.005737 0.028363 0.002980
# 6 -0.004252 -0.000051 -0.001813 -0.006546 0.002980 0.017644
#
#
# Mechanical properties :
#
#
# Convention : Reuss Voigt Hill
#
# Bulk Modulus (GPa) = 55.71617 68.37649 62.04633
# Shear Modulus (GPa) = 30.69913 40.03940 35.36927
#
# Velocity S-wave (km/s) = 3.78000 4.31690 4.05734
# Velocity P-wave (km/s) = 6.70696 7.52809 7.12936
#
# Compressibility (1/GPa) = 0.01794811
#
# Stress axis : x y z
#
# Youngs Moduli (GPa) = 68.86269 95.48004 88.51950
#
# Poissons Ratio (x) = 0.61291 0.14961
# Poissons Ratio (y) = 0.44205 0.09406
# Poissons Ratio (z) = 0.11639 0.10145
#
# Static dielectric constant tensor:
#      x y z
#    x 1.827880 -0.017090 0.009490 
#    y -0.017090 1.813680 -0.056600 
#    z 0.009490 -0.056600 1.779410 
# 
# From -- ./inp_files/138432.got.cif
#   From: 2010.05.17/outbox.cif.g08.bks.cpg/sg2_70_cif.got.tgz:138432.got - 2010.06.03 11:33:40.
