data_PCOD9033711
_publ_section_title
;
Structure prediction by ZEFSAII (Michael W. Deem and Ramdas Pophale) SiO2 
 PCOD9033711
Probable space group: P -1
;
_chemical_formula_sum "Si O2"
_cell_formula_units_Z 14
_cell_length_a 9.576858
_cell_length_b 8.065058
_cell_length_c 28.757312
_cell_angle_alpha 38.492085
_cell_angle_beta 28.295431
_cell_angle_gamma 46.144226
_cell_volume 655.260766
_symmetry_space_group_name_H-M "P -1"
_symmetry_group_IT_number 2
_symmetry_cell_setting 'triclinic'
loop_
_space_group_symop_operation_xyz
x,y,z
-x,-y,-z
loop_
_atom_site_type_symbol
_atom_site_label
_atom_site_fract_x
_atom_site_fract_y
_atom_site_fract_z
Si Si1 0.434296 0.977053 0.079398
Si Si2 0.696293 0.305589 0.309427
Si Si3 0.803889 0.488282 0.941771
Si Si4 0.063182 0.213780 0.473531
Si Si5 0.553929 0.187724 0.700180
Si Si6 0.928942 0.216426 0.057252
Si Si7 0.873870 0.202958 0.700184
O O1 0.279129 0.790244 0.205119
O O2 0.209011 0.222277 0.095068
O O3 0.773906 0.954930 0.000625
O O4 0.500000 0.000000 0.000000
O O5 0.406908 0.215302 0.386568
O O6 0.572601 0.513259 0.338553
O O7 0.910029 0.504695 0.174944
O O8 0.898465 0.046509 0.317081
O O9 0.500000 0.500000 0.000000
O O10 0.807120 0.284083 0.027119
O O11 0.988056 0.510431 0.412248
O O12 0.856261 0.153781 0.591112
O O13 0.000000 0.000000 0.500000
O O14 0.642054 0.171914 0.732477
O O15 0.316702 0.963025 0.806838
O O16 0.000000 0.500000 0.000000
#
# Coordination Sequence:
#
# PCOD9033711 Si02
#       7
#     2   2   2   2   2   2   2
#     4  11  23  40  63  98 133 174 224 275 338 408
#     4  10  22  44  69  93 132 176 226 277 336 404
#     4  11  23  41  67  98 132 175 228 278 337 418
#     4  11  26  42  68 100 135 172 230 286 337 408
#     4  11  25  42  67  99 131 180 234 277 335 417
#     4  12  24  39  67  97 138 183 217 284 359 392
#     4  10  23  45  70  95 134 179 226 282 339 407
#
# _framework density 21.365538000000001
#
# number of rings (size 3 to 8) (size 9 to 14) (size 15 to 20)
#    0.000    1.143    1.429    6.000    4.000    4.571 
#    0.000    0.000    0.000    0.000    0.000    0.000 
#    0.000    0.000    0.000    0.000    0.000    0.000 
#
# Total GULP energy -77953.712154 kJ/mol
# GULP energy per Si atom -5568.122297 kJ/mol
# Density = 2.131691 g / cm^3
# Si number density = 21.365538 Si / 1000 Ang^3
#
#
#
# Elastic Constant Matrix: (Units=GPa)
#
#
# Indices 1 2 3 4 5 6 
#
# 1 84.8634 37.7072 50.9179 -2.7990 0.1295 -8.7127
# 2 37.7072 98.7722 32.7279 -3.2474 -14.2254 -16.0274
# 3 50.9179 32.7279 125.2110 -2.0998 -15.5325 -4.8259
# 4 -2.7990 -3.2474 -2.0998 42.8427 1.0121 -4.9776
# 5 0.1295 -14.2254 -15.5325 1.0121 36.9526 -3.0482
# 6 -8.7127 -16.0274 -4.8259 -4.9776 -3.0482 42.0321
#
#
#
# Elastic Compliance Matrix: (Units=1/GPa)
#
#
# Indices 1 2 3 4 5 6 
#
# 1 0.018194 -0.005329 -0.006567 0.000660 -0.004835 0.000713
# 2 -0.005329 0.013941 -0.000598 0.001092 0.005490 0.004670
# 3 -0.006567 -0.000598 0.011383 -0.000019 0.004582 0.000048
# 4 0.000660 0.001092 -0.000019 0.023858 0.000035 0.003379
# 5 -0.004835 0.005490 0.004582 0.000035 0.031439 0.003901
# 6 0.000713 0.004670 0.000048 0.003379 0.003901 0.026408
#
#
# Mechanical properties :
#
#
# Convention : Reuss Voigt Hill
#
# Bulk Modulus (GPa) = 53.96282 61.28364 57.62323
# Shear Modulus (GPa) = 31.97194 36.86504 34.41849
#
# Velocity S-wave (km/s) = 3.87256 4.15835 4.01800
# Velocity P-wave (km/s) = 6.73108 7.19733 6.96810
#
# Compressibility (1/GPa) = 0.01853128
#
# Stress axis : x y z
#
# Youngs Moduli (GPa) = 54.96352 71.73128 87.84850
#
# Poissons Ratio (x) = 0.38223 0.57691
# Poissons Ratio (y) = 0.29288 0.05251
# Poissons Ratio (z) = 0.36095 0.04287
#
# Static dielectric constant tensor:
#      x y z
#    x 1.934460 -0.006470 -0.213810 
#    y -0.006470 1.882420 0.316480 
#    z -0.213810 0.316480 3.334440 
# 
# From -- ./inp_files/616608.got.cif
#   From: 2010.05.17/outbox.cif.g08.bks.cpg/sg2_309_cif.got.tgz:616608.got - 2010.06.03 11:33:40.
