data_PCOD9033375
_publ_section_title
;
Structure prediction by ZEFSAII (Michael W. Deem and Ramdas Pophale) SiO2 
 PCOD9033375
Probable space group: P -1
;
_chemical_formula_sum "Si O2"
_cell_formula_units_Z 16
_cell_length_a 11.998491
_cell_length_b 11.719342
_cell_length_c 9.447577
_cell_angle_alpha 118.466129
_cell_angle_beta 135.787080
_cell_angle_gamma 49.491092
_cell_volume 704.173919
_symmetry_space_group_name_H-M "P -1"
_symmetry_group_IT_number 2
_symmetry_cell_setting 'triclinic'
loop_
_space_group_symop_operation_xyz
x,y,z
-x,-y,-z
loop_
_atom_site_type_symbol
_atom_site_label
_atom_site_fract_x
_atom_site_fract_y
_atom_site_fract_z
Si Si1 0.366145 0.652364 0.390077
Si Si2 0.691541 0.978021 0.109868
Si Si3 0.319049 0.593054 0.987564
Si Si4 0.208594 0.968404 0.472960
Si Si5 0.279834 0.106065 0.375870
Si Si6 0.023653 0.662756 0.187807
Si Si7 0.823697 0.073222 0.041965
Si Si8 0.005090 0.432976 0.210873
O O1 0.500000 0.500000 0.500000
O O2 0.368171 0.608337 0.203229
O O3 0.380285 0.802213 0.495466
O O4 0.180065 0.707084 0.345341
O O5 0.821822 0.805978 0.083476
O O6 0.792213 0.007659 0.348325
O O7 0.676005 0.082055 0.026797
O O8 0.500000 0.000000 0.000000
O O9 0.500000 0.500000 0.000000
O O10 0.216082 0.764146 0.941063
O O11 0.169364 0.536512 0.831689
O O12 0.236738 0.093360 0.492336
O O13 0.021597 0.988165 0.247340
O O14 0.180250 0.277213 0.331373
O O15 0.500000 0.000000 0.500000
O O16 0.188990 0.024216 0.154884
O O17 0.047270 0.565646 0.292355
O O18 0.049270 0.585884 0.011238
#
# Coordination Sequence:
#
# PCOD9033375 Si02
#       8
#     2   2   2   2   2   2   2   2
#     4  11  25  43  68 100 136 182 233 282 342 413
#     4  12  27  43  68 106 142 179 229 288 344 408
#     4  11  25  43  70 102 134 182 232 288 342 404
#     4  12  25  44  72 101 135 182 233 285 341 404
#     4  12  24  43  72 101 134 180 229 280 345 411
#     4  10  23  42  68  96 139 180 225 275 348 407
#     4  12  23  47  71  96 138 180 236 286 335 412
#     4  10  22  44  67  97 136 181 222 281 343 411
#
# _framework density 22.72166
#
# number of rings (size 3 to 8) (size 9 to 14) (size 15 to 20)
#    0.000    0.750    5.000    2.250    5.250    1.000 
#    0.000    0.625    0.000    0.000    0.000    0.000 
#    0.000    0.000    0.000    0.000    0.000    0.000 
#
# Total GULP energy -89361.341117 kJ/mol
# GULP energy per Si atom -5585.083820 kJ/mol
# Density = 2.266994 g / cm^3
# Si number density = 22.721660 Si / 1000 Ang^3
#
#
#
# Elastic Constant Matrix: (Units=GPa)
#
#
# Indices 1 2 3 4 5 6 
#
# 1 162.1073 52.8244 20.9229 -19.7645 -7.3812 2.0215
# 2 52.8244 94.3221 18.5714 -37.2655 -7.2710 19.2253
# 3 20.9229 18.5714 47.7946 -10.0053 -9.1029 3.5090
# 4 -19.7645 -37.2655 -10.0053 37.9479 -1.4728 -11.1226
# 5 -7.3812 -7.2710 -9.1029 -1.4728 35.2423 -11.1208
# 6 2.0215 19.2253 3.5090 -11.1226 -11.1208 42.5093
#
#
#
# Elastic Compliance Matrix: (Units=1/GPa)
#
#
# Indices 1 2 3 4 5 6 
#
# 1 0.007835 -0.004425 -0.001703 -0.000098 0.000909 0.001982
# 2 -0.004425 0.021140 -0.002020 0.016782 0.002291 -0.004193
# 3 -0.001703 -0.002020 0.024424 0.004325 0.006268 0.001750
# 4 -0.000098 0.016782 0.004325 0.046111 0.008488 0.006343
# 5 0.000909 0.002291 0.006268 0.008488 0.034017 0.009523
# 6 0.001982 -0.004193 0.001750 0.006343 0.009523 0.029333
#
#
# Mechanical properties :
#
#
# Convention : Reuss Voigt Hill
#
# Bulk Modulus (GPa) = 26.95204 54.31792 40.63498
# Shear Modulus (GPa) = 26.10650 37.26692 31.68671
#
# Velocity S-wave (km/s) = 3.39332 4.05427 3.73843
# Velocity P-wave (km/s) = 5.21924 6.77302 6.04625
#
# Compressibility (1/GPa) = 0.03710295
#
# Stress axis : x y z
#
# Youngs Moduli (GPa) = 127.62627 47.30464 40.94322
#
# Poissons Ratio (x) = 0.20933 0.06974
# Poissons Ratio (y) = 0.56477 0.08269
# Poissons Ratio (z) = 0.21739 0.09553
#
# Static dielectric constant tensor:
#      x y z
#    x 1.765780 -0.215530 0.021790 
#    y -0.215530 1.482170 -0.019460 
#    z 0.021790 -0.019460 1.847790 
# 
# From -- ./inp_files/262839.got.cif
#   From: 2010.05.17/outbox.cif.g08.bks.cpg/sg2_132_cif.got.tgz:262839.got - 2010.06.03 11:33:40.
