data_PCOD9033836
_publ_section_title
;
Structure prediction by ZEFSAII (Michael W. Deem and Ramdas Pophale) SiO2 
 PCOD9033836
Probable space group: P -1
;
_chemical_formula_sum "Si O2"
_cell_formula_units_Z 15
_cell_length_a 11.503025
_cell_length_b 11.809705
_cell_length_c 13.497380
_cell_angle_alpha 30.361729
_cell_angle_beta 99.640932
_cell_angle_gamma 78.219914
_cell_volume 652.811310
_symmetry_space_group_name_H-M "P -1"
_symmetry_group_IT_number 2
_symmetry_cell_setting 'triclinic'
loop_
_space_group_symop_operation_xyz
x,y,z
-x,-y,-z
loop_
_atom_site_type_symbol
_atom_site_label
_atom_site_fract_x
_atom_site_fract_y
_atom_site_fract_z
Si Si1 0.876523 0.176923 0.151812
Si Si2 0.903344 0.481684 0.220065
Si Si3 0.304923 0.015374 0.024387
Si Si4 0.595066 0.564207 0.098069
Si Si5 0.372742 0.169868 0.729857
Si Si6 0.845625 0.238230 0.869989
Si Si7 0.000000 0.500000 0.000000
Si Si8 0.506128 0.738738 0.732331
O O1 0.897777 0.169755 0.042649
O O2 0.942476 0.312770 0.111573
O O3 0.682461 0.416950 0.965049
O O4 0.959894 0.843589 0.457938
O O5 0.817413 0.772560 0.062372
O O6 0.759350 0.490540 0.171612
O O7 0.966527 0.506415 0.110050
O O8 0.274940 0.233089 0.766815
O O9 0.491714 0.820200 0.232471
O O10 0.273453 0.814535 0.127543
O O11 0.626211 0.255213 0.339408
O O12 0.499992 0.732939 0.853883
O O13 0.483159 0.811466 0.982495
O O14 0.254378 0.410470 0.444699
O O15 0.000000 0.000000 0.000000
O O16 0.500000 0.000000 0.500000
#
# Coordination Sequence:
#
# PCOD9033836 Si02
#       8
#     2   2   2   2   2   2   1   2
#     4  12  27  43  68  98 137 185 227 292 342 408
#     4  11  25  46  69 100 136 184 235 280 348 408
#     4  10  23  44  73 100 135 181 224 285 341 411
#     4  10  23  42  66  96 134 175 226 284 334 408
#     4  10  22  44  70 102 137 177 225 278 350 408
#     4  12  25  42  67 106 139 180 226 281 344 411
#     4  12  26  44  68  96 136 186 232 286 340 404
#     4  11  24  41  65  98 132 178 225 281 341 401
#
# _framework density 22.977544000000002
#
# number of rings (size 3 to 8) (size 9 to 14) (size 15 to 20)
#    0.000    1.067    1.333    4.000    1.867    6.400 
#    0.000    6.667    0.000    0.000    0.000    0.000 
#    0.000    0.000    0.000    0.000    0.000    0.000 
#
# Total GULP energy -83742.026103 kJ/mol
# GULP energy per Si atom -5582.801740 kJ/mol
# Density = 2.292525 g / cm^3
# Si number density = 22.977544 Si / 1000 Ang^3
#
#
#
# Elastic Constant Matrix: (Units=GPa)
#
#
# Indices 1 2 3 4 5 6 
#
# 1 61.5456 19.8765 13.6433 -1.9003 -17.4411 4.1054
# 2 19.8765 130.1603 21.9795 29.3747 -9.4669 -18.9605
# 3 13.6433 21.9795 74.1352 15.0234 -12.5324 -18.3080
# 4 -1.9003 29.3747 15.0234 25.8438 -4.5049 -12.4968
# 5 -17.4411 -9.4669 -12.5324 -4.5049 25.9956 1.2720
# 6 4.1054 -18.9605 -18.3080 -12.4968 1.2720 51.3427
#
#
#
# Elastic Compliance Matrix: (Units=1/GPa)
#
#
# Indices 1 2 3 4 5 6 
#
# 1 0.022852 -0.004543 -0.003123 0.009860 0.014007 -0.002565
# 2 -0.004543 0.011382 0.000271 -0.012863 -0.001077 0.001559
# 3 -0.003123 0.000271 0.017494 -0.007625 0.004890 0.004611
# 4 0.009860 -0.012863 -0.007625 0.063384 0.008899 0.006950
# 5 0.014007 -0.001077 0.004890 0.008899 0.051318 0.001121
# 6 -0.002565 0.001559 0.004611 0.006950 0.001121 0.023566
#
#
# Mechanical properties :
#
#
# Convention : Reuss Voigt Hill
#
# Bulk Modulus (GPa) = 27.07099 41.87109 34.47104
# Shear Modulus (GPa) = 23.03113 34.65920 28.84517
#
# Velocity S-wave (km/s) = 3.16940 3.88802 3.54695
# Velocity P-wave (km/s) = 5.02001 6.19821 5.63996
#
# Compressibility (1/GPa) = 0.03693991
#
# Stress axis : x y z
#
# Youngs Moduli (GPa) = 43.75945 87.85451 57.16341
#
# Poissons Ratio (x) = 0.39908 0.17850
# Poissons Ratio (y) = 0.19878 -0.01549
# Poissons Ratio (z) = 0.13664 -0.02380
#
# Static dielectric constant tensor:
#      x y z
#    x 1.860970 0.034480 0.007780 
#    y 0.034480 1.839610 -0.031580 
#    z 0.007780 -0.031580 1.908040 
# 
# From -- ./inp_files/60440.got.cif
#   From: 2010.05.17/outbox.cif.g08.bks.cpg/sg2_31_cif.got.tgz:60440.got - 2010.06.03 11:33:40.
