data_PCOD9033215
_publ_section_title
;
Structure prediction by ZEFSAII (Michael W. Deem and Ramdas Pophale) SiO2 
 PCOD9033215
Probable space group: P -1
;
_chemical_formula_sum "Si O2"
_cell_formula_units_Z 16
_cell_length_a 17.989583
_cell_length_b 5.458944
_cell_length_c 7.642495
_cell_angle_alpha 63.055202
_cell_angle_beta 66.396606
_cell_angle_gamma 71.315574
_cell_volume 604.146051
_symmetry_space_group_name_H-M "P -1"
_symmetry_group_IT_number 2
_symmetry_cell_setting 'triclinic'
loop_
_space_group_symop_operation_xyz
x,y,z
-x,-y,-z
loop_
_atom_site_type_symbol
_atom_site_label
_atom_site_fract_x
_atom_site_fract_y
_atom_site_fract_z
Si Si1 0.702463 0.211705 0.294525
Si Si2 0.789479 0.656100 0.018424
Si Si3 0.033327 0.247409 0.177693
Si Si4 0.069402 0.679084 0.417563
Si Si5 0.616044 0.887973 0.945059
Si Si6 0.562213 0.279833 0.179035
Si Si7 0.229010 0.355367 0.531434
Si Si8 0.390369 0.550726 0.400240
O O1 0.769629 0.352174 0.088207
O O2 0.635648 0.099632 0.277530
O O3 0.642136 0.460812 0.368697
O O4 0.752374 0.966317 0.438432
O O5 0.710426 0.848535 0.942772
O O6 0.792017 0.656187 0.233387
O O7 0.878130 0.697499 0.853683
O O8 0.959729 0.224549 0.388693
O O9 0.059668 0.924401 0.204332
O O10 0.000000 0.500000 0.000000
O O11 0.159534 0.518542 0.422547
O O12 0.000000 0.500000 0.500000
O O13 0.591777 0.583992 0.022837
O O14 0.559825 0.081494 0.079319
O O15 0.605989 0.120616 0.727107
O O16 0.475670 0.362389 0.331534
O O17 0.312656 0.479706 0.390712
#
# Coordination Sequence:
#
# PCOD9033215 Si02
#       8
#     2   2   2   2   2   2   2   2
#     4  10  24  41  67  97 136 187 232 294 354 435
#     4  10  22  44  66  97 132 189 231 282 366 437
#     4  11  24  46  74  96 145 182 229 298 364 437
#     4  11  27  44  70 111 134 180 241 299 362 441
#     4  11  24  43  67 100 141 186 241 299 363 433
#     4  11  24  44  67 100 141 189 244 293 365 433
#     4  11  23  43  66  95 141 176 234 295 361 430
#     4  11  25  40  67  97 134 184 235 300 355 427
#
# _framework density 26.48366
#
# number of rings (size 3 to 8) (size 9 to 14) (size 15 to 20)
#    0.000    1.250    2.500    1.875    5.250    4.000 
#    2.250    0.000    0.000    0.000    0.000    0.000 
#    0.000    0.000    0.000    0.000    0.000    0.000 
#
# Total GULP energy -89348.053907 kJ/mol
# GULP energy per Si atom -5584.253369 kJ/mol
# Density = 2.642338 g / cm^3
# Si number density = 26.483660 Si / 1000 Ang^3
#
#
#
# Elastic Constant Matrix: (Units=GPa)
#
#
# Indices 1 2 3 4 5 6 
#
# 1 127.1792 31.3095 17.5980 -22.9237 -25.1744 -27.6964
# 2 31.3095 113.8298 33.7357 -24.4335 -7.2411 -22.9339
# 3 17.5980 33.7357 72.4103 -11.2091 -8.6782 -12.2738
# 4 -22.9237 -24.4335 -11.2091 57.5370 -3.5630 4.1352
# 5 -25.1744 -7.2411 -8.6782 -3.5630 50.0842 -5.8792
# 6 -27.6964 -22.9339 -12.2738 4.1352 -5.8792 43.9520
#
#
#
# Elastic Compliance Matrix: (Units=1/GPa)
#
#
# Indices 1 2 3 4 5 6 
#
# 1 0.011877 -0.000290 0.000153 0.004516 0.007205 0.007914
# 2 -0.000290 0.011944 -0.003848 0.003969 0.001765 0.004838
# 3 0.000153 -0.003848 0.016668 0.001638 0.002874 0.002973
# 4 0.004516 0.003969 0.001638 0.021208 0.005113 0.004062
# 5 0.007205 0.001765 0.002874 0.005113 0.025788 0.009232
# 6 0.007914 0.004838 0.002973 0.004062 0.009232 0.031947
#
#
# Mechanical properties :
#
#
# Convention : Reuss Voigt Hill
#
# Bulk Modulus (GPa) = 30.75257 53.18953 41.97105
# Shear Modulus (GPa) = 36.16830 45.69972 40.93401
#
# Velocity S-wave (km/s) = 3.69952 4.15852 3.93572
# Velocity P-wave (km/s) = 5.46679 6.57155 6.04446
#
# Compressibility (1/GPa) = 0.03251761
#
# Stress axis : x y z
#
# Youngs Moduli (GPa) = 84.19770 83.72337 59.99512
#
# Poissons Ratio (x) = 0.02426 -0.00916
# Poissons Ratio (y) = 0.02440 0.23089
# Poissons Ratio (z) = -0.01285 0.32221
#
# Static dielectric constant tensor:
#      x y z
#    x 2.073370 0.066700 0.096450 
#    y 0.066700 2.244440 0.101370 
#    z 0.096450 0.101370 2.241230 
# 
# From -- ./inp_files/55483.got.cif
#   From: 2010.05.17/outbox.cif.g08.bks.cpg/sg2_28_cif.got.tgz:55483.got - 2010.06.03 11:33:40.
