data_PCOD9033311
_publ_section_title
;
Structure prediction by ZEFSAII (Michael W. Deem and Ramdas Pophale) SiO2 
 PCOD9033311
Probable space group: P -1
;
_chemical_formula_sum "Si O2"
_cell_formula_units_Z 16
_cell_length_a 8.082639
_cell_length_b 14.832446
_cell_length_c 7.129747
_cell_angle_alpha 68.598934
_cell_angle_beta 100.715421
_cell_angle_gamma 74.183014
_cell_volume 725.787292
_symmetry_space_group_name_H-M "P -1"
_symmetry_group_IT_number 2
_symmetry_cell_setting 'triclinic'
loop_
_space_group_symop_operation_xyz
x,y,z
-x,-y,-z
loop_
_atom_site_type_symbol
_atom_site_label
_atom_site_fract_x
_atom_site_fract_y
_atom_site_fract_z
Si Si1 0.217316 0.912528 0.300653
Si Si2 0.413424 0.708116 0.259382
Si Si3 0.816660 0.922828 0.145337
Si Si4 0.092335 0.375515 0.126517
Si Si5 0.556471 0.597226 0.720322
Si Si6 0.284460 0.250454 0.916947
Si Si7 0.736625 0.355271 0.066988
Si Si8 0.584879 0.059436 0.331166
O O1 0.347625 0.813311 0.287095
O O2 0.275930 0.914021 0.525528
O O3 0.018053 0.910205 0.253589
O O4 0.219932 0.011962 0.107037
O O5 0.454481 0.616353 0.487207
O O6 0.601629 0.693107 0.209372
O O7 0.270384 0.712261 0.064430
O O8 0.680836 0.988876 0.227421
O O9 0.795959 0.813658 0.187535
O O10 0.285136 0.354908 0.282475
O O11 0.138753 0.328410 0.964146
O O12 0.938352 0.335174 0.199817
O O13 0.000000 0.500000 0.000000
O O14 0.403214 0.651936 0.801343
O O15 0.650367 0.475867 0.886562
O O16 0.431571 0.162779 0.141808
O O17 0.500000 0.000000 0.500000
#
# Coordination Sequence:
#
# PCOD9033311 Si02
#       8
#     2   2   2   2   2   2   2   2
#     4  11  24  41  66  93 134 169 220 271 327 394
#     4  12  23  41  67  98 131 175 221 272 333 397
#     4  11  24  44  62  97 132 172 218 275 324 393
#     4  10  22  44  69  98 133 173 220 276 333 393
#     4  10  22  44  67  95 129 176 221 272 336 391
#     4  12  23  43  66  95 137 172 223 275 329 395
#     4  10  22  44  67  92 135 170 220 281 325 391
#     4  12  23  43  66  91 126 178 217 265 331 388
#
# _framework density 22.045026
#
# number of rings (size 3 to 8) (size 9 to 14) (size 15 to 20)
#    0.000    1.000    3.750    3.375    0.000    0.000 
#    6.750    1.250    0.000    0.000    0.000    0.000 
#    0.000    0.000    0.000    0.000    0.000    0.000 
#
# Total GULP energy -89499.016688 kJ/mol
# GULP energy per Si atom -5593.688543 kJ/mol
# Density = 2.199485 g / cm^3
# Si number density = 22.045026 Si / 1000 Ang^3
#
#
#
# Elastic Constant Matrix: (Units=GPa)
#
#
# Indices 1 2 3 4 5 6 
#
# 1 100.0602 10.8836 24.7817 8.8790 8.1727 -3.1377
# 2 10.8836 83.9848 9.0991 33.7737 3.2673 -11.1237
# 3 24.7817 9.0991 86.8423 12.4433 2.7563 5.0230
# 4 8.8790 33.7737 12.4433 24.7590 5.5087 2.5050
# 5 8.1727 3.2673 2.7563 5.5087 23.6378 10.6737
# 6 -3.1377 -11.1237 5.0230 2.5050 10.6737 33.5834
#
#
#
# Elastic Compliance Matrix: (Units=1/GPa)
#
#
# Indices 1 2 3 4 5 6 
#
# 1 0.011382 0.000514 -0.002975 -0.002611 -0.004550 0.003320
# 2 0.000514 0.032192 0.002365 -0.046623 -0.000333 0.013941
# 3 -0.002975 0.002365 0.013457 -0.009206 0.001925 -0.001433
# 4 -0.002611 -0.046623 -0.009206 0.113581 -0.009062 -0.019902
# 5 -0.004550 -0.000333 0.001925 -0.009062 0.053566 -0.017172
# 6 0.003320 0.013941 -0.001433 -0.019902 -0.017172 0.041861
#
#
# Mechanical properties :
#
#
# Convention : Reuss Voigt Hill
#
# Bulk Modulus (GPa) = 17.59343 40.04622 28.81983
# Shear Modulus (GPa) = 17.53287 31.47089 24.50188
#
# Velocity S-wave (km/s) = 2.82320 3.78242 3.33745
# Velocity P-wave (km/s) = 4.31570 6.10579 5.28706
#
# Compressibility (1/GPa) = 0.05683939
#
# Stress axis : x y z
#
# Youngs Moduli (GPa) = 87.85457 31.06319 74.30961
#
# Poissons Ratio (x) = -0.01597 0.22110
# Poissons Ratio (y) = -0.04518 -0.17573
# Poissons Ratio (z) = 0.26141 -0.07346
#
# Static dielectric constant tensor:
#      x y z
#    x 1.797490 0.029470 0.020830 
#    y 0.029470 1.807260 0.001410 
#    z 0.020830 0.001410 1.779450 
# 
# From -- ./inp_files/38113.got.cif
#   From: 2010.05.17/outbox.cif.g08.bks.cpg/sg2_20_cif.got.tgz:38113.got - 2010.06.03 11:33:40.
