data_PCOD9033641
_publ_section_title
;
Structure prediction by ZEFSAII (Michael W. Deem and Ramdas Pophale) SiO2 
 PCOD9033641
Probable space group: P -1
;
_chemical_formula_sum "Si O2"
_cell_formula_units_Z 12
_cell_length_a 7.388661
_cell_length_b 15.447173
_cell_length_c 7.677978
_cell_angle_alpha 45.329550
_cell_angle_beta 81.855073
_cell_angle_gamma 61.004544
_cell_volume 516.410262
_symmetry_space_group_name_H-M "P -1"
_symmetry_group_IT_number 2
_symmetry_cell_setting 'triclinic'
loop_
_space_group_symop_operation_xyz
x,y,z
-x,-y,-z
loop_
_atom_site_type_symbol
_atom_site_label
_atom_site_fract_x
_atom_site_fract_y
_atom_site_fract_z
Si Si1 0.518911 0.352397 0.260416
Si Si2 0.927744 0.043522 0.747039
Si Si3 0.287428 0.134257 0.998363
Si Si4 0.897600 0.590401 0.563953
Si Si5 0.685935 0.942190 0.406190
Si Si6 0.247570 0.319353 0.078390
O O1 0.740370 0.214184 0.503135
O O2 0.325443 0.393374 0.366573
O O3 0.459375 0.299418 0.167736
O O4 0.500000 0.500000 0.000000
O O5 0.143531 0.011740 0.664693
O O6 0.834669 0.947760 0.832960
O O7 0.000000 0.000000 0.000000
O O8 0.165789 0.248342 0.698498
O O9 0.272603 0.240930 0.003240
O O10 0.546218 0.011060 0.151163
O O11 0.000000 0.500000 0.500000
O O12 0.077243 0.488502 0.826363
O O13 0.812887 0.768955 0.658265
O O14 0.500000 0.000000 0.500000
#
# Coordination Sequence:
#
# PCOD9033641 Si02
#       6
#     2   2   2   2   2   2
#     4  12  26  44  70 107 142 182 244 293 341 422
#     4  12  27  42  72 110 140 183 236 291 349 421
#     4  10  23  46  69 104 145 182 231 288 356 420
#     4  10  23  45  70  98 141 191 224 286 361 414
#     4  10  22  44  69 101 138 181 229 282 349 411
#     4  10  22  44  71  99 139 189 229 286 351 409
#
# _framework density 23.237338999999999
#
# number of rings (size 3 to 8) (size 9 to 14) (size 15 to 20)
#    0.000    1.333    1.667    2.500    4.667    4.000 
#   12.000    1.667    0.000    0.000    0.000    0.000 
#    0.000    0.000    0.000    0.000    0.000    0.000 
#
# Total GULP energy -66976.035350 kJ/mol
# GULP energy per Si atom -5581.336279 kJ/mol
# Density = 2.318445 g / cm^3
# Si number density = 23.237339 Si / 1000 Ang^3
#
#
#
# Elastic Constant Matrix: (Units=GPa)
#
#
# Indices 1 2 3 4 5 6 
#
# 1 152.1585 27.3461 47.8591 -20.1349 -12.1266 -5.8326
# 2 27.3461 98.7326 41.1233 -16.8779 5.1779 -0.8422
# 3 47.8591 41.1233 234.9114 -36.7783 11.7318 -6.7307
# 4 -20.1349 -16.8779 -36.7783 45.3117 8.7186 1.4965
# 5 -12.1266 5.1779 11.7318 8.7186 53.5037 -3.9986
# 6 -5.8326 -0.8422 -6.7307 1.4965 -3.9986 42.1622
#
#
#
# Elastic Compliance Matrix: (Units=1/GPa)
#
#
# Indices 1 2 3 4 5 6 
#
# 1 0.007579 -0.001468 -0.001120 0.001508 0.001932 0.000970
# 2 -0.001468 0.011640 -0.001184 0.003070 -0.001732 -0.000433
# 3 -0.001120 -0.001184 0.005392 0.003794 -0.001912 0.000366
# 4 0.001508 0.003070 0.003794 0.028023 -0.005401 -0.000631
# 5 0.001932 -0.001732 -0.001912 -0.005401 0.020751 0.002087
# 6 0.000970 -0.000433 0.000366 -0.000631 0.002087 0.024122
#
#
# Mechanical properties :
#
#
# Convention : Reuss Voigt Hill
#
# Bulk Modulus (GPa) = 58.58808 79.82884 69.20846
# Shear Modulus (GPa) = 45.15085 52.82711 48.98898
#
# Velocity S-wave (km/s) = 4.41276 4.77316 4.59650
# Velocity P-wave (km/s) = 7.15758 8.05020 7.61698
#
# Compressibility (1/GPa) = 0.01706832
#
# Stress axis : x y z
#
# Youngs Moduli (GPa) = 131.94623 85.91057 185.44961
#
# Poissons Ratio (x) = 0.12611 0.20763
# Poissons Ratio (y) = 0.19369 0.21954
# Poissons Ratio (z) = 0.14773 0.10170
#
# Static dielectric constant tensor:
#      x y z
#    x 1.824230 -0.046770 0.024440 
#    y -0.046770 1.746670 -0.004240 
#    z 0.024440 -0.004240 1.956090 
# 
# From -- ./inp_files/28944.got.cif
#   From: 2010.05.17/outbox.cif.g08.bks.cpg/sg2_15_cif.got.tgz:28944.got - 2010.06.03 11:33:40.
