data_PCOD9033847
_publ_section_title
;
Structure prediction by ZEFSAII (Michael W. Deem and Ramdas Pophale) SiO2 
 PCOD9033847
Probable space group: P -1
;
_chemical_formula_sum "Si O2"
_cell_formula_units_Z 16
_cell_length_a 7.713916
_cell_length_b 13.827941
_cell_length_c 8.784669
_cell_angle_alpha 53.232170
_cell_angle_beta 107.879944
_cell_angle_gamma 74.841167
_cell_volume 579.869437
_symmetry_space_group_name_H-M "P -1"
_symmetry_group_IT_number 2
_symmetry_cell_setting 'triclinic'
loop_
_space_group_symop_operation_xyz
x,y,z
-x,-y,-z
loop_
_atom_site_type_symbol
_atom_site_label
_atom_site_fract_x
_atom_site_fract_y
_atom_site_fract_z
Si Si1 0.283115 0.240853 0.180245
Si Si2 0.174703 0.875798 0.840874
Si Si3 0.851404 0.948220 0.939856
Si Si4 0.424289 0.395781 0.610126
Si Si5 0.899680 0.339976 0.522417
Si Si6 0.625791 0.322727 0.221970
Si Si7 0.916111 0.542077 0.764256
Si Si8 0.615021 0.955928 0.332964
O O1 0.430711 0.300918 0.200527
O O2 0.440840 0.103274 0.244333
O O3 0.256133 0.179241 0.387177
O O4 0.061541 0.369335 0.913622
O O5 0.224636 0.786489 0.777591
O O6 0.220238 0.003434 0.725603
O O7 0.937829 0.927988 0.804915
O O8 0.373180 0.753494 0.119892
O O9 0.580741 0.047924 0.800064
O O10 0.943198 0.793080 0.195089
O O11 0.000000 0.000000 0.000000
O O12 0.500000 0.500000 0.500000
O O13 0.232641 0.497848 0.586937
O O14 0.327713 0.385928 0.435429
O O15 0.752434 0.295345 0.439909
O O16 0.016570 0.362667 0.393159
O O17 0.500000 0.500000 0.000000
O O18 0.000000 0.500000 0.000000
#
# Coordination Sequence:
#
# PCOD9033847 Si02
#       8
#     2   2   2   2   2   2   2   2
#     4  10  22  44  70 102 148 192 239 309 380 435
#     4  11  25  47  77 108 150 199 250 311 386 452
#     4  12  27  46  73 108 145 200 257 307 376 457
#     4  12  25  44  73 106 146 194 242 313 385 447
#     4  12  24  44  72 102 151 185 245 313 373 449
#     4  11  21  41  74 109 145 194 242 314 382 449
#     4  12  28  42  70 110 145 193 247 306 387 450
#     4  10  23  47  73  99 147 199 245 309 367 454
#
# _framework density 27.592419
#
# number of rings (size 3 to 8) (size 9 to 14) (size 15 to 20)
#    0.000    0.750    3.750    3.375    3.500    2.500 
#    0.000    8.750    0.000    0.000    0.000    0.000 
#    0.000    0.000    0.000    0.000    0.000    0.000 
#
# Total GULP energy -89582.367268 kJ/mol
# GULP energy per Si atom -5598.897954 kJ/mol
# Density = 2.752962 g / cm^3
# Si number density = 27.592419 Si / 1000 Ang^3
#
#
#
# Elastic Constant Matrix: (Units=GPa)
#
#
# Indices 1 2 3 4 5 6 
#
# 1 131.6437 26.5283 59.1693 1.8289 -11.2946 8.4959
# 2 26.5283 120.6105 18.8795 16.8107 -0.4847 6.2976
# 3 59.1693 18.8795 165.5993 -7.9698 -8.1108 30.5060
# 4 1.8289 16.8107 -7.9698 55.2617 12.6430 -2.7505
# 5 -11.2946 -0.4847 -8.1108 12.6430 52.4467 2.4354
# 6 8.4959 6.2976 30.5060 -2.7505 2.4354 53.0150
#
#
#
# Elastic Compliance Matrix: (Units=1/GPa)
#
#
# Indices 1 2 3 4 5 6 
#
# 1 0.009483 -0.001497 -0.003245 -0.000689 0.001673 0.000413
# 2 -0.001497 0.009147 -0.000493 -0.002939 0.000429 -0.000735
# 3 -0.003245 -0.000493 0.008073 0.001115 0.000463 -0.004030
# 4 -0.000689 -0.002939 0.001115 0.020364 -0.004963 0.001102
# 5 0.001673 0.000429 0.000463 -0.004963 0.020783 -0.001798
# 6 0.000413 -0.000735 -0.004030 0.001102 -0.001798 0.021343
#
#
# Mechanical properties :
#
#
# Convention : Reuss Voigt Hill
#
# Bulk Modulus (GPa) = 61.59913 69.66752 65.63333
# Shear Modulus (GPa) = 47.58595 53.02975 50.30785
#
# Velocity S-wave (km/s) = 4.15734 4.38870 4.27458
# Velocity P-wave (km/s) = 6.73927 7.14034 6.94270
#
# Compressibility (1/GPa) = 0.01623399
#
# Stress axis : x y z
#
# Youngs Moduli (GPa) = 105.45404 109.32247 123.86822
#
# Poissons Ratio (x) = 0.16362 0.40193
# Poissons Ratio (y) = 0.15783 0.06108
# Poissons Ratio (z) = 0.34218 0.05391
#
# Static dielectric constant tensor:
#      x y z
#    x 2.098680 0.274320 0.018430 
#    y 0.274320 1.506290 0.030410 
#    z 0.018430 0.030410 2.067150 
# 
# From -- ./inp_files/205735.got.cif
#   From: 2010.05.17/outbox.cif.g08.bks.cpg/sg2_103_cif.got.tgz:205735.got - 2010.06.03 11:33:40.
