data_PCOD9033016
_publ_section_title
;
Structure prediction by ZEFSAII (Michael W. Deem and Ramdas Pophale) SiO2 
 PCOD9033016
Probable space group: P -1
;
_chemical_formula_sum "Si O2"
_cell_formula_units_Z 12
_cell_length_a 10.251121
_cell_length_b 9.925311
_cell_length_c 11.969963
_cell_angle_alpha 140.700150
_cell_angle_beta 61.881042
_cell_angle_gamma 89.440270
_cell_volume 504.830501
_symmetry_space_group_name_H-M "P -1"
_symmetry_group_IT_number 2
_symmetry_cell_setting 'triclinic'
loop_
_space_group_symop_operation_xyz
x,y,z
-x,-y,-z
loop_
_atom_site_type_symbol
_atom_site_label
_atom_site_fract_x
_atom_site_fract_y
_atom_site_fract_z
Si Si1 0.046726 0.759211 0.238180
Si Si2 0.395376 0.380105 0.999421
Si Si3 0.125405 0.774949 0.562938
Si Si4 0.576487 0.277790 0.426807
Si Si5 0.958131 0.790113 0.852621
Si Si6 0.746237 0.728579 0.436032
O O1 0.885146 0.728560 0.297550
O O2 0.258937 0.460105 0.997581
O O3 0.000000 0.000000 0.500000
O O4 0.012793 0.906388 0.228464
O O5 0.577738 0.056454 0.752187
O O6 0.500000 0.500000 0.000000
O O7 0.239004 0.551503 0.273270
O O8 0.301580 0.709120 0.522701
O O9 0.994788 0.752820 0.681881
O O10 0.500000 0.500000 0.500000
O O11 0.390170 0.334383 0.590284
O O12 0.738438 0.966321 0.102775
O O13 0.115027 0.494543 0.664872
O O14 0.000000 0.000000 0.000000
#
# Coordination Sequence:
#
# PCOD9033016 Si02
#       6
#     2   2   2   2   2   2
#     4  10  22  44  64  99 141 173 221 286 327 395
#     4  11  23  45  70  99 140 176 227 280 334 407
#     4  10  22  44  72 100 138 182 218 288 342 386
#     4  11  23  45  70  99 140 176 227 280 334 407
#     4  10  22  44  64  99 141 173 221 286 327 395
#     4  12  22  44  74  96 142 182 218 284 344 392
#
# _framework density 23.770354000000001
#
# number of rings (size 3 to 8) (size 9 to 14) (size 15 to 20)
#    0.000    1.333    6.667    1.000    0.000    2.667 
#    0.000    8.333    0.000    0.000    0.000    0.000 
#    0.000    0.000    0.000    0.000    0.000    0.000 
#
# Total GULP energy -67101.741395 kJ/mol
# GULP energy per Si atom -5591.811783 kJ/mol
# Density = 2.371625 g / cm^3
# Si number density = 23.770354 Si / 1000 Ang^3
#
#
#
# Elastic Constant Matrix: (Units=GPa)
#
#
# Indices 1 2 3 4 5 6 
#
# 1 97.2892 29.9823 15.4002 -0.5088 -21.2148 4.6411
# 2 29.9823 133.9804 67.9772 32.2029 -2.4273 -19.9780
# 3 15.4002 67.9772 143.7552 30.3401 -26.4221 -10.6820
# 4 -0.5088 32.2029 30.3401 47.8613 -3.7730 -9.4309
# 5 -21.2148 -2.4273 -26.4221 -3.7730 33.8703 5.6315
# 6 4.6411 -19.9780 -10.6820 -9.4309 5.6315 42.0882
#
#
#
# Elastic Compliance Matrix: (Units=1/GPa)
#
#
# Indices 1 2 3 4 5 6 
#
# 1 0.014281 -0.005380 0.002270 0.002331 0.011346 -0.004548
# 2 -0.005380 0.013546 -0.005926 -0.004994 -0.008499 0.005537
# 3 0.002270 -0.005926 0.011914 -0.003148 0.010293 -0.002122
# 4 0.002331 -0.004994 -0.003148 0.026849 0.001235 0.002424
# 5 0.011346 -0.008499 0.010293 0.001235 0.045602 -0.008498
# 6 -0.004548 0.005537 -0.002122 0.002424 -0.008498 0.028031
#
#
# Mechanical properties :
#
#
# Convention : Reuss Voigt Hill
#
# Bulk Modulus (GPa) = 46.15149 66.86047 56.50598
# Shear Modulus (GPa) = 30.20805 42.20829 36.20817
#
# Velocity S-wave (km/s) = 3.56874 4.21844 3.90712
# Velocity P-wave (km/s) = 6.03646 7.20526 6.64660
#
# Compressibility (1/GPa) = 0.02166777
#
# Stress axis : x y z
#
# Youngs Moduli (GPa) = 70.02512 73.81993 83.93616
#
# Poissons Ratio (x) = 0.39717 -0.19050
# Poissons Ratio (y) = 0.37675 0.49740
# Poissons Ratio (z) = -0.15893 0.43745
#
# Static dielectric constant tensor:
#      x y z
#    x 1.942370 0.008570 0.064010 
#    y 0.008570 1.920750 -0.028890 
#    z 0.064010 -0.028890 1.960120 
# 
# From -- ./inp_files/418356.got.cif
#   From: 2010.05.17/outbox.cif.g08.bks.cpg/sg2_210_cif.got.tgz:418356.got - 2010.06.03 11:33:40.
