data_PCOD9033308
_publ_section_title
;
Structure prediction by ZEFSAII (Michael W. Deem and Ramdas Pophale) SiO2 
 PCOD9033308
Probable space group: P -1
;
_chemical_formula_sum "Si O2"
_cell_formula_units_Z 14
_cell_length_a 6.347691
_cell_length_b 13.479640
_cell_length_c 19.111456
_cell_angle_alpha 23.177537
_cell_angle_beta 100.017427
_cell_angle_gamma 88.755788
_cell_volume 559.902173
_symmetry_space_group_name_H-M "P -1"
_symmetry_group_IT_number 2
_symmetry_cell_setting 'triclinic'
loop_
_space_group_symop_operation_xyz
x,y,z
-x,-y,-z
loop_
_atom_site_type_symbol
_atom_site_label
_atom_site_fract_x
_atom_site_fract_y
_atom_site_fract_z
Si Si1 0.711279 0.068484 0.447780
Si Si2 0.132373 0.515341 0.792486
Si Si3 0.844014 0.455955 0.685414
Si Si4 0.601367 0.677543 0.848846
Si Si5 0.309047 0.931210 0.992368
Si Si6 0.160463 0.203568 0.662617
Si Si7 0.066259 0.189762 0.119988
O O1 0.676912 0.364674 0.285719
O O2 0.651521 0.098063 0.343571
O O3 0.500000 0.000000 0.500000
O O4 0.960712 0.787093 0.656502
O O5 0.009191 0.508559 0.717807
O O6 0.158771 0.251337 0.011455
O O7 0.734713 0.707484 0.457424
O O8 0.036535 0.174985 0.836730
O O9 0.678820 0.356304 0.786619
O O10 0.744023 0.811725 0.811750
O O11 0.500000 0.500000 0.000000
O O12 0.803383 0.453762 0.952858
O O13 0.327876 0.981429 0.877129
O O14 0.500000 0.000000 0.000000
O O15 0.000000 0.500000 0.500000
O O16 0.981901 0.079207 0.708313
#
# Coordination Sequence:
#
# PCOD9033308 Si02
#       7
#     2   2   2   2   2   2   2
#     4  11  24  40  60  94 131 167 214 266 322 397
#     4  11  23  40  64  93 130 172 212 267 332 389
#     4  10  23  41  65  92 128 168 210 269 329 383
#     4  11  24  41  62  96 127 170 218 262 329 390
#     4  10  22  44  67  92 123 165 221 271 322 387
#     4  10  23  44  65  93 133 171 215 271 326 382
#     4  11  23  42  66  91 134 173 213 276 323 388
#
# _framework density 25.004366999999998
#
# number of rings (size 3 to 8) (size 9 to 14) (size 15 to 20)
#    0.000    1.429    4.286    0.000    4.000    2.857 
#    2.571    0.000    0.000    0.000    0.000    0.000 
#    0.000    0.000    0.000    0.000    0.000    0.000 
#
# Total GULP energy -78085.708867 kJ/mol
# GULP energy per Si atom -5577.550633 kJ/mol
# Density = 2.494746 g / cm^3
# Si number density = 25.004367 Si / 1000 Ang^3
#
#
#
# Elastic Constant Matrix: (Units=GPa)
#
#
# Indices 1 2 3 4 5 6 
#
# 1 85.6101 34.2310 41.4684 -2.2963 -26.1028 9.4241
# 2 34.2310 114.6551 56.2555 6.5145 -25.5964 25.9367
# 3 41.4684 56.2555 162.6603 11.8675 -52.9627 6.8306
# 4 -2.2963 6.5145 11.8675 51.6124 -7.4323 -4.4728
# 5 -26.1028 -25.5964 -52.9627 -7.4323 47.1017 -8.9847
# 6 9.4241 25.9367 6.8306 -4.4728 -8.9847 56.7381
#
#
#
# Elastic Compliance Matrix: (Units=1/GPa)
#
#
# Indices 1 2 3 4 5 6 
#
# 1 0.015223 -0.002775 -0.001123 0.002150 0.006004 -0.000005
# 2 -0.002775 0.012358 -0.003075 -0.001309 0.000592 -0.004827
# 3 -0.001123 -0.003075 0.010727 -0.000522 0.010038 0.001849
# 4 0.002150 -0.001309 -0.000522 0.020490 0.003601 0.002490
# 5 0.006004 0.000592 0.010038 0.003601 0.037448 0.003737
# 6 -0.000005 -0.004827 0.001849 0.002490 0.003737 0.020398
#
#
# Mechanical properties :
#
#
# Convention : Reuss Voigt Hill
#
# Bulk Modulus (GPa) = 41.04879 69.64836 55.34858
# Shear Modulus (GPa) = 36.04627 46.48847 41.26737
#
# Velocity S-wave (km/s) = 3.80096 4.31654 4.06693
# Velocity P-wave (km/s) = 5.97623 7.26349 6.65108
#
# Compressibility (1/GPa) = 0.02436125
#
# Stress axis : x y z
#
# Youngs Moduli (GPa) = 65.68946 80.92036 93.22636
#
# Poissons Ratio (x) = 0.22452 0.10470
# Poissons Ratio (y) = 0.18226 0.28671
# Poissons Ratio (z) = 0.07378 0.24886
#
# Static dielectric constant tensor:
#      x y z
#    x 2.114980 -0.027910 -0.079760 
#    y -0.027910 2.018650 -0.037390 
#    z -0.079760 -0.037390 2.048500 
# 
# From -- ./inp_files/43046.got.cif
#   From: 2010.05.17/outbox.cif.g08.bks.cpg/sg2_22_cif.got.tgz:43046.got - 2010.06.03 11:33:40.
