data_PCOD9033799
_publ_section_title
;
Structure prediction by ZEFSAII (Michael W. Deem and Ramdas Pophale) SiO2 
 PCOD9033799
Probable space group: P -1
;
_chemical_formula_sum "Si O2"
_cell_formula_units_Z 14
_cell_length_a 13.528712
_cell_length_b 9.111331
_cell_length_c 18.639818
_cell_angle_alpha 136.209382
_cell_angle_beta 155.322983
_cell_angle_gamma 37.093548
_cell_volume 578.511613
_symmetry_space_group_name_H-M "P -1"
_symmetry_group_IT_number 2
_symmetry_cell_setting 'triclinic'
loop_
_space_group_symop_operation_xyz
x,y,z
-x,-y,-z
loop_
_atom_site_type_symbol
_atom_site_label
_atom_site_fract_x
_atom_site_fract_y
_atom_site_fract_z
Si Si1 0.472925 0.655773 0.877623
Si Si2 0.169053 0.736292 0.551000
Si Si3 0.338644 0.379970 0.252981
Si Si4 0.053894 0.231889 0.119251
Si Si5 0.131038 0.495675 0.659664
Si Si6 0.869277 0.864034 0.083837
Si Si7 0.191054 0.075225 0.308574
O O1 0.311623 0.711265 0.714662
O O2 0.422906 0.462979 0.824868
O O3 0.350614 0.905093 0.932516
O O4 0.790982 0.486261 0.013536
O O5 0.398571 0.605234 0.595108
O O6 0.944736 0.653438 0.388310
O O7 0.000000 0.000000 0.500000
O O8 0.312307 0.215931 0.240824
O O9 0.109708 0.655988 0.215578
O O10 0.273963 0.261773 0.098865
O O11 0.106990 0.236785 0.239860
O O12 0.000000 0.000000 0.000000
O O13 0.000000 0.500000 0.500000
O O14 0.963617 0.771252 0.670866
O O15 0.054731 0.902708 0.158453
O O16 0.500000 0.000000 0.500000
#
# Coordination Sequence:
#
# PCOD9033799 Si02
#       7
#     2   2   2   2   2   2   2
#     4  10  24  45  70  99 138 180 242 282 342 424
#     4  11  25  42  69 102 140 185 224 289 354 408
#     4  11  24  42  69  99 143 180 234 283 352 417
#     4  12  27  44  71 102 139 193 230 287 347 413
#     4   9  22  42  69  98 139 179 226 283 346 404
#     4  10  22  44  70 100 134 184 230 296 345 406
#     4  11  24  42  69 100 136 180 236 282 341 417
#
# _framework density 24.200033000000001
#
# number of rings (size 3 to 8) (size 9 to 14) (size 15 to 20)
#    0.000    1.429    1.429    2.571    6.000    9.143 
#    0.000    2.143    0.000    0.000    0.000    0.000 
#    0.000    0.000    0.000    0.000    0.000    0.000 
#
# Total GULP energy -77979.786157 kJ/mol
# GULP energy per Si atom -5569.984725 kJ/mol
# Density = 2.414495 g / cm^3
# Si number density = 24.200033 Si / 1000 Ang^3
#
#
#
# Elastic Constant Matrix: (Units=GPa)
#
#
# Indices 1 2 3 4 5 6 
#
# 1 135.6752 31.3593 30.5538 4.5194 39.2739 13.6057
# 2 31.3593 91.7998 16.5388 -9.7511 3.8442 3.8106
# 3 30.5538 16.5388 43.9716 -8.6274 14.4630 4.2946
# 4 4.5194 -9.7511 -8.6274 30.6763 5.7532 5.3561
# 5 39.2739 3.8442 14.4630 5.7532 56.8172 13.0814
# 6 13.6057 3.8106 4.2946 5.3561 13.0814 41.5808
#
#
#
# Elastic Compliance Matrix: (Units=1/GPa)
#
#
# Indices 1 2 3 4 5 6 
#
# 1 0.010995 -0.002855 -0.005197 -0.002814 -0.005647 -0.000660
# 2 -0.002855 0.012676 -0.002513 0.003606 0.001606 -0.000938
# 3 -0.005197 -0.002513 0.030906 0.009743 -0.004865 -0.000986
# 4 -0.002814 0.003606 0.009743 0.038324 -0.003695 -0.004190
# 5 -0.005647 0.001606 -0.004865 -0.003695 0.024139 -0.004915
# 6 -0.000660 -0.000938 -0.000986 -0.004190 -0.004915 0.026539
#
#
# Mechanical properties :
#
#
# Convention : Reuss Voigt Hill
#
# Bulk Modulus (GPa) = 29.89721 47.59446 38.74584
# Shear Modulus (GPa) = 28.43182 38.68117 33.55649
#
# Velocity S-wave (km/s) = 3.43135 4.00233 3.72779
# Velocity P-wave (km/s) = 5.29905 6.40843 5.87996
#
# Compressibility (1/GPa) = 0.03344793
#
# Stress axis : x y z
#
# Youngs Moduli (GPa) = 90.94727 78.88937 32.35595
#
# Poissons Ratio (x) = 0.22522 0.16814
# Poissons Ratio (y) = 0.25965 0.08132
# Poissons Ratio (z) = 0.47261 0.19828
#
# Static dielectric constant tensor:
#      x y z
#    x 1.813820 -0.007900 0.131200 
#    y -0.007900 1.963560 0.084330 
#    z 0.131200 0.084330 2.025600 
# 
# From -- ./inp_files/566973.got.cif
#   From: 2010.05.17/outbox.cif.g08.bks.cpg/sg2_284_cif.got.tgz:566973.got - 2010.06.03 11:33:40.
