data_PCOD9033234
_publ_section_title
;
Structure prediction by ZEFSAII (Michael W. Deem and Ramdas Pophale) SiO2 
 PCOD9033234
Probable space group: P -1
;
_chemical_formula_sum "Si O2"
_cell_formula_units_Z 16
_cell_length_a 22.498467
_cell_length_b 18.849310
_cell_length_c 8.634448
_cell_angle_alpha 153.676696
_cell_angle_beta 37.954395
_cell_angle_gamma 155.893095
_cell_volume 654.259346
_symmetry_space_group_name_H-M "P -1"
_symmetry_group_IT_number 2
_symmetry_cell_setting 'triclinic'
loop_
_space_group_symop_operation_xyz
x,y,z
-x,-y,-z
loop_
_atom_site_type_symbol
_atom_site_label
_atom_site_fract_x
_atom_site_fract_y
_atom_site_fract_z
Si Si1 0.881612 0.311619 0.737056
Si Si2 0.640263 0.348607 0.788761
Si Si3 0.066797 0.432063 0.327140
Si Si4 0.072440 0.297117 0.744138
Si Si5 0.523682 0.404650 0.399616
Si Si6 0.462356 0.115726 0.392685
Si Si7 0.294474 0.347457 0.212168
Si Si8 0.242674 0.167358 0.640941
O O1 0.963507 0.290068 0.411500
O O2 0.709423 0.060406 0.627133
O O3 0.866517 0.456711 0.954760
O O4 0.000000 0.500000 0.000000
O O5 0.509844 0.157555 0.558131
O O6 0.761641 0.358291 0.561956
O O7 0.585856 0.326310 0.031133
O O8 0.718300 0.608930 0.072527
O O9 0.000000 0.500000 0.500000
O O10 0.068102 0.287870 0.920501
O O11 0.168512 0.292006 0.443910
O O12 0.906830 0.079090 0.603859
O O13 0.500000 0.500000 0.500000
O O14 0.624875 0.621241 0.742001
O O15 0.367395 0.196066 0.395010
O O16 0.574287 0.385109 0.614862
O O17 0.500000 0.000000 0.000000
O O18 0.228540 0.170492 0.859040
#
# Coordination Sequence:
#
# PCOD9033234 Si02
#       8
#     2   2   2   2   2   2   2   2
#     4  11  25  44  67 101 137 175 229 281 339 410
#     4  10  22  45  68  97 137 179 228 280 337 409
#     4  10  23  44  68  98 137 180 228 280 342 401
#     4  11  23  44  65  99 138 177 226 280 342 402
#     4  10  22  44  66  98 136 176 226 275 337 406
#     4  11  23  42  70  98 132 183 228 278 339 402
#     4  11  22  44  68  97 137 176 228 276 338 400
#     4  10  24  40  68 101 133 178 225 279 341 400
#
# _framework density 24.455136
#
# number of rings (size 3 to 8) (size 9 to 14) (size 15 to 20)
#    0.000    1.500    2.500    1.500    5.250    0.500 
#    0.000    3.125    0.000    0.000    0.000    0.000 
#    0.000    0.000    0.000    0.000    0.000    0.000 
#
# Total GULP energy -89420.853738 kJ/mol
# GULP energy per Si atom -5588.803359 kJ/mol
# Density = 2.439947 g / cm^3
# Si number density = 24.455136 Si / 1000 Ang^3
#
#
#
# Elastic Constant Matrix: (Units=GPa)
#
#
# Indices 1 2 3 4 5 6 
#
# 1 -127.4146 -262.4145 -197.4260 -160.8181 -69.6697 28.5201
# 2 -262.4145 -220.1818 -255.1749 -230.8277 -100.5824 50.8923
# 3 -197.4260 -255.1749 -151.5428 -167.9540 -64.2194 14.6443
# 4 -160.8181 -230.8277 -167.9540 -44.6050 -68.2473 17.2054
# 5 -69.6697 -100.5824 -64.2194 -68.2473 9.9650 4.7979
# 6 28.5201 50.8923 14.6443 17.2054 4.7979 39.3320
#
#
#
# Elastic Compliance Matrix: (Units=1/GPa)
#
#
# Indices 1 2 3 4 5 6 
#
# 1 0.011119 -0.002602 -0.004843 -0.003523 -0.003414 -0.000935
# 2 -0.002602 0.006406 -0.006194 -0.001255 -0.000356 -0.003504
# 3 -0.004843 -0.006194 0.017973 -0.003461 -0.007768 0.007296
# 4 -0.003523 -0.001255 -0.003461 0.008940 0.000932 0.001443
# 5 -0.003414 -0.000356 -0.007768 0.000932 0.028256 0.001974
# 6 -0.000935 -0.003504 0.007296 0.001443 0.001974 0.027048
#
#
# Mechanical properties :
#
#
# Convention : Reuss Voigt Hill
#
# Bulk Modulus (GPa) = 121.65334 -214.35222 -46.34944
# Shear Modulus (GPa) = 38.53299 15.33015 26.93157
#
# Velocity S-wave (km/s) = 3.97377 2.50645 3.32213
# Velocity P-wave (km/s) = 8.42068 8.91432 2.06847
#
# Compressibility (1/GPa) = 0.00822008
#
# Stress axis : x y z
#
# Youngs Moduli (GPa) = 89.93714 156.10021 55.63980
#
# Poissons Ratio (x) = 0.40619 0.26947
# Poissons Ratio (y) = 0.23402 0.34462
# Poissons Ratio (z) = 0.43557 0.96684
#
# Static dielectric constant tensor:
#      x y z
#    x 2.030130 0.024730 -0.024640 
#    y 0.024730 1.969990 -0.022900 
#    z -0.024640 -0.022900 1.950080 
# 
# From -- ./inp_files/239522.got.cif
#   From: 2010.05.17/outbox.cif.g08.bks.cpg/sg2_120_cif.got.tgz:239522.got - 2010.06.03 11:33:40.
