data_PCOD9033241
_publ_section_title
;
Structure prediction by ZEFSAII (Michael W. Deem and Ramdas Pophale) SiO2 
 PCOD9033241
Probable space group: P -1
;
_chemical_formula_sum "Si O2"
_cell_formula_units_Z 15
_cell_length_a 14.523267
_cell_length_b 19.673265
_cell_length_c 8.086969
_cell_angle_alpha 54.702678
_cell_angle_beta 57.164803
_cell_angle_gamma 17.574167
_cell_volume 569.061018
_symmetry_space_group_name_H-M "P -1"
_symmetry_group_IT_number 2
_symmetry_cell_setting 'triclinic'
loop_
_space_group_symop_operation_xyz
x,y,z
-x,-y,-z
loop_
_atom_site_type_symbol
_atom_site_label
_atom_site_fract_x
_atom_site_fract_y
_atom_site_fract_z
Si Si1 0.000000 0.500000 0.500000
Si Si2 0.884955 0.530422 0.917284
Si Si3 0.973979 0.016395 0.302104
Si Si4 0.034837 0.284937 0.923092
Si Si5 0.364390 0.355391 0.461555
Si Si6 0.215606 0.009070 0.939206
Si Si7 0.561105 0.524078 0.231972
Si Si8 0.805322 0.371995 0.549455
O O1 0.838706 0.619626 0.675362
O O2 0.654188 0.729561 0.409592
O O3 0.096516 0.301175 0.991342
O O4 0.000000 0.500000 0.000000
O O5 0.546116 0.734797 0.988595
O O6 0.671941 0.176066 0.343599
O O7 0.986105 0.101703 0.100708
O O8 0.000000 0.000000 0.500000
O O9 0.252652 0.777857 0.261114
O O10 0.718356 0.460029 0.019603
O O11 0.248245 0.062763 0.959329
O O12 0.937269 0.421721 0.682485
O O13 0.280343 0.472944 0.533311
O O14 0.079935 0.145554 0.713657
O O15 0.812564 0.352097 0.375186
O O16 0.472886 0.492490 0.317796
#
# Coordination Sequence:
#
# PCOD9033241 Si02
#       8
#     1   2   2   2   2   2   2   2
#     4  10  26  46  74 100 142 198 240 296 356 432
#     4  11  26  49  75 104 145 194 249 303 363 429
#     4  12  24  38  71 107 139 185 239 296 372 431
#     4  10  23  44  69 103 140 184 241 297 362 433
#     4  10  22  44  66  98 142 184 236 296 353 430
#     4  11  25  47  72 105 141 193 234 303 374 429
#     4  11  22  39  66 108 142 185 228 298 371 436
#     4  10  23  40  64  98 145 180 230 292 359 429
#
# _framework density 26.359214000000001
#
# number of rings (size 3 to 8) (size 9 to 14) (size 15 to 20)
#    0.000    1.333    2.667    1.600    9.333    3.733 
#    2.400    6.000    0.000    0.000    0.000    0.000 
#    0.000    0.000    0.000    0.000    0.000    0.000 
#
# Total GULP energy -83641.621916 kJ/mol
# GULP energy per Si atom -5576.108128 kJ/mol
# Density = 2.629922 g / cm^3
# Si number density = 26.359214 Si / 1000 Ang^3
#
#
#
# Elastic Constant Matrix: (Units=GPa)
#
#
# Indices 1 2 3 4 5 6 
#
# 1 185.0901 31.5853 24.0762 1.9799 5.1175 -11.6899
# 2 31.5853 71.3170 23.2534 3.5934 -1.6882 -1.4726
# 3 24.0762 23.2534 85.9633 6.3880 -12.5935 -14.4861
# 4 1.9799 3.5934 6.3880 27.3182 -8.4279 -10.5496
# 5 5.1175 -1.6882 -12.5935 -8.4279 40.6310 5.3734
# 6 -11.6899 -1.4726 -14.4861 -10.5496 5.3734 47.2328
#
#
#
# Elastic Compliance Matrix: (Units=1/GPa)
#
#
# Indices 1 2 3 4 5 6 
#
# 1 0.006057 -0.002356 -0.001048 0.000213 -0.001314 0.001301
# 2 -0.002356 0.016412 -0.003984 -0.001823 -0.000416 -0.001653
# 3 -0.001048 -0.003984 0.014170 -0.000177 0.003861 0.003483
# 4 0.000213 -0.001823 -0.000177 0.042506 0.007525 0.008580
# 5 -0.001314 -0.000416 0.003861 0.007525 0.027599 -0.000613
# 6 0.001301 -0.001653 0.003483 0.008580 -0.000613 0.024497
#
#
# Mechanical properties :
#
#
# Convention : Reuss Voigt Hill
#
# Bulk Modulus (GPa) = 45.73797 55.57780 50.65789
# Shear Modulus (GPa) = 32.61491 40.60009 36.60750
#
# Velocity S-wave (km/s) = 3.52138 3.92887 3.73069
# Velocity P-wave (km/s) = 5.82434 6.45848 6.14959
#
# Compressibility (1/GPa) = 0.02186367
#
# Stress axis : x y z
#
# Youngs Moduli (GPa) = 165.08776 60.93069 70.57240
#
# Poissons Ratio (x) = 0.14355 0.07398
# Poissons Ratio (y) = 0.38893 0.28114
# Poissons Ratio (z) = 0.17305 0.24273
#
# Static dielectric constant tensor:
#      x y z
#    x 2.458460 0.036220 -0.336730 
#    y 0.036220 2.128670 -0.038120 
#    z -0.336730 -0.038120 2.480810 
# 
# From -- ./inp_files/318925.got.cif
#   From: 2010.05.17/outbox.cif.g08.bks.cpg/sg2_160_cif.got.tgz:318925.got - 2010.06.03 11:33:40.
