data_PCOD9033685
_publ_section_title
;
Structure prediction by ZEFSAII (Michael W. Deem and Ramdas Pophale) SiO2 
 PCOD9033685
Probable space group: P -1
;
_chemical_formula_sum "Si O2"
_cell_formula_units_Z 16
_cell_length_a 19.771990
_cell_length_b 11.609583
_cell_length_c 5.132133
_cell_angle_alpha 106.987622
_cell_angle_beta 71.909870
_cell_angle_gamma 146.972831
_cell_volume 609.190811
_symmetry_space_group_name_H-M "P -1"
_symmetry_group_IT_number 2
_symmetry_cell_setting 'triclinic'
loop_
_space_group_symop_operation_xyz
x,y,z
-x,-y,-z
loop_
_atom_site_type_symbol
_atom_site_label
_atom_site_fract_x
_atom_site_fract_y
_atom_site_fract_z
Si Si1 0.521207 0.225987 0.676631
Si Si2 0.308118 0.076483 0.540374
Si Si3 0.990754 0.904660 0.700918
Si Si4 0.829637 0.995523 0.723876
Si Si5 0.043195 0.661852 0.853069
Si Si6 0.177433 0.550297 0.353634
Si Si7 0.618382 0.594653 0.039009
Si Si8 0.336635 0.773047 0.796660
O O1 0.422161 0.156473 0.560288
O O2 0.616958 0.290560 0.413732
O O3 0.448885 0.023188 0.791258
O O4 0.580372 0.403174 0.927113
O O5 0.258678 0.014948 0.262692
O O6 0.350534 0.275736 0.667653
O O7 0.183672 0.859420 0.697780
O O8 0.871046 0.653206 0.694449
O O9 0.108051 0.978115 0.582435
O O10 0.000000 0.000000 0.500000
O O11 0.000000 0.000000 0.000000
O O12 0.741770 0.783250 0.841919
O O13 0.945810 0.202275 0.892448
O O14 0.939184 0.534494 0.670762
O O15 0.000000 0.500000 0.000000
O O16 0.230851 0.663813 0.641771
O O17 0.281912 0.699604 0.102277
O O18 0.500000 0.500000 0.000000
#
# Coordination Sequence:
#
# PCOD9033685 Si02
#       8
#     2   2   2   2   2   2   2   2
#     4  10  24  47  71 103 147 195 261 304 380 440
#     4  10  22  44  69 106 143 190 242 313 370 452
#     4  12  27  45  74 107 149 198 245 309 381 453
#     4  11  24  43  69 110 147 187 257 308 386 456
#     4  11  24  43  73 107 149 197 240 312 383 457
#     4  12  26  49  74 110 153 189 258 305 378 452
#     4   9  22  44  66 101 139 189 246 309 372 440
#     4  11  27  49  73 110 146 204 250 316 368 460
#
# _framework density 26.264347999999998
#
# number of rings (size 3 to 8) (size 9 to 14) (size 15 to 20)
#    0.000    1.250    1.250    3.000    7.000    4.500 
#    9.000    0.000    0.000    0.000    0.000    0.000 
#    0.000    0.000    0.000    0.000    0.000    0.000 
#
# Total GULP energy -89675.680820 kJ/mol
# GULP energy per Si atom -5604.730051 kJ/mol
# Density = 2.620457 g / cm^3
# Si number density = 26.264348 Si / 1000 Ang^3
#
#
#
# Elastic Constant Matrix: (Units=GPa)
#
#
# Indices 1 2 3 4 5 6 
#
# 1 114.6810 29.9600 15.5462 6.1002 4.1111 7.1465
# 2 29.9600 146.5394 38.1681 9.2825 0.5221 -16.3056
# 3 15.5462 38.1681 85.5575 -3.0847 10.7854 -5.1042
# 4 6.1002 9.2825 -3.0847 42.9951 -0.5716 -0.7707
# 5 4.1111 0.5221 10.7854 -0.5716 46.1484 1.9377
# 6 7.1465 -16.3056 -5.1042 -0.7707 1.9377 52.7704
#
#
#
# Elastic Compliance Matrix: (Units=1/GPa)
#
#
# Indices 1 2 3 4 5 6 
#
# 1 0.009533 -0.001835 -0.001002 -0.001070 -0.000526 -0.001951
# 2 -0.001835 0.008487 -0.003463 -0.001766 0.000751 0.002483
# 3 -0.001002 -0.003463 0.013908 0.001856 -0.003122 0.000553
# 4 -0.001070 -0.001766 0.001856 0.023927 -0.000028 0.000129
# 5 -0.000526 0.000751 -0.003122 -0.000028 0.022472 -0.000824
# 6 -0.001951 0.002483 0.000553 0.000129 -0.000824 0.020067
#
#
# Mechanical properties :
#
#
# Convention : Reuss Voigt Hill
#
# Bulk Modulus (GPa) = 51.74030 57.12517 54.43274
# Shear Modulus (GPa) = 42.57659 45.92302 44.24980
#
# Velocity S-wave (km/s) = 4.03063 4.18603 4.10907
# Velocity P-wave (km/s) = 6.43459 6.72020 6.57895
#
# Compressibility (1/GPa) = 0.01932729
#
# Stress axis : x y z
#
# Youngs Moduli (GPa) = 104.90395 117.83188 71.89924
#
# Poissons Ratio (x) = 0.21627 0.07205
# Poissons Ratio (y) = 0.19254 0.24896
# Poissons Ratio (z) = 0.10512 0.40801
#
# Static dielectric constant tensor:
#      x y z
#    x 2.176750 0.014430 -0.020140 
#    y 0.014430 2.013890 0.027340 
#    z -0.020140 0.027340 2.069290 
# 
# From -- ./inp_files/118728.got.cif
#   From: 2010.05.17/outbox.cif.g08.bks.cpg/sg2_60_cif.got.tgz:118728.got - 2010.06.03 11:33:40.
