data_PCOD9033487
_publ_section_title
;
Structure prediction by ZEFSAII (Michael W. Deem and Ramdas Pophale) SiO2 
 PCOD9033487
Probable space group: P -1
;
_chemical_formula_sum "Si O2"
_cell_formula_units_Z 13
_cell_length_a 5.350204
_cell_length_b 9.473351
_cell_length_c 10.437861
_cell_angle_alpha 92.308117
_cell_angle_beta 78.523242
_cell_angle_gamma 92.013386
_cell_volume 517.839149
_symmetry_space_group_name_H-M "P -1"
_symmetry_group_IT_number 2
_symmetry_cell_setting 'triclinic'
loop_
_space_group_symop_operation_xyz
x,y,z
-x,-y,-z
loop_
_atom_site_type_symbol
_atom_site_label
_atom_site_fract_x
_atom_site_fract_y
_atom_site_fract_z
Si Si1 0.000000 0.500000 0.000000
Si Si2 0.663790 0.646824 0.262446
Si Si3 0.723007 0.935032 0.394418
Si Si4 0.021599 0.766422 0.026685
Si Si5 0.884369 0.831192 0.638178
Si Si6 0.733059 0.975288 0.880537
Si Si7 0.134329 0.484663 0.277304
O O1 0.201853 0.646501 0.956120
O O2 0.142865 0.466920 0.123581
O O3 0.634936 0.811489 0.303849
O O4 0.814316 0.651377 0.108083
O O5 0.392696 0.568567 0.293760
O O6 0.874807 0.572465 0.325984
O O7 0.880092 0.858328 0.488593
O O8 0.500000 0.000000 0.500000
O O9 0.884798 0.067734 0.329673
O O10 0.905024 0.865872 0.937374
O O11 0.132966 0.868477 0.129271
O O12 0.664742 0.904405 0.749263
O O13 0.891677 0.667684 0.660714
O O14 0.500000 0.000000 0.000000
#
# Coordination Sequence:
#
# PCOD9033487 Si02
#       7
#     1   2   2   2   2   2   2
#     4  10  22  44  68 104 148 190 242 294 380 450
#     4  11  27  48  74 111 152 202 246 315 380 455
#     4  11  28  47  79 104 150 203 265 313 374 445
#     4  10  23  40  64 103 142 190 239 305 368 450
#     4  11  26  50  72 111 146 202 258 318 370 456
#     4  11  24  40  71 102 146 191 246 307 379 446
#     4  11  27  47  77 108 157 196 254 311 387 448
#
# _framework density 25.104323000000001
#
# number of rings (size 3 to 8) (size 9 to 14) (size 15 to 20)
#    0.000    1.231    3.077    0.000   12.923    6.154 
#    0.000    0.000    0.000    0.000    0.000    0.000 
#    0.000    0.000    0.000    0.000    0.000    0.000 
#
# Total GULP energy -72482.637045 kJ/mol
# GULP energy per Si atom -5575.587465 kJ/mol
# Density = 2.504718 g / cm^3
# Si number density = 25.104323 Si / 1000 Ang^3
#
#
#
# Elastic Constant Matrix: (Units=GPa)
#
#
# Indices 1 2 3 4 5 6 
#
# 1 97.6112 61.9572 15.9079 -14.7952 0.3952 16.8686
# 2 61.9572 216.6116 29.2876 -16.1791 -1.7549 20.7571
# 3 15.9079 29.2876 62.2490 -4.9269 1.5320 4.7080
# 4 -14.7952 -16.1791 -4.9269 47.0910 -2.2979 -2.7907
# 5 0.3952 -1.7549 1.5320 -2.2979 21.8216 2.3856
# 6 16.8686 20.7571 4.7080 -2.7907 2.3856 30.2954
#
#
#
# Elastic Compliance Matrix: (Units=1/GPa)
#
#
# Indices 1 2 3 4 5 6 
#
# 1 0.013713 -0.003016 -0.001486 0.002837 0.000471 -0.005114
# 2 -0.003016 0.006006 -0.001850 0.000844 0.000991 -0.002149
# 3 -0.001486 -0.001850 0.017430 0.000634 -0.001229 -0.000458
# 4 0.002837 0.000844 0.000634 0.022578 0.002389 -0.000364
# 5 0.000471 0.000991 -0.001229 0.002389 0.046695 -0.004207
# 6 -0.005114 -0.002149 -0.000458 -0.000364 -0.004207 0.037697
#
#
# Mechanical properties :
#
#
# Convention : Reuss Voigt Hill
#
# Bulk Modulus (GPa) = 40.90748 65.64190 53.27469
# Shear Modulus (GPa) = 30.30830 37.79621 34.05226
#
# Velocity S-wave (km/s) = 3.47838 3.88437 3.68697
# Velocity P-wave (km/s) = 5.69759 6.80604 6.27634
#
# Compressibility (1/GPa) = 0.02444541
#
# Stress axis : x y z
#
# Youngs Moduli (GPa) = 72.92440 166.49320 57.37279
#
# Poissons Ratio (x) = 0.50208 0.08525
# Poissons Ratio (y) = 0.21991 0.10616
# Poissons Ratio (z) = 0.10835 0.30807
#
# Static dielectric constant tensor:
#      x y z
#    x 2.152180 -0.038250 -0.143120 
#    y -0.038250 2.188840 0.168150 
#    z -0.143120 0.168150 2.275020 
# 
# From -- ./inp_files/34391.got.cif
#   From: 2010.05.17/outbox.cif.g08.bks.cpg/sg2_18_cif.got.tgz:34391.got - 2010.06.03 11:33:40.
