data_PCOD9033238
_publ_section_title
;
Structure prediction by ZEFSAII (Michael W. Deem and Ramdas Pophale) SiO2 
 PCOD9033238
Probable space group: P -1
;
_chemical_formula_sum "Si O2"
_cell_formula_units_Z 14
_cell_length_a 12.868747
_cell_length_b 5.321268
_cell_length_c 8.720106
_cell_angle_alpha 112.672401
_cell_angle_beta 73.889331
_cell_angle_gamma 112.692090
_cell_volume 502.488914
_symmetry_space_group_name_H-M "P -1"
_symmetry_group_IT_number 2
_symmetry_cell_setting 'triclinic'
loop_
_space_group_symop_operation_xyz
x,y,z
-x,-y,-z
loop_
_atom_site_type_symbol
_atom_site_label
_atom_site_fract_x
_atom_site_fract_y
_atom_site_fract_z
Si Si1 0.152987 0.778713 0.619211
Si Si2 0.079141 0.199645 0.387884
Si Si3 0.555647 0.275071 0.359593
Si Si4 0.271493 0.662713 0.947064
Si Si5 0.650078 0.180067 0.607072
Si Si6 0.628599 0.644313 0.919004
Si Si7 0.111150 0.926204 0.995617
O O1 0.161289 0.457692 0.515848
O O2 0.233526 0.903044 0.467549
O O3 0.179679 0.953974 0.807783
O O4 0.018180 0.709785 0.642836
O O5 0.000000 0.000000 0.500000
O O6 0.128857 0.062815 0.194609
O O7 0.500000 0.500000 0.500000
O O8 0.653837 0.415413 0.233517
O O9 0.610325 0.130212 0.435056
O O10 0.445026 0.021005 0.289633
O O11 0.139578 0.628556 0.956903
O O12 0.287908 0.483417 0.042907
O O13 0.332510 0.011181 0.014742
O O14 0.641080 0.492404 0.720677
O O15 0.500000 0.500000 0.000000
O O16 0.000000 0.000000 0.000000
#
# Coordination Sequence:
#
# PCOD9033238 Si02
#       7
#     2   2   2   2   2   2   2
#     4  10  22  44  66  98 138 183 233 299 368 432
#     4  10  23  42  69 100 134 177 244 298 361 440
#     4  11  25  42  68 101 143 189 244 295 360 453
#     4  12  26  48  72 108 147 194 248 304 369 446
#     4  11  24  42  68  98 141 188 239 298 369 438
#     4  12  26  45  73 104 147 194 245 306 369 435
#     4  10  23  48  71 103 145 188 244 305 376 435
#
# _framework density 27.861311000000001
#
# number of rings (size 3 to 8) (size 9 to 14) (size 15 to 20)
#    0.000    1.143    2.857    2.143    6.000    1.714 
#    5.143    0.000    0.000    0.000    0.000    0.000 
#    0.000    0.000    0.000    0.000    0.000    0.000 
#
# Total GULP energy -77967.435408 kJ/mol
# GULP energy per Si atom -5569.102529 kJ/mol
# Density = 2.779790 g / cm^3
# Si number density = 27.861311 Si / 1000 Ang^3
#
#
#
# Elastic Constant Matrix: (Units=GPa)
#
#
# Indices 1 2 3 4 5 6 
#
# 1 116.2157 12.8061 48.1020 -1.9108 -30.2281 -14.5494
# 2 12.8061 96.9855 39.7831 7.7388 -0.5814 -4.0671
# 3 48.1020 39.7831 208.5093 6.1363 -40.0707 15.0557
# 4 -1.9108 7.7388 6.1363 44.9814 -0.4128 0.5658
# 5 -30.2281 -0.5814 -40.0707 -0.4128 65.9554 0.9286
# 6 -14.5494 -4.0671 15.0557 0.5658 0.9286 42.3051
#
#
#
# Elastic Compliance Matrix: (Units=1/GPa)
#
#
# Indices 1 2 3 4 5 6 
#
# 1 0.011057 -0.000462 -0.002086 0.000813 0.003739 0.004408
# 2 -0.000462 0.011612 -0.002519 -0.001713 -0.001677 0.001914
# 3 -0.002086 -0.002519 0.006608 -0.000486 0.003081 -0.003372
# 4 0.000813 -0.001713 -0.000486 0.022629 0.000204 -0.000019
# 5 0.003739 -0.001677 0.003081 0.000204 0.018739 -0.000386
# 6 0.004408 0.001914 -0.003372 -0.000019 -0.000386 0.026547
#
#
# Mechanical properties :
#
#
# Convention : Reuss Voigt Hill
#
# Bulk Modulus (GPa) = 52.24084 69.23256 60.73670
# Shear Modulus (GPa) = 43.97300 52.04967 48.01133
#
# Velocity S-wave (km/s) = 3.97707 4.32692 4.15568
# Velocity P-wave (km/s) = 6.31510 7.06158 6.69875
#
# Compressibility (1/GPa) = 0.01914211
#
# Stress axis : x y z
#
# Youngs Moduli (GPa) = 90.44230 86.11752 151.33823
#
# Poissons Ratio (x) = 0.03976 0.31574
# Poissons Ratio (y) = 0.04176 0.38125
# Poissons Ratio (z) = 0.18869 0.21694
#
# Static dielectric constant tensor:
#      x y z
#    x 2.715770 0.207720 0.054620 
#    y 0.207720 2.393570 0.015800 
#    z 0.054620 0.015800 2.191680 
# 
# From -- ./inp_files/107188.got.cif
#   From: 2010.05.17/outbox.cif.g08.bks.cpg/sg2_54_cif.got.tgz:107188.got - 2010.06.03 11:33:40.
