data_PCOD9033619
_publ_section_title
;
Structure prediction by ZEFSAII (Michael W. Deem and Ramdas Pophale) SiO2 
 PCOD9033619
Probable space group: P -1
;
_chemical_formula_sum "Si O2"
_cell_formula_units_Z 13
_cell_length_a 15.086246
_cell_length_b 17.849749
_cell_length_c 8.040602
_cell_angle_alpha 56.665959
_cell_angle_beta 115.090196
_cell_angle_gamma 160.874155
_cell_volume 555.756642
_symmetry_space_group_name_H-M "P -1"
_symmetry_group_IT_number 2
_symmetry_cell_setting 'triclinic'
loop_
_space_group_symop_operation_xyz
x,y,z
-x,-y,-z
loop_
_atom_site_type_symbol
_atom_site_label
_atom_site_fract_x
_atom_site_fract_y
_atom_site_fract_z
Si Si1 0.947250 0.920327 0.367076
Si Si2 0.500000 0.500000 0.000000
Si Si3 0.300732 0.646760 0.479839
Si Si4 0.215542 0.399565 0.889763
Si Si5 0.618065 0.486071 0.760866
Si Si6 0.616711 0.088408 0.667625
Si Si7 0.472337 0.173487 0.924313
O O1 0.874986 0.753113 0.537281
O O2 0.672032 0.730560 0.293296
O O3 0.000000 0.000000 0.500000
O O4 0.227809 0.191818 0.165684
O O5 0.306661 0.402060 0.831462
O O6 0.358585 0.616938 0.693091
O O7 0.434859 0.860552 0.349429
O O8 0.398889 0.702111 0.308086
O O9 0.957796 0.364883 0.577012
O O10 0.331625 0.441708 0.093203
O O11 0.875406 0.116052 0.993741
O O12 0.613084 0.374382 0.898489
O O13 0.500000 0.000000 0.500000
O O14 0.475324 0.881618 0.899049
#
# Coordination Sequence:
#
# PCOD9033619 Si02
#       7
#     2   1   2   2   2   2   2
#     4  11  24  45  62  93 133 175 227 278 328 388
#     4  12  24  44  68  90 138 182 218 282 328 384
#     4  10  24  42  67  96 136 172 213 278 332 389
#     4  11  25  41  64  98 135 174 229 272 328 391
#     4  11  23  43  65  94 135 173 225 279 326 399
#     4  10  22  44  69 100 131 169 221 268 331 406
#     4  11  23  44  66 101 136 173 220 274 335 393
#
# _framework density 23.391532999999999
#
# number of rings (size 3 to 8) (size 9 to 14) (size 15 to 20)
#    0.000    1.231    3.077    1.385    4.308    2.462 
#    5.538    0.000    0.000    0.000    0.000    0.000 
#    0.000    0.000    0.000    0.000    0.000    0.000 
#
# Total GULP energy -72447.747942 kJ/mol
# GULP energy per Si atom -5572.903688 kJ/mol
# Density = 2.333829 g / cm^3
# Si number density = 23.391533 Si / 1000 Ang^3
#
#
#
# Elastic Constant Matrix: (Units=GPa)
#
#
# Indices 1 2 3 4 5 6 
#
# 1 86.3209 9.9209 50.1036 -0.0310 31.2513 -1.9291
# 2 9.9209 49.2448 42.4726 5.5095 13.1302 -8.0679
# 3 50.1036 42.4726 179.8491 -22.8574 51.9365 -7.2175
# 4 -0.0310 5.5095 -22.8574 51.6125 -2.5734 3.7759
# 5 31.2513 13.1302 51.9365 -2.5734 43.8672 1.2416
# 6 -1.9291 -8.0679 -7.2175 3.7759 1.2416 27.2620
#
#
#
# Elastic Compliance Matrix: (Units=1/GPa)
#
#
# Indices 1 2 3 4 5 6 
#
# 1 0.016210 0.001788 -0.002381 -0.001832 -0.009420 0.001729
# 2 0.001788 0.028833 -0.007359 -0.006994 -0.001822 0.007763
# 3 -0.002381 -0.007359 0.011299 0.005306 -0.009176 0.000328
# 4 -0.001832 -0.006994 0.005306 0.022682 -0.001444 -0.003870
# 5 -0.009420 -0.001822 -0.009176 -0.001444 0.040982 -0.005302
# 6 0.001729 0.007763 0.000328 -0.003870 -0.005302 0.039965
#
#
# Mechanical properties :
#
#
# Convention : Reuss Voigt Hill
#
# Bulk Modulus (GPa) = 24.72896 57.82323 41.27610
# Shear Modulus (GPa) = 26.40556 38.74287 32.57421
#
# Velocity S-wave (km/s) = 3.36348 4.07415 3.73576
# Velocity P-wave (km/s) = 5.06742 6.84872 6.02427
#
# Compressibility (1/GPa) = 0.04043841
#
# Stress axis : x y z
#
# Youngs Moduli (GPa) = 61.69127 34.68218 88.50464
#
# Poissons Ratio (x) = -0.06201 0.21074
# Poissons Ratio (y) = -0.11030 0.65126
# Poissons Ratio (z) = 0.14689 0.25521
#
# Static dielectric constant tensor:
#      x y z
#    x 2.555930 -0.090920 -0.116490 
#    y -0.090920 1.963360 0.053870 
#    z -0.116490 0.053870 1.867640 
# 
# From -- ./inp_files/89590.got.cif
#   From: 2010.05.17/outbox.cif.g08.bks.cpg/sg2_45_cif.got.tgz:89590.got - 2010.06.03 11:33:40.
