data_PCOD9033954
_publ_section_title
;
Structure prediction by ZEFSAII (Michael W. Deem and Ramdas Pophale) SiO2 
 PCOD9033954
Probable space group: P -1
;
_chemical_formula_sum "Si O2"
_cell_formula_units_Z 16
_cell_length_a 14.682251
_cell_length_b 16.286769
_cell_length_c 5.022188
_cell_angle_alpha 89.163778
_cell_angle_beta 75.881687
_cell_angle_gamma 38.662272
_cell_volume 696.267419
_symmetry_space_group_name_H-M "P -1"
_symmetry_group_IT_number 2
_symmetry_cell_setting 'triclinic'
loop_
_space_group_symop_operation_xyz
x,y,z
-x,-y,-z
loop_
_atom_site_type_symbol
_atom_site_label
_atom_site_fract_x
_atom_site_fract_y
_atom_site_fract_z
Si Si1 0.825210 0.187514 0.363432
Si Si2 0.305301 0.019129 0.430468
Si Si3 0.982531 0.590291 0.197105
Si Si4 0.730550 0.847639 0.075179
Si Si5 0.383841 0.654111 0.000814
Si Si6 0.734738 0.684881 0.769555
Si Si7 0.563321 0.197465 0.018221
Si Si8 0.117853 0.033537 0.855744
O O1 0.766178 0.244763 0.699126
O O2 0.878933 0.054909 0.300270
O O3 0.680680 0.302146 0.256178
O O4 0.969033 0.139270 0.149253
O O5 0.643542 0.956126 0.370144
O O6 0.142187 0.091860 0.637440
O O7 0.286821 0.085807 0.176634
O O8 0.408067 0.868197 0.280426
O O9 0.909049 0.712505 0.063512
O O10 0.847851 0.659758 0.501452
O O11 0.153567 0.469378 0.211875
O O12 0.000000 0.500000 0.000000
O O13 0.684826 0.786707 0.026427
O O14 0.500000 0.500000 0.000000
O O15 0.462866 0.687467 0.993859
O O16 0.581270 0.750938 0.756082
O O17 0.724818 0.075669 0.071194
#
# Coordination Sequence:
#
# PCOD9033954 Si02
#       8
#     2   2   2   2   2   2   2   2
#     4  10  23  43  75  96 137 183 221 276 355 406
#     4  12  23  42  64 101 141 172 227 288 330 405
#     4   9  20  43  67  92 131 187 233 274 341 397
#     4  11  23  42  67  95 138 179 226 282 336 397
#     4  11  24  47  71 102 139 178 226 283 344 417
#     4  10  22  44  70  96 137 190 226 283 336 404
#     4  11  25  43  68 102 139 176 233 280 347 408
#     4  10  23  42  70 102 139 180 227 279 344 416
#
# _framework density 22.979676999999999
#
# number of rings (size 3 to 8) (size 9 to 14) (size 15 to 20)
#    0.000    1.500    3.750    0.375    1.750    4.500 
#    2.250    3.750    0.000    0.000    0.000    0.000 
#    0.000    0.000    0.000    0.000    0.000    0.000 
#
# Total GULP energy -89390.900653 kJ/mol
# GULP energy per Si atom -5586.931291 kJ/mol
# Density = 2.292737 g / cm^3
# Si number density = 22.979677 Si / 1000 Ang^3
#
#
#
# Elastic Constant Matrix: (Units=GPa)
#
#
# Indices 1 2 3 4 5 6 
#
# 1 94.9129 49.1011 33.8204 4.9112 -6.2712 2.7040
# 2 49.1011 101.2530 10.9546 -9.4036 -0.7580 12.6027
# 3 33.8204 10.9546 77.5636 -9.1372 11.6885 -4.6272
# 4 4.9112 -9.4036 -9.1372 34.3140 -0.8522 1.1858
# 5 -6.2712 -0.7580 11.6885 -0.8522 35.3013 7.2753
# 6 2.7040 12.6027 -4.6272 1.1858 7.2753 28.9051
#
#
#
# Elastic Compliance Matrix: (Units=1/GPa)
#
#
# Indices 1 2 3 4 5 6 
#
# 1 0.019085 -0.008860 -0.008888 -0.007355 0.006084 -0.000575
# 2 -0.008860 0.015189 0.002224 0.006196 -0.000698 -0.005516
# 3 -0.008888 0.002224 0.018798 0.006509 -0.008580 0.004764
# 4 -0.007355 0.006196 0.006509 0.033636 -0.002144 -0.001812
# 5 0.006084 -0.000698 -0.008580 -0.002144 0.034280 -0.010179
# 6 -0.000575 -0.005516 0.004764 -0.001812 -0.010179 0.040454
#
#
# Mechanical properties :
#
#
# Convention : Reuss Voigt Hill
#
# Bulk Modulus (GPa) = 45.40425 51.27577 48.34001
# Shear Modulus (GPa) = 25.02105 31.69431 28.35768
#
# Velocity S-wave (km/s) = 3.30333 3.71783 3.51669
# Velocity P-wave (km/s) = 5.86094 6.38683 6.12953
#
# Compressibility (1/GPa) = 0.02202437
#
# Stress axis : x y z
#
# Youngs Moduli (GPa) = 52.39604 65.83827 53.19673
#
# Poissons Ratio (x) = 0.58330 0.47283
# Poissons Ratio (y) = 0.46420 -0.11830
# Poissons Ratio (z) = 0.46571 -0.14641
#
# Static dielectric constant tensor:
#      x y z
#    x 1.870560 -0.018710 0.003550 
#    y -0.018710 1.931400 -0.004050 
#    z 0.003550 -0.004050 1.922130 
# 
# From -- ./inp_files/99353.got.cif
#   From: 2010.05.17/outbox.cif.g08.bks.cpg/sg2_50_cif.got.tgz:99353.got - 2010.06.03 11:33:40.
