data_PCOD9033610
_publ_section_title
;
Structure prediction by ZEFSAII (Michael W. Deem and Ramdas Pophale) SiO2 
 PCOD9033610
Probable space group: P -1
;
_chemical_formula_sum "Si O2"
_cell_formula_units_Z 14
_cell_length_a 8.823945
_cell_length_b 10.658169
_cell_length_c 19.663038
_cell_angle_alpha 146.447111
_cell_angle_beta 133.844078
_cell_angle_gamma 70.497158
_cell_volume 583.755012
_symmetry_space_group_name_H-M "P -1"
_symmetry_group_IT_number 2
_symmetry_cell_setting 'triclinic'
loop_
_space_group_symop_operation_xyz
x,y,z
-x,-y,-z
loop_
_atom_site_type_symbol
_atom_site_label
_atom_site_fract_x
_atom_site_fract_y
_atom_site_fract_z
Si Si1 0.592733 0.024715 0.429409
Si Si2 0.700536 0.740181 0.617624
Si Si3 0.864756 0.963813 0.011855
Si Si4 0.530778 0.460569 0.911569
Si Si5 0.123228 0.764097 0.259667
Si Si6 0.681096 0.298719 0.148684
Si Si7 0.728153 0.612797 0.428148
O O1 0.647960 0.862086 0.319718
O O2 0.353363 0.789624 0.300448
O O3 0.463835 0.158844 0.416846
O O4 0.836927 0.259936 0.659204
O O5 0.500000 0.500000 0.500000
O O6 0.794479 0.632963 0.537960
O O7 0.957246 0.997320 0.852548
O O8 0.854363 0.230736 0.132182
O O9 0.582688 0.655074 0.789743
O O10 0.000000 0.000000 0.000000
O O11 0.472420 0.635575 0.921894
O O12 0.500000 0.500000 0.000000
O O13 0.830263 0.557841 0.045889
O O14 0.192701 0.077528 0.420446
O O15 0.831643 0.539541 0.362780
O O16 0.500000 0.000000 0.000000
#
# Coordination Sequence:
#
# PCOD9033610 Si02
#       7
#     2   2   2   2   2   2   2
#     4  10  24  43  72 101 135 181 240 282 345 423
#     4  11  24  41  70 108 134 181 228 288 353 408
#     4  11  24  44  68 100 148 177 231 296 347 414
#     4  12  27  46  69 104 144 185 232 294 364 406
#     4  10  23  46  72  98 135 183 238 284 341 424
#     4  10  25  46  68 101 140 186 232 286 356 417
#     4  10  22  44  68  99 134 177 236 279 346 413
#
# _framework density 23.982662000000001
#
# number of rings (size 3 to 8) (size 9 to 14) (size 15 to 20)
#    0.000    1.429    2.857    0.429   10.000    5.714 
#    5.143    0.000    0.000    0.000    0.000    0.000 
#    0.000    0.000    0.000    0.000    0.000    0.000 
#
# Total GULP energy -78203.837219 kJ/mol
# GULP energy per Si atom -5585.988373 kJ/mol
# Density = 2.392808 g / cm^3
# Si number density = 23.982662 Si / 1000 Ang^3
#
#
#
# Elastic Constant Matrix: (Units=GPa)
#
#
# Indices 1 2 3 4 5 6 
#
# 1 113.9464 18.4788 21.8649 -3.7801 -47.4811 3.4691
# 2 18.4788 117.2172 16.9127 -29.6062 -16.5058 14.4498
# 3 21.8649 16.9127 82.8102 -20.1565 -30.7604 9.6087
# 4 -3.7801 -29.6062 -20.1565 39.3890 1.3985 -3.9245
# 5 -47.4811 -16.5058 -30.7604 1.3985 51.6727 -1.7753
# 6 3.4691 14.4498 9.6087 -3.9245 -1.7753 29.2369
#
#
#
# Elastic Compliance Matrix: (Units=1/GPa)
#
#
# Indices 1 2 3 4 5 6 
#
# 1 0.014520 0.000104 0.002189 0.001940 0.014580 -0.001348
# 2 0.000104 0.011857 0.002183 0.009368 0.004756 -0.005044
# 3 0.002189 0.002183 0.019427 0.010760 0.013796 -0.005441
# 4 0.001940 0.009368 0.010760 0.037490 0.010072 -0.002753
# 5 0.014580 0.004756 0.013796 0.010072 0.042047 -0.004710
# 6 -0.001348 -0.005044 -0.005441 -0.002753 -0.004710 0.037989
#
#
# Mechanical properties :
#
#
# Convention : Reuss Voigt Hill
#
# Bulk Modulus (GPa) = 18.26224 47.60963 32.93593
# Shear Modulus (GPa) = 28.96388 41.17421 35.06904
#
# Velocity S-wave (km/s) = 3.47897 4.14796 3.82811
# Velocity P-wave (km/s) = 4.87534 6.54489 5.77081
#
# Compressibility (1/GPa) = 0.05475781
#
# Stress axis : x y z
#
# Youngs Moduli (GPa) = 68.87155 84.33531 51.47519
#
# Poissons Ratio (x) = -0.00881 -0.11270
# Poissons Ratio (y) = -0.00719 -0.11237
# Poissons Ratio (z) = -0.15079 -0.18410
#
# Static dielectric constant tensor:
#      x y z
#    x 2.083640 0.027950 -0.031410 
#    y 0.027950 1.952190 -0.046300 
#    z -0.031410 -0.046300 1.948510 
# 
# From -- ./inp_files/589761.got.cif
#   From: 2010.05.17/outbox.cif.g08.bks.cpg/sg2_295_cif.got.tgz:589761.got - 2010.06.03 11:33:40.
