data_PCOD9033299
_publ_section_title
;
Structure prediction by ZEFSAII (Michael W. Deem and Ramdas Pophale) SiO2 
 PCOD9033299
Probable space group: P -1
;
_chemical_formula_sum "Si O2"
_cell_formula_units_Z 16
_cell_length_a 8.131415
_cell_length_b 10.782980
_cell_length_c 18.561829
_cell_angle_alpha 137.587978
_cell_angle_beta 137.638232
_cell_angle_gamma 41.647842
_cell_volume 662.796027
_symmetry_space_group_name_H-M "P -1"
_symmetry_group_IT_number 2
_symmetry_cell_setting 'triclinic'
loop_
_space_group_symop_operation_xyz
x,y,z
-x,-y,-z
loop_
_atom_site_type_symbol
_atom_site_label
_atom_site_fract_x
_atom_site_fract_y
_atom_site_fract_z
Si Si1 0.221994 0.079494 0.118760
Si Si2 0.711509 0.820006 0.342051
Si Si3 0.820199 0.354631 0.461450
Si Si4 0.269626 0.224980 0.040673
Si Si5 0.331628 0.366677 0.892149
Si Si6 0.420534 0.245727 0.372768
Si Si7 0.251723 0.986200 0.370880
Si Si8 0.878880 0.361418 0.840644
O O1 0.227518 0.201514 0.101946
O O2 0.202763 0.199966 0.238073
O O3 0.489309 0.867239 0.125353
O O4 0.000000 0.000000 0.000000
O O5 0.764662 0.652685 0.226954
O O6 0.406411 0.893194 0.306361
O O7 0.948478 0.731663 0.438843
O O8 0.671116 0.036523 0.390179
O O9 0.558263 0.329478 0.392845
O O10 0.710273 0.600121 0.536516
O O11 0.981878 0.202557 0.383173
O O12 0.359403 0.407262 0.129773
O O13 0.027842 0.260307 0.919853
O O14 0.500000 0.000000 0.000000
O O15 0.083879 0.427851 0.892747
O O16 0.500000 0.500000 0.000000
O O17 0.179480 0.803027 0.293447
O O18 0.500000 0.000000 0.500000
#
# Coordination Sequence:
#
# PCOD9033299 Si02
#       8
#     2   2   2   2   2   2   2   2
#     4  11  24  42  65 101 141 171 226 282 338 413
#     4  10  23  40  67  95 133 171 224 280 340 398
#     4  10  22  44  67  89 137 170 232 281 336 401
#     4  11  25  45  67 102 134 180 222 280 346 411
#     4  11  24  42  70 104 135 182 228 278 349 419
#     4  10  23  42  65 101 124 179 227 277 337 408
#     4  10  23  45  67 100 134 179 231 280 342 408
#     4  11  25  45  71  98 140 180 229 282 346 411
#
# _framework density 24.140159000000001
#
# number of rings (size 3 to 8) (size 9 to 14) (size 15 to 20)
#    0.000    1.500    1.250    2.625   10.500    1.500 
#    6.750    0.000    0.000    0.000    0.000    0.000 
#    0.000    0.000    0.000    0.000    0.000    0.000 
#
# Total GULP energy -89268.966321 kJ/mol
# GULP energy per Si atom -5579.310395 kJ/mol
# Density = 2.408521 g / cm^3
# Si number density = 24.140159 Si / 1000 Ang^3
#
#
#
# Elastic Constant Matrix: (Units=GPa)
#
#
# Indices 1 2 3 4 5 6 
#
# 1 54.9002 -9.4235 13.6357 0.8338 1.9362 -2.6670
# 2 -9.4235 106.5792 28.8373 12.5413 -0.9039 11.1504
# 3 13.6357 28.8373 100.1596 14.3145 11.0930 -1.6958
# 4 0.8338 12.5413 14.3145 34.5367 3.6633 -7.4607
# 5 1.9362 -0.9039 11.0930 3.6633 27.5304 4.9356
# 6 -2.6670 11.1504 -1.6958 -7.4607 4.9356 37.2931
#
#
#
# Elastic Compliance Matrix: (Units=1/GPa)
#
#
# Indices 1 2 3 4 5 6 
#
# 1 0.019528 0.002584 -0.003408 0.000111 -0.000019 0.000494
# 2 0.002584 0.011556 -0.003498 -0.004131 0.002991 -0.004652
# 3 -0.003408 -0.003498 0.012432 -0.002996 -0.004736 0.001395
# 4 0.000111 -0.004131 -0.002996 0.034080 -0.005011 0.008588
# 5 -0.000019 0.002991 -0.004736 -0.005011 0.040334 -0.007451
# 6 0.000494 -0.004652 0.001395 0.008588 -0.007451 0.031008
#
#
# Mechanical properties :
#
#
# Convention : Reuss Voigt Hill
#
# Bulk Modulus (GPa) = 28.67807 36.41534 32.54671
# Shear Modulus (GPa) = 29.54971 35.11134 32.33053
#
# Velocity S-wave (km/s) = 3.50249 3.81790 3.66359
# Velocity P-wave (km/s) = 5.31622 5.87817 5.60424
#
# Compressibility (1/GPa) = 0.03486985
#
# Stress axis : x y z
#
# Youngs Moduli (GPa) = 51.20923 86.53650 80.44015
#
# Poissons Ratio (x) = -0.22359 0.27413
# Poissons Ratio (y) = -0.13231 0.28142
# Poissons Ratio (z) = 0.17452 0.30275
#
# Static dielectric constant tensor:
#      x y z
#    x 2.085870 -0.008440 -0.010590 
#    y -0.008440 1.654310 0.152790 
#    z -0.010590 0.152790 2.081820 
# 
# From -- ./inp_files/589649.got.cif
#   From: 2010.05.17/outbox.cif.g08.bks.cpg/sg2_295_cif.got.tgz:589649.got - 2010.06.03 11:33:40.
