data_PCOD9033147
_publ_section_title
;
Structure prediction by ZEFSAII (Michael W. Deem and Ramdas Pophale) SiO2 
 PCOD9033147
Probable space group: P -1
;
_chemical_formula_sum "Si O2"
_cell_formula_units_Z 12
_cell_length_a 16.900746
_cell_length_b 7.651241
_cell_length_c 5.327635
_cell_angle_alpha 78.962505
_cell_angle_beta 114.392133
_cell_angle_gamma 57.206263
_cell_volume 443.166988
_symmetry_space_group_name_H-M "P -1"
_symmetry_group_IT_number 2
_symmetry_cell_setting 'triclinic'
loop_
_space_group_symop_operation_xyz
x,y,z
-x,-y,-z
loop_
_atom_site_type_symbol
_atom_site_label
_atom_site_fract_x
_atom_site_fract_y
_atom_site_fract_z
Si Si1 0.665694 0.287869 0.731766
Si Si2 0.848844 0.326690 0.451002
Si Si3 0.623653 0.136502 0.230614
Si Si4 0.901873 0.910582 0.365811
Si Si5 0.874542 0.611076 0.689951
Si Si6 0.583771 0.736531 0.810011
O O1 0.639407 0.188636 0.956218
O O2 0.811161 0.099164 0.975373
O O3 0.621011 0.289781 0.403308
O O4 0.607964 0.549384 0.687488
O O5 0.875809 0.397176 0.719798
O O6 0.959690 0.241645 0.453071
O O7 0.855145 0.105259 0.478524
O O8 0.718089 0.585320 0.125572
O O9 0.499839 0.208856 0.085392
O O10 0.742212 0.854118 0.546886
O O11 0.880829 0.730781 0.419841
O O12 0.000000 0.500000 0.000000
O O13 0.500000 0.000000 0.500000
#
# Coordination Sequence:
#
# PCOD9033147 Si02
#       6
#     2   2   2   2   2   2
#     4  10  23  50  74 103 141 195 244 298 357 439
#     4  10  22  44  66 103 146 181 243 296 358 435
#     4  11  25  47  73 103 145 193 244 289 367 433
#     4   9  21  42  73  98 139 187 237 296 368 414
#     4  11  24  40  69 105 141 188 238 301 361 426
#     4  11  26  43  70 109 144 194 236 303 360 429
#
# _framework density 27.077826999999999
#
# number of rings (size 3 to 8) (size 9 to 14) (size 15 to 20)
#    0.000    1.667    0.000    2.500    7.000    1.333 
#    9.000    0.000    0.000    0.000    0.000    0.000 
#    0.000    0.000    0.000    0.000    0.000    0.000 
#
# Total GULP energy -67123.709083 kJ/mol
# GULP energy per Si atom -5593.642424 kJ/mol
# Density = 2.701620 g / cm^3
# Si number density = 27.077827 Si / 1000 Ang^3
#
#
#
# Elastic Constant Matrix: (Units=GPa)
#
#
# Indices 1 2 3 4 5 6 
#
# 1 116.9619 24.5745 53.9655 -11.2339 19.0633 -28.0784
# 2 24.5745 86.5365 36.7162 -23.6123 5.0188 -1.0407
# 3 53.9655 36.7162 131.5230 -22.7381 26.9892 -25.3206
# 4 -11.2339 -23.6123 -22.7381 54.3656 -11.8254 14.8623
# 5 19.0633 5.0188 26.9892 -11.8254 53.7961 -10.0246
# 6 -28.0784 -1.0407 -25.3206 14.8623 -10.0246 47.0384
#
#
#
# Elastic Compliance Matrix: (Units=1/GPa)
#
#
# Indices 1 2 3 4 5 6 
#
# 1 0.011946 -0.002395 -0.003095 -0.001788 -0.001808 0.005592
# 2 -0.002395 0.015252 -0.003405 0.006317 0.001672 -0.004565
# 3 -0.003095 -0.003405 0.011306 0.001009 -0.003457 0.003108
# 4 -0.001788 0.006317 0.001009 0.023910 0.003452 -0.007204
# 5 -0.001808 0.001672 -0.003457 0.003452 0.021683 0.000627
# 6 0.005592 -0.004565 0.003108 -0.007204 0.000627 0.028579
#
#
# Mechanical properties :
#
#
# Convention : Reuss Voigt Hill
#
# Bulk Modulus (GPa) = 48.27461 62.83708 55.55584
# Shear Modulus (GPa) = 36.39776 45.69104 41.04440
#
# Velocity S-wave (km/s) = 3.67030 4.11225 3.89754
# Velocity P-wave (km/s) = 5.98567 6.76786 6.38875
#
# Compressibility (1/GPa) = 0.02071482
#
# Stress axis : x y z
#
# Youngs Moduli (GPa) = 83.70823 65.56308 88.45229
#
# Poissons Ratio (x) = 0.15704 0.27372
# Poissons Ratio (y) = 0.20051 0.30117
# Poissons Ratio (z) = 0.25904 0.22324
#
# Static dielectric constant tensor:
#      x y z
#    x 2.251230 0.009700 -0.068450 
#    y 0.009700 2.156680 0.001960 
#    z -0.068450 0.001960 2.196700 
# 
# From -- ./inp_files/105008.got.cif
#   From: 2010.05.17/outbox.cif.g08.bks.cpg/sg2_53_cif.got.tgz:105008.got - 2010.06.03 11:33:40.
