data_PCOD9033997
_publ_section_title
;
Structure prediction by ZEFSAII (Michael W. Deem and Ramdas Pophale) SiO2 
 PCOD9033997
Probable space group: P -1
;
_chemical_formula_sum "Si O2"
_cell_formula_units_Z 16
_cell_length_a 8.206139
_cell_length_b 12.995470
_cell_length_c 6.599841
_cell_angle_alpha 85.727068
_cell_angle_beta 71.646556
_cell_angle_gamma 99.134909
_cell_volume 653.703480
_symmetry_space_group_name_H-M "P -1"
_symmetry_group_IT_number 2
_symmetry_cell_setting 'triclinic'
loop_
_space_group_symop_operation_xyz
x,y,z
-x,-y,-z
loop_
_atom_site_type_symbol
_atom_site_label
_atom_site_fract_x
_atom_site_fract_y
_atom_site_fract_z
Si Si1 0.262113 0.044557 0.781685
Si Si2 0.379049 0.383473 0.570176
Si Si3 0.336697 0.185749 0.355222
Si Si4 0.152377 0.703819 0.891804
Si Si5 0.020340 0.592650 0.315039
Si Si6 0.379351 0.879034 0.029615
Si Si7 0.340384 0.732364 0.401466
Si Si8 0.042450 0.141451 0.179985
O O1 0.359278 0.117167 0.555191
O O2 0.364639 0.990283 0.921294
O O3 0.149166 0.111844 0.948464
O O4 0.132739 0.947671 0.737883
O O5 0.500000 0.500000 0.500000
O O6 0.362529 0.307307 0.390203
O O7 0.174585 0.390712 0.671844
O O8 0.489657 0.321581 0.690055
O O9 0.145779 0.140946 0.347742
O O10 0.464968 0.164846 0.131886
O O11 0.294629 0.715664 0.658042
O O12 0.987099 0.739617 0.849168
O O13 0.211882 0.800809 0.007914
O O14 0.115228 0.599191 0.055510
O O15 0.000000 0.500000 0.500000
O O16 0.162996 0.674833 0.371945
O O17 0.368147 0.847349 0.273484
#
# Coordination Sequence:
#
# PCOD9033997 Si02
#       8
#     2   2   2   2   2   2   2   2
#     4  10  23  44  68 106 149 189 242 298 364 446
#     4  12  26  49  76 107 146 192 246 312 364 437
#     4  12  24  42  71 105 145 190 246 301 368 435
#     4  10  22  44  70  98 144 188 233 295 365 434
#     4  11  24  45  71 104 137 184 244 302 369 425
#     4  10  24  41  69 104 143 188 236 294 368 437
#     4  11  24  48  70 102 150 189 242 308 360 434
#     4  10  23  41  70 106 144 192 241 292 369 445
#
# _framework density 24.475930999999999
#
# number of rings (size 3 to 8) (size 9 to 14) (size 15 to 20)
#    0.000    1.250    2.500    2.250    3.500    7.000 
#    0.000    1.250    0.000    0.000    0.000    0.000 
#    0.000    0.000    0.000    0.000    0.000    0.000 
#
# Total GULP energy -89225.888650 kJ/mol
# GULP energy per Si atom -5576.618041 kJ/mol
# Density = 2.442022 g / cm^3
# Si number density = 24.475931 Si / 1000 Ang^3
#
#
#
# Elastic Constant Matrix: (Units=GPa)
#
#
# Indices 1 2 3 4 5 6 
#
# 1 137.6481 29.0145 37.4080 -13.5689 16.6446 3.1110
# 2 29.0145 93.6143 34.1518 -17.5560 10.2101 11.2739
# 3 37.4080 34.1518 134.0055 -32.0850 17.7469 -12.6496
# 4 -13.5689 -17.5560 -32.0850 41.0274 -2.9040 12.0257
# 5 16.6446 10.2101 17.7469 -2.9040 31.9648 7.3336
# 6 3.1110 11.2739 -12.6496 12.0257 7.3336 38.2120
#
#
#
# Elastic Compliance Matrix: (Units=1/GPa)
#
#
# Indices 1 2 3 4 5 6 
#
# 1 0.008427 -0.001559 -0.001375 0.000959 -0.002944 -0.000418
# 2 -0.001559 0.013844 -0.002352 0.005412 -0.000351 -0.006372
# 3 -0.001375 -0.002352 0.010749 0.005569 -0.004805 0.003534
# 4 0.000959 0.005412 0.005569 0.034534 0.000285 -0.010754
# 5 -0.002944 -0.000351 -0.004805 0.000285 0.037585 -0.008551
# 6 -0.000418 -0.006372 0.003534 -0.010754 -0.008551 0.034279
#
#
# Mechanical properties :
#
#
# Convention : Reuss Voigt Hill
#
# Bulk Modulus (GPa) = 44.54910 62.93517 53.74214
# Shear Modulus (GPa) = 31.75129 39.88708 35.81919
#
# Velocity S-wave (km/s) = 3.60564 4.04127 3.82965
# Velocity P-wave (km/s) = 5.96447 6.89526 6.44669
#
# Compressibility (1/GPa) = 0.02244714
#
# Stress axis : x y z
#
# Youngs Moduli (GPa) = 118.66380 72.23349 93.03094
#
# Poissons Ratio (x) = 0.11261 0.12794
# Poissons Ratio (y) = 0.18499 0.21884
# Poissons Ratio (z) = 0.16319 0.16992
#
# Static dielectric constant tensor:
#      x y z
#    x 2.069320 0.010660 0.041680 
#    y 0.010660 2.013220 -0.018510 
#    z 0.041680 -0.018510 1.969460 
# 
# From -- ./inp_files/38520.got.cif
#   From: 2010.05.17/outbox.cif.g08.bks.cpg/sg2_20_cif.got.tgz:38520.got - 2010.06.03 11:33:40.
