data_PCOD9033278
_publ_section_title
;
Structure prediction by ZEFSAII (Michael W. Deem and Ramdas Pophale) SiO2 
 PCOD9033278
Probable space group: P -1
;
_chemical_formula_sum "Si O2"
_cell_formula_units_Z 16
_cell_length_a 8.149010
_cell_length_b 9.715836
_cell_length_c 11.719218
_cell_angle_alpha 79.763890
_cell_angle_beta 81.953151
_cell_angle_gamma 46.453652
_cell_volume 661.626260
_symmetry_space_group_name_H-M "P -1"
_symmetry_group_IT_number 2
_symmetry_cell_setting 'triclinic'
loop_
_space_group_symop_operation_xyz
x,y,z
-x,-y,-z
loop_
_atom_site_type_symbol
_atom_site_label
_atom_site_fract_x
_atom_site_fract_y
_atom_site_fract_z
Si Si1 0.045945 0.213667 0.298573
Si Si2 0.173178 0.930743 0.729503
Si Si3 0.860317 0.328711 0.797590
Si Si4 0.464191 0.376983 0.707203
Si Si5 0.528443 0.143593 0.941105
Si Si6 0.742599 0.085451 0.519436
Si Si7 0.704021 0.268852 0.016764
Si Si8 0.161800 0.395790 0.109764
O O1 0.025799 0.066308 0.278538
O O2 0.788186 0.414343 0.315087
O O3 0.208553 0.098116 0.408629
O O4 0.149736 0.247810 0.184441
O O5 0.274843 0.797932 0.848389
O O6 0.328962 0.859318 0.613555
O O7 0.066506 0.141635 0.737553
O O8 0.633936 0.390963 0.751844
O O9 0.867885 0.489474 0.793570
O O10 0.884546 0.267849 0.936685
O O11 0.441049 0.255050 0.813032
O O12 0.576517 0.264533 0.593833
O O13 0.746024 0.111509 0.949869
O O14 0.394147 0.292791 0.038084
O O15 0.500000 0.000000 0.000000
O O16 0.000000 0.000000 0.500000
O O17 0.500000 0.500000 0.000000
O O18 0.000000 0.500000 0.000000
#
# Coordination Sequence:
#
# PCOD9033278 Si02
#       8
#     2   2   2   2   2   2   2   2
#     4  11  23  41  70  96 135 176 224 274 330 393
#     4  11  23  42  69  96 134 173 225 279 322 398
#     4  11  23  40  66  97 138 171 218 276 340 394
#     4  11  22  44  69 100 135 174 227 280 322 399
#     4  11  24  38  65  98 136 171 221 273 342 401
#     4  10  22  44  67 103 128 175 234 274 325 388
#     4  11  22  41  62 102 131 171 218 276 333 398
#     4  12  24  41  62 101 139 175 214 274 350 400
#
# _framework density 24.182836999999999
#
# number of rings (size 3 to 8) (size 9 to 14) (size 15 to 20)
#    0.000    1.000    5.000    3.375    3.500    2.000 
#    2.250    0.625    0.000    5.250    0.000    0.000 
#    0.000    0.000    0.000    0.000    0.000    0.000 
#
# Total GULP energy -89111.334191 kJ/mol
# GULP energy per Si atom -5569.458387 kJ/mol
# Density = 2.412780 g / cm^3
# Si number density = 24.182837 Si / 1000 Ang^3
#
#
#
# Elastic Constant Matrix: (Units=GPa)
#
#
# Indices 1 2 3 4 5 6 
#
# 1 20.7775 15.3384 9.8297 1.8609 3.5376 16.8883
# 2 15.3384 95.0354 42.8958 22.4084 1.3984 12.0344
# 3 9.8297 42.8958 179.8805 12.0385 -7.8536 3.1355
# 4 1.8609 22.4084 12.0385 52.4205 -5.4299 -6.5350
# 5 3.5376 1.3984 -7.8536 -5.4299 22.0834 -0.4370
# 6 16.8883 12.0344 3.1355 -6.5350 -0.4370 49.7817
#
#
#
# Elastic Compliance Matrix: (Units=1/GPa)
#
#
# Indices 1 2 3 4 5 6 
#
# 1 0.077770 -0.007160 -0.002479 -0.003743 -0.014304 -0.025113
# 2 -0.007160 0.014525 -0.002754 -0.005760 -0.002202 -0.001684
# 3 -0.002479 -0.002754 0.006444 0.000234 0.002944 0.001157
# 4 -0.003743 -0.005760 0.000234 0.023040 0.006826 0.005732
# 5 -0.014304 -0.002202 0.002944 0.006826 0.050568 0.006539
# 6 -0.025113 -0.001684 0.001157 0.005732 0.006539 0.029751
#
#
# Mechanical properties :
#
#
# Convention : Reuss Voigt Hill
#
# Bulk Modulus (GPa) = 13.52182 47.98012 30.75097
# Shear Modulus (GPa) = 19.87800 40.03242 29.95521
#
# Velocity S-wave (km/s) = 2.87014 4.07308 3.52333
# Velocity P-wave (km/s) = 4.07275 6.48102 5.41253
#
# Compressibility (1/GPa) = 0.07395455
#
# Stress axis : x y z
#
# Youngs Moduli (GPa) = 12.85842 68.84752 155.18252
#
# Poissons Ratio (x) = 0.49294 0.38464
# Poissons Ratio (y) = 0.09206 0.42733
# Poissons Ratio (z) = 0.03187 0.18959
#
# Static dielectric constant tensor:
#      x y z
#    x 46.577010 8.038180 -2.438740 
#    y 8.038180 3.702330 -0.531860 
#    z -2.438740 -0.531860 2.218820 
# 
# From -- ./inp_files/381951.got.cif
#   From: 2010.05.17/outbox.cif.g08.bks.cpg/sg2_191_cif.got.tgz:381951.got - 2010.06.03 11:33:40.
