data_PCOD9033356
_publ_section_title
;
Structure prediction by ZEFSAII (Michael W. Deem and Ramdas Pophale) SiO2 
 PCOD9033356
Probable space group: P -1
;
_chemical_formula_sum "Si O2"
_cell_formula_units_Z 16
_cell_length_a 19.036914
_cell_length_b 11.798809
_cell_length_c 5.218816
_cell_angle_alpha 123.542096
_cell_angle_beta 112.518364
_cell_angle_gamma 45.520108
_cell_volume 697.080664
_symmetry_space_group_name_H-M "P -1"
_symmetry_group_IT_number 2
_symmetry_cell_setting 'triclinic'
loop_
_space_group_symop_operation_xyz
x,y,z
-x,-y,-z
loop_
_atom_site_type_symbol
_atom_site_label
_atom_site_fract_x
_atom_site_fract_y
_atom_site_fract_z
Si Si1 0.803886 0.995360 0.310458
Si Si2 0.673701 0.572506 0.322695
Si Si3 0.239324 0.114388 0.400029
Si Si4 0.016746 0.643529 0.261462
Si Si5 0.494531 0.709882 0.881989
Si Si6 0.410360 0.065411 0.271703
Si Si7 0.859881 0.488806 0.218024
Si Si8 0.654518 0.354987 0.366088
O O1 0.747083 0.972271 0.417538
O O2 0.916777 0.844267 0.357185
O O3 0.744350 0.204189 0.481605
O O4 0.798078 0.943110 0.947877
O O5 0.647308 0.736483 0.663276
O O6 0.759418 0.524463 0.192495
O O7 0.701358 0.400572 0.279666
O O8 0.571102 0.657449 0.146371
O O9 0.334357 0.076502 0.366456
O O10 0.164351 0.323337 0.597842
O O11 0.066166 0.607320 0.560438
O O12 0.091176 0.608632 0.100895
O O13 0.000000 0.500000 0.000000
O O14 0.565058 0.547431 0.588955
O O15 0.405627 0.715639 0.866349
O O16 0.451931 0.898577 0.941900
O O17 0.500000 0.000000 0.500000
#
# Coordination Sequence:
#
# PCOD9033356 Si02
#       8
#     2   2   2   2   2   2   2   2
#     4  12  25  40  69  98 137 172 231 284 330 407
#     4  10  24  42  67  99 143 176 228 284 353 407
#     4  11  21  41  64 102 134 172 224 283 341 390
#     4  12  22  42  70 104 136 176 235 285 351 403
#     4  10  22  44  67  96 134 186 238 276 337 412
#     4   9  20  41  64  99 133 177 226 283 339 403
#     4  11  23  42  72 102 138 178 222 298 347 408
#     4  11  25  41  66 101 136 191 224 283 337 420
#
# _framework density 22.952866
#
# number of rings (size 3 to 8) (size 9 to 14) (size 15 to 20)
#    0.000    1.250    3.750    1.500    3.500    4.500 
#    6.750    1.250    0.000    0.000    0.000    0.000 
#    0.000    0.000    0.000    0.000    0.000    0.000 
#
# Total GULP energy -89351.324352 kJ/mol
# GULP energy per Si atom -5584.457772 kJ/mol
# Density = 2.290062 g / cm^3
# Si number density = 22.952866 Si / 1000 Ang^3
#
#
#
# Elastic Constant Matrix: (Units=GPa)
#
#
# Indices 1 2 3 4 5 6 
#
# 1 92.6530 -84.7774 -27.4393 -53.4178 13.9486 -25.7157
# 2 -84.7774 877.6559 263.2851 419.1251 -164.2551 271.4849
# 3 -27.4393 263.2851 118.0019 144.0552 -55.2377 94.9564
# 4 -53.4178 419.1251 144.0552 257.6314 -91.6114 142.2672
# 5 13.9486 -164.2551 -55.2377 -91.6114 63.9808 -54.2898
# 6 -25.7157 271.4849 94.9564 142.2672 -54.2898 124.5541
#
#
#
# Elastic Compliance Matrix: (Units=1/GPa)
#
#
# Indices 1 2 3 4 5 6 
#
# 1 0.012430 0.000276 -0.000411 0.003590 0.001965 -0.000967
# 2 0.000276 0.006681 -0.003019 -0.005727 0.002350 -0.004639
# 3 -0.000411 -0.003019 0.032577 -0.008311 0.001677 -0.008116
# 4 0.003590 -0.005727 -0.008311 0.023458 0.007601 -0.003920
# 5 0.001965 0.002350 0.001677 0.007601 0.033502 -0.000073
# 6 -0.000967 -0.004639 -0.008116 -0.003920 -0.000073 0.028574
#
#
# Mechanical properties :
#
#
# Convention : Reuss Voigt Hill
#
# Bulk Modulus (GPa) = 22.03596 154.49417 88.26506
# Shear Modulus (GPa) = 31.51458 151.71608 91.61533
#
# Velocity S-wave (km/s) = 3.70944 8.13895 6.32465
# Velocity P-wave (km/s) = 5.28847 12.48113 9.58506
#
# Compressibility (1/GPa) = 0.04538038
#
# Stress axis : x y z
#
# Youngs Moduli (GPa) = 80.45227 149.67209 30.69633
#
# Poissons Ratio (x) = -0.04135 0.01263
# Poissons Ratio (y) = -0.02223 0.09266
# Poissons Ratio (z) = 0.03310 0.45182
#
# Static dielectric constant tensor:
#      x y z
#    x 1.894310 0.025550 -0.000060 
#    y 0.025550 1.874850 0.055260 
#    z -0.000060 0.055260 1.949290 
# 
# From -- ./inp_files/109870.got.cif
#   From: 2010.05.17/outbox.cif.g08.bks.cpg/sg2_55_cif.got.tgz:109870.got - 2010.06.03 11:33:40.
