data_PCOD9033192
_publ_section_title
;
Structure prediction by ZEFSAII (Michael W. Deem and Ramdas Pophale) SiO2 
 PCOD9033192
Probable space group: P -1
;
_chemical_formula_sum "Si O2"
_cell_formula_units_Z 12
_cell_length_a 12.944182
_cell_length_b 5.281358
_cell_length_c 12.110106
_cell_angle_alpha 76.117173
_cell_angle_beta 48.491360
_cell_angle_gamma 106.229505
_cell_volume 480.041801
_symmetry_space_group_name_H-M "P -1"
_symmetry_group_IT_number 2
_symmetry_cell_setting 'triclinic'
loop_
_space_group_symop_operation_xyz
x,y,z
-x,-y,-z
loop_
_atom_site_type_symbol
_atom_site_label
_atom_site_fract_x
_atom_site_fract_y
_atom_site_fract_z
Si Si1 0.994773 0.102826 0.348923
Si Si2 0.886232 0.565694 0.002550
Si Si3 0.509741 0.904217 0.379912
Si Si4 0.205917 0.809574 0.211009
Si Si5 0.642054 0.901992 0.696007
Si Si6 0.650642 0.744447 0.138067
O O1 0.107300 0.423575 0.313435
O O2 0.074097 0.905122 0.304372
O O3 0.015748 0.266143 0.198292
O O4 0.799887 0.896803 0.550492
O O5 0.819698 0.782476 0.057829
O O6 0.701569 0.209307 0.172852
O O7 0.000000 0.500000 0.000000
O O8 0.524710 0.633142 0.345383
O O9 0.500000 0.000000 0.500000
O O10 0.363099 0.869697 0.412785
O O11 0.327986 0.967637 0.214747
O O12 0.300173 0.967775 0.011168
O O13 0.460402 0.554898 0.839234
#
# Coordination Sequence:
#
# PCOD9033192 Si02
#       6
#     2   2   2   2   2   2
#     4  11  24  44  67 105 139 179 229 282 336 407
#     4  10  22  44  66  95 134 180 227 279 343 405
#     4  11  24  44  65  98 136 176 233 280 342 405
#     4  11  24  45  70 101 141 181 229 278 341 408
#     4  11  25  40  70 101 137 182 220 283 342 405
#     4  10  24  44  67 101 135 179 227 284 341 410
#
# _framework density 24.997821999999999
#
# number of rings (size 3 to 8) (size 9 to 14) (size 15 to 20)
#    0.000    1.333    1.667    2.500    4.667    4.000 
#    3.000    0.000    0.000    0.000    0.000    0.000 
#    0.000    0.000    0.000    0.000    0.000    0.000 
#
# Total GULP energy -66983.664925 kJ/mol
# GULP energy per Si atom -5581.972077 kJ/mol
# Density = 2.494093 g / cm^3
# Si number density = 24.997822 Si / 1000 Ang^3
#
#
#
# Elastic Constant Matrix: (Units=GPa)
#
#
# Indices 1 2 3 4 5 6 
#
# 1 173.2788 31.1291 49.5139 51.8554 4.8632 12.1017
# 2 31.1291 59.4484 20.9181 37.9468 -5.2262 0.7333
# 3 49.5139 20.9181 84.4074 37.5355 8.5541 15.5164
# 4 51.8554 37.9468 37.5355 44.1066 16.3830 9.6803
# 5 4.8632 -5.2262 8.5541 16.3830 39.6397 9.8337
# 6 12.1017 0.7333 15.5164 9.6803 9.8337 21.0335
#
#
#
# Elastic Compliance Matrix: (Units=1/GPa)
#
#
# Indices 1 2 3 4 5 6 
#
# 1 0.014643 0.026384 0.006513 -0.053839 0.022501 0.000109
# 2 0.026384 0.134938 0.034824 -0.213265 0.092914 0.009138
# 3 0.006513 0.034824 0.029945 -0.072267 0.029024 -0.007362
# 4 -0.053839 -0.213265 -0.072267 0.395457 -0.166243 -0.012556
# 5 0.022501 0.092914 0.029024 -0.166243 0.098988 -0.007365
# 6 0.000109 0.009138 -0.007362 -0.012556 -0.007365 0.061815
#
#
# Mechanical properties :
#
#
# Convention : Reuss Voigt Hill
#
# Bulk Modulus (GPa) = 3.17492 57.80630 30.49061
# Shear Modulus (GPa) = 7.08885 35.32753 21.20819
#
# Velocity S-wave (km/s) = 1.68581 3.76337 2.91589
# Velocity P-wave (km/s) = 2.24991 6.48526 4.85390
#
# Compressibility (1/GPa) = 0.31496891
#
# Stress axis : x y z
#
# Youngs Moduli (GPa) = 68.29288 7.41079 33.39461
#
# Poissons Ratio (x) = -0.19552 -0.21752
# Poissons Ratio (y) = -1.80181 -1.16294
# Poissons Ratio (z) = -0.44482 -0.25808
#
# Static dielectric constant tensor:
#      x y z
#    x 2.015170 -0.186020 0.020770 
#    y -0.186020 2.547820 0.076670 
#    z 0.020770 0.076670 1.980800 
# 
# From -- ./inp_files/19755.got.cif
#   From: 2010.05.17/outbox.cif.g08.bks.cpg/sg2_10_cif.got.tgz:19755.got - 2010.06.03 11:33:40.
