data_PCOD9033601
_publ_section_title
;
Structure prediction by ZEFSAII (Michael W. Deem and Ramdas Pophale) SiO2 
 PCOD9033601
Probable space group: P -1
;
_chemical_formula_sum "Si O2"
_cell_formula_units_Z 16
_cell_length_a 11.909878
_cell_length_b 12.688034
_cell_length_c 15.569266
_cell_angle_alpha 29.179463
_cell_angle_beta 115.273352
_cell_angle_gamma 93.854770
_cell_volume 747.801718
_symmetry_space_group_name_H-M "P -1"
_symmetry_group_IT_number 2
_symmetry_cell_setting 'triclinic'
loop_
_space_group_symop_operation_xyz
x,y,z
-x,-y,-z
loop_
_atom_site_type_symbol
_atom_site_label
_atom_site_fract_x
_atom_site_fract_y
_atom_site_fract_z
Si Si1 0.072608 0.432632 0.473629
Si Si2 0.872742 0.566330 0.838183
Si Si3 0.551164 0.953674 0.801694
Si Si4 0.347401 0.832589 0.746019
Si Si5 0.879504 0.734602 0.024031
Si Si6 0.431254 0.241624 0.734416
Si Si7 0.450500 0.625624 0.581785
Si Si8 0.765650 0.200293 0.102504
O O1 0.234389 0.402949 0.543066
O O2 0.000000 0.500000 0.500000
O O3 0.943354 0.679413 0.182192
O O4 0.132890 0.118757 0.685162
O O5 0.963665 0.474528 0.840044
O O6 0.724176 0.927740 0.523244
O O7 0.827165 0.370823 0.980897
O O8 0.000000 0.500000 0.000000
O O9 0.433779 0.893042 0.797959
O O10 0.545279 0.056854 0.820493
O O11 0.469244 0.242772 0.512910
O O12 0.744899 0.696302 0.013315
O O13 0.221291 0.851672 0.753533
O O14 0.500000 0.500000 0.000000
O O15 0.753404 0.069866 0.702197
O O16 0.461997 0.440229 0.641127
O O17 0.500000 0.000000 0.000000
O O18 0.566753 0.420870 0.845904
#
# Coordination Sequence:
#
# PCOD9033601 Si02
#       8
#     2   2   2   2   2   2   2   2
#     4  12  26  42  70 109 154 190 233 295 362 424
#     4  12  28  50  73 107 145 185 238 308 373 422
#     4  10  22  44  68  98 142 180 241 287 349 424
#     4  12  27  48  78 103 138 192 246 303 356 434
#     4  10  25  46  67 105 148 179 237 304 352 422
#     4  12  21  40  66 102 141 190 242 278 347 433
#     4  10  24  41  72  97 138 189 235 283 349 426
#     4  12  26  49  74 103 148 190 240 296 358 437
#
# _framework density 21.396046999999999
#
# number of rings (size 3 to 8) (size 9 to 14) (size 15 to 20)
#    0.750    0.000    5.000    1.125    5.250    2.500 
#    0.000    0.000    0.000    0.000    0.000    0.000 
#    0.000    0.000    0.000    0.000    0.000    0.000 
#
# Total GULP energy -89108.570265 kJ/mol
# GULP energy per Si atom -5569.285642 kJ/mol
# Density = 2.134735 g / cm^3
# Si number density = 21.396047 Si / 1000 Ang^3
#
#
#
# Elastic Constant Matrix: (Units=GPa)
#
#
# Indices 1 2 3 4 5 6 
#
# 1 93.9429 17.5998 24.9789 2.0923 -14.3715 2.8722
# 2 17.5998 63.4920 35.0651 0.3225 -5.5055 5.3765
# 3 24.9789 35.0651 100.3320 -4.3641 -10.4250 15.1428
# 4 2.0923 0.3225 -4.3641 37.1343 -0.0523 7.8946
# 5 -14.3715 -5.5055 -10.4250 -0.0523 30.6459 4.4427
# 6 2.8722 5.3765 15.1428 7.8946 4.4427 29.0639
#
#
#
# Elastic Compliance Matrix: (Units=1/GPa)
#
#
# Indices 1 2 3 4 5 6 
#
# 1 0.012267 -0.001918 -0.001853 -0.000797 0.004836 -0.000415
# 2 -0.001918 0.019896 -0.006468 -0.000831 0.000468 0.000034
# 3 -0.001853 -0.006468 0.014417 0.003496 0.003994 -0.007692
# 4 -0.000797 -0.000831 0.003496 0.029507 0.002156 -0.009933
# 5 0.004836 0.000468 0.003994 0.002156 0.037648 -0.008986
# 6 -0.000415 0.000034 -0.007692 -0.009933 -0.008986 0.042521
#
#
# Mechanical properties :
#
#
# Convention : Reuss Voigt Hill
#
# Bulk Modulus (GPa) = 38.31402 45.89493 42.10447
# Shear Modulus (GPa) = 26.96333 31.37703 29.17018
#
# Velocity S-wave (km/s) = 3.55378 3.83363 3.69635
# Velocity P-wave (km/s) = 5.89789 6.41033 6.15944
#
# Compressibility (1/GPa) = 0.02610011
#
# Stress axis : x y z
#
# Youngs Moduli (GPa) = 81.51783 50.26100 69.36279
#
# Poissons Ratio (x) = 0.09642 0.12854
# Poissons Ratio (y) = 0.15639 0.44867
# Poissons Ratio (z) = 0.15107 0.32511
#
# Static dielectric constant tensor:
#      x y z
#    x 1.692750 0.055750 0.874980 
#    y 0.055750 1.857840 0.747190 
#    z 0.874980 0.747190 3.720370 
# 
# From -- ./inp_files/519503.got.cif
#   From: 2010.05.17/outbox.cif.g08.bks.cpg/sg2_260_cif.got.tgz:519503.got - 2010.06.03 11:33:40.
