data_PCOD9033471
_publ_section_title
;
Structure prediction by ZEFSAII (Michael W. Deem and Ramdas Pophale) SiO2 
 PCOD9033471
Probable space group: P -1
;
_chemical_formula_sum "Si O2"
_cell_formula_units_Z 16
_cell_length_a 18.093354
_cell_length_b 14.135874
_cell_length_c 11.231002
_cell_angle_alpha 151.526305
_cell_angle_beta 133.410890
_cell_angle_gamma 36.193662
_cell_volume 806.187034
_symmetry_space_group_name_H-M "P -1"
_symmetry_group_IT_number 2
_symmetry_cell_setting 'triclinic'
loop_
_space_group_symop_operation_xyz
x,y,z
-x,-y,-z
loop_
_atom_site_type_symbol
_atom_site_label
_atom_site_fract_x
_atom_site_fract_y
_atom_site_fract_z
Si Si1 0.368993 0.827160 0.589538
Si Si2 0.412607 0.707407 0.766560
Si Si3 0.363703 0.228366 0.915163
Si Si4 0.056858 0.989439 0.922796
Si Si5 0.280301 0.506808 0.727883
Si Si6 0.797198 0.285161 0.857305
Si Si7 0.448867 0.883639 0.401613
Si Si8 0.251413 0.067722 0.201336
O O1 0.344792 0.778315 0.642659
O O2 0.509778 0.584355 0.447819
O O3 0.275855 0.824236 0.391629
O O4 0.353370 0.081748 0.847043
O O5 0.523655 0.744063 0.915446
O O6 0.322019 0.888552 0.969511
O O7 0.400709 0.044396 0.643124
O O8 0.244040 0.492066 0.031840
O O9 0.945800 0.082753 0.810146
O O10 0.185316 0.717841 0.764377
O O11 0.110411 0.150341 0.150730
O O12 0.000000 0.000000 0.000000
O O13 0.426723 0.383221 0.731149
O O14 0.257051 0.298314 0.456158
O O15 0.250230 0.598990 0.934242
O O16 0.333552 0.917233 0.242307
O O17 0.500000 0.000000 0.500000
#
# Coordination Sequence:
#
# PCOD9033471 Si02
#       8
#     2   2   2   2   2   2   2   2
#     4  10  23  36  61  85 116 156 184 240 281 340
#     4  10  21  40  56  90 119 142 196 231 291 345
#     4  11  19  35  62  85 116 149 181 236 292 344
#     4  10  25  37  54  85 117 158 196 228 279 345
#     4  10  20  37  56  86 120 147 184 236 290 353
#     4  10  21  39  53  82 118 152 198 229 276 343
#     4  10  17  32  55  91 114 136 176 233 299 342
#     4  11  21  37  59  84 119 153 179 245 289 334
#
# _framework density 19.846511
#
# number of rings (size 3 to 8) (size 9 to 14) (size 15 to 20)
#    0.000    1.750    5.000    1.125    5.250    3.500 
#    0.000    0.625    0.000    1.500    0.000    0.000 
#    0.000    0.000    0.000    0.000    0.000    0.000 
#
# Total GULP energy -89274.555889 kJ/mol
# GULP energy per Si atom -5579.659743 kJ/mol
# Density = 1.980134 g / cm^3
# Si number density = 19.846511 Si / 1000 Ang^3
#
#
#
# Elastic Constant Matrix: (Units=GPa)
#
#
# Indices 1 2 3 4 5 6 
#
# 1 35.2158 20.7550 15.8038 -10.2394 9.5510 -0.1935
# 2 20.7550 120.8585 18.7933 1.9990 11.5871 -3.0518
# 3 15.8038 18.7933 63.7926 -3.0420 -0.7821 5.2909
# 4 -10.2394 1.9990 -3.0420 29.1285 9.7718 7.2139
# 5 9.5510 11.5871 -0.7821 9.7718 30.1530 2.4686
# 6 -0.1935 -3.0518 5.2909 7.2139 2.4686 22.9178
#
#
#
# Elastic Compliance Matrix: (Units=1/GPa)
#
#
# Indices 1 2 3 4 5 6 
#
# 1 0.048546 -0.005363 -0.009242 0.024466 -0.021191 -0.003589
# 2 -0.005363 0.009745 -0.001933 -0.002992 -0.001355 0.002786
# 3 -0.009242 -0.001933 0.018909 -0.001681 0.005092 -0.004720
# 4 0.024466 -0.002992 -0.001681 0.054259 -0.023049 -0.014400
# 5 -0.021191 -0.001355 0.005092 -0.023049 0.047953 0.000555
# 6 -0.003589 0.002786 -0.004720 -0.014400 0.000555 0.049538
#
#
# Mechanical properties :
#
#
# Convention : Reuss Voigt Hill
#
# Bulk Modulus (GPa) = 22.66345 36.73012 29.69678
# Shear Modulus (GPa) = 18.06786 27.40752 22.73769
#
# Velocity S-wave (km/s) = 3.02052 3.72018 3.38846
# Velocity P-wave (km/s) = 4.85890 6.08278 5.50496
#
# Compressibility (1/GPa) = 0.04412391
#
# Stress axis : x y z
#
# Youngs Moduli (GPa) = 20.59894 102.61214 52.88621
#
# Poissons Ratio (x) = 0.55035 0.48878
# Poissons Ratio (y) = 0.11048 0.10221
# Poissons Ratio (z) = 0.19038 0.19831
#
# Static dielectric constant tensor:
#      x y z
#    x 1.732660 0.037840 0.039480 
#    y 0.037840 1.754830 0.036320 
#    z 0.039480 0.036320 1.731790 
# 
# From -- ./inp_files/425996.got.cif
#   From: 2010.05.17/outbox.cif.g08.bks.cpg/sg2_213_cif.got.tgz:425996.got - 2010.06.03 11:33:40.
