data_PCOD9033148
_publ_section_title
;
Structure prediction by ZEFSAII (Michael W. Deem and Ramdas Pophale) SiO2 
 PCOD9033148
Probable space group: P -1
;
_chemical_formula_sum "Si O2"
_cell_formula_units_Z 15
_cell_length_a 13.529449
_cell_length_b 11.649178
_cell_length_c 6.407998
_cell_angle_alpha 86.340833
_cell_angle_beta 110.577455
_cell_angle_gamma 131.867251
_cell_volume 682.668367
_symmetry_space_group_name_H-M "P -1"
_symmetry_group_IT_number 2
_symmetry_cell_setting 'triclinic'
loop_
_space_group_symop_operation_xyz
x,y,z
-x,-y,-z
loop_
_atom_site_type_symbol
_atom_site_label
_atom_site_fract_x
_atom_site_fract_y
_atom_site_fract_z
Si Si1 0.479570 0.676128 0.401185
Si Si2 0.799579 0.869073 0.765248
Si Si3 0.029882 0.404495 0.151139
Si Si4 0.509788 0.142384 0.956130
Si Si5 0.775522 0.617722 0.993680
Si Si6 0.000000 0.000000 0.500000
Si Si7 0.811645 0.047584 0.112017
Si Si8 0.733011 0.445847 0.362473
O O1 0.639520 0.752523 0.559095
O O2 0.389848 0.531985 0.186307
O O3 0.386257 0.605725 0.550876
O O4 0.482213 0.804367 0.281076
O O5 0.807140 0.772806 0.952093
O O6 0.912441 0.926537 0.663585
O O7 0.826199 0.005097 0.896416
O O8 0.885693 0.228557 0.136534
O O9 0.121810 0.387757 0.068919
O O10 0.133042 0.504025 0.415124
O O11 0.000000 0.500000 0.000000
O O12 0.650928 0.298047 0.162660
O O13 0.500000 0.000000 0.000000
O O14 0.359594 0.079843 0.945519
O O15 0.788827 0.594504 0.247431
O O16 0.894618 0.030991 0.342328
#
# Coordination Sequence:
#
# PCOD9033148 Si02
#       8
#     2   2   2   2   2   1   2   2
#     4  10  22  44  66 104 137 183 233 295 359 421
#     4  12  24  45  71 107 142 182 244 294 362 430
#     4  11  27  47  68 103 146 185 241 292 360 436
#     4  11  25  46  74 104 141 188 246 296 353 428
#     4  10  24  43  70 101 137 188 238 291 360 429
#     4  12  26  46  68 104 152 180 232 304 364 428
#     4  12  27  45  73 108 142 193 236 301 364 420
#     4  10  24  47  68  99 140 187 236 291 359 415
#
# _framework density 21.9726
#
# number of rings (size 3 to 8) (size 9 to 14) (size 15 to 20)
#    0.000    1.067    4.000    0.800    7.467    2.667 
#    0.000    0.000    0.000    0.000    0.000    0.000 
#    0.000    0.000    0.000    0.000    0.000    0.000 
#
# Total GULP energy -83722.814805 kJ/mol
# GULP energy per Si atom -5581.520987 kJ/mol
# Density = 2.192259 g / cm^3
# Si number density = 21.972600 Si / 1000 Ang^3
#
#
#
# Elastic Constant Matrix: (Units=GPa)
#
#
# Indices 1 2 3 4 5 6 
#
# 1 33.5353 11.1456 25.8893 -1.4957 8.1869 -6.4919
# 2 11.1456 94.1921 54.2501 -13.3583 12.6107 -3.4334
# 3 25.8893 54.2501 121.7483 -22.5451 23.6836 1.6180
# 4 -1.4957 -13.3583 -22.5451 46.0805 7.0930 4.7159
# 5 8.1869 12.6107 23.6836 7.0930 30.7176 -10.1167
# 6 -6.4919 -3.4334 1.6180 4.7159 -10.1167 29.2807
#
#
#
# Elastic Compliance Matrix: (Units=1/GPa)
#
#
# Indices 1 2 3 4 5 6 
#
# 1 0.038608 0.000570 -0.009760 -0.004658 0.001515 0.010440
# 2 0.000570 0.014469 -0.006149 0.001213 -0.001109 0.001584
# 3 -0.009760 -0.006149 0.017767 0.009852 -0.014267 -0.010383
# 4 -0.004658 0.001213 0.009852 0.030810 -0.018137 -0.012664
# 5 0.001515 -0.001109 -0.014267 -0.018137 0.055387 0.023052
# 6 0.010440 0.001584 -0.010383 -0.012664 0.023052 0.047230
#
#
# Mechanical properties :
#
#
# Convention : Reuss Voigt Hill
#
# Bulk Modulus (GPa) = 24.89694 48.00509 36.45102
# Shear Modulus (GPa) = 20.13395 31.76180 25.94787
#
# Velocity S-wave (km/s) = 3.03036 3.80612 3.44018
# Velocity P-wave (km/s) = 4.85795 6.41954 5.69255
#
# Compressibility (1/GPa) = 0.04016558
#
# Stress axis : x y z
#
# Youngs Moduli (GPa) = 25.90148 69.11301 56.28499
#
# Poissons Ratio (x) = -0.03938 0.54933
# Poissons Ratio (y) = -0.01476 0.34610
# Poissons Ratio (z) = 0.25279 0.42498
#
# Static dielectric constant tensor:
#      x y z
#    x 1.778200 -0.024770 -0.022140 
#    y -0.024770 1.854720 0.054440 
#    z -0.022140 0.054440 1.825890 
# 
# From -- ./inp_files/70088.got.cif
#   From: 2010.05.17/outbox.cif.g08.bks.cpg/sg2_36_cif.got.tgz:70088.got - 2010.06.03 11:33:40.
