data_PCOD9033439
_publ_section_title
;
Structure prediction by ZEFSAII (Michael W. Deem and Ramdas Pophale) SiO2 
 PCOD9033439
Probable space group: P -1
;
_chemical_formula_sum "Si O2"
_cell_formula_units_Z 14
_cell_length_a 10.689721
_cell_length_b 5.220756
_cell_length_c 12.911544
_cell_angle_alpha 77.066628
_cell_angle_beta 93.310678
_cell_angle_gamma 121.324581
_cell_volume 598.435275
_symmetry_space_group_name_H-M "P -1"
_symmetry_group_IT_number 2
_symmetry_cell_setting 'triclinic'
loop_
_space_group_symop_operation_xyz
x,y,z
-x,-y,-z
loop_
_atom_site_type_symbol
_atom_site_label
_atom_site_fract_x
_atom_site_fract_y
_atom_site_fract_z
Si Si1 0.648181 0.818237 0.907030
Si Si2 0.353699 0.649611 0.907624
Si Si3 0.867769 0.403071 0.925872
Si Si4 0.001680 0.213717 0.573226
Si Si5 0.484942 0.292261 0.617327
Si Si6 0.694724 0.439559 0.319287
Si Si7 0.246668 0.333295 0.266981
O O1 0.525366 0.910927 0.885223
O O2 0.641598 0.659030 0.813717
O O3 0.817486 0.086511 0.895233
O O4 0.632330 0.635631 0.027620
O O5 0.280011 0.579838 0.799887
O O6 0.263589 0.681059 0.991740
O O7 0.861196 0.602506 0.813866
O O8 0.000000 0.500000 0.000000
O O9 0.151639 0.366180 0.632093
O O10 0.000000 0.500000 0.500000
O O11 0.000000 0.000000 0.500000
O O12 0.857068 0.992276 0.653630
O O13 0.500000 0.500000 0.500000
O O14 0.389218 0.376839 0.680782
O O15 0.646430 0.421530 0.663565
O O16 0.402479 0.926198 0.621953
#
# Coordination Sequence:
#
# PCOD9033439 Si02
#       7
#     2   2   2   2   2   2   2
#     4  10  22  44  68 100 144 181 240 295 366 435
#     4  10  23  41  68 104 136 187 235 298 361 435
#     4  11  26  40  70 106 150 190 241 296 369 462
#     4  12  29  50  73 108 152 200 248 308 377 443
#     4  12  26  48  75 109 140 192 257 314 360 434
#     4  12  26  45  77 105 145 192 245 303 375 436
#     4  11  26  45  74 105 148 195 245 312 376 434
#
# _framework density 23.394344
#
# number of rings (size 3 to 8) (size 9 to 14) (size 15 to 20)
#    0.000    0.857    1.429    4.286    8.000    1.143 
#    0.000    0.000    0.000    0.000    0.000    0.000 
#    0.000    0.000    0.000    0.000    0.000    0.000 
#
# Total GULP energy -78157.464012 kJ/mol
# GULP energy per Si atom -5582.676001 kJ/mol
# Density = 2.334110 g / cm^3
# Si number density = 23.394344 Si / 1000 Ang^3
#
#
#
# Elastic Constant Matrix: (Units=GPa)
#
#
# Indices 1 2 3 4 5 6 
#
# 1 71.4686 41.5308 22.8634 7.1762 26.8940 21.2044
# 2 41.5308 143.1751 47.9627 12.8130 20.2857 20.0222
# 3 22.8634 47.9627 139.5923 7.1379 11.9108 16.3737
# 4 7.1762 12.8130 7.1379 46.1543 11.2065 10.4046
# 5 26.8940 20.2857 11.9108 11.2065 35.8950 12.9449
# 6 21.2044 20.0222 16.3737 10.4046 12.9449 39.2203
#
#
#
# Elastic Compliance Matrix: (Units=1/GPa)
#
#
# Indices 1 2 3 4 5 6 
#
# 1 0.023180 -0.003911 -0.000675 0.002275 -0.013312 -0.006463
# 2 -0.003911 0.009252 -0.002284 -0.001172 -0.000783 -0.001086
# 3 -0.000675 -0.002284 0.008300 -0.000065 -0.000279 -0.001825
# 4 0.002275 -0.001172 -0.000065 0.024408 -0.006910 -0.004799
# 5 -0.013312 -0.000783 -0.000279 -0.006910 0.042093 -0.004347
# 6 -0.006463 -0.001086 -0.001825 -0.004799 -0.004347 0.033015
#
#
# Mechanical properties :
#
#
# Convention : Reuss Voigt Hill
#
# Bulk Modulus (GPa) = 37.04953 64.32773 50.68863
# Shear Modulus (GPa) = 30.67763 40.37919 35.52841
#
# Velocity S-wave (km/s) = 3.62515 4.15905 3.90125
# Velocity P-wave (km/s) = 5.77872 7.11480 6.48128
#
# Compressibility (1/GPa) = 0.02699089
#
# Stress axis : x y z
#
# Youngs Moduli (GPa) = 43.14141 108.08743 120.47774
#
# Poissons Ratio (x) = 0.42275 0.08132
# Poissons Ratio (y) = 0.16874 0.27519
# Poissons Ratio (z) = 0.02912 0.24689
#
# Static dielectric constant tensor:
#      x y z
#    x 1.941080 0.051490 -0.038030 
#    y 0.051490 2.192630 -0.000680 
#    z -0.038030 -0.000680 1.978990 
# 
# From -- ./inp_files/89841.got.cif
#   From: 2010.05.17/outbox.cif.g08.bks.cpg/sg2_45_cif.got.tgz:89841.got - 2010.06.03 11:33:40.
