data_PCOD9033162
_publ_section_title
;
Structure prediction by ZEFSAII (Michael W. Deem and Ramdas Pophale) SiO2 
 PCOD9033162
Probable space group: P -1
;
_chemical_formula_sum "Si O2"
_cell_formula_units_Z 16
_cell_length_a 10.681372
_cell_length_b 21.059493
_cell_length_c 6.565904
_cell_angle_alpha 104.752886
_cell_angle_beta 139.248937
_cell_angle_gamma 56.408514
_cell_volume 765.495179
_symmetry_space_group_name_H-M "P -1"
_symmetry_group_IT_number 2
_symmetry_cell_setting 'triclinic'
loop_
_space_group_symop_operation_xyz
x,y,z
-x,-y,-z
loop_
_atom_site_type_symbol
_atom_site_label
_atom_site_fract_x
_atom_site_fract_y
_atom_site_fract_z
Si Si1 0.462647 0.935530 0.997622
Si Si2 0.799073 0.678004 0.971907
Si Si3 0.854766 0.315582 0.289346
Si Si4 0.646773 0.602977 0.051979
Si Si5 0.118251 0.160253 0.249849
Si Si6 0.428090 0.162200 0.338662
Si Si7 0.944031 0.418796 0.181059
Si Si8 0.813602 0.004067 0.917659
O O1 0.682942 0.877324 0.362298
O O2 0.229239 0.980866 0.882524
O O3 0.474517 0.880983 0.790772
O O4 0.500000 0.000000 0.000000
O O5 0.676069 0.648137 0.938091
O O6 0.940271 0.701229 0.313289
O O7 0.603924 0.754320 0.659411
O O8 0.983900 0.612305 0.986008
O O9 0.861386 0.371885 0.172310
O O10 0.909012 0.236865 0.172861
O O11 0.611483 0.355613 0.141645
O O12 0.748898 0.513076 0.033415
O O13 0.823863 0.596944 0.436769
O O14 0.177445 0.189875 0.143635
O O15 0.137826 0.081602 0.136093
O O16 0.588701 0.087460 0.623923
O O17 0.000000 0.000000 0.000000
#
# Coordination Sequence:
#
# PCOD9033162 Si02
#       8
#     2   2   2   2   2   2   2   2
#     4  11  19  39  64  78 111 163 203 240 297 363
#     4  11  23  40  65  95 126 167 212 258 313 377
#     4  11  23  39  66  96 126 163 215 259 311 380
#     4  10  24  42  64  97 127 164 209 262 314 376
#     4  11  21  39  61  86 120 159 205 251 306 370
#     4  11  21  40  62  84 119 165 201 248 309 363
#     4  10  22  44  66  89 132 169 202 257 325 376
#     4  11  25  38  58  93 122 157 204 257 308 364
#
# _framework density 20.901501
#
# number of rings (size 3 to 8) (size 9 to 14) (size 15 to 20)
#    0.000    1.250    5.000    1.500    0.000    4.000 
#    4.500    0.000    0.000    0.000    0.000    0.000 
#    0.000    0.000    0.000    0.000    0.000    0.000 
#
# Total GULP energy -89100.371820 kJ/mol
# GULP energy per Si atom -5568.773239 kJ/mol
# Density = 2.085393 g / cm^3
# Si number density = 20.901501 Si / 1000 Ang^3
#
#
#
# Elastic Constant Matrix: (Units=GPa)
#
#
# Indices 1 2 3 4 5 6 
#
# 1 168.6023 74.7536 30.0227 0.4750 -9.5601 -22.7279
# 2 74.7536 191.5679 4.2421 20.8451 -3.5270 -17.2079
# 3 30.0227 4.2421 31.4052 -25.5358 -6.2361 -6.9879
# 4 0.4750 20.8451 -25.5358 55.2925 -5.3291 -5.2970
# 5 -9.5601 -3.5270 -6.2361 -5.3291 23.9954 -0.6741
# 6 -22.7279 -17.2079 -6.9879 -5.2970 -0.6741 44.0029
#
#
#
# Elastic Compliance Matrix: (Units=1/GPa)
#
#
# Indices 1 2 3 4 5 6 
#
# 1 0.009547 -0.002835 -0.012508 -0.004755 -0.000885 0.001250
# 2 -0.002835 0.006676 -0.000341 -0.002655 -0.000805 0.000761
# 3 -0.012508 -0.000341 0.089894 0.045843 0.028893 0.013643
# 4 -0.004755 -0.002655 0.045843 0.043062 0.019453 0.009268
# 5 -0.000885 -0.000805 0.028893 0.019453 0.053229 0.006974
# 6 0.001250 0.000761 0.013643 0.009268 0.006974 0.027058
#
#
# Mechanical properties :
#
#
# Convention : Reuss Voigt Hill
#
# Bulk Modulus (GPa) = 13.37792 67.73469 40.55631
# Shear Modulus (GPa) = 17.49778 43.49528 30.49653
#
# Velocity S-wave (km/s) = 2.89650 4.56671 3.82391
# Velocity P-wave (km/s) = 4.19531 7.76424 6.24035
#
# Compressibility (1/GPa) = 0.07475001
#
# Stress axis : x y z
#
# Youngs Moduli (GPa) = 104.74347 149.78409 11.12422
#
# Poissons Ratio (x) = 0.42465 0.13914
# Poissons Ratio (y) = 0.29695 0.00379
# Poissons Ratio (z) = 1.31012 0.05103
#
# Static dielectric constant tensor:
#      x y z
#    x 1.762600 -0.089300 0.038740 
#    y -0.089300 1.535150 0.002820 
#    z 0.038740 0.002820 1.825980 
# 
# From -- ./inp_files/52799.got.cif
#   From: 2010.05.17/outbox.cif.g08.bks.cpg/sg2_27_cif.got.tgz:52799.got - 2010.06.03 11:33:40.
