data_PCOD9033898
_publ_section_title
;
Structure prediction by ZEFSAII (Michael W. Deem and Ramdas Pophale) SiO2 
 PCOD9033898
Probable space group: P -1
;
_chemical_formula_sum "Si O2"
_cell_formula_units_Z 16
_cell_length_a 5.530995
_cell_length_b 6.018687
_cell_length_c 24.275472
_cell_angle_alpha 60.405995
_cell_angle_beta 84.514483
_cell_angle_gamma 71.968177
_cell_volume 666.574966
_symmetry_space_group_name_H-M "P -1"
_symmetry_group_IT_number 2
_symmetry_cell_setting 'triclinic'
loop_
_space_group_symop_operation_xyz
x,y,z
-x,-y,-z
loop_
_atom_site_type_symbol
_atom_site_label
_atom_site_fract_x
_atom_site_fract_y
_atom_site_fract_z
Si Si1 0.971318 0.699536 0.529649
Si Si2 0.364053 0.225155 0.377732
Si Si3 0.473066 0.317182 0.729078
Si Si4 0.851886 0.500502 0.846521
Si Si5 0.970180 0.810543 0.704823
Si Si6 0.725216 0.621996 0.961664
Si Si7 0.453948 0.192663 0.864088
Si Si8 0.269645 0.193754 0.642233
O O1 0.176873 0.500650 0.590008
O O2 0.000000 0.500000 0.500000
O O3 0.707321 0.721035 0.564359
O O4 0.000000 0.000000 0.500000
O O5 0.356588 0.489393 0.310854
O O6 0.170695 0.117332 0.359448
O O7 0.623707 0.990726 0.390451
O O8 0.203265 0.544196 0.718124
O O9 0.511014 0.138961 0.804267
O O10 0.463536 0.165804 0.691372
O O11 0.795011 0.578921 0.901236
O O12 0.613019 0.398699 0.847164
O O13 0.860210 0.717619 0.773627
O O14 0.146510 0.297235 0.864773
O O15 0.064168 0.063426 0.686196
O O16 0.589790 0.940526 0.930181
O O17 0.500000 0.500000 0.000000
O O18 0.000000 0.500000 0.000000
#
# Coordination Sequence:
#
# PCOD9033898 Si02
#       8
#     2   2   2   2   2   2   2   2
#     4  12  29  50  71 105 153 205 260 310 381 482
#     4  11  24  45  74 102 145 187 240 313 394 451
#     4  10  23  42  72 109 136 179 248 310 399 461
#     4  11  25  45  73 106 150 192 252 320 389 463
#     4  10  22  44  70 108 143 180 242 312 399 455
#     4  12  28  46  69 104 149 205 262 306 376 465
#     4  11  25  45  73 110 146 196 249 321 387 463
#     4  11  26  43  74 106 143 193 243 320 385 469
#
# _framework density 24.003299999999999
#
# number of rings (size 3 to 8) (size 9 to 14) (size 15 to 20)
#    0.000    1.000    2.500    2.250    7.000    7.000 
#    0.000    0.000    0.000    0.000    0.000    0.000 
#    0.000    0.000    0.000    0.000    0.000    0.000 
#
# Total GULP energy -89257.612175 kJ/mol
# GULP energy per Si atom -5578.600761 kJ/mol
# Density = 2.394867 g / cm^3
# Si number density = 24.003300 Si / 1000 Ang^3
#
#
#
# Elastic Constant Matrix: (Units=GPa)
#
#
# Indices 1 2 3 4 5 6 
#
# 1 60.4648 25.4258 17.3969 -8.8236 2.4884 2.6639
# 2 25.4258 107.8682 63.2089 13.5854 -9.7418 -16.4336
# 3 17.3969 63.2089 129.6431 -3.9407 -3.4281 -5.3363
# 4 -8.8236 13.5854 -3.9407 56.0918 -5.4681 0.8905
# 5 2.4884 -9.7418 -3.4281 -5.4681 37.9570 4.5610
# 6 2.6639 -16.4336 -5.3363 0.8905 4.5610 41.3709
#
#
#
# Elastic Compliance Matrix: (Units=1/GPa)
#
#
# Indices 1 2 3 4 5 6 
#
# 1 0.019930 -0.006122 0.000253 0.004520 -0.001773 -0.003584
# 2 -0.006122 0.016741 -0.007192 -0.005368 0.002560 0.005950
# 3 0.000253 -0.007192 0.011196 0.002561 -0.000308 -0.001450
# 4 0.004520 -0.005368 0.002561 0.020238 0.001800 -0.002727
# 5 -0.001773 0.002560 -0.000308 0.001800 0.027590 -0.001989
# 6 -0.003584 0.005950 -0.001450 -0.002727 -0.001989 0.026857
#
#
# Mechanical properties :
#
#
# Convention : Reuss Voigt Hill
#
# Bulk Modulus (GPa) = 45.98205 56.67106 51.32655
# Shear Modulus (GPa) = 32.06762 39.88023 35.97393
#
# Velocity S-wave (km/s) = 3.65905 4.08051 3.87551
# Velocity P-wave (km/s) = 6.08685 6.77212 6.43861
#
# Compressibility (1/GPa) = 0.02174762
#
# Stress axis : x y z
#
# Youngs Moduli (GPa) = 50.17492 59.73241 89.31883
#
# Poissons Ratio (x) = 0.36565 -0.02261
# Poissons Ratio (y) = 0.30715 0.64234
# Poissons Ratio (z) = -0.01270 0.42957
#
# Static dielectric constant tensor:
#      x y z
#    x 1.997880 -0.061770 0.001410 
#    y -0.061770 1.976540 0.016930 
#    z 0.001410 0.016930 1.894700 
# 
# From -- ./inp_files/603090.got.cif
#   From: 2010.05.17/outbox.cif.g08.bks.cpg/sg2_302_cif.got.tgz:603090.got - 2010.06.03 11:33:40.
