data_PCOD9033937
_publ_section_title
;
Structure prediction by ZEFSAII (Michael W. Deem and Ramdas Pophale) SiO2 
 PCOD9033937
Probable space group: P -1
;
_chemical_formula_sum "Si O2"
_cell_formula_units_Z 16
_cell_length_a 9.764749
_cell_length_b 13.800484
_cell_length_c 9.868375
_cell_angle_alpha 55.808168
_cell_angle_beta 57.037945
_cell_angle_gamma 48.117676
_cell_volume 787.557669
_symmetry_space_group_name_H-M "P -1"
_symmetry_group_IT_number 2
_symmetry_cell_setting 'triclinic'
loop_
_space_group_symop_operation_xyz
x,y,z
-x,-y,-z
loop_
_atom_site_type_symbol
_atom_site_label
_atom_site_fract_x
_atom_site_fract_y
_atom_site_fract_z
Si Si1 0.423605 0.912371 0.681557
Si Si2 0.192028 0.934405 0.359106
Si Si3 0.042086 0.945453 0.871281
Si Si4 0.193455 0.633277 0.020627
Si Si5 0.530078 0.624785 0.419197
Si Si6 0.146724 0.368053 0.937720
Si Si7 0.447880 0.384846 0.274051
Si Si8 0.420973 0.070553 0.135256
O O1 0.205633 0.971522 0.710092
O O2 0.523728 0.752439 0.706240
O O3 0.443387 0.928620 0.820409
O O4 0.500000 0.000000 0.500000
O O5 0.327717 0.770112 0.406391
O O6 0.322858 0.988805 0.305166
O O7 0.000000 0.000000 0.500000
O O8 0.124059 0.994015 0.197452
O O9 0.131373 0.785469 0.973800
O O10 0.000000 0.000000 0.000000
O O11 0.359801 0.605054 0.844347
O O12 0.292960 0.517268 0.171317
O O13 0.999912 0.644469 0.070152
O O14 0.500000 0.500000 0.500000
O O15 0.689239 0.620815 0.237371
O O16 0.599457 0.614212 0.544647
O O17 0.260909 0.228977 0.072019
O O18 0.000000 0.500000 0.000000
O O19 0.500000 0.000000 0.000000
#
# Coordination Sequence:
#
# PCOD9033937 Si02
#       8
#     2   2   2   2   2   2   2   2
#     4  11  24  42  67 101 141 183 226 285 356 416
#     4  12  25  46  72 102 141 184 231 293 354 419
#     4  11  24  40  68  99 132 175 229 280 343 412
#     4  10  22  44  70  95 134 184 226 289 349 422
#     4  12  28  44  70 104 143 188 239 298 357 425
#     4  12  26  44  70 101 138 186 241 291 357 423
#     4  10  23  46  68  99 142 182 233 291 361 422
#     4  12  24  45  73 103 138 185 241 291 346 421
#
# _framework density 20.315973
#
# number of rings (size 3 to 8) (size 9 to 14) (size 15 to 20)
#    0.000    0.750    2.500    5.250    3.500    1.500 
#    2.250    0.000    0.000    0.000    0.000    0.000 
#    0.000    0.000    0.000    0.000    0.000    0.000 
#
# Total GULP energy -89319.483730 kJ/mol
# GULP energy per Si atom -5582.467733 kJ/mol
# Density = 2.026973 g / cm^3
# Si number density = 20.315973 Si / 1000 Ang^3
#
#
#
# Elastic Constant Matrix: (Units=GPa)
#
#
# Indices 1 2 3 4 5 6 
#
# 1 103.4075 30.5915 19.0128 1.2872 -14.8688 8.4404
# 2 30.5915 119.4735 59.1071 -4.3449 -9.7080 4.0731
# 3 19.0128 59.1071 80.3912 -1.8350 -4.5120 9.7345
# 4 1.2872 -4.3449 -1.8350 35.1890 4.3083 3.1934
# 5 -14.8688 -9.7080 -4.5120 4.3083 43.0269 1.7081
# 6 8.4404 4.0731 9.7345 3.1934 1.7081 31.3714
#
#
#
# Elastic Compliance Matrix: (Units=1/GPa)
#
#
# Indices 1 2 3 4 5 6 
#
# 1 0.011162 -0.002290 -0.000459 -0.000901 0.003488 -0.002662
# 2 -0.002290 0.013859 -0.009765 0.000993 0.001146 0.001683
# 3 -0.000459 -0.009765 0.020330 0.000328 -0.000066 -0.004947
# 4 -0.000901 0.000993 0.000328 0.029196 -0.002865 -0.002804
# 5 0.003488 0.001146 -0.000066 -0.002865 0.025070 -0.002140
# 6 -0.002662 0.001683 -0.004947 -0.002804 -0.002140 0.034311
#
#
# Mechanical properties :
#
#
# Convention : Reuss Voigt Hill
#
# Bulk Modulus (GPa) = 49.20247 57.85498 53.52873
# Shear Modulus (GPa) = 30.16933 34.88818 32.52876
#
# Velocity S-wave (km/s) = 3.85776 4.14850 4.00577
# Velocity P-wave (km/s) = 6.64186 7.17539 6.91377
#
# Compressibility (1/GPa) = 0.02032418
#
# Stress axis : x y z
#
# Youngs Moduli (GPa) = 89.58743 72.15364 49.18744
#
# Poissons Ratio (x) = 0.16520 0.02257
# Poissons Ratio (y) = 0.20512 0.48033
# Poissons Ratio (z) = 0.04112 0.70460
#
# Static dielectric constant tensor:
#      x y z
#    x 1.719880 -0.029580 -0.035460 
#    y -0.029580 1.725240 0.055250 
#    z -0.035460 0.055250 1.754730 
# 
# From -- ./inp_files/199337.got.cif
#   From: 2010.05.17/outbox.cif.g08.bks.cpg/sg2_100_cif.got.tgz:199337.got - 2010.06.03 11:33:40.
