data_PCOD9033643
_publ_section_title
;
Structure prediction by ZEFSAII (Michael W. Deem and Ramdas Pophale) SiO2 
 PCOD9033643
Probable space group: P -1
;
_chemical_formula_sum "Si O2"
_cell_formula_units_Z 16
_cell_length_a 16.486560
_cell_length_b 5.376621
_cell_length_c 8.083040
_cell_angle_alpha 72.378494
_cell_angle_beta 82.443521
_cell_angle_gamma 108.946269
_cell_volume 624.542651
_symmetry_space_group_name_H-M "P -1"
_symmetry_group_IT_number 2
_symmetry_cell_setting 'triclinic'
loop_
_space_group_symop_operation_xyz
x,y,z
-x,-y,-z
loop_
_atom_site_type_symbol
_atom_site_label
_atom_site_fract_x
_atom_site_fract_y
_atom_site_fract_z
Si Si1 0.576521 0.369445 0.367582
Si Si2 0.609135 0.615432 0.640148
Si Si3 0.875015 0.942995 0.938720
Si Si4 0.278801 0.467592 0.122152
Si Si5 0.673402 0.044360 0.194343
Si Si6 0.203713 0.888718 0.590298
Si Si7 0.136855 0.538265 0.363093
Si Si8 0.050310 0.038136 0.715348
O O1 0.587423 0.358541 0.566268
O O2 0.474455 0.298577 0.367045
O O3 0.617269 0.185198 0.289530
O O4 0.626352 0.708578 0.255349
O O5 0.635183 0.571034 0.826061
O O6 0.703010 0.844506 0.506054
O O7 0.885201 0.253426 0.801096
O O8 0.948551 0.876404 0.823770
O O9 0.774504 0.736423 0.969748
O O10 0.900569 0.901041 0.129478
O O11 0.199601 0.400804 0.288823
O O12 0.312194 0.799051 0.014404
O O13 0.772201 0.188028 0.219388
O O14 0.197873 0.717775 0.460855
O O15 0.106861 0.891908 0.634549
O O16 0.060398 0.298927 0.537839
#
# Coordination Sequence:
#
# PCOD9033643 Si02
#       8
#     2   2   2   2   2   2   2   2
#     4  10  25  46  70 103 141 191 237 303 360 442
#     4  10  22  44  69 101 139 184 242 290 366 432
#     4  11  26  44  68 104 143 183 241 298 360 437
#     4  12  25  42  68 101 138 187 232 301 355 439
#     4  11  26  43  72 102 146 188 244 295 372 428
#     4  11  23  43  71  97 137 191 229 301 355 439
#     4  12  23  42  70 102 137 191 239 295 363 427
#     4  11  25  46  68 102 141 188 239 297 364 428
#
# _framework density 25.618745000000001
#
# number of rings (size 3 to 8) (size 9 to 14) (size 15 to 20)
#    0.000    1.000    2.500    2.625    7.000    9.500 
#    0.000    3.125    0.000    0.000    0.000    0.000 
#    0.000    0.000    0.000    0.000    0.000    0.000 
#
# Total GULP energy -89316.055411 kJ/mol
# GULP energy per Si atom -5582.253463 kJ/mol
# Density = 2.556044 g / cm^3
# Si number density = 25.618745 Si / 1000 Ang^3
#
#
#
# Elastic Constant Matrix: (Units=GPa)
#
#
# Indices 1 2 3 4 5 6 
#
# 1 157.4754 45.3799 19.3181 13.0703 3.8368 5.9870
# 2 45.3799 85.5278 16.9672 -5.1262 -5.9582 8.6982
# 3 19.3181 16.9672 76.5273 -17.8281 4.2310 7.3406
# 4 13.0703 -5.1262 -17.8281 30.8129 -11.1744 1.6696
# 5 3.8368 -5.9582 4.2310 -11.1744 42.0639 14.6584
# 6 5.9870 8.6982 7.3406 1.6696 14.6584 36.9793
#
#
#
# Elastic Compliance Matrix: (Units=1/GPa)
#
#
# Indices 1 2 3 4 5 6 
#
# 1 0.008863 -0.005127 -0.002953 -0.007966 -0.004181 0.002374
# 2 -0.005127 0.015996 -0.000332 0.007427 0.006794 -0.005895
# 3 -0.002953 -0.000332 0.017094 0.012630 0.003533 -0.004808
# 4 -0.007966 0.007427 0.012630 0.051854 0.018718 -0.012725
# 5 -0.004181 0.006794 0.003533 0.018718 0.035497 -0.016539
# 6 0.002374 -0.005895 -0.004808 -0.012725 -0.016539 0.036129
#
#
# Mechanical properties :
#
#
# Convention : Reuss Voigt Hill
#
# Bulk Modulus (GPa) = 39.79409 53.65122 46.72266
# Shear Modulus (GPa) = 26.22832 37.82890 32.02861
#
# Velocity S-wave (km/s) = 3.20315 3.84684 3.53966
# Velocity P-wave (km/s) = 5.40806 6.38111 5.91463
#
# Compressibility (1/GPa) = 0.02512936
#
# Stress axis : x y z
#
# Youngs Moduli (GPa) = 112.83442 62.51490 58.49846
#
# Poissons Ratio (x) = 0.32050 0.17274
# Poissons Ratio (y) = 0.57847 0.01944
# Poissons Ratio (z) = 0.33318 0.02078
#
# Static dielectric constant tensor:
#      x y z
#    x 2.027430 -0.033160 0.116450 
#    y -0.033160 2.049480 -0.037650 
#    z 0.116450 -0.037650 2.229800 
# 
# From -- ./inp_files/89922.got.cif
#   From: 2010.05.17/outbox.cif.g08.bks.cpg/sg2_45_cif.got.tgz:89922.got - 2010.06.03 11:33:40.
