data_PCOD9033517
_publ_section_title
;
Structure prediction by ZEFSAII (Michael W. Deem and Ramdas Pophale) SiO2 
 PCOD9033517
Probable space group: P -1
;
_chemical_formula_sum "Si O2"
_cell_formula_units_Z 14
_cell_length_a 14.278285
_cell_length_b 14.942657
_cell_length_c 6.566807
_cell_angle_alpha 84.851261
_cell_angle_beta 98.498720
_cell_angle_gamma 29.764346
_cell_volume 616.350535
_symmetry_space_group_name_H-M "P -1"
_symmetry_group_IT_number 2
_symmetry_cell_setting 'triclinic'
loop_
_space_group_symop_operation_xyz
x,y,z
-x,-y,-z
loop_
_atom_site_type_symbol
_atom_site_label
_atom_site_fract_x
_atom_site_fract_y
_atom_site_fract_z
Si Si1 0.141324 0.199305 0.254777
Si Si2 0.761244 0.257645 0.503540
Si Si3 0.952406 0.918570 0.710569
Si Si4 0.792472 0.677639 0.542974
Si Si5 0.556220 0.052378 0.940087
Si Si6 0.697200 0.628732 0.887991
Si Si7 0.649658 0.468422 0.795932
O O1 0.169638 0.071822 0.348405
O O2 0.251091 0.182223 0.430920
O O3 0.215970 0.139960 0.054434
O O4 0.894505 0.435652 0.136830
O O5 0.687893 0.399294 0.596426
O O6 0.578748 0.381491 0.262233
O O7 0.958065 0.129139 0.469725
O O8 0.818424 0.120629 0.683217
O O9 0.151687 0.730879 0.961813
O O10 0.603587 0.795067 0.328814
O O11 0.792069 0.620979 0.762589
O O12 0.000000 0.500000 0.500000
O O13 0.493974 0.169631 0.080294
O O14 0.500000 0.000000 0.000000
O O15 0.635699 0.587338 0.774328
#
# Coordination Sequence:
#
# PCOD9033517 Si02
#       7
#     2   2   2   2   2   2   2
#     4  11  24  45  66  98 133 174 220 270 328 392
#     4  10  22  44  68  92 133 168 221 275 334 398
#     4  10  23  43  65 100 129 169 221 275 332 394
#     4  12  24  41  69  94 135 175 213 272 322 391
#     4  12  25  43  65  95 136 177 221 268 320 396
#     4  11  25  45  64 100 132 173 222 266 333 392
#     4  10  23  42  68  96 128 174 216 273 335 395
#
# _framework density 22.714347
#
# number of rings (size 3 to 8) (size 9 to 14) (size 15 to 20)
#    0.000    1.143    2.857    2.571    4.000    0.000 
#   18.000    0.000    0.000    0.000    0.000    0.000 
#    0.000    0.000    0.000    0.000    0.000    0.000 
#
# Total GULP energy -78216.701425 kJ/mol
# GULP energy per Si atom -5586.907245 kJ/mol
# Density = 2.266265 g / cm^3
# Si number density = 22.714347 Si / 1000 Ang^3
#
#
#
# Elastic Constant Matrix: (Units=GPa)
#
#
# Indices 1 2 3 4 5 6 
#
# 1 137.8766 50.8720 32.6390 29.0547 4.8979 35.5736
# 2 50.8720 122.3408 20.1177 25.2530 4.9448 20.3438
# 3 32.6390 20.1177 53.0724 -3.4807 8.0743 19.7209
# 4 29.0547 25.2530 -3.4807 38.3350 0.5096 1.6750
# 5 4.8979 4.9448 8.0743 0.5096 27.8348 8.4554
# 6 35.5736 20.3438 19.7209 1.6750 8.4554 35.3942
#
#
#
# Elastic Compliance Matrix: (Units=1/GPa)
#
#
# Indices 1 2 3 4 5 6 
#
# 1 0.013394 -0.001225 -0.005014 -0.009391 0.002565 -0.010132
# 2 -0.001225 0.010986 -0.002603 -0.006400 0.000159 -0.003368
# 3 -0.005014 -0.002603 0.027050 0.008374 -0.004250 -0.007917
# 4 -0.009391 -0.006400 0.008374 0.037896 -0.002540 0.007265
# 5 0.002565 0.000159 -0.004250 -0.002540 0.039659 -0.009655
# 6 -0.010132 -0.003368 -0.007917 0.007265 -0.009655 0.046746
#
#
# Mechanical properties :
#
#
# Convention : Reuss Voigt Hill
#
# Bulk Modulus (GPa) = 29.63408 57.83860 43.73634
# Shear Modulus (GPa) = 24.43020 34.29022 29.36021
#
# Velocity S-wave (km/s) = 3.28310 3.88961 3.59915
# Velocity P-wave (km/s) = 5.23893 6.75950 6.04720
#
# Compressibility (1/GPa) = 0.03374493
#
# Stress axis : x y z
#
# Youngs Moduli (GPa) = 74.66053 91.02429 36.96845
#
# Poissons Ratio (x) = 0.11154 0.18535
# Poissons Ratio (y) = 0.09149 0.09624
# Poissons Ratio (z) = 0.37433 0.23697
#
# Static dielectric constant tensor:
#      x y z
#    x 1.825360 -0.037120 0.002470 
#    y -0.037120 1.930640 -0.049390 
#    z 0.002470 -0.049390 1.895040 
# 
# From -- ./inp_files/40078.got.cif
#   From: 2010.05.17/outbox.cif.g08.bks.cpg/sg2_21_cif.got.tgz:40078.got - 2010.06.03 11:33:40.
