data_PCOD9033584
_publ_section_title
;
Structure prediction by ZEFSAII (Michael W. Deem and Ramdas Pophale) SiO2 
 PCOD9033584
Probable space group: P -1
;
_chemical_formula_sum "Si O2"
_cell_formula_units_Z 14
_cell_length_a 21.880537
_cell_length_b 4.957132
_cell_length_c 5.478857
_cell_angle_alpha 82.565892
_cell_angle_beta 71.561903
_cell_angle_gamma 65.985475
_cell_volume 514.959083
_symmetry_space_group_name_H-M "P -1"
_symmetry_group_IT_number 2
_symmetry_cell_setting 'triclinic'
loop_
_space_group_symop_operation_xyz
x,y,z
-x,-y,-z
loop_
_atom_site_type_symbol
_atom_site_label
_atom_site_fract_x
_atom_site_fract_y
_atom_site_fract_z
Si Si1 0.985709 0.862457 0.778382
Si Si2 0.269493 0.226829 0.309140
Si Si3 0.577513 0.943568 0.803953
Si Si4 0.842890 0.203268 0.091788
Si Si5 0.570611 0.495788 0.519037
Si Si6 0.871464 0.623989 0.348570
Si Si7 0.710127 0.135546 0.162190
O O1 0.044508 0.532274 0.715762
O O2 0.000000 0.000000 0.500000
O O3 0.902090 0.972893 0.873055
O O4 0.000000 0.000000 0.000000
O O5 0.343037 0.274793 0.191641
O O6 0.185820 0.435388 0.401451
O O7 0.277380 0.076501 0.588597
O O8 0.274817 0.025394 0.093506
O O9 0.572130 0.801884 0.566553
O O10 0.582700 0.262514 0.752464
O O11 0.500000 0.000000 0.000000
O O12 0.851302 0.972848 0.331870
O O13 0.859534 0.476541 0.128176
O O14 0.763715 0.296730 0.100568
O O15 0.500000 0.500000 0.500000
O O16 0.631005 0.351405 0.267367
#
# Coordination Sequence:
#
# PCOD9033584 Si02
#       7
#     2   2   2   2   2   2   2
#     4  10  23  42  66  96 132 172 218 270 328 392
#     4  10  23  43  67  97 132 173 220 272 328 390
#     4  11  23  42  66  99 134 175 220 272 328 391
#     4  10  22  44  68  98 132 174 220 273 330 393
#     4  11  23  42  66  99 134 175 220 272 328 391
#     4  10  22  44  68  98 132 174 220 273 330 393
#     4  10  23  43  67  97 132 173 220 272 328 390
#
# _framework density 27.186627999999999
#
# number of rings (size 3 to 8) (size 9 to 14) (size 15 to 20)
#    0.000    1.714    0.000    3.000    0.000   11.429 
#    0.000   19.286    0.000    0.000    0.000    0.000 
#    0.000    0.000    0.000    0.000    0.000    0.000 
#
# Total GULP energy -78153.301248 kJ/mol
# GULP energy per Si atom -5582.378661 kJ/mol
# Density = 2.712475 g / cm^3
# Si number density = 27.186628 Si / 1000 Ang^3
#
#
#
# Elastic Constant Matrix: (Units=GPa)
#
#
# Indices 1 2 3 4 5 6 
#
# 1 153.2855 29.5337 48.6483 17.8598 -39.7144 -15.9512
# 2 29.5337 80.0396 33.1367 11.4027 -3.0504 8.8947
# 3 48.6483 33.1367 149.1579 20.9732 -28.9584 -6.3345
# 4 17.8598 11.4027 20.9732 47.1759 -4.4698 -17.0674
# 5 -39.7144 -3.0504 -28.9584 -4.4698 73.7440 14.2125
# 6 -15.9512 8.8947 -6.3345 -17.0674 14.2125 45.4700
#
#
#
# Elastic Compliance Matrix: (Units=1/GPa)
#
#
# Indices 1 2 3 4 5 6 
#
# 1 0.008700 -0.002570 -0.001331 -0.001074 0.003638 0.001829
# 2 -0.002570 0.015576 -0.002504 -0.003722 -0.000906 -0.005411
# 3 -0.001331 -0.002504 0.008524 -0.002647 0.002473 -0.000556
# 4 -0.001074 -0.003722 -0.002647 0.027441 -0.002224 0.010978
# 5 0.003638 -0.000906 0.002473 -0.002224 0.017167 -0.004403
# 6 0.001829 -0.005411 -0.000556 0.010978 -0.004403 0.029112
#
#
# Mechanical properties :
#
#
# Convention : Reuss Voigt Hill
#
# Bulk Modulus (GPa) = 50.03217 67.23561 58.63389
# Shear Modulus (GPa) = 39.68420 51.35560 45.51990
#
# Velocity S-wave (km/s) = 3.82474 4.35098 4.09632
# Velocity P-wave (km/s) = 6.16020 7.07292 6.63228
#
# Compressibility (1/GPa) = 0.01998714
#
# Stress axis : x y z
#
# Youngs Moduli (GPa) = 114.94674 64.20048 117.32069
#
# Poissons Ratio (x) = 0.16503 0.15619
# Poissons Ratio (y) = 0.29547 0.29382
# Poissons Ratio (z) = 0.15303 0.16078
#
# Static dielectric constant tensor:
#      x y z
#    x 2.223050 -0.159710 -0.075320 
#    y -0.159710 2.296690 -0.150650 
#    z -0.075320 -0.150650 2.307830 
# 
# From -- ./inp_files/121227.got.cif
#   From: 2010.05.17/outbox.cif.g08.bks.cpg/sg2_61_cif.got.tgz:121227.got - 2010.06.03 11:33:40.
