data_PCOD9033648
_publ_section_title
;
Structure prediction by ZEFSAII (Michael W. Deem and Ramdas Pophale) SiO2 
 PCOD9033648
Probable space group: P -1
;
_chemical_formula_sum "Si O2"
_cell_formula_units_Z 16
_cell_length_a 12.143387
_cell_length_b 5.353976
_cell_length_c 13.383605
_cell_angle_alpha 91.658340
_cell_angle_beta 56.630608
_cell_angle_gamma 89.039284
_cell_volume 725.829356
_symmetry_space_group_name_H-M "P -1"
_symmetry_group_IT_number 2
_symmetry_cell_setting 'triclinic'
loop_
_space_group_symop_operation_xyz
x,y,z
-x,-y,-z
loop_
_atom_site_type_symbol
_atom_site_label
_atom_site_fract_x
_atom_site_fract_y
_atom_site_fract_z
Si Si1 0.430627 0.754855 0.490624
Si Si2 0.357952 0.909627 0.105888
Si Si3 0.880748 0.923647 0.675948
Si Si4 0.870553 0.322806 0.334192
Si Si5 0.655673 0.205289 0.106555
Si Si6 0.508112 0.285881 0.773332
Si Si7 0.069223 0.740421 0.925407
Si Si8 0.944518 0.688698 0.446137
O O1 0.500000 0.500000 0.500000
O O2 0.275290 0.777979 0.593759
O O3 0.441420 0.742677 0.364852
O O4 0.500000 0.000000 0.500000
O O5 0.386357 0.752893 0.190402
O O6 0.250465 0.120093 0.197787
O O7 0.305915 0.786489 0.029815
O O8 0.500000 0.000000 0.000000
O O9 0.867186 0.877153 0.563324
O O10 0.012965 0.798405 0.656580
O O11 0.922695 0.209211 0.666466
O O12 0.926283 0.297727 0.195701
O O13 0.857141 0.592263 0.398970
O O14 0.554369 0.436429 0.179897
O O15 0.782081 0.249357 0.110193
O O16 0.594444 0.937300 0.159537
O O17 0.000000 0.500000 0.000000
O O18 0.000000 0.000000 0.000000
O O19 0.000000 0.500000 0.500000
#
# Coordination Sequence:
#
# PCOD9033648 Si02
#       8
#     2   2   2   2   2   2   2   2
#     4  12  28  47  73 104 144 187 235 298 353 421
#     4  10  24  43  70 103 138 186 234 293 353 421
#     4  10  22  44  69 101 145 178 236 291 359 423
#     4  11  26  43  71 102 138 187 239 289 360 427
#     4  11  24  48  67  99 143 180 234 288 350 416
#     4  11  24  45  71 100 135 186 228 286 354 419
#     4  12  27  45  70 101 135 186 234 291 348 417
#     4   9  22  41  67 104 137 185 228 292 356 429
#
# _framework density 22.043751
#
# number of rings (size 3 to 8) (size 9 to 14) (size 15 to 20)
#    0.000    1.250    0.000    4.125   10.500    3.000 
#    9.000    0.000    0.000    0.000    0.000    0.000 
#    0.000    0.000    0.000    0.000    0.000    0.000 
#
# Total GULP energy -89274.776249 kJ/mol
# GULP energy per Si atom -5579.673516 kJ/mol
# Density = 2.199358 g / cm^3
# Si number density = 22.043751 Si / 1000 Ang^3
#
#
#
# Elastic Constant Matrix: (Units=GPa)
#
#
# Indices 1 2 3 4 5 6 
#
# 1 93.2396 18.4387 46.3077 4.4678 7.0265 2.7540
# 2 18.4387 82.4762 35.7653 4.2169 2.8200 13.4958
# 3 46.3077 35.7653 178.3355 16.4624 21.8311 6.6652
# 4 4.4678 4.2169 16.4624 30.8114 3.2359 3.7622
# 5 7.0265 2.8200 21.8311 3.2359 52.2539 3.6225
# 6 2.7540 13.4958 6.6652 3.7622 3.6225 38.6413
#
#
#
# Elastic Compliance Matrix: (Units=1/GPa)
#
#
# Indices 1 2 3 4 5 6 
#
# 1 0.012493 -0.001557 -0.002886 -0.000038 -0.000401 0.000193
# 2 -0.001557 0.014213 -0.002370 0.000020 0.000744 -0.004516
# 3 -0.002886 -0.002370 0.007392 -0.002988 -0.002406 0.000275
# 4 -0.000038 0.000020 -0.002988 0.034466 -0.000689 -0.002780
# 5 -0.000401 0.000744 -0.002406 -0.000689 0.020314 -0.001654
# 6 0.000193 -0.004516 0.000275 -0.002780 -0.001654 0.027821
#
#
# Mechanical properties :
#
#
# Convention : Reuss Voigt Hill
#
# Bulk Modulus (GPa) = 48.85028 61.67497 55.26262
# Shear Modulus (GPa) = 36.45627 41.24395 38.85011
#
# Velocity S-wave (km/s) = 4.07112 4.33020 4.20266
# Velocity P-wave (km/s) = 6.65638 7.28286 6.97666
#
# Compressibility (1/GPa) = 0.02047071
#
# Stress axis : x y z
#
# Youngs Moduli (GPa) = 80.04591 70.35719 135.27476
#
# Poissons Ratio (x) = 0.10956 0.39044
# Poissons Ratio (y) = 0.12465 0.32065
# Poissons Ratio (z) = 0.23104 0.16677
#
# Static dielectric constant tensor:
#      x y z
#    x 1.814930 -0.066790 -0.040890 
#    y -0.066790 2.093660 0.067400 
#    z -0.040890 0.067400 1.839840 
# 
# From -- ./inp_files/410457.got.cif
#   From: 2010.05.17/outbox.cif.g08.bks.cpg/sg2_206_cif.got.tgz:410457.got - 2010.06.03 11:33:40.
