data_PCOD9033317
_publ_section_title
;
Structure prediction by ZEFSAII (Michael W. Deem and Ramdas Pophale) SiO2 
 PCOD9033317
Probable space group: P -1
;
_chemical_formula_sum "Si O2"
_cell_formula_units_Z 14
_cell_length_a 14.387272
_cell_length_b 8.988484
_cell_length_c 11.554828
_cell_angle_alpha 51.958961
_cell_angle_beta 150.872986
_cell_angle_gamma 118.639433
_cell_volume 565.997685
_symmetry_space_group_name_H-M "P -1"
_symmetry_group_IT_number 2
_symmetry_cell_setting 'triclinic'
loop_
_space_group_symop_operation_xyz
x,y,z
-x,-y,-z
loop_
_atom_site_type_symbol
_atom_site_label
_atom_site_fract_x
_atom_site_fract_y
_atom_site_fract_z
Si Si1 0.545809 0.697243 0.096910
Si Si2 0.894534 0.888623 0.343101
Si Si3 0.194858 0.785519 0.264152
Si Si4 0.948631 0.821975 0.189743
Si Si5 0.480238 0.260553 0.210556
Si Si6 0.229874 0.486068 0.249617
Si Si7 0.589102 0.237266 0.832560
O O1 0.517700 0.477401 0.167250
O O2 0.436119 0.787327 0.046728
O O3 0.768104 0.736089 0.329523
O O4 0.474830 0.781640 0.854941
O O5 0.018303 0.802165 0.408455
O O6 0.730989 0.053162 0.032300
O O7 0.000000 0.000000 0.500000
O O8 0.371332 0.861708 0.483666
O O9 0.272968 0.620028 0.339283
O O10 0.073852 0.718077 0.271734
O O11 0.070546 0.956302 0.976421
O O12 0.739865 0.756349 0.996322
O O13 0.374709 0.288470 0.520293
O O14 0.301029 0.585402 0.165623
O O15 0.000000 0.500000 0.000000
#
# Coordination Sequence:
#
# PCOD9033317 Si02
#       7
#     2   2   2   2   2   2   2
#     4  10  23  43  65 100 130 180 224 275 341 403
#     4  11  25  45  69 103 142 180 228 278 340 414
#     4  11  22  44  67  98 132 175 233 279 340 402
#     4  10  24  43  66 101 130 181 226 280 342 393
#     4  10  22  44  67  93 137 171 229 279 334 407
#     4  11  26  44  71 102 135 177 228 284 340 403
#     4  11  24  45  68  98 138 177 225 278 341 398
#
# _framework density 24.735082999999999
#
# number of rings (size 3 to 8) (size 9 to 14) (size 15 to 20)
#    0.000    1.429    2.857    0.857    6.000    0.000 
#   10.286    2.143    0.000    0.000    0.000    0.000 
#    0.000    0.000    0.000    0.000    0.000    0.000 
#
# Total GULP energy -78277.836262 kJ/mol
# GULP energy per Si atom -5591.274019 kJ/mol
# Density = 2.467879 g / cm^3
# Si number density = 24.735083 Si / 1000 Ang^3
#
#
#
# Elastic Constant Matrix: (Units=GPa)
#
#
# Indices 1 2 3 4 5 6 
#
# 1 182.6544 24.4087 16.4518 26.7889 6.1936 7.0518
# 2 24.4087 69.0058 21.6621 9.6237 1.0372 10.7066
# 3 16.4518 21.6621 84.7273 17.9456 16.6055 10.1710
# 4 26.7889 9.6237 17.9456 44.2930 -5.1596 7.3031
# 5 6.1936 1.0372 16.6055 -5.1596 39.5420 8.4358
# 6 7.0518 10.7066 10.1710 7.3031 8.4358 21.0726
#
#
#
# Elastic Compliance Matrix: (Units=1/GPa)
#
#
# Indices 1 2 3 4 5 6 
#
# 1 0.006292 -0.001876 0.000326 -0.003849 -0.001728 0.000716
# 2 -0.001876 0.017473 -0.003921 0.000600 0.003238 -0.007862
# 3 0.000326 -0.003921 0.015576 -0.006410 -0.007214 -0.000526
# 4 -0.003849 0.000600 -0.006410 0.030131 0.009369 -0.010116
# 5 -0.001728 0.003238 -0.007214 0.009369 0.032697 -0.013921
# 6 0.000716 -0.007862 -0.000526 -0.010116 -0.013921 0.060542
#
#
# Mechanical properties :
#
#
# Convention : Reuss Voigt Hill
#
# Bulk Modulus (GPa) = 35.21259 51.27029 43.24144
# Shear Modulus (GPa) = 27.30451 39.23920 33.27185
#
# Velocity S-wave (km/s) = 3.32607 3.98726 3.67158
# Velocity P-wave (km/s) = 5.38675 6.47846 5.95766
#
# Compressibility (1/GPa) = 0.02839894
#
# Stress axis : x y z
#
# Youngs Moduli (GPa) = 158.94078 57.22967 64.20035
#
# Poissons Ratio (x) = 0.10737 -0.02093
# Poissons Ratio (y) = 0.29820 0.25173
# Poissons Ratio (z) = -0.05181 0.22440
#
# Static dielectric constant tensor:
#      x y z
#    x 1.963270 -0.010190 0.009650 
#    y -0.010190 1.954560 -0.020680 
#    z 0.009650 -0.020680 2.037690 
# 
# From -- ./inp_files/370577.got.cif
#   From: 2010.05.17/outbox.cif.g08.bks.cpg/sg2_186_cif.got.tgz:370577.got - 2010.06.03 11:33:40.
