data_PCOD9033667
_publ_section_title
;
Structure prediction by ZEFSAII (Michael W. Deem and Ramdas Pophale) SiO2 
 PCOD9033667
Probable space group: P -1
;
_chemical_formula_sum "Si O2"
_cell_formula_units_Z 15
_cell_length_a 4.951487
_cell_length_b 19.330238
_cell_length_c 5.816754
_cell_angle_alpha 107.303763
_cell_angle_beta 85.129833
_cell_angle_gamma 99.434711
_cell_volume 523.967639
_symmetry_space_group_name_H-M "P -1"
_symmetry_group_IT_number 2
_symmetry_cell_setting 'triclinic'
loop_
_space_group_symop_operation_xyz
x,y,z
-x,-y,-z
loop_
_atom_site_type_symbol
_atom_site_label
_atom_site_fract_x
_atom_site_fract_y
_atom_site_fract_z
Si Si1 0.030753 0.109829 0.197641
Si Si2 0.094943 0.565456 0.729275
Si Si3 0.683218 0.959209 0.526996
Si Si4 0.377514 0.239727 0.070133
Si Si5 0.500000 0.000000 0.000000
Si Si6 0.733164 0.185885 0.661321
Si Si7 0.385844 0.388300 0.973746
Si Si8 0.673927 0.325037 0.515277
O O1 0.757283 0.069352 0.067705
O O2 0.956802 0.144666 0.480657
O O3 0.253158 0.055521 0.189262
O O4 0.164691 0.169160 0.066886
O O5 0.399397 0.572625 0.816477
O O6 0.103123 0.637480 0.640760
O O7 0.000000 0.500000 0.500000
O O8 0.883138 0.574062 0.957579
O O9 0.536943 0.874179 0.424303
O O10 0.000000 0.000000 0.500000
O O11 0.457762 0.013408 0.699093
O O12 0.317126 0.301328 0.954709
O O13 0.429536 0.281500 0.344917
O O14 0.661934 0.212893 0.945364
O O15 0.771288 0.263186 0.602161
O O16 0.552008 0.387487 0.726699
#
# Coordination Sequence:
#
# PCOD9033667 Si02
#       8
#     2   2   2   2   1   2   2   2
#     4  11  23  47  73  96 142 181 238 308 373 445
#     4  11  24  43  71 109 153 197 239 289 356 433
#     4  11  25  45  67  99 137 179 234 297 373 443
#     4  10  22  44  73 101 133 184 237 305 354 428
#     4  10  26  46  66 100 134 184 234 290 386 442
#     4  10  23  43  66 105 127 178 242 291 368 426
#     4  10  24  43  71 109 146 191 245 296 360 425
#     4  10  22  44  69 103 145 183 246 299 362 424
#
# _framework density 28.627724000000001
#
# number of rings (size 3 to 8) (size 9 to 14) (size 15 to 20)
#    0.000    1.600    1.333    1.600    1.867    8.533 
#    7.200    2.000    0.000    0.000    0.000    0.000 
#    0.000    0.000    0.000    0.000    0.000    0.000 
#
# Total GULP energy -83945.273692 kJ/mol
# GULP energy per Si atom -5596.351579 kJ/mol
# Density = 2.856257 g / cm^3
# Si number density = 28.627724 Si / 1000 Ang^3
#
#
#
# Elastic Constant Matrix: (Units=GPa)
#
#
# Indices 1 2 3 4 5 6 
#
# 1 187.6400 39.0211 30.8752 0.0879 -8.1226 15.1910
# 2 39.0211 125.9415 18.4287 6.9784 -1.5250 23.1565
# 3 30.8752 18.4287 140.6453 5.6306 -23.6791 14.6544
# 4 0.0879 6.9784 5.6306 30.7322 -2.2525 -6.1033
# 5 -8.1226 -1.5250 -23.6791 -2.2525 50.9066 -0.3538
# 6 15.1910 23.1565 14.6544 -6.1033 -0.3538 32.9234
#
#
#
# Elastic Compliance Matrix: (Units=1/GPa)
#
#
# Indices 1 2 3 4 5 6 
#
# 1 0.005906 -0.001482 -0.000905 0.000278 0.000481 -0.001223
# 2 -0.001482 0.009880 -0.000146 -0.003592 -0.000215 -0.006868
# 3 -0.000905 -0.000146 0.008387 -0.001935 0.003642 -0.003532
# 4 0.000278 -0.003592 -0.001935 0.035723 0.000686 0.009889
# 5 0.000481 -0.000215 0.003642 0.000686 0.021429 -0.001334
# 6 -0.001223 -0.006868 -0.003532 0.009889 -0.001334 0.039160
#
#
# Mechanical properties :
#
#
# Convention : Reuss Voigt Hill
#
# Bulk Modulus (GPa) = 52.33830 70.09742 61.21786
# Shear Modulus (GPa) = 37.90166 47.30591 42.60378
#
# Velocity S-wave (km/s) = 3.64256 4.06944 3.86190
# Velocity P-wave (km/s) = 6.00109 6.82785 6.42777
#
# Compressibility (1/GPa) = 0.01910647
#
# Stress axis : x y z
#
# Youngs Moduli (GPa) = 169.31305 101.21337 119.23787
#
# Poissons Ratio (x) = 0.15002 0.10792
# Poissons Ratio (y) = 0.25096 0.01740
# Poissons Ratio (z) = 0.15324 0.01477
#
# Static dielectric constant tensor:
#      x y z
#    x 2.298750 -0.157770 0.091290 
#    y -0.157770 2.199530 -0.126970 
#    z 0.091290 -0.126970 2.539050 
# 
# From -- ./inp_files/9381.got.cif
#   From: 2010.05.17/outbox.cif.g08.bks.cpg/sg2_5_cif.got.tgz:9381.got - 2010.06.03 11:33:40.
