data_PCOD9033576
_publ_section_title
;
Structure prediction by ZEFSAII (Michael W. Deem and Ramdas Pophale) SiO2 
 PCOD9033576
Probable space group: P -1
;
_chemical_formula_sum "Si O2"
_cell_formula_units_Z 16
_cell_length_a 5.578621
_cell_length_b 12.186698
_cell_length_c 20.815276
_cell_angle_alpha 41.389150
_cell_angle_beta 99.639977
_cell_angle_gamma 74.141903
_cell_volume 729.546030
_symmetry_space_group_name_H-M "P -1"
_symmetry_group_IT_number 2
_symmetry_cell_setting 'triclinic'
loop_
_space_group_symop_operation_xyz
x,y,z
-x,-y,-z
loop_
_atom_site_type_symbol
_atom_site_label
_atom_site_fract_x
_atom_site_fract_y
_atom_site_fract_z
Si Si1 0.858197 0.373558 0.550129
Si Si2 0.828266 0.330582 0.054396
Si Si3 0.555364 0.147937 0.400885
Si Si4 0.153642 0.855104 0.470963
Si Si5 0.129332 0.122324 0.926283
Si Si6 0.798256 0.965496 0.174166
Si Si7 0.872602 0.653328 0.058033
Si Si8 0.083164 0.249474 0.234595
O O1 0.500000 0.500000 0.500000
O O2 0.871082 0.281221 0.521268
O O3 0.000000 0.500000 0.500000
O O4 0.071208 0.187548 0.692378
O O5 0.079394 0.244688 0.160058
O O6 0.863150 0.131204 0.116854
O O7 0.500000 0.500000 0.000000
O O8 0.897760 0.421829 0.958485
O O9 0.576123 0.266531 0.409609
O O10 0.319123 0.257783 0.283895
O O11 0.500000 0.000000 0.500000
O O12 0.865221 0.989818 0.445306
O O13 0.135454 0.039119 0.351756
O O14 0.054519 0.159691 0.830941
O O15 0.011803 0.309711 0.888047
O O16 0.500000 0.000000 0.000000
O O17 0.000000 0.000000 0.000000
O O18 0.430508 0.119989 0.078771
O O19 0.791496 0.490741 0.133578
#
# Coordination Sequence:
#
# PCOD9033576 Si02
#       8
#     2   2   2   2   2   2   2   2
#     4  12  31  49  77 107 139 194 255 304 365 432
#     4  12  24  39  68 108 147 181 234 286 366 438
#     4   9  22  42  69  97 137 186 231 294 364 419
#     4  10  23  46  70  98 145 183 239 302 364 421
#     4  10  22  44  68  97 140 191 236 285 345 429
#     4  11  25  46  71  98 144 190 236 299 365 423
#     4  11  25  41  69 105 143 187 234 288 364 443
#     4  11  23  37  69 107 140 182 233 289 366 433
#
# _framework density 21.931445
#
# number of rings (size 3 to 8) (size 9 to 14) (size 15 to 20)
#    0.000    1.250    3.750    0.375    8.750    1.000 
#    4.500    0.000    0.000    0.000    0.000    0.000 
#    0.000    0.000    0.000    0.000    0.000    0.000 
#
# Total GULP energy -89103.401349 kJ/mol
# GULP energy per Si atom -5568.962584 kJ/mol
# Density = 2.188153 g / cm^3
# Si number density = 21.931445 Si / 1000 Ang^3
#
#
#
# Elastic Constant Matrix: (Units=GPa)
#
#
# Indices 1 2 3 4 5 6 
#
# 1 74.4972 54.1631 27.7120 2.5398 -5.7291 15.6950
# 2 54.1631 217.0607 48.9087 37.1663 -2.1194 36.4116
# 3 27.7120 48.9087 83.4166 25.5927 8.5275 18.8116
# 4 2.5398 37.1663 25.5927 44.8299 5.3059 -0.3104
# 5 -5.7291 -2.1194 8.5275 5.3059 24.8894 -1.7448
# 6 15.6950 36.4116 18.8116 -0.3104 -1.7448 41.8449
#
#
#
# Elastic Compliance Matrix: (Units=1/GPa)
#
#
# Indices 1 2 3 4 5 6 
#
# 1 0.018907 -0.004127 -0.005758 0.005058 0.004848 -0.000673
# 2 -0.004127 0.007547 -0.000145 -0.006055 0.000685 -0.004970
# 3 -0.005758 -0.000145 0.019125 -0.009775 -0.006272 -0.006646
# 4 0.005058 -0.006055 -0.009775 0.032968 -0.002476 0.007908
# 5 0.004848 0.000685 -0.006272 -0.002476 0.044185 0.002229
# 6 -0.000673 -0.004970 -0.006646 0.007908 0.002229 0.031614
#
#
# Mechanical properties :
#
#
# Convention : Reuss Voigt Hill
#
# Bulk Modulus (GPa) = 39.18458 70.72691 54.95575
# Shear Modulus (GPa) = 27.33553 38.59223 32.96388
#
# Velocity S-wave (km/s) = 3.53428 4.19940 3.88111
# Velocity P-wave (km/s) = 5.87882 7.47211 6.72283
#
# Compressibility (1/GPa) = 0.02552024
#
# Stress axis : x y z
#
# Youngs Moduli (GPa) = 52.88930 132.50875 52.28779
#
# Poissons Ratio (x) = 0.54680 0.30105
# Poissons Ratio (y) = 0.21825 0.00759
# Poissons Ratio (z) = 0.30451 0.01925
#
# Static dielectric constant tensor:
#      x y z
#    x 1.237350 0.192570 -0.439400 
#    y 0.192570 1.771310 0.138170 
#    z -0.439400 0.138170 1.474020 
# 
# From -- ./inp_files/583263.got.cif
#   From: 2010.05.17/outbox.cif.g08.bks.cpg/sg2_292_cif.got.tgz:583263.got - 2010.06.03 11:33:40.
