data_PCOD9033457
_publ_section_title
;
Structure prediction by ZEFSAII (Michael W. Deem and Ramdas Pophale) SiO2 
 PCOD9033457
Probable space group: P -1
;
_chemical_formula_sum "Si O2"
_cell_formula_units_Z 14
_cell_length_a 7.912930
_cell_length_b 11.765523
_cell_length_c 10.451260
_cell_angle_alpha 81.686938
_cell_angle_beta 89.624218
_cell_angle_gamma 40.771115
_cell_volume 620.707922
_symmetry_space_group_name_H-M "P -1"
_symmetry_group_IT_number 2
_symmetry_cell_setting 'triclinic'
loop_
_space_group_symop_operation_xyz
x,y,z
-x,-y,-z
loop_
_atom_site_type_symbol
_atom_site_label
_atom_site_fract_x
_atom_site_fract_y
_atom_site_fract_z
Si Si1 0.232171 0.621856 0.062292
Si Si2 0.738395 0.578799 0.673891
Si Si3 0.377398 0.083923 0.624730
Si Si4 0.249582 0.836477 0.186550
Si Si5 0.249194 0.418955 0.615163
Si Si6 0.145226 0.974677 0.627490
Si Si7 0.303494 0.068389 0.100546
O O1 0.233097 0.526670 0.192635
O O2 0.177753 0.772904 0.102939
O O3 0.500000 0.500000 0.000000
O O4 0.983130 0.730747 0.954594
O O5 0.753291 0.524004 0.535358
O O6 0.448102 0.781506 0.655339
O O7 0.974190 0.551111 0.671044
O O8 0.143708 0.113171 0.622661
O O9 0.576556 0.957027 0.760200
O O10 0.500000 0.000000 0.500000
O O11 0.310547 0.252056 0.614911
O O12 0.310926 0.926731 0.112474
O O13 0.508464 0.661425 0.291382
O O14 0.986513 0.011288 0.742004
O O15 0.000000 0.000000 0.500000
O O16 0.500000 0.000000 0.000000
#
# Coordination Sequence:
#
# PCOD9033457 Si02
#       7
#     2   2   2   2   2   2   2
#     4  12  27  45  65 101 144 182 227 282 348 403
#     4  11  23  43  65 100 143 173 222 284 346 408
#     4  11  22  43  70  99 131 181 232 279 330 408
#     4  11  23  45  70  99 135 184 229 284 334 406
#     4  10  22  44  68 102 137 174 232 283 350 401
#     4  12  22  42  70 106 135 175 229 284 343 405
#     4  11  24  46  71  96 133 186 233 271 337 422
#
# _framework density 22.554893
#
# number of rings (size 3 to 8) (size 9 to 14) (size 15 to 20)
#    0.000    0.857    2.857    5.571    0.000    2.857 
#    5.143    2.143    0.000    0.000    0.000    0.000 
#    0.000    0.000    0.000    0.000    0.000    0.000 
#
# Total GULP energy -78248.884842 kJ/mol
# GULP energy per Si atom -5589.206060 kJ/mol
# Density = 2.250356 g / cm^3
# Si number density = 22.554893 Si / 1000 Ang^3
#
#
#
# Elastic Constant Matrix: (Units=GPa)
#
#
# Indices 1 2 3 4 5 6 
#
# 1 92.1121 26.2358 53.9333 2.7441 -17.6723 -11.0841
# 2 26.2358 109.5987 57.6354 -1.4810 -3.8894 -33.4507
# 3 53.9333 57.6354 154.7374 -13.5137 -7.2786 -12.6400
# 4 2.7441 -1.4810 -13.5137 35.7251 -6.7682 -0.5585
# 5 -17.6723 -3.8894 -7.2786 -6.7682 54.1673 6.4518
# 6 -11.0841 -33.4507 -12.6400 -0.5585 6.4518 51.0548
#
#
#
# Elastic Compliance Matrix: (Units=1/GPa)
#
#
# Indices 1 2 3 4 5 6 
#
# 1 0.014787 -0.000507 -0.004895 -0.002288 0.003705 0.001173
# 2 -0.000507 0.014047 -0.004536 -0.001133 -0.000869 0.008068
# 3 -0.004895 -0.004536 0.010090 0.004002 0.000113 -0.001507
# 4 -0.002288 -0.001133 0.004002 0.030299 0.003539 -0.000364
# 5 0.003705 -0.000869 0.000113 0.003539 0.020335 -0.002268
# 6 0.001173 0.008068 -0.001507 -0.000364 -0.002268 0.025037
#
#
# Mechanical properties :
#
#
# Convention : Reuss Voigt Hill
#
# Bulk Modulus (GPa) = 52.49925 70.22858 61.36391
# Shear Modulus (GPa) = 35.50601 42.76566 39.13584
#
# Velocity S-wave (km/s) = 3.97193 4.35911 4.17002
# Velocity P-wave (km/s) = 6.66046 7.51932 7.10288
#
# Compressibility (1/GPa) = 0.01904789
#
# Stress axis : x y z
#
# Youngs Moduli (GPa) = 67.62785 71.18742 99.10780
#
# Poissons Ratio (x) = 0.03610 0.48511
# Poissons Ratio (y) = 0.03429 0.44959
# Poissons Ratio (z) = 0.33103 0.32293
#
# Static dielectric constant tensor:
#      x y z
#    x 1.442980 0.022340 0.028140 
#    y 0.022340 1.865240 -0.053650 
#    z 0.028140 -0.053650 1.823560 
# 
# From -- ./inp_files/202630.got.cif
#   From: 2010.05.17/outbox.cif.g08.bks.cpg/sg2_102_cif.got.tgz:202630.got - 2010.06.03 11:33:40.
