data_PCOD9033126
_publ_section_title
;
Structure prediction by ZEFSAII (Michael W. Deem and Ramdas Pophale) SiO2 
 PCOD9033126
Probable space group: P -1
;
_chemical_formula_sum "Si O2"
_cell_formula_units_Z 16
_cell_length_a 14.284878
_cell_length_b 11.488080
_cell_length_c 9.750091
_cell_angle_alpha 39.848233
_cell_angle_beta 41.301801
_cell_angle_gamma 40.880641
_cell_volume 612.850589
_symmetry_space_group_name_H-M "P -1"
_symmetry_group_IT_number 2
_symmetry_cell_setting 'triclinic'
loop_
_space_group_symop_operation_xyz
x,y,z
-x,-y,-z
loop_
_atom_site_type_symbol
_atom_site_label
_atom_site_fract_x
_atom_site_fract_y
_atom_site_fract_z
Si Si1 0.300628 0.476495 0.631084
Si Si2 0.639721 0.596509 0.959358
Si Si3 0.800404 0.154595 0.156827
Si Si4 0.405447 0.795175 0.272295
Si Si5 0.247712 0.420476 0.439611
Si Si6 0.088585 0.260918 0.433631
Si Si7 0.851311 0.800699 0.866314
Si Si8 0.862849 0.915207 0.055243
O O1 0.287520 0.687816 0.509508
O O2 0.461368 0.310734 0.667051
O O3 0.308381 0.477720 0.458706
O O4 0.173414 0.396521 0.889405
O O5 0.638119 0.622602 0.774661
O O6 0.790893 0.636676 0.798994
O O7 0.673562 0.366107 0.155355
O O8 0.493512 0.738031 0.080806
O O9 0.823021 0.952573 0.395326
O O10 0.780064 0.119671 0.049044
O O11 0.964150 0.165835 0.998479
O O12 0.310811 0.030811 0.168396
O O13 0.221355 0.224128 0.682901
O O14 0.072903 0.593804 0.447531
O O15 0.041019 0.236125 0.352185
O O16 0.878161 0.897289 0.889994
#
# Coordination Sequence:
#
# PCOD9033126 Si02
#       8
#     2   2   2   2   2   2   2   2
#     4  10  25  45  69  96 135 179 225 283 318 405
#     4  12  25  44  71  99 138 178 220 282 333 399
#     4  11  24  40  67 100 139 174 222 269 339 399
#     4  11  26  47  69  95 135 184 231 269 335 393
#     4  11  23  46  68 102 138 172 226 275 347 390
#     4  12  25  42  72 102 137 177 214 284 342 400
#     4  11  26  45  70  99 138 176 226 276 337 394
#     4  10  22  44  66 101 138 176 219 277 328 409
#
# _framework density 26.107505
#
# number of rings (size 3 to 8) (size 9 to 14) (size 15 to 20)
#    0.000    1.000    3.750    2.250    7.000    4.000 
#    0.000    1.250    0.000    0.000    0.000    0.000 
#    0.000    0.000    0.000    0.000    0.000    0.000 
#
# Total GULP energy -89665.145454 kJ/mol
# GULP energy per Si atom -5604.071591 kJ/mol
# Density = 2.604808 g / cm^3
# Si number density = 26.107505 Si / 1000 Ang^3
#
#
#
# Elastic Constant Matrix: (Units=GPa)
#
#
# Indices 1 2 3 4 5 6 
#
# 1 100.3444 1.7977 31.3087 8.0236 8.4540 29.6947
# 2 1.7977 78.4183 31.2595 5.6417 -6.5609 3.3951
# 3 31.3087 31.2595 84.2272 8.3595 11.9557 17.1470
# 4 8.0236 5.6417 8.3595 50.4250 16.7176 4.1149
# 5 8.4540 -6.5609 11.9557 16.7176 50.1518 11.3876
# 6 29.6947 3.3951 17.1470 4.1149 11.3876 37.5359
#
#
#
# Elastic Compliance Matrix: (Units=1/GPa)
#
#
# Indices 1 2 3 4 5 6 
#
# 1 0.014072 0.001950 -0.004037 -0.001510 0.001568 -0.009774
# 2 0.001950 0.016025 -0.006875 -0.002346 0.004400 -0.000929
# 3 -0.004037 -0.006875 0.017020 0.000029 -0.003637 -0.002859
# 4 -0.001510 -0.002346 0.000029 0.022868 -0.007979 0.001307
# 5 0.001568 0.004400 -0.003637 -0.007979 0.025318 -0.006783
# 6 -0.009774 -0.000929 -0.002859 0.001307 -0.006783 0.037679
#
#
# Mechanical properties :
#
#
# Convention : Reuss Voigt Hill
#
# Bulk Modulus (GPa) = 34.25522 43.52464 38.88993
# Shear Modulus (GPa) = 31.12632 40.86414 35.99523
#
# Velocity S-wave (km/s) = 3.45662 3.96059 3.71716
# Velocity P-wave (km/s) = 5.39262 6.13372 5.77507
#
# Compressibility (1/GPa) = 0.02919263
#
# Stress axis : x y z
#
# Youngs Moduli (GPa) = 71.06554 62.40270 58.75381
#
# Poissons Ratio (x) = -0.12167 0.23719
# Poissons Ratio (y) = -0.13856 0.40391
# Poissons Ratio (z) = 0.28690 0.42900
#
# Static dielectric constant tensor:
#      x y z
#    x 2.071410 0.016010 0.008500 
#    y 0.016010 1.990470 0.020730 
#    z 0.008500 0.020730 2.049690 
# 
# From -- ./inp_files/306140.got.cif
#   From: 2010.05.17/outbox.cif.g08.bks.cpg/sg2_154_cif.got.tgz:306140.got - 2010.06.03 11:33:40.
