data_PCOD9033248
_publ_section_title
;
Structure prediction by ZEFSAII (Michael W. Deem and Ramdas Pophale) SiO2 
 PCOD9033248
Probable space group: P -1
;
_chemical_formula_sum "Si O2"
_cell_formula_units_Z 11
_cell_length_a 15.793069
_cell_length_b 7.131671
_cell_length_c 5.437915
_cell_angle_alpha 99.917152
_cell_angle_beta 111.421891
_cell_angle_gamma 118.746541
_cell_volume 452.214856
_symmetry_space_group_name_H-M "P -1"
_symmetry_group_IT_number 2
_symmetry_cell_setting 'triclinic'
loop_
_space_group_symop_operation_xyz
x,y,z
-x,-y,-z
loop_
_atom_site_type_symbol
_atom_site_label
_atom_site_fract_x
_atom_site_fract_y
_atom_site_fract_z
Si Si1 0.245169 0.652887 0.786680
Si Si2 0.000000 0.500000 0.500000
Si Si3 0.575235 0.388796 0.779585
Si Si4 0.653772 0.859092 0.269052
Si Si5 0.263739 0.339376 0.359978
Si Si6 0.946386 0.012370 0.197461
O O1 0.229462 0.476467 0.515146
O O2 0.121117 0.545036 0.729367
O O3 0.292765 0.906381 0.776954
O O4 0.341659 0.678866 0.064527
O O5 0.959100 0.252638 0.274299
O O6 0.448179 0.189391 0.680676
O O7 0.607501 0.467030 0.548464
O O8 0.608008 0.626647 0.004986
O O9 0.743421 0.863809 0.539999
O O10 0.183681 0.213133 0.013125
O O11 0.000000 0.000000 0.500000
O O12 0.000000 0.000000 0.000000
#
# Coordination Sequence:
#
# PCOD9033248 Si02
#       6
#     2   1   2   2   2   2
#     4  11  24  42  68 104 140 190 243 298 365 446
#     4  12  26  46  74 102 150 198 246 300 382 436
#     4  10  22  44  66  99 142 183 236 308 360 441
#     4  10  23  42  70  99 135 187 240 296 376 433
#     4  11  24  43  68 102 143 182 245 304 370 434
#     4  12  28  49  74 107 151 198 251 310 369 450
#
# _framework density 24.324718000000001
#
# number of rings (size 3 to 8) (size 9 to 14) (size 15 to 20)
#    0.000    1.091    1.818    3.273    5.091    5.818 
#    0.000    0.000    0.000    0.000    0.000    0.000 
#    0.000    0.000    0.000    0.000    0.000    0.000 
#
# Total GULP energy -61329.339460 kJ/mol
# GULP energy per Si atom -5575.394496 kJ/mol
# Density = 2.426935 g / cm^3
# Si number density = 24.324718 Si / 1000 Ang^3
#
#
#
# Elastic Constant Matrix: (Units=GPa)
#
#
# Indices 1 2 3 4 5 6 
#
# 1 117.9029 30.7490 14.0673 -7.0458 4.1973 -28.1897
# 2 30.7490 140.2338 31.0410 -12.3611 2.4055 -24.5685
# 3 14.0673 31.0410 87.5084 -8.3236 4.9364 -21.5358
# 4 -7.0458 -12.3611 -8.3236 31.4690 -2.7502 2.5977
# 5 4.1973 2.4055 4.9364 -2.7502 38.0512 -0.2364
# 6 -28.1897 -24.5685 -21.5358 2.5977 -0.2364 42.7877
#
#
#
# Elastic Compliance Matrix: (Units=1/GPa)
#
#
# Indices 1 2 3 4 5 6 
#
# 1 0.010349 -0.001128 0.000481 0.001392 -0.000993 0.006322
# 2 -0.001128 0.008538 -0.001867 0.002355 0.000016 0.003077
# 3 0.000481 -0.001867 0.013813 0.002397 -0.001516 0.006043
# 4 0.001392 0.002355 0.002397 0.033689 0.001830 0.001441
# 5 -0.000993 0.000016 -0.001516 0.001830 0.026709 -0.001371
# 6 0.006322 0.003077 0.006043 0.001441 -0.001371 0.032250
#
#
# Mechanical properties :
#
#
# Convention : Reuss Voigt Hill
#
# Bulk Modulus (GPa) = 36.13879 55.26222 45.70051
# Shear Modulus (GPa) = 35.81670 40.44744 38.13207
#
# Velocity S-wave (km/s) = 3.84140 4.08218 3.96362
# Velocity P-wave (km/s) = 5.87914 6.70722 6.30678
#
# Compressibility (1/GPa) = 0.02767110
#
# Stress axis : x y z
#
# Youngs Moduli (GPa) = 96.63214 117.12513 72.39456
#
# Poissons Ratio (x) = 0.13214 -0.03482
# Poissons Ratio (y) = 0.10902 0.13516
# Poissons Ratio (z) = -0.04647 0.21867
#
# Static dielectric constant tensor:
#      x y z
#    x 1.991370 0.062850 0.033340 
#    y 0.062850 1.862510 0.110860 
#    z 0.033340 0.110860 1.237050 
# 
# From -- ./inp_files/3964.got.cif
#   From: 2010.05.17/outbox.cif.g08.bks.cpg/sg2_2_cif.got.tgz:3964.got - 2010.06.03 11:33:40.
