data_PCOD9033305
_publ_section_title
;
Structure prediction by ZEFSAII (Michael W. Deem and Ramdas Pophale) SiO2 
 PCOD9033305
Probable space group: P -1
;
_chemical_formula_sum "Si O2"
_cell_formula_units_Z 10
_cell_length_a 4.828178
_cell_length_b 16.502468
_cell_length_c 5.534938
_cell_angle_alpha 57.112298
_cell_angle_beta 80.765800
_cell_angle_gamma 83.602828
_cell_volume 365.373017
_symmetry_space_group_name_H-M "P -1"
_symmetry_group_IT_number 2
_symmetry_cell_setting 'triclinic'
loop_
_space_group_symop_operation_xyz
x,y,z
-x,-y,-z
loop_
_atom_site_type_symbol
_atom_site_label
_atom_site_fract_x
_atom_site_fract_y
_atom_site_fract_z
Si Si1 0.098154 0.109777 0.002018
Si Si2 0.710764 0.279012 0.654360
Si Si3 0.667869 0.435345 0.775656
Si Si4 0.744376 0.932220 0.459253
Si Si5 0.793199 0.622189 0.687841
O O1 0.194490 0.140711 0.208606
O O2 0.301085 0.109625 0.737244
O O3 0.005033 0.000703 0.250565
O O4 0.821037 0.171793 0.864929
O O5 0.794139 0.343678 0.768464
O O6 0.395348 0.308296 0.577610
O O7 0.930701 0.323549 0.360570
O O8 0.500000 0.500000 0.500000
O O9 0.857964 0.514904 0.746295
O O10 0.428516 0.397738 0.043188
O O11 0.500000 0.000000 0.500000
#
# Coordination Sequence:
#
# PCOD9033305 Si02
#       5
#     2   2   2   2   2
#     4  10  24  40  65  99 126 170 219 270 326 398
#     4  11  24  39  63  96 127 165 219 268 320 386
#     4   9  21  41  63  89 128 171 212 263 325 384
#     4  10  22  44  67  91 131 171 214 267 339 393
#     4  10  23  40  62  91 129 170 213 265 325 384
#
# _framework density 27.369292000000002
#
# number of rings (size 3 to 8) (size 9 to 14) (size 15 to 20)
#    0.000    2.000    0.000    1.200    5.600   12.000 
#    0.000    0.000    0.000    0.000    0.000    0.000 
#    0.000    0.000    0.000    0.000    0.000    0.000 
#
# Total GULP energy -55904.960468 kJ/mol
# GULP energy per Si atom -5590.496047 kJ/mol
# Density = 2.730700 g / cm^3
# Si number density = 27.369292 Si / 1000 Ang^3
#
#
#
# Elastic Constant Matrix: (Units=GPa)
#
#
# Indices 1 2 3 4 5 6 
#
# 1 124.6018 21.7174 27.7586 4.9088 12.6366 -21.8655
# 2 21.7174 127.9443 57.5544 11.4279 13.9668 -21.9843
# 3 27.7586 57.5544 158.5137 31.3804 20.9201 -8.0640
# 4 4.9088 11.4279 31.3804 48.7516 -0.5274 -0.0726
# 5 12.6366 13.9668 20.9201 -0.5274 37.5521 -5.7900
# 6 -21.8655 -21.9843 -8.0640 -0.0726 -5.7900 38.1272
#
#
#
# Elastic Compliance Matrix: (Units=1/GPa)
#
#
# Indices 1 2 3 4 5 6 
#
# 1 0.009310 -0.000050 -0.001086 -0.000238 -0.001770 0.004811
# 2 -0.000050 0.010319 -0.003254 -0.000325 -0.001235 0.005045
# 3 -0.001086 -0.003254 0.009114 -0.005036 -0.003750 -0.001151
# 4 -0.000238 -0.000325 -0.005036 0.023888 0.003210 -0.000856
# 5 -0.001770 -0.001235 -0.003750 0.003210 0.030137 0.002062
# 6 0.004811 0.005045 -0.001151 -0.000856 0.002062 0.031964
#
#
# Mechanical properties :
#
#
# Convention : Reuss Voigt Hill
#
# Bulk Modulus (GPa) = 50.09818 69.45784 59.77801
# Shear Modulus (GPa) = 38.41281 45.15481 41.78381
#
# Velocity S-wave (km/s) = 3.75040 4.06622 3.91150
# Velocity P-wave (km/s) = 6.09083 6.89048 6.50296
#
# Compressibility (1/GPa) = 0.01996080
#
# Stress axis : x y z
#
# Youngs Moduli (GPa) = 107.41701 96.91037 109.72569
#
# Poissons Ratio (x) = 0.00488 0.11921
# Poissons Ratio (y) = 0.00540 0.35703
# Poissons Ratio (z) = 0.11670 0.31533
#
# Static dielectric constant tensor:
#      x y z
#    x 2.259700 0.094600 0.043870 
#    y 0.094600 2.197270 0.089330 
#    z 0.043870 0.089330 2.223270 
# 
# From -- ./inp_files/2250.got.cif
#   From: 2010.05.17/outbox.cif.g08.bks.cpg/sg2_2_cif.got.tgz:2250.got - 2010.06.03 11:33:40.
