data_PCOD9033079
_publ_section_title
;
Structure prediction by ZEFSAII (Michael W. Deem and Ramdas Pophale) SiO2 
 PCOD9033079
Probable space group: P -1
;
_chemical_formula_sum "Si O2"
_cell_formula_units_Z 16
_cell_length_a 15.838813
_cell_length_b 8.831546
_cell_length_c 17.073832
_cell_angle_alpha 147.357396
_cell_angle_beta 31.971686
_cell_angle_gamma 138.581020
_cell_volume 676.815597
_symmetry_space_group_name_H-M "P -1"
_symmetry_group_IT_number 2
_symmetry_cell_setting 'triclinic'
loop_
_space_group_symop_operation_xyz
x,y,z
-x,-y,-z
loop_
_atom_site_type_symbol
_atom_site_label
_atom_site_fract_x
_atom_site_fract_y
_atom_site_fract_z
Si Si1 0.895727 0.733444 0.812013
Si Si2 0.664990 0.079319 0.859240
Si Si3 0.225924 0.927604 0.798664
Si Si4 0.906902 0.592332 0.962712
Si Si5 0.044776 0.186417 0.468770
Si Si6 0.069992 0.181220 0.753334
Si Si7 0.629006 0.288082 0.801006
Si Si8 0.443243 0.232264 0.482391
O O1 0.778883 0.512905 0.756655
O O2 0.012697 0.506091 0.644942
O O3 0.979336 0.985313 0.804941
O O4 0.798161 0.864783 0.016391
O O5 0.775300 0.357822 0.925855
O O6 0.648734 0.141582 0.806522
O O7 0.766699 0.826781 0.690966
O O8 0.500000 0.000000 0.000000
O O9 0.399949 0.817578 0.610020
O O10 0.178569 0.121660 0.848713
O O11 0.078140 0.683658 0.824360
O O12 0.969396 0.435986 0.920157
O O13 0.950737 0.015893 0.396144
O O14 0.000000 0.000000 0.500000
O O15 0.257752 0.264327 0.664893
O O16 0.580874 0.048442 0.672701
O O17 0.500000 0.500000 0.000000
O O18 0.500000 0.500000 0.500000
#
# Coordination Sequence:
#
# PCOD9033079 Si02
#       8
#     2   2   2   2   2   2   2   2
#     4  12  23  40  65 101 127 176 223 283 336 400
#     4  11  24  42  69 100 130 171 223 288 329 400
#     4  11  23  43  73  87 133 185 222 275 341 417
#     4  10  22  44  65  96 126 176 227 265 344 401
#     4  11  21  41  65  95 131 171 218 273 340 397
#     4  11  24  39  68  98 132 169 224 287 333 404
#     4  12  24  41  69  99 134 177 228 277 340 403
#     4  12  24  43  66 104 139 179 221 282 344 402
#
# _framework density 23.640117
#
# number of rings (size 3 to 8) (size 9 to 14) (size 15 to 20)
#    0.000    0.750    6.250    1.125    3.500    1.500 
#    2.250    0.000    0.000    3.750    0.000    0.000 
#    0.000    0.000    0.000    0.000    0.000    0.000 
#
# Total GULP energy -89333.885574 kJ/mol
# GULP energy per Si atom -5583.367848 kJ/mol
# Density = 2.358631 g / cm^3
# Si number density = 23.640117 Si / 1000 Ang^3
#
#
#
# Elastic Constant Matrix: (Units=GPa)
#
#
# Indices 1 2 3 4 5 6 
#
# 1 97.5563 35.9794 20.0674 -2.8604 -25.7708 -2.5477
# 2 35.9794 155.4870 48.9540 9.6933 -22.2551 2.6751
# 3 20.0674 48.9540 116.9209 0.1802 -50.4112 -1.2027
# 4 -2.8604 9.6933 0.1802 45.8801 9.0880 -12.1015
# 5 -25.7708 -22.2551 -50.4112 9.0880 54.8167 3.8584
# 6 -2.5477 2.6751 -1.2027 -12.1015 3.8584 41.1203
#
#
#
# Elastic Compliance Matrix: (Units=1/GPa)
#
#
# Indices 1 2 3 4 5 6 
#
# 1 0.012530 -0.002530 0.001629 0.000180 0.006301 0.000450
# 2 -0.002530 0.008109 -0.003096 -0.002168 -0.000287 -0.001386
# 3 0.001629 -0.003096 0.015861 -0.002560 0.014615 -0.001359
# 4 0.000180 -0.002168 -0.002560 0.026124 -0.008081 0.008524
# 5 0.006301 -0.000287 0.014615 -0.008081 0.036216 -0.004940
# 6 0.000450 -0.001386 -0.001359 0.008524 -0.004940 0.027369
#
#
# Mechanical properties :
#
#
# Convention : Reuss Voigt Hill
#
# Bulk Modulus (GPa) = 35.07787 64.44063 49.75925
# Shear Modulus (GPa) = 34.79384 46.02766 40.41075
#
# Velocity S-wave (km/s) = 3.84058 4.41729 4.13899
# Velocity P-wave (km/s) = 5.87684 7.30306 6.62842
#
# Compressibility (1/GPa) = 0.02850800
#
# Stress axis : x y z
#
# Youngs Moduli (GPa) = 79.81092 123.31493 63.04858
#
# Poissons Ratio (x) = 0.31193 -0.10274
# Poissons Ratio (y) = 0.20188 0.19519
# Poissons Ratio (z) = -0.13005 0.38176
#
# Static dielectric constant tensor:
#      x y z
#    x 2.037410 0.037210 -0.037860 
#    y 0.037210 1.842770 -0.131830 
#    z -0.037860 -0.131830 1.909400 
# 
# From -- ./inp_files/599792.got.cif
#   From: 2010.05.17/outbox.cif.g08.bks.cpg/sg2_300_cif.got.tgz:599792.got - 2010.06.03 11:33:40.
