data_PCOD9033480
_publ_section_title
;
Structure prediction by ZEFSAII (Michael W. Deem and Ramdas Pophale) SiO2 
 PCOD9033480
Probable space group: P -1
;
_chemical_formula_sum "Si O2"
_cell_formula_units_Z 14
_cell_length_a 17.117263
_cell_length_b 14.195476
_cell_length_c 13.775983
_cell_angle_alpha 142.384285
_cell_angle_beta 24.939663
_cell_angle_gamma 154.748634
_cell_volume 594.789457
_symmetry_space_group_name_H-M "P -1"
_symmetry_group_IT_number 2
_symmetry_cell_setting 'triclinic'
loop_
_space_group_symop_operation_xyz
x,y,z
-x,-y,-z
loop_
_atom_site_type_symbol
_atom_site_label
_atom_site_fract_x
_atom_site_fract_y
_atom_site_fract_z
Si Si1 0.198409 0.937977 0.995952
Si Si2 0.159001 0.959513 0.841563
Si Si3 0.578287 0.843000 0.813792
Si Si4 0.165968 0.215984 0.385273
Si Si5 0.346957 0.535618 0.269199
Si Si6 0.547262 0.113749 0.200527
Si Si7 0.207521 0.788807 0.466852
O O1 0.198799 0.783865 0.936192
O O2 0.077316 0.863455 0.964410
O O3 0.525660 0.154855 0.793085
O O4 0.103742 0.026187 0.235807
O O5 0.455195 0.207441 0.719893
O O6 0.157885 0.819110 0.654466
O O7 0.000000 0.000000 0.000000
O O8 0.615244 0.707207 0.719680
O O9 0.437067 0.755021 0.796473
O O10 0.885638 0.084015 0.644447
O O11 0.465408 0.907427 0.064452
O O12 0.269748 0.406493 0.351267
O O13 0.074403 0.427019 0.436629
O O14 0.500000 0.500000 0.000000
O O15 0.312225 0.994673 0.447273
#
# Coordination Sequence:
#
# PCOD9033480 Si02
#       7
#     2   2   2   2   2   2   2
#     4   9  19  34  56  85 115 151 192 232 292 337
#     4  12  23  37  59  83 120 159 189 237 292 346
#     4   9  16  30  58  88 112 146 200 237 282 341
#     4  10  17  32  55  91 114 150 194 235 284 346
#     4  12  22  38  58  86 122 153 194 236 287 350
#     4   8  17  32  56  85 111 149 195 241 285 336
#     4  10  21  39  56  86 120 148 197 235 289 344
#
# _framework density 23.537742000000001
#
# number of rings (size 3 to 8) (size 9 to 14) (size 15 to 20)
#    0.857    1.143    4.286    0.429    0.000    0.571 
#    0.000    0.000    0.000    1.714    0.000    0.000 
#    0.000    0.000    0.000    0.000    0.000    0.000 
#
# Total GULP energy -78103.356922 kJ/mol
# GULP energy per Si atom -5578.811209 kJ/mol
# Density = 2.348417 g / cm^3
# Si number density = 23.537742 Si / 1000 Ang^3
#
#
#
# Elastic Constant Matrix: (Units=GPa)
#
#
# Indices 1 2 3 4 5 6 
#
# 1 211.4921 33.4055 32.8275 4.7750 25.2185 -5.8930
# 2 33.4055 41.8382 -0.2172 -3.4896 2.5606 2.4130
# 3 32.8275 -0.2172 60.8709 7.9990 10.0854 0.9374
# 4 4.7750 -3.4896 7.9990 17.3731 -0.6927 -1.6512
# 5 25.2185 2.5606 10.0854 -0.6927 52.1189 -3.2301
# 6 -5.8930 2.4130 0.9374 -1.6512 -3.2301 20.8645
#
#
#
# Elastic Compliance Matrix: (Units=1/GPa)
#
#
# Indices 1 2 3 4 5 6 
#
# 1 0.006347 -0.005182 -0.002947 -0.001315 -0.002134 0.002090
# 2 -0.005182 0.028757 0.002116 0.005833 0.000493 -0.004347
# 3 -0.002947 0.002116 0.019607 -0.008191 -0.002769 -0.003035
# 4 -0.001315 0.005833 -0.008191 0.063445 0.003077 0.004819
# 5 -0.002134 0.000493 -0.002769 0.003077 0.020955 0.002952
# 6 0.002090 -0.004347 -0.003035 0.004819 0.002952 0.049996
#
#
# Mechanical properties :
#
#
# Convention : Reuss Voigt Hill
#
# Bulk Modulus (GPa) = 23.42763 49.58141 36.50452
# Shear Modulus (GPa) = 23.21668 34.61701 28.91685
#
# Velocity S-wave (km/s) = 3.14404 3.83913 3.50884
# Velocity P-wave (km/s) = 4.81195 6.38454 5.65319
#
# Compressibility (1/GPa) = 0.04268464
#
# Stress axis : x y z
#
# Youngs Moduli (GPa) = 157.56241 34.77362 51.00198
#
# Poissons Ratio (x) = 0.18021 0.15031
# Poissons Ratio (y) = 0.81655 -0.10793
# Poissons Ratio (z) = 0.46435 -0.07359
#
# Static dielectric constant tensor:
#      x y z
#    x 2.057480 -0.052650 0.044440 
#    y -0.052650 1.866190 0.013290 
#    z 0.044440 0.013290 1.939050 
# 
# From -- ./inp_files/466100.got.cif
#   From: 2010.05.17/outbox.cif.g08.bks.cpg/sg2_234_cif.got.tgz:466100.got - 2010.06.03 11:33:40.
