data_PCOD9033098
_publ_section_title
;
Structure prediction by ZEFSAII (Michael W. Deem and Ramdas Pophale) SiO2 
 PCOD9033098
Probable space group: P -1
;
_chemical_formula_sum "Si O2"
_cell_formula_units_Z 14
_cell_length_a 8.164648
_cell_length_b 10.459241
_cell_length_c 11.614612
_cell_angle_alpha 79.633656
_cell_angle_beta 78.923242
_cell_angle_gamma 136.926868
_cell_volume 583.922378
_symmetry_space_group_name_H-M "P -1"
_symmetry_group_IT_number 2
_symmetry_cell_setting 'triclinic'
loop_
_space_group_symop_operation_xyz
x,y,z
-x,-y,-z
loop_
_atom_site_type_symbol
_atom_site_label
_atom_site_fract_x
_atom_site_fract_y
_atom_site_fract_z
Si Si1 0.379097 0.295271 0.464712
Si Si2 0.974719 0.613743 0.404138
Si Si3 0.393743 0.580578 0.972030
Si Si4 0.848252 0.169516 0.153488
Si Si5 0.454603 0.060497 0.383899
Si Si6 0.864709 0.844404 0.707439
Si Si7 0.614288 0.194342 0.880137
O O1 0.271287 0.303473 0.364396
O O2 0.672360 0.494028 0.455096
O O3 0.438140 0.192789 0.412491
O O4 0.115169 0.095762 0.607741
O O5 0.181288 0.841109 0.397405
O O6 0.109033 0.662573 0.253158
O O7 0.000000 0.500000 0.500000
O O8 0.624906 0.767411 0.822284
O O9 0.500000 0.500000 0.000000
O O10 0.375242 0.672067 0.063322
O O11 0.082914 0.368645 0.005588
O O12 0.002426 0.185160 0.228611
O O13 0.688748 0.183594 0.238242
O O14 0.626376 0.941065 0.160481
O O15 0.500000 0.000000 0.500000
O O16 0.500000 0.000000 0.000000
#
# Coordination Sequence:
#
# PCOD9033098 Si02
#       7
#     2   2   2   2   2   2   2
#     4  11  22  41  63  95 136 169 227 285 333 405
#     4  11  23  40  68 103 129 179 228 280 347 405
#     4  10  24  43  68  96 133 189 227 266 349 419
#     4  10  22  44  65  98 132 181 223 279 347 409
#     4  11  20  38  70  95 129 168 227 288 337 397
#     4  10  23  41  63  93 136 179 220 278 340 405
#     4  11  26  43  69 107 140 170 234 301 339 401
#
# _framework density 23.975788000000001
#
# number of rings (size 3 to 8) (size 9 to 14) (size 15 to 20)
#    0.000    1.429    2.857    1.714    6.000    2.857 
#    0.000    7.143    0.000    0.000    0.000    0.000 
#    0.000    0.000    0.000    0.000    0.000    0.000 
#
# Total GULP energy -78250.900670 kJ/mol
# GULP energy per Si atom -5589.350048 kJ/mol
# Density = 2.392122 g / cm^3
# Si number density = 23.975788 Si / 1000 Ang^3
#
#
#
# Elastic Constant Matrix: (Units=GPa)
#
#
# Indices 1 2 3 4 5 6 
#
# 1 90.5207 2.6913 32.7514 -10.6857 2.3961 24.2313
# 2 2.6913 103.7414 17.3407 -11.6122 -10.1607 36.1334
# 3 32.7514 17.3407 125.0083 -18.1969 -27.0594 29.5613
# 4 -10.6857 -11.6122 -18.1969 37.3468 12.3157 -12.4165
# 5 2.3961 -10.1607 -27.0594 12.3157 51.3543 -6.3868
# 6 24.2313 36.1334 29.5613 -12.4165 -6.3868 49.8922
#
#
#
# Elastic Compliance Matrix: (Units=1/GPa)
#
#
# Indices 1 2 3 4 5 6 
#
# 1 0.014138 0.002422 -0.002759 0.002174 -0.003005 -0.006829
# 2 0.002422 0.013503 0.000469 0.001138 0.001190 -0.010798
# 3 -0.002759 0.000469 0.011057 0.001559 0.005113 -0.004509
# 4 0.002174 0.001138 0.001559 0.032004 -0.006187 0.004369
# 5 -0.003005 0.001190 0.005113 -0.006187 0.023913 -0.000911
# 6 -0.006829 -0.010798 -0.004509 0.004369 -0.000911 0.034823
#
#
# Mechanical properties :
#
#
# Convention : Reuss Voigt Hill
#
# Bulk Modulus (GPa) = 25.66584 47.20411 36.43498
# Shear Modulus (GPa) = 35.17147 45.48445 40.32796
#
# Velocity S-wave (km/s) = 3.83424 4.36030 4.10570
# Velocity P-wave (km/s) = 5.50727 6.71421 6.14046
#
# Compressibility (1/GPa) = 0.03896229
#
# Stress axis : x y z
#
# Youngs Moduli (GPa) = 70.73251 74.05752 90.43938
#
# Poissons Ratio (x) = -0.17938 0.24952
# Poissons Ratio (y) = -0.17133 -0.04242
# Poissons Ratio (z) = 0.19515 -0.03473
#
# Static dielectric constant tensor:
#      x y z
#    x 2.067960 0.123390 0.110950 
#    y 0.123390 2.074290 0.069850 
#    z 0.110950 0.069850 2.047250 
# 
# From -- ./inp_files/390009.got.cif
#   From: 2010.05.17/outbox.cif.g08.bks.cpg/sg2_196_cif.got.tgz:390009.got - 2010.06.03 11:33:40.
