data_PCOD9033777
_publ_section_title
;
Structure prediction by ZEFSAII (Michael W. Deem and Ramdas Pophale) SiO2 
 PCOD9033777
Probable space group: P -1
;
_chemical_formula_sum "Si O2"
_cell_formula_units_Z 12
_cell_length_a 10.651668
_cell_length_b 10.427199
_cell_length_c 13.858125
_cell_angle_alpha 148.190920
_cell_angle_beta 43.996727
_cell_angle_gamma 137.353062
_cell_volume 530.115485
_symmetry_space_group_name_H-M "P -1"
_symmetry_group_IT_number 2
_symmetry_cell_setting 'triclinic'
loop_
_space_group_symop_operation_xyz
x,y,z
-x,-y,-z
loop_
_atom_site_type_symbol
_atom_site_label
_atom_site_fract_x
_atom_site_fract_y
_atom_site_fract_z
Si Si1 0.834615 0.825041 0.410536
Si Si2 0.301304 0.053883 0.633184
Si Si3 0.523147 0.593347 0.936848
Si Si4 0.052872 0.087015 0.135954
Si Si5 0.406007 0.063539 0.234066
Si Si6 0.796973 0.264223 0.036100
O O1 0.788279 0.978657 0.444432
O O2 0.874798 0.572995 0.188173
O O3 0.656104 0.766021 0.545445
O O4 0.000000 0.000000 0.500000
O O5 0.373136 0.361223 0.812542
O O6 0.135623 0.889809 0.693310
O O7 0.500000 0.000000 0.500000
O O8 0.743902 0.675552 0.829229
O O9 0.500000 0.500000 0.000000
O O10 0.466292 0.847626 0.119849
O O11 0.091969 0.859332 0.030137
O O12 0.000000 0.000000 0.000000
O O13 0.585618 0.212027 0.164132
O O14 0.242578 0.906753 0.148148
#
# Coordination Sequence:
#
# PCOD9033777 Si02
#       6
#     2   2   2   2   2   2
#     4  12  26  42  71 108 144 187 240 301 363 431
#     4  12  27  46  70 108 151 186 245 301 364 439
#     4  11  22  44  75  99 141 194 235 296 367 429
#     4  11  25  44  72 105 140 194 241 298 368 428
#     4  10  22  44  69  98 139 185 236 297 357 425
#     4  10  23  44  71 100 137 185 246 293 357 430
#
# _framework density 22.636576999999999
#
# number of rings (size 3 to 8) (size 9 to 14) (size 15 to 20)
#    0.000    1.000    3.333    2.500    4.667    3.333 
#    3.000    0.000    0.000    0.000    0.000    0.000 
#    0.000    0.000    0.000    0.000    0.000    0.000 
#
# Total GULP energy -67085.137472 kJ/mol
# GULP energy per Si atom -5590.428123 kJ/mol
# Density = 2.258506 g / cm^3
# Si number density = 22.636577 Si / 1000 Ang^3
#
#
#
# Elastic Constant Matrix: (Units=GPa)
#
#
# Indices 1 2 3 4 5 6 
#
# 1 161.2101 40.7759 29.4135 -11.3881 15.8755 -5.4618
# 2 40.7759 117.0336 15.3544 -24.1589 -6.0910 13.3870
# 3 29.4135 15.3544 99.4234 -16.3811 5.8342 -1.7907
# 4 -11.3881 -24.1589 -16.3811 44.5757 -3.4331 0.7708
# 5 15.8755 -6.0910 5.8342 -3.4331 30.1067 -7.5923
# 6 -5.4618 13.3870 -1.7907 0.7708 -7.5923 32.8266
#
#
#
# Elastic Compliance Matrix: (Units=1/GPa)
#
#
# Indices 1 2 3 4 5 6 
#
# 1 0.007652 -0.002947 -0.001642 -0.000580 -0.004008 0.001472
# 2 -0.002947 0.011481 -0.000241 0.005724 0.003435 -0.004526
# 3 -0.001642 -0.000241 0.011214 0.003497 -0.000921 0.000142
# 4 -0.000580 0.005724 0.003497 0.026966 0.003331 -0.002103
# 5 -0.004008 0.003435 -0.000921 0.003331 0.038259 0.006653
# 6 0.001472 -0.004526 0.000142 -0.002103 0.006653 0.034149
#
#
# Mechanical properties :
#
#
# Convention : Reuss Voigt Hill
#
# Bulk Modulus (GPa) = 48.34420 60.97274 54.65847
# Shear Modulus (GPa) = 34.18148 40.97669 37.57909
#
# Velocity S-wave (km/s) = 3.89010 4.25926 4.07886
# Velocity P-wave (km/s) = 6.44827 7.15418 6.81038
#
# Compressibility (1/GPa) = 0.02068501
#
# Stress axis : x y z
#
# Youngs Moduli (GPa) = 130.68852 87.10051 89.17446
#
# Poissons Ratio (x) = 0.25670 0.14646
# Poissons Ratio (y) = 0.38517 0.02151
# Poissons Ratio (z) = 0.21465 0.02101
#
# Static dielectric constant tensor:
#      x y z
#    x 1.830910 0.019460 -0.037930 
#    y 0.019460 1.751470 0.140590 
#    z -0.037930 0.140590 1.728410 
# 
# From -- ./inp_files/518343.got.cif
#   From: 2010.05.17/outbox.cif.g08.bks.cpg/sg2_260_cif.got.tgz:518343.got - 2010.06.03 11:33:40.
