data_PCOD9033022
_publ_section_title
;
Structure prediction by ZEFSAII (Michael W. Deem and Ramdas Pophale) SiO2 
 PCOD9033022
Probable space group: P -1
;
_chemical_formula_sum "Si O2"
_cell_formula_units_Z 15
_cell_length_a 8.535445
_cell_length_b 14.657544
_cell_length_c 12.031974
_cell_angle_alpha 120.356499
_cell_angle_beta 146.644056
_cell_angle_gamma 53.828129
_cell_volume 667.879764
_symmetry_space_group_name_H-M "P -1"
_symmetry_group_IT_number 2
_symmetry_cell_setting 'triclinic'
loop_
_space_group_symop_operation_xyz
x,y,z
-x,-y,-z
loop_
_atom_site_type_symbol
_atom_site_label
_atom_site_fract_x
_atom_site_fract_y
_atom_site_fract_z
Si Si1 0.700129 0.636217 0.544077
Si Si2 0.004663 0.950357 0.789225
Si Si3 0.943591 0.382439 0.881441
Si Si4 0.901585 0.733750 0.511450
Si Si5 0.831198 0.423556 0.603073
Si Si6 0.709553 0.151508 0.887364
Si Si7 0.500000 0.000000 0.000000
Si Si8 0.279992 0.204222 0.158744
O O1 0.405701 0.612215 0.307346
O O2 0.868274 0.675053 0.569517
O O3 0.928343 0.521959 0.666331
O O4 0.587261 0.733790 0.631299
O O5 0.914452 0.854902 0.619430
O O6 0.148066 0.014510 0.829696
O O7 0.270119 0.883641 0.993861
O O8 0.752349 0.039599 0.770206
O O9 0.009819 0.356289 0.773533
O O10 0.000000 0.500000 0.000000
O O11 0.144533 0.291403 0.030968
O O12 0.598317 0.752323 0.271521
O O13 0.176076 0.658750 0.551193
O O14 0.500000 0.500000 0.500000
O O15 0.001145 0.183252 0.045616
O O16 0.510344 0.910105 0.846679
#
# Coordination Sequence:
#
# PCOD9033022 Si02
#       8
#     2   2   2   2   2   2   1   2
#     4  11  23  43  67  95 134 177 224 277 334 391
#     4  10  23  43  66  96 137 171 218 282 325 395
#     4  11  23  42  68  94 133 178 222 278 333 397
#     4  12  23  42  71  98 128 181 225 271 335 404
#     4  10  25  43  62  99 135 172 221 280 339 391
#     4  10  22  44  65 100 132 172 224 269 332 397
#     4  10  26  40  68 100 136 180 212 276 342 398
#     4  11  22  45  66  98 139 175 224 273 333 398
#
# _framework density 22.459130999999999
#
# number of rings (size 3 to 8) (size 9 to 14) (size 15 to 20)
#    0.000    1.333    4.000    0.800    5.600    0.000 
#    0.000    2.667    0.000    0.000    0.000    0.000 
#    0.000    0.000    0.000    0.000    0.000    0.000 
#
# Total GULP energy -83505.618852 kJ/mol
# GULP energy per Si atom -5567.041257 kJ/mol
# Density = 2.240801 g / cm^3
# Si number density = 22.459131 Si / 1000 Ang^3
#
#
#
# Elastic Constant Matrix: (Units=GPa)
#
#
# Indices 1 2 3 4 5 6 
#
# 1 45.2737 12.1956 30.5178 -0.5638 -10.6208 -4.9086
# 2 12.1956 42.6311 22.6135 6.9632 -3.5859 2.8196
# 3 30.5178 22.6135 74.5908 27.3003 -8.5207 -13.4982
# 4 -0.5638 6.9632 27.3003 40.3230 6.9502 -3.5017
# 5 -10.6208 -3.5859 -8.5207 6.9502 30.5265 5.7133
# 6 -4.9086 2.8196 -13.4982 -3.5017 5.7133 27.8164
#
#
#
# Elastic Compliance Matrix: (Units=1/GPa)
#
#
# Indices 1 2 3 4 5 6 
#
# 1 0.036187 -0.002043 -0.018530 0.012441 0.004681 -0.001794
# 2 -0.002043 0.029790 -0.009664 0.000375 0.001568 -0.008344
# 3 -0.018530 -0.009664 0.034396 -0.021816 0.004997 0.010628
# 4 0.012441 0.000375 -0.021816 0.041490 -0.010985 -0.000950
# 5 0.004681 0.001568 0.004997 -0.010985 0.039672 -0.006440
# 6 -0.001794 -0.008344 0.010628 -0.000950 -0.006440 0.042840
#
#
# Mechanical properties :
#
#
# Convention : Reuss Voigt Hill
#
# Bulk Modulus (GPa) = 25.06207 32.57213 28.81710
# Shear Modulus (GPa) = 16.77017 26.21109 21.49063
#
# Velocity S-wave (km/s) = 2.73554 3.41993 3.09670
# Velocity P-wave (km/s) = 4.60008 5.48898 5.06407
#
# Compressibility (1/GPa) = 0.03990093
#
# Stress axis : x y z
#
# Youngs Moduli (GPa) = 27.63415 33.56822 29.07306
#
# Poissons Ratio (x) = 0.06858 0.53871
# Poissons Ratio (y) = 0.05645 0.28096
# Poissons Ratio (z) = 0.51205 0.32440
#
# Static dielectric constant tensor:
#      x y z
#    x 1.857090 0.036740 -0.002220 
#    y 0.036740 1.876220 0.000230 
#    z -0.002220 0.000230 1.875440 
# 
# From -- ./inp_files/353278.got.cif
#   From: 2010.05.17/outbox.cif.g08.bks.cpg/sg2_177_cif.got.tgz:353278.got - 2010.06.03 11:33:40.
