data_PCOD9033795
_publ_section_title
;
Structure prediction by ZEFSAII (Michael W. Deem and Ramdas Pophale) SiO2 
 PCOD9033795
Probable space group: P -1
;
_chemical_formula_sum "Si O2"
_cell_formula_units_Z 15
_cell_length_a 15.473013
_cell_length_b 16.051599
_cell_length_c 6.329032
_cell_angle_alpha 137.562778
_cell_angle_beta 42.425635
_cell_angle_gamma 143.265680
_cell_volume 591.021893
_symmetry_space_group_name_H-M "P -1"
_symmetry_group_IT_number 2
_symmetry_cell_setting 'triclinic'
loop_
_space_group_symop_operation_xyz
x,y,z
-x,-y,-z
loop_
_atom_site_type_symbol
_atom_site_label
_atom_site_fract_x
_atom_site_fract_y
_atom_site_fract_z
Si Si1 0.223401 0.123639 0.143158
Si Si2 0.000000 0.500000 0.000000
Si Si3 0.433656 0.086009 0.004177
Si Si4 0.187143 0.760386 0.866685
Si Si5 0.681565 0.525939 0.957033
Si Si6 0.572932 0.707178 0.283548
Si Si7 0.968968 0.809888 0.070811
Si Si8 0.743949 0.375989 0.883961
O O1 0.351091 0.104734 0.985953
O O2 0.149839 0.170970 0.544016
O O3 0.307227 0.243514 0.032207
O O4 0.081082 0.959945 0.017320
O O5 0.880569 0.321795 0.946390
O O6 0.122590 0.522065 0.003516
O O7 0.389412 0.145322 0.395528
O O8 0.615291 0.208241 0.876771
O O9 0.359514 0.912275 0.845560
O O10 0.185525 0.643346 0.492937
O O11 0.079001 0.802680 0.027241
O O12 0.600155 0.391747 0.683927
O O13 0.663713 0.456929 0.090768
O O14 0.594963 0.606854 0.217516
O O15 0.864298 0.655189 0.842808
#
# Coordination Sequence:
#
# PCOD9033795 Si02
#       8
#     2   1   2   2   2   2   2   2
#     4  10  22  44  70 105 141 182 234 297 361 423
#     4  12  28  46  74 102 138 192 242 284 364 412
#     4  11  25  48  74 105 141 188 243 297 350 428
#     4  11  27  49  70 106 144 193 240 291 350 428
#     4  11  24  44  71 105 146 182 233 302 351 425
#     4  11  25  43  73 111 138 186 238 286 372 422
#     4  10  22  44  69  99 147 183 228 299 355 415
#     4  12  27  48  73 102 148 189 240 295 350 422
#
# _framework density 25.379771000000002
#
# number of rings (size 3 to 8) (size 9 to 14) (size 15 to 20)
#    0.000    1.067    4.000    0.800    1.867    7.467 
#    0.000    0.000    0.000    0.000    0.000    0.000 
#    0.000    0.000    0.000    0.000    0.000    0.000 
#
# Total GULP energy -83765.696513 kJ/mol
# GULP energy per Si atom -5584.379768 kJ/mol
# Density = 2.532201 g / cm^3
# Si number density = 25.379771 Si / 1000 Ang^3
#
#
#
# Elastic Constant Matrix: (Units=GPa)
#
#
# Indices 1 2 3 4 5 6 
#
# 1 133.1228 57.3573 4.7246 11.5262 13.9320 6.1737
# 2 57.3573 185.1028 20.1443 13.7724 10.1070 17.5711
# 3 4.7246 20.1443 43.7058 -1.4134 -0.2913 5.2527
# 4 11.5262 13.7724 -1.4134 23.2433 8.2172 0.3106
# 5 13.9320 10.1070 -0.2913 8.2172 17.1096 9.7755
# 6 6.1737 17.5711 5.2527 0.3106 9.7755 46.6986
#
#
#
# Elastic Compliance Matrix: (Units=1/GPa)
#
#
# Indices 1 2 3 4 5 6 
#
# 1 0.009302 -0.002573 -0.000016 -0.000904 -0.006219 0.001048
# 2 -0.002573 0.006895 -0.002750 -0.003193 0.000691 -0.002068
# 3 -0.000016 -0.002750 0.024504 0.002396 0.002153 -0.002186
# 4 -0.000904 -0.003193 0.002396 0.055146 -0.027502 0.006442
# 5 -0.006219 0.000691 0.002153 -0.027502 0.086393 -0.017582
# 6 0.001048 -0.002068 -0.002186 0.006442 -0.017582 0.025937
#
#
# Mechanical properties :
#
#
# Convention : Reuss Voigt Hill
#
# Bulk Modulus (GPa) = 33.30865 58.48708 45.89787
# Shear Modulus (GPa) = 21.84709 36.05731 28.95220
#
# Velocity S-wave (km/s) = 2.93713 3.77332 3.38118
# Velocity P-wave (km/s) = 4.96537 6.48681 5.77640
#
# Compressibility (1/GPa) = 0.03002223
#
# Stress axis : x y z
#
# Youngs Moduli (GPa) = 107.50790 145.02751 40.80962
#
# Poissons Ratio (x) = 0.37318 0.00066
# Poissons Ratio (y) = 0.27663 0.11223
# Poissons Ratio (z) = 0.00174 0.39883
#
# Static dielectric constant tensor:
#      x y z
#    x 1.977590 -0.012880 -0.032420 
#    y -0.012880 2.051660 0.032860 
#    z -0.032420 0.032860 2.101570 
# 
# From -- ./inp_files/98668.got.cif
#   From: 2010.05.17/outbox.cif.g08.bks.cpg/sg2_50_cif.got.tgz:98668.got - 2010.06.03 11:33:40.
