data_PCOD9033151
_publ_section_title
;
Structure prediction by ZEFSAII (Michael W. Deem and Ramdas Pophale) SiO2 
 PCOD9033151
Probable space group: P -1
;
_chemical_formula_sum "Si O2"
_cell_formula_units_Z 15
_cell_length_a 15.287027
_cell_length_b 12.417468
_cell_length_c 7.593895
_cell_angle_alpha 97.469656
_cell_angle_beta 71.515852
_cell_angle_gamma 150.930616
_cell_volume 629.500336
_symmetry_space_group_name_H-M "P -1"
_symmetry_group_IT_number 2
_symmetry_cell_setting 'triclinic'
loop_
_space_group_symop_operation_xyz
x,y,z
-x,-y,-z
loop_
_atom_site_type_symbol
_atom_site_label
_atom_site_fract_x
_atom_site_fract_y
_atom_site_fract_z
Si Si1 0.645435 0.253109 0.491123
Si Si2 0.268780 0.643606 0.125490
Si Si3 0.000000 0.000000 0.000000
Si Si4 0.535866 0.495686 0.195466
Si Si5 0.344370 0.083840 0.114925
Si Si6 0.103602 0.874397 0.886673
Si Si7 0.489799 0.329611 0.556093
Si Si8 0.935319 0.365982 0.688389
O O1 0.685481 0.310984 0.685800
O O2 0.567247 0.288285 0.490195
O O3 0.857581 0.444837 0.310232
O O4 0.500000 0.000000 0.500000
O O5 0.220988 0.719323 0.130236
O O6 0.064755 0.373279 0.145366
O O7 0.454623 0.774849 0.953473
O O8 0.998166 0.125898 0.967669
O O9 0.238626 0.259857 0.960056
O O10 0.401500 0.269391 0.131335
O O11 0.546834 0.450912 0.370239
O O12 0.445262 0.521513 0.294680
O O13 0.183142 0.869527 0.310531
O O14 0.240555 0.959695 0.963905
O O15 0.252878 0.075309 0.684464
O O16 0.000000 0.500000 0.500000
#
# Coordination Sequence:
#
# PCOD9033151 Si02
#       8
#     2   2   1   2   2   2   2   2
#     4  11  24  44  74 103 138 192 235 289 354 426
#     4  11  24  46  69 104 140 186 224 305 347 412
#     4  10  22  44  66 104 142 182 228 288 354 408
#     4  10  24  43  73 105 143 192 227 303 347 425
#     4  12  25  45  74 106 139 188 238 286 364 422
#     4  11  24  43  71 104 141 180 234 289 353 425
#     4  10  23  45  72 104 144 182 243 284 356 422
#     4  10  26  44  67 100 140 186 235 294 346 413
#
# _framework density 23.828420999999999
#
# number of rings (size 3 to 8) (size 9 to 14) (size 15 to 20)
#    0.000    1.333    2.667    1.200    9.333    3.733 
#    0.000    0.667    0.000    0.000    0.000    0.000 
#    0.000    0.000    0.000    0.000    0.000    0.000 
#
# Total GULP energy -83526.146367 kJ/mol
# GULP energy per Si atom -5568.409758 kJ/mol
# Density = 2.377419 g / cm^3
# Si number density = 23.828421 Si / 1000 Ang^3
#
#
#
# Elastic Constant Matrix: (Units=GPa)
#
#
# Indices 1 2 3 4 5 6 
#
# 1 128.2406 45.6182 13.6552 4.8411 -30.2756 -13.0374
# 2 45.6182 192.2290 41.5995 11.5163 5.1644 -14.7921
# 3 13.6552 41.5995 49.8270 1.3770 7.1028 0.2174
# 4 4.8411 11.5163 1.3770 24.8746 0.2052 -3.1711
# 5 -30.2756 5.1644 7.1028 0.2052 21.4778 -11.4289
# 6 -13.0374 -14.7921 0.2174 -3.1711 -11.4289 35.8971
#
#
#
# Elastic Compliance Matrix: (Units=1/GPa)
#
#
# Indices 1 2 3 4 5 6 
#
# 1 0.025645 -0.002864 -0.012526 -0.000161 0.054592 0.025576
# 2 -0.002864 0.007154 -0.004555 -0.002412 -0.003987 0.000453
# 3 -0.012526 -0.004555 0.032663 0.000700 -0.037157 -0.018392
# 4 -0.000161 -0.002412 0.000700 0.041689 0.001348 0.003055
# 5 0.054592 -0.003987 -0.037157 0.001348 0.176512 0.074726
# 6 0.025576 0.000453 -0.018392 0.003055 0.074726 0.061506
#
#
# Mechanical properties :
#
#
# Convention : Reuss Voigt Hill
#
# Bulk Modulus (GPa) = 39.10578 63.56024 51.33301
# Shear Modulus (GPa) = 12.70383 34.41149 23.55766
#
# Velocity S-wave (km/s) = 2.31148 3.80430 3.14767
# Velocity P-wave (km/s) = 4.85499 6.78447 5.89915
#
# Compressibility (1/GPa) = 0.02557167
#
# Stress axis : x y z
#
# Youngs Moduli (GPa) = 38.99383 139.78343 30.61602
#
# Poissons Ratio (x) = 0.40034 0.38350
# Poissons Ratio (y) = 0.11168 0.13945
# Poissons Ratio (z) = 0.48845 0.63668
#
# Static dielectric constant tensor:
#      x y z
#    x 1.954820 -0.015460 -0.018460 
#    y -0.015460 1.937740 0.028070 
#    z -0.018460 0.028070 2.060940 
# 
# From -- ./inp_files/307696.got.cif
#   From: 2010.05.17/outbox.cif.g08.bks.cpg/sg2_154_cif.got.tgz:307696.got - 2010.06.03 11:33:40.
