data_PCOD9033027
_publ_section_title
;
Structure prediction by ZEFSAII (Michael W. Deem and Ramdas Pophale) SiO2 
 PCOD9033027
Probable space group: P -1
;
_chemical_formula_sum "Si O2"
_cell_formula_units_Z 16
_cell_length_a 15.988621
_cell_length_b 18.618222
_cell_length_c 10.514953
_cell_angle_alpha 33.037771
_cell_angle_beta 34.052296
_cell_angle_gamma 21.849567
_cell_volume 615.175278
_symmetry_space_group_name_H-M "P -1"
_symmetry_group_IT_number 2
_symmetry_cell_setting 'triclinic'
loop_
_space_group_symop_operation_xyz
x,y,z
-x,-y,-z
loop_
_atom_site_type_symbol
_atom_site_label
_atom_site_fract_x
_atom_site_fract_y
_atom_site_fract_z
Si Si1 0.794533 0.232502 0.361968
Si Si2 0.902216 0.902660 0.046604
Si Si3 0.091214 0.499794 0.646644
Si Si4 0.521296 0.650544 0.064394
Si Si5 0.650575 0.898372 0.749929
Si Si6 0.449475 0.862669 0.257472
Si Si7 0.272676 0.668716 0.122807
Si Si8 0.720951 0.736274 0.502360
O O1 0.613145 0.245815 0.523809
O O2 0.665280 0.446792 0.267734
O O3 0.000000 0.000000 0.500000
O O4 0.910828 0.231304 0.100573
O O5 0.808410 0.819535 0.317225
O O6 0.052723 0.867520 0.022160
O O7 0.685271 0.132914 0.928231
O O8 0.288354 0.298603 0.781834
O O9 0.180830 0.587664 0.393822
O O10 0.122777 0.418576 0.584705
O O11 0.851447 0.674145 0.767494
O O12 0.665080 0.664315 0.785319
O O13 0.372177 0.675428 0.108325
O O14 0.712431 0.961388 0.691105
O O15 0.525716 0.066410 0.548398
O O16 0.460196 0.934749 0.005604
O O17 0.500000 0.500000 0.000000
#
# Coordination Sequence:
#
# PCOD9033027 Si02
#       8
#     2   2   2   2   2   2   2   2
#     4  12  27  47  72 102 145 191 242 302 365 433
#     4  12  27  45  74 108 148 196 239 300 367 427
#     4  11  21  40  73  99 141 189 239 292 360 427
#     4  12  26  47  75 107 147 191 245 299 367 435
#     4  10  23  41  70 100 138 192 236 297 358 424
#     4  10  22  44  65 100 141 180 250 299 346 426
#     4  12  22  45  71 110 142 189 242 298 362 431
#     4  11  25  45  68 108 150 182 239 300 357 438
#
# _framework density 26.008849000000001
#
# number of rings (size 3 to 8) (size 9 to 14) (size 15 to 20)
#    0.000    0.750    3.750    2.625    3.500    3.500 
#    0.000    2.500    0.000    0.000    0.000    0.000 
#    0.000    0.000    0.000    0.000    0.000    0.000 
#
# Total GULP energy -89476.353863 kJ/mol
# GULP energy per Si atom -5592.272116 kJ/mol
# Density = 2.594965 g / cm^3
# Si number density = 26.008849 Si / 1000 Ang^3
#
#
#
# Elastic Constant Matrix: (Units=GPa)
#
#
# Indices 1 2 3 4 5 6 
#
# 1 83.0138 28.6716 9.8385 13.7800 -8.8977 8.2549
# 2 28.6716 167.7383 32.1468 -18.8755 2.4151 6.5059
# 3 9.8385 32.1468 116.1722 6.6573 -9.2212 7.5026
# 4 13.7800 -18.8755 6.6573 44.5803 -5.7708 8.0040
# 5 -8.8977 2.4151 -9.2212 -5.7708 34.8967 -0.0056
# 6 8.2549 6.5059 7.5026 8.0040 -0.0056 41.4202
#
#
#
# Elastic Compliance Matrix: (Units=1/GPa)
#
#
# Indices 1 2 3 4 5 6 
#
# 1 0.014408 -0.003081 0.000266 -0.005136 0.003108 -0.001443
# 2 -0.003081 0.007444 -0.002075 0.004457 -0.001112 -0.001041
# 3 0.000266 -0.002075 0.009530 -0.001875 0.002419 -0.001091
# 4 -0.005136 0.004457 -0.001875 0.027326 0.002405 -0.004617
# 5 0.003108 -0.001112 0.002419 0.002405 0.030562 -0.001343
# 6 -0.001443 -0.001041 -0.001091 -0.004617 -0.001343 0.025683
#
#
# Mechanical properties :
#
#
# Convention : Reuss Voigt Hill
#
# Bulk Modulus (GPa) = 46.29165 56.47088 51.38126
# Shear Modulus (GPa) = 37.89810 43.93061 40.91436
#
# Velocity S-wave (km/s) = 3.82137 4.11428 3.97053
# Velocity P-wave (km/s) = 6.10799 6.65801 6.38892
#
# Compressibility (1/GPa) = 0.02160217
#
# Stress axis : x y z
#
# Youngs Moduli (GPa) = 69.40708 134.33863 104.93634
#
# Poissons Ratio (x) = 0.41384 -0.02796
# Poissons Ratio (y) = 0.21381 0.21779
# Poissons Ratio (z) = -0.01849 0.27881
#
# Static dielectric constant tensor:
#      x y z
#    x 2.114690 -0.082170 0.064870 
#    y -0.082170 2.167800 -0.090440 
#    z 0.064870 -0.090440 1.988300 
# 
# From -- ./inp_files/467022.got.cif
#   From: 2010.05.17/outbox.cif.g08.bks.cpg/sg2_234_cif.got.tgz:467022.got - 2010.06.03 11:33:40.
