data_PCOD9033718
_publ_section_title
;
Structure prediction by ZEFSAII (Michael W. Deem and Ramdas Pophale) SiO2 
 PCOD9033718
Probable space group: P -1
;
_chemical_formula_sum "Si O2"
_cell_formula_units_Z 12
_cell_length_a 7.332475
_cell_length_b 9.042017
_cell_length_c 13.431928
_cell_angle_alpha 87.475466
_cell_angle_beta 96.517926
_cell_angle_gamma 37.321681
_cell_volume 522.929855
_symmetry_space_group_name_H-M "P -1"
_symmetry_group_IT_number 2
_symmetry_cell_setting 'triclinic'
loop_
_space_group_symop_operation_xyz
x,y,z
-x,-y,-z
loop_
_atom_site_type_symbol
_atom_site_label
_atom_site_fract_x
_atom_site_fract_y
_atom_site_fract_z
Si Si1 0.157704 0.997879 0.733000
Si Si2 0.485064 0.961373 0.615283
Si Si3 0.548057 0.516994 0.256436
Si Si4 0.715995 0.489965 0.057722
Si Si5 0.628275 0.838248 0.915485
Si Si6 0.118749 0.465906 0.617965
O O1 0.296440 0.741918 0.753016
O O2 0.373784 0.963908 0.814276
O O3 0.214342 0.023234 0.624621
O O4 0.810101 0.247689 0.741563
O O5 0.395385 0.169943 0.661098
O O6 0.500000 0.000000 0.500000
O O7 0.813435 0.666019 0.662952
O O8 0.586765 0.594132 0.158076
O O9 0.740112 0.464744 0.359823
O O10 0.088600 0.243434 0.102014
O O11 0.500000 0.500000 0.000000
O O12 0.706254 0.625062 0.970859
O O13 0.500000 0.000000 0.000000
O O14 0.000000 0.500000 0.500000
#
# Coordination Sequence:
#
# PCOD9033718 Si02
#       6
#     2   2   2   2   2   2
#     4  12  26  44  68 106 141 181 240 283 355 419
#     4  10  22  44  69  94 134 177 230 288 348 415
#     4  12  26  43  71 102 143 184 231 296 344 421
#     4  11  24  45  67 103 146 184 238 282 349 414
#     4  11  26  41  71 102 144 192 230 290 342 419
#     4  10  22  44  69  96 131 180 231 284 356 407
#
# _framework density 22.947628999999999
#
# number of rings (size 3 to 8) (size 9 to 14) (size 15 to 20)
#    0.000    1.000    1.667    4.000    7.000    1.333 
#    0.000   20.000    0.000    0.000    0.000    0.000 
#    0.000    0.000    0.000    0.000    0.000    0.000 
#
# Total GULP energy -66904.203246 kJ/mol
# GULP energy per Si atom -5575.350271 kJ/mol
# Density = 2.289540 g / cm^3
# Si number density = 22.947629 Si / 1000 Ang^3
#
#
#
# Elastic Constant Matrix: (Units=GPa)
#
#
# Indices 1 2 3 4 5 6 
#
# 1 130.8741 54.5961 50.6529 11.0233 19.7863 -36.2126
# 2 54.5961 164.8471 20.5681 30.3610 11.6329 -32.8229
# 3 50.6529 20.5681 104.2119 4.2549 16.6870 -12.9357
# 4 11.0233 30.3610 4.2549 20.8741 -1.0365 -2.2836
# 5 19.7863 11.6329 16.6870 -1.0365 57.6642 7.8743
# 6 -36.2126 -32.8229 -12.9357 -2.2836 7.8743 54.1870
#
#
#
# Elastic Compliance Matrix: (Units=1/GPa)
#
#
# Indices 1 2 3 4 5 6 
#
# 1 0.012672 -0.001405 -0.004263 -0.003202 -0.003848 0.007024
# 2 -0.001405 0.010240 0.000280 -0.013777 -0.002613 0.005129
# 3 -0.004263 0.000280 0.012045 -0.000665 -0.002157 0.000481
# 4 -0.003202 -0.013777 -0.000665 0.069145 0.006498 -0.008674
# 5 -0.003848 -0.002613 -0.002157 0.006498 0.020946 -0.007439
# 6 0.007024 0.005129 0.000481 -0.008674 -0.007439 0.027086
#
#
# Mechanical properties :
#
#
# Convention : Reuss Voigt Hill
#
# Bulk Modulus (GPa) = 41.35816 72.39637 56.87726
# Shear Modulus (GPa) = 29.24465 44.81945 37.03205
#
# Velocity S-wave (km/s) = 3.57376 4.42421 4.02153
# Velocity P-wave (km/s) = 5.92376 7.59705 6.81198
#
# Compressibility (1/GPa) = 0.02417903
#
# Stress axis : x y z
#
# Youngs Moduli (GPa) = 78.91373 97.65759 83.02145
#
# Poissons Ratio (x) = 0.13723 0.35395
# Poissons Ratio (y) = 0.11089 -0.02321
# Poissons Ratio (z) = 0.33643 -0.02730
#
# Static dielectric constant tensor:
#      x y z
#    x 1.760780 0.096050 -0.136650 
#    y 0.096050 1.904430 -0.014430 
#    z -0.136650 -0.014430 1.883640 
# 
# From -- ./inp_files/3250.got.cif
#   From: 2010.05.17/outbox.cif.g08.bks.cpg/sg2_2_cif.got.tgz:3250.got - 2010.06.03 11:33:40.
