data_PCOD9033217
_publ_section_title
;
Structure prediction by ZEFSAII (Michael W. Deem and Ramdas Pophale) SiO2 
 PCOD9033217
Probable space group: P -1
;
_chemical_formula_sum "Si O2"
_cell_formula_units_Z 16
_cell_length_a 12.055300
_cell_length_b 8.921692
_cell_length_c 9.736825
_cell_angle_alpha 131.157032
_cell_angle_beta 110.465278
_cell_angle_gamma 95.709794
_cell_volume 653.105351
_symmetry_space_group_name_H-M "P -1"
_symmetry_group_IT_number 2
_symmetry_cell_setting 'triclinic'
loop_
_space_group_symop_operation_xyz
x,y,z
-x,-y,-z
loop_
_atom_site_type_symbol
_atom_site_label
_atom_site_fract_x
_atom_site_fract_y
_atom_site_fract_z
Si Si1 0.405685 0.210141 0.952460
Si Si2 0.651178 0.196325 0.661287
Si Si3 0.319474 0.502695 0.892178
Si Si4 0.207543 0.338203 0.455965
Si Si5 0.161490 0.749559 0.598729
Si Si6 0.048058 0.052583 0.850474
Si Si7 0.674769 0.585799 0.715760
Si Si8 0.928467 0.265131 0.745887
O O1 0.350847 0.333003 0.895577
O O2 0.312324 0.944422 0.750103
O O3 0.555647 0.305706 0.023343
O O4 0.391805 0.296583 0.149136
O O5 0.637556 0.347007 0.623656
O O6 0.770451 0.136897 0.642134
O O7 0.500000 0.000000 0.500000
O O8 0.706701 0.353771 0.916038
O O9 0.228706 0.358694 0.640890
O O10 0.163950 0.529566 0.520791
O O11 0.331003 0.395623 0.439590
O O12 0.094186 0.085474 0.222394
O O13 0.073730 0.692286 0.389458
O O14 0.104192 0.875196 0.748116
O O15 0.011011 0.134215 0.742027
O O16 0.165539 0.272389 0.099563
O O17 0.000000 0.500000 0.000000
#
# Coordination Sequence:
#
# PCOD9033217 Si02
#       8
#     2   2   2   2   2   2   2   2
#     4   9  21  45  68  91 132 181 230 276 332 407
#     4  11  23  44  70  98 135 179 224 281 336 405
#     4  10  23  41  69  98 133 175 231 277 339 409
#     4  12  24  41  65 101 141 176 223 279 354 401
#     4  11  23  41  66  95 136 180 222 285 343 394
#     4  11  24  42  66  97 139 179 226 279 339 409
#     4  10  22  44  66  97 135 177 219 285 340 401
#     4  12  23  41  71 101 131 179 239 281 329 405
#
# _framework density 24.498343999999999
#
# number of rings (size 3 to 8) (size 9 to 14) (size 15 to 20)
#    0.000    1.250    2.500    2.625    1.750    3.000 
#    6.750    0.000    0.000    0.000    0.000    0.000 
#    0.000    0.000    0.000    0.000    0.000    0.000 
#
# Total GULP energy -89464.027768 kJ/mol
# GULP energy per Si atom -5591.501736 kJ/mol
# Density = 2.444258 g / cm^3
# Si number density = 24.498344 Si / 1000 Ang^3
#
#
#
# Elastic Constant Matrix: (Units=GPa)
#
#
# Indices 1 2 3 4 5 6 
#
# 1 39.6523 -4.4187 12.0725 -2.8221 -0.3013 21.0641
# 2 -4.4187 46.6407 26.0132 12.1529 9.3170 23.7888
# 3 12.0725 26.0132 97.7313 2.6538 11.0215 12.4432
# 4 -2.8221 12.1529 2.6538 44.9235 12.2536 2.0470
# 5 -0.3013 9.3170 11.0215 12.2536 47.8546 5.2305
# 6 21.0641 23.7888 12.4432 2.0470 5.2305 31.8100
#
#
#
# Elastic Compliance Matrix: (Units=1/GPa)
#
#
# Indices 1 2 3 4 5 6 
#
# 1 0.121924 0.102973 -0.023861 -0.013641 0.005939 -0.148509
# 2 0.102973 0.129609 -0.027529 -0.021040 0.003934 -0.153638
# 3 -0.023861 -0.027529 0.016917 0.004427 -0.003099 0.029995
# 4 -0.013641 -0.021040 0.004427 0.027593 -0.006515 0.022331
# 5 0.005939 0.003934 -0.003099 -0.006515 0.023546 -0.009116
# 6 -0.148509 -0.153638 0.029995 0.022331 -0.009116 0.233003
#
#
# Mechanical properties :
#
#
# Convention : Reuss Voigt Hill
#
# Bulk Modulus (GPa) = 2.69095 27.92870 15.30982
# Shear Modulus (GPa) = 8.72147 34.94142 21.83145
#
# Velocity S-wave (km/s) = 1.88885 3.78071 2.98843
# Velocity P-wave (km/s) = 2.42029 5.52117 4.26269
#
# Compressibility (1/GPa) = 0.37161647
#
# Stress axis : x y z
#
# Youngs Moduli (GPa) = 8.20183 7.71553 59.11093
#
# Poissons Ratio (x) = -0.79449 1.41042
# Poissons Ratio (y) = -0.84457 1.62727
# Poissons Ratio (z) = 0.19570 0.21240
#
# Static dielectric constant tensor:
#      x y z
#    x 1.981620 0.054730 0.022610 
#    y 0.054730 1.923560 -0.040100 
#    z 0.022610 -0.040100 1.990890 
# 
# From -- ./inp_files/299738.got.cif
#   From: 2010.05.17/outbox.cif.g08.bks.cpg/sg2_150_cif.got.tgz:299738.got - 2010.06.03 11:33:40.
