data_PCOD9033538
_publ_section_title
;
Structure prediction by ZEFSAII (Michael W. Deem and Ramdas Pophale) SiO2 
 PCOD9033538
Probable space group: P -1
;
_chemical_formula_sum "Si O2"
_cell_formula_units_Z 16
_cell_length_a 8.759538
_cell_length_b 17.181323
_cell_length_c 9.993062
_cell_angle_alpha 124.026993
_cell_angle_beta 38.209904
_cell_angle_gamma 134.294614
_cell_volume 665.645459
_symmetry_space_group_name_H-M "P -1"
_symmetry_group_IT_number 2
_symmetry_cell_setting 'triclinic'
loop_
_space_group_symop_operation_xyz
x,y,z
-x,-y,-z
loop_
_atom_site_type_symbol
_atom_site_label
_atom_site_fract_x
_atom_site_fract_y
_atom_site_fract_z
Si Si1 0.915659 0.956729 0.866597
Si Si2 0.779905 0.263929 0.228065
Si Si3 0.317829 0.751663 0.009492
Si Si4 0.504499 0.433419 0.302046
Si Si5 0.218859 0.078973 0.535698
Si Si6 0.858969 0.309936 0.641659
Si Si7 0.257891 0.857882 0.629730
Si Si8 0.250303 0.494379 0.077190
O O1 0.596598 0.864788 0.965737
O O2 0.090293 0.892910 0.682049
O O3 0.027701 0.052780 0.774236
O O4 0.000000 0.000000 0.000000
O O5 0.801431 0.231808 0.031077
O O6 0.440767 0.198954 0.439399
O O7 0.916830 0.222394 0.205591
O O8 0.951200 0.393371 0.234641
O O9 0.394848 0.655932 0.834869
O O10 0.126857 0.719020 0.241876
O O11 0.500000 0.500000 0.500000
O O12 0.175699 0.364792 0.416874
O O13 0.691796 0.511471 0.126509
O O14 0.465536 0.052982 0.393881
O O15 0.000000 0.000000 0.500000
O O16 0.651410 0.208801 0.595318
O O17 0.756188 0.396034 0.796229
O O18 0.500000 0.500000 0.000000
#
# Coordination Sequence:
#
# PCOD9033538 Si02
#       8
#     2   2   2   2   2   2   2   2
#     4  12  23  44  70  99 134 183 230 290 341 401
#     4  10  23  43  67  98 140 175 226 280 337 411
#     4  11  23  42  69 102 139 176 233 280 340 411
#     4  11  23  41  67  99 139 182 224 274 347 407
#     4  10  22  44  68  95 135 176 227 284 341 399
#     4  11  23  42  69 102 137 181 227 281 335 418
#     4  10  23  43  69  98 132 179 230 276 347 407
#     4  11  25  43  68 103 144 180 226 278 340 410
#
# _framework density 24.036819000000001
#
# number of rings (size 3 to 8) (size 9 to 14) (size 15 to 20)
#    0.750    0.500    2.500    3.375    1.750    5.000 
#    0.000    5.000    0.000    0.000    0.000    0.000 
#    0.000    0.000    0.000    0.000    0.000    0.000 
#
# Total GULP energy -89286.791442 kJ/mol
# GULP energy per Si atom -5580.424465 kJ/mol
# Density = 2.398211 g / cm^3
# Si number density = 24.036819 Si / 1000 Ang^3
#
#
#
# Elastic Constant Matrix: (Units=GPa)
#
#
# Indices 1 2 3 4 5 6 
#
# 1 80.0455 27.3082 23.4374 2.0266 25.9939 12.5617
# 2 27.3082 108.7459 63.4180 -16.9096 21.3198 14.0000
# 3 23.4374 63.4180 95.4846 -14.7745 32.0157 -7.4382
# 4 2.0266 -16.9096 -14.7745 39.4727 0.8785 7.7807
# 5 25.9939 21.3198 32.0157 0.8785 42.1266 -5.3121
# 6 12.5617 14.0000 -7.4382 7.7807 -5.3121 37.0324
#
#
#
# Elastic Compliance Matrix: (Units=1/GPa)
#
#
# Indices 1 2 3 4 5 6 
#
# 1 0.017689 -0.001013 -0.000565 0.000133 -0.010899 -0.007322
# 2 -0.001013 0.018814 -0.011665 0.005859 -0.001485 -0.010556
# 3 -0.000565 -0.011665 0.022673 0.002321 -0.010117 0.007216
# 4 0.000133 0.005859 0.002321 0.030663 -0.006608 -0.009184
# 5 -0.010899 -0.001485 -0.010117 -0.006608 0.040225 0.009385
# 6 -0.007322 -0.010556 0.007216 -0.009184 0.009385 0.038203
#
#
# Mechanical properties :
#
#
# Convention : Reuss Voigt Hill
#
# Bulk Modulus (GPa) = 30.58967 56.95592 43.77280
# Shear Modulus (GPa) = 24.31336 35.06717 29.69026
#
# Velocity S-wave (km/s) = 3.18387 3.82369 3.51835
# Velocity P-wave (km/s) = 5.12541 6.57578 5.89537
#
# Compressibility (1/GPa) = 0.03269078
#
# Stress axis : x y z
#
# Youngs Moduli (GPa) = 56.53289 53.15210 44.10614
#
# Poissons Ratio (x) = 0.05382 0.02491
# Poissons Ratio (y) = 0.05725 0.51450
# Poissons Ratio (z) = 0.03192 0.62002
#
# Static dielectric constant tensor:
#      x y z
#    x 2.331410 -0.557990 -0.338450 
#    y -0.557990 2.717670 0.432470 
#    z -0.338450 0.432470 2.259170 
# 
# From -- ./inp_files/215343.got.cif
#   From: 2010.05.17/outbox.cif.g08.bks.cpg/sg2_108_cif.got.tgz:215343.got - 2010.06.03 11:33:40.
