data_PCOD9033340
_publ_section_title
;
Structure prediction by ZEFSAII (Michael W. Deem and Ramdas Pophale) SiO2 
 PCOD9033340
Probable space group: P -1
;
_chemical_formula_sum "Si O2"
_cell_formula_units_Z 16
_cell_length_a 9.232873
_cell_length_b 17.408087
_cell_length_c 11.780635
_cell_angle_alpha 34.010309
_cell_angle_beta 126.016729
_cell_angle_gamma 113.446780
_cell_volume 839.699370
_symmetry_space_group_name_H-M "P -1"
_symmetry_group_IT_number 2
_symmetry_cell_setting 'triclinic'
loop_
_space_group_symop_operation_xyz
x,y,z
-x,-y,-z
loop_
_atom_site_type_symbol
_atom_site_label
_atom_site_fract_x
_atom_site_fract_y
_atom_site_fract_z
Si Si1 0.212686 0.933698 0.699947
Si Si2 0.609059 0.122415 0.908541
Si Si3 0.605731 0.382563 0.870104
Si Si4 0.593272 0.594345 0.009202
Si Si5 0.177039 0.876547 0.226520
Si Si6 0.039198 0.582671 0.532896
Si Si7 0.487575 0.090321 0.499270
Si Si8 0.678806 0.609668 0.475151
O O1 0.346023 0.029676 0.589712
O O2 0.257790 0.909083 0.883770
O O3 0.279523 0.775644 0.876948
O O4 0.000000 0.000000 0.500000
O O5 0.721894 0.124188 0.845300
O O6 0.454504 0.261185 0.684748
O O7 0.500000 0.000000 0.000000
O O8 0.507505 0.411608 0.909372
O O9 0.722043 0.488205 0.739019
O O10 0.443710 0.408436 0.669850
O O11 0.804570 0.528241 0.199376
O O12 0.500000 0.500000 0.000000
O O13 0.576182 0.749943 0.763869
O O14 0.118519 0.725236 0.385198
O O15 0.320817 0.908753 0.348593
O O16 0.000000 0.000000 0.000000
O O17 0.000000 0.500000 0.500000
O O18 0.864586 0.625663 0.480908
O O19 0.500000 0.000000 0.500000
#
# Coordination Sequence:
#
# PCOD9033340 Si02
#       8
#     2   2   2   2   2   2   2   2
#     4  11  26  43  69 101 135 184 235 282 351 419
#     4  11  23  45  71  96 140 181 225 293 347 408
#     4  10  22  44  67  95 136 177 229 284 345 406
#     4  12  25  45  68 100 145 183 228 284 356 412
#     4  12  28  46  73 108 139 183 241 288 346 422
#     4  12  26  43  73 107 137 181 238 287 342 421
#     4  12  27  48  70  98 146 191 227 292 354 414
#     4  10  23  42  70  99 130 178 231 286 342 405
#
# _framework density 19.054438999999999
#
# number of rings (size 3 to 8) (size 9 to 14) (size 15 to 20)
#    0.000    0.750    5.000    1.500   10.500    0.000 
#    2.250    0.625    0.000    0.000    0.000    0.000 
#    0.000    0.000    0.000    0.000    0.000    0.000 
#
# Total GULP energy -89259.285333 kJ/mol
# GULP energy per Si atom -5578.705333 kJ/mol
# Density = 1.901107 g / cm^3
# Si number density = 19.054439 Si / 1000 Ang^3
#
#
#
# Elastic Constant Matrix: (Units=GPa)
#
#
# Indices 1 2 3 4 5 6 
#
# 1 165.9403 58.1517 76.5615 -0.9006 -5.1345 0.8386
# 2 58.1517 112.9293 67.4404 -9.9483 10.4282 -2.9607
# 3 76.5615 67.4404 156.0619 -11.2610 8.1850 6.0297
# 4 -0.9006 -9.9483 -11.2610 29.8849 16.4478 -2.5999
# 5 -5.1345 10.4282 8.1850 16.4478 35.1085 -0.3958
# 6 0.8386 -2.9607 6.0297 -2.5999 -0.3958 38.2169
#
#
#
# Elastic Compliance Matrix: (Units=1/GPa)
#
#
# Indices 1 2 3 4 5 6 
#
# 1 0.009086 -0.003540 -0.003617 -0.005470 0.005784 -0.000215
# 2 -0.003540 0.014209 -0.003552 0.007562 -0.007428 0.002176
# 3 -0.003617 -0.003552 0.010335 0.004735 -0.004119 -0.001547
# 4 -0.005470 0.007562 0.004735 0.054101 -0.029458 0.003334
# 5 0.005784 -0.007428 -0.004119 -0.029458 0.046278 -0.001577
# 6 -0.000215 0.002176 -0.001547 0.003334 -0.001577 0.026794
#
#
# Mechanical properties :
#
#
# Convention : Reuss Voigt Hill
#
# Bulk Modulus (GPa) = 81.89852 93.24872 87.57362
# Shear Modulus (GPa) = 26.83939 36.16061 31.50000
#
# Velocity S-wave (km/s) = 3.75716 4.36105 4.07032
# Velocity P-wave (km/s) = 7.86742 8.62569 8.25527
#
# Compressibility (1/GPa) = 0.01221023
#
# Stress axis : x y z
#
# Youngs Moduli (GPa) = 110.05687 70.38025 96.75947
#
# Poissons Ratio (x) = 0.24915 0.35002
# Poissons Ratio (y) = 0.38961 0.34371
# Poissons Ratio (z) = 0.39812 0.25000
#
# Static dielectric constant tensor:
#      x y z
#    x 1.663640 0.020150 -0.019320 
#    y 0.020150 1.744760 -0.027460 
#    z -0.019320 -0.027460 1.653710 
# 
# From -- ./inp_files/333857.got.cif
#   From: 2010.05.17/outbox.cif.g08.bks.cpg/sg2_167_cif.got.tgz:333857.got - 2010.06.03 11:33:40.
