data_PCOD9033865
_publ_section_title
;
Structure prediction by ZEFSAII (Michael W. Deem and Ramdas Pophale) SiO2 
 PCOD9033865
Probable space group: P -1
;
_chemical_formula_sum "Si O2"
_cell_formula_units_Z 15
_cell_length_a 8.081039
_cell_length_b 14.604765
_cell_length_c 6.561528
_cell_angle_alpha 97.192196
_cell_angle_beta 77.671330
_cell_angle_gamma 65.192839
_cell_volume 666.286817
_symmetry_space_group_name_H-M "P -1"
_symmetry_group_IT_number 2
_symmetry_cell_setting 'triclinic'
loop_
_space_group_symop_operation_xyz
x,y,z
-x,-y,-z
loop_
_atom_site_type_symbol
_atom_site_label
_atom_site_fract_x
_atom_site_fract_y
_atom_site_fract_z
Si Si1 0.497488 0.640252 0.398109
Si Si2 0.860762 0.062849 0.865605
Si Si3 0.908901 0.882348 0.493998
Si Si4 0.264180 0.522805 0.361813
Si Si5 0.891806 0.702615 0.664081
Si Si6 0.550034 0.177665 0.297880
Si Si7 0.500000 0.000000 0.500000
Si Si8 0.185479 0.400058 0.002176
O O1 0.365517 0.595947 0.315041
O O2 0.628663 0.549307 0.494938
O O3 0.382665 0.748589 0.577467
O O4 0.647042 0.654510 0.217855
O O5 0.939997 0.123223 0.714927
O O6 0.848597 0.979891 0.690827
O O7 0.662209 0.137931 0.045156
O O8 0.000000 0.000000 0.000000
O O9 0.960168 0.785580 0.600863
O O10 0.716581 0.905876 0.431252
O O11 0.274645 0.446851 0.158663
O O12 0.042565 0.596372 0.491194
O O13 0.673248 0.749884 0.665459
O O14 0.884544 0.676442 0.895108
O O15 0.579476 0.076401 0.387772
O O16 0.000000 0.500000 0.000000
#
# Coordination Sequence:
#
# PCOD9033865 Si02
#       8
#     2   2   2   2   2   2   1   2
#     4  11  25  44  72  99 142 183 228 285 344 413
#     4  11  24  48  71  99 142 182 230 285 346 412
#     4  10  25  46  72 101 137 183 225 293 342 410
#     4  11  24  47  66 103 144 176 235 286 337 410
#     4  11  24  44  69 104 137 178 233 279 342 413
#     4  11  24  44  72 104 136 185 228 284 345 413
#     4  10  22  44  70 104 138 170 234 282 344 402
#     4  12  23  44  72  97 141 189 223 285 342 399
#
# _framework density 22.512827000000001
#
# number of rings (size 3 to 8) (size 9 to 14) (size 15 to 20)
#    0.000    1.067    4.000    1.600    1.867    5.333 
#    7.200    0.000    0.000    0.000    0.000    0.000 
#    0.000    0.000    0.000    0.000    0.000    0.000 
#
# Total GULP energy -83594.291254 kJ/mol
# GULP energy per Si atom -5572.952750 kJ/mol
# Density = 2.246159 g / cm^3
# Si number density = 22.512827 Si / 1000 Ang^3
#
#
#
# Elastic Constant Matrix: (Units=GPa)
#
#
# Indices 1 2 3 4 5 6 
#
# 1 65.8954 30.6311 37.2788 1.1174 -23.5536 -1.1011
# 2 30.6311 119.4608 51.5041 -25.6785 -26.0170 20.3971
# 3 37.2788 51.5041 125.6285 0.7904 -29.1853 17.6135
# 4 1.1174 -25.6785 0.7904 37.5380 3.1135 -8.9168
# 5 -23.5536 -26.0170 -29.1853 3.1135 26.5381 -12.9391
# 6 -1.1011 20.3971 17.6135 -8.9168 -12.9391 36.9566
#
#
#
# Elastic Compliance Matrix: (Units=1/GPa)
#
#
# Indices 1 2 3 4 5 6 
#
# 1 0.026850 -0.002860 -0.002900 -0.001905 0.023720 0.011605
# 2 -0.002860 0.013990 -0.003391 0.008759 0.005345 -0.002206
# 3 -0.002900 -0.003391 0.012131 -0.003646 0.006624 -0.002557
# 4 -0.001905 0.008759 -0.003646 0.033963 0.001640 0.005615
# 5 0.023720 0.005345 0.006624 0.001640 0.082752 0.023968
# 6 0.011605 -0.002206 -0.002557 0.005615 0.023968 0.039587
#
#
# Mechanical properties :
#
#
# Convention : Reuss Voigt Hill
#
# Bulk Modulus (GPa) = 28.84360 61.09027 44.96694
# Shear Modulus (GPa) = 20.90919 32.97792 26.94356
#
# Velocity S-wave (km/s) = 3.05088 3.83149 3.46325
# Velocity P-wave (km/s) = 5.02497 6.83874 6.00078
#
# Compressibility (1/GPa) = 0.03466974
#
# Stress axis : x y z
#
# Youngs Moduli (GPa) = 37.24409 71.48200 82.43397
#
# Poissons Ratio (x) = 0.20441 0.23903
# Poissons Ratio (y) = 0.10650 0.27954
# Poissons Ratio (z) = 0.10800 0.24240
#
# Static dielectric constant tensor:
#      x y z
#    x 1.884900 0.014050 0.010150 
#    y 0.014050 1.837030 -0.038480 
#    z 0.010150 -0.038480 1.837030 
# 
# From -- ./inp_files/38429.got.cif
#   From: 2010.05.17/outbox.cif.g08.bks.cpg/sg2_20_cif.got.tgz:38429.got - 2010.06.03 11:33:40.
