data_PCOD9033201
_publ_section_title
;
Structure prediction by ZEFSAII (Michael W. Deem and Ramdas Pophale) SiO2 
 PCOD9033201
Probable space group: P -1
;
_chemical_formula_sum "Si O2"
_cell_formula_units_Z 16
_cell_length_a 17.772364
_cell_length_b 8.644416
_cell_length_c 14.100705
_cell_angle_alpha 137.473411
_cell_angle_beta 42.309856
_cell_angle_gamma 149.561507
_cell_volume 706.698989
_symmetry_space_group_name_H-M "P -1"
_symmetry_group_IT_number 2
_symmetry_cell_setting 'triclinic'
loop_
_space_group_symop_operation_xyz
x,y,z
-x,-y,-z
loop_
_atom_site_type_symbol
_atom_site_label
_atom_site_fract_x
_atom_site_fract_y
_atom_site_fract_z
Si Si1 0.406915 0.173667 0.749355
Si Si2 0.682629 0.212380 0.532322
Si Si3 0.387543 0.697204 0.035547
Si Si4 0.853126 0.134335 0.442304
Si Si5 0.970729 0.719956 0.849367
Si Si6 0.000812 0.067076 0.420339
Si Si7 0.929929 0.330582 0.887265
Si Si8 0.401832 0.124586 0.932456
O O1 0.572309 0.277985 0.658667
O O2 0.398311 0.439553 0.878750
O O3 0.327147 0.978197 0.833186
O O4 0.341088 0.962439 0.621576
O O5 0.690515 0.028996 0.524059
O O6 0.852755 0.556228 0.544745
O O7 0.210495 0.530165 0.125683
O O8 0.464028 0.838752 0.131915
O O9 0.500000 0.000000 0.000000
O O10 0.000000 0.500000 0.500000
O O11 0.916483 0.127922 0.278801
O O12 0.853549 0.964745 0.455847
O O13 0.988087 0.550847 0.838901
O O14 0.000000 0.000000 0.000000
O O15 0.037733 0.889817 0.250986
O O16 0.000000 0.000000 0.500000
O O17 0.000000 0.500000 0.000000
O O18 0.741906 0.084572 0.956442
O O19 0.500000 0.500000 0.000000
#
# Coordination Sequence:
#
# PCOD9033201 Si02
#       8
#     2   2   2   2   2   2   2   2
#     4  10  23  41  70  94 135 185 228 287 343 425
#     4  10  22  44  66  96 133 183 236 271 353 423
#     4  11  23  43  67  99 139 177 233 290 351 415
#     4  10  23  41  66  95 130 179 223 280 345 411
#     4  12  26  43  69 102 138 184 233 296 348 413
#     4  11  24  42  67  99 135 176 228 288 350 420
#     4  12  26  41  67 105 143 179 236 294 351 415
#     4  10  23  40  66  96 133 183 227 280 355 408
#
# _framework density 22.640474999999999
#
# number of rings (size 3 to 8) (size 9 to 14) (size 15 to 20)
#    0.000    1.250    1.250    4.500   14.000    0.000 
#    0.000    0.000    0.000    3.000    0.000    0.000 
#    0.000    0.000    0.000    0.000    0.000    0.000 
#
# Total GULP energy -89139.714595 kJ/mol
# GULP energy per Si atom -5571.232162 kJ/mol
# Density = 2.258894 g / cm^3
# Si number density = 22.640475 Si / 1000 Ang^3
#
#
#
# Elastic Constant Matrix: (Units=GPa)
#
#
# Indices 1 2 3 4 5 6 
#
# 1 192.1385 19.7545 29.9595 -1.7106 -5.6296 10.0465
# 2 19.7545 38.3126 -0.0508 -4.0287 -2.3717 2.3319
# 3 29.9595 -0.0508 97.2473 12.5429 8.8603 6.6002
# 4 -1.7106 -4.0287 12.5429 28.7031 5.8170 2.4141
# 5 -5.6296 -2.3717 8.8603 5.8170 32.8559 -7.3016
# 6 10.0465 2.3319 6.6002 2.4141 -7.3016 31.6132
#
#
#
# Elastic Compliance Matrix: (Units=1/GPa)
#
#
# Indices 1 2 3 4 5 6 
#
# 1 0.005887 -0.002840 -0.001917 0.000688 0.000956 -0.001093
# 2 -0.002840 0.028059 0.000483 0.003587 0.000454 -0.001437
# 3 -0.001917 0.000483 0.011893 -0.004392 -0.003239 -0.002322
# 4 0.000688 0.003587 -0.004392 0.038895 -0.006207 -0.003970
# 5 0.000956 0.000454 -0.003239 -0.006207 0.034560 0.008795
# 6 -0.001093 -0.001437 -0.002322 -0.003970 0.008795 0.034905
#
#
# Mechanical properties :
#
#
# Convention : Reuss Voigt Hill
#
# Bulk Modulus (GPa) = 26.81570 47.44721 37.13146
# Shear Modulus (GPa) = 28.54281 37.17009 32.85645
#
# Velocity S-wave (km/s) = 3.55448 4.05625 3.81363
# Velocity P-wave (km/s) = 5.35870 6.55285 5.98563
#
# Compressibility (1/GPa) = 0.03729158
#
# Stress axis : x y z
#
# Youngs Moduli (GPa) = 169.87489 35.63962 84.08306
#
# Poissons Ratio (x) = 0.10121 0.16116
# Poissons Ratio (y) = 0.48240 -0.04062
# Poissons Ratio (z) = 0.32560 -0.01722
#
# Static dielectric constant tensor:
#      x y z
#    x 2.223040 -0.170900 0.000840 
#    y -0.170900 1.936320 -0.034710 
#    z 0.000840 -0.034710 1.908690 
# 
# From -- ./inp_files/537681.got.cif
#   From: 2010.05.17/outbox.cif.g08.bks.cpg/sg2_269_cif.got.tgz:537681.got - 2010.06.03 11:33:40.
