data_PCOD9033006
_publ_section_title
;
Structure prediction by ZEFSAII (Michael W. Deem and Ramdas Pophale) SiO2 
 PCOD9033006
Probable space group: P -1
;
_chemical_formula_sum "Si O2"
_cell_formula_units_Z 16
_cell_length_a 21.773256
_cell_length_b 5.888490
_cell_length_c 9.861057
_cell_angle_alpha 50.083718
_cell_angle_beta 134.187909
_cell_angle_gamma 114.735999
_cell_volume 694.374406
_symmetry_space_group_name_H-M "P -1"
_symmetry_group_IT_number 2
_symmetry_cell_setting 'triclinic'
loop_
_space_group_symop_operation_xyz
x,y,z
-x,-y,-z
loop_
_atom_site_type_symbol
_atom_site_label
_atom_site_fract_x
_atom_site_fract_y
_atom_site_fract_z
Si Si1 0.066408 0.301974 0.589274
Si Si2 0.789300 0.591855 0.687600
Si Si3 0.472237 0.602771 0.116643
Si Si4 0.764683 0.656161 0.321807
Si Si5 0.633069 0.269280 0.553142
Si Si6 0.651946 0.078673 0.389212
Si Si7 0.959510 0.358938 0.126244
Si Si8 0.404868 0.972613 0.134229
O O1 0.164639 0.369535 0.678641
O O2 0.000000 0.500000 0.500000
O O3 0.021363 0.340924 0.357270
O O4 0.066860 0.981901 0.785866
O O5 0.809923 0.673699 0.532478
O O6 0.734243 0.301238 0.710390
O O7 0.716448 0.823822 0.536038
O O8 0.870319 0.554909 0.923545
O O9 0.575120 0.544310 0.295439
O O10 0.440814 0.284491 0.132069
O O11 0.439504 0.752580 0.150583
O O12 0.432507 0.835685 0.858071
O O13 0.709146 0.366706 0.356313
O O14 0.694259 0.926512 0.092943
O O15 0.624898 0.016769 0.525186
O O16 0.592561 0.221865 0.652249
O O17 0.000000 0.500000 0.000000
#
# Coordination Sequence:
#
# PCOD9033006 Si02
#       8
#     2   2   2   2   2   2   2   2
#     4  11  26  45  73 106 138 184 234 298 367 430
#     4  11  23  43  68  94 138 182 229 294 361 428
#     4  11  24  44  68  98 141 189 241 297 366 429
#     4  10  22  44  64  97 139 176 237 288 362 437
#     4  11  25  40  65 100 135 177 242 297 354 433
#     4  10  24  41  67  98 130 192 228 294 361 426
#     4  11  25  45  71 103 138 180 234 295 357 441
#     4  11  24  43  68 100 139 190 235 302 365 430
#
# _framework density 23.042323
#
# number of rings (size 3 to 8) (size 9 to 14) (size 15 to 20)
#    0.000    1.250    2.500    1.875    5.250    4.000 
#    2.250    0.000    0.000    0.000    0.000    0.000 
#    0.000    0.000    0.000    0.000    0.000    0.000 
#
# Total GULP energy -89169.452926 kJ/mol
# GULP energy per Si atom -5573.090808 kJ/mol
# Density = 2.298988 g / cm^3
# Si number density = 23.042323 Si / 1000 Ang^3
#
#
#
# Elastic Constant Matrix: (Units=GPa)
#
#
# Indices 1 2 3 4 5 6 
#
# 1 140.2552 46.1696 32.9883 8.8083 -0.1427 -26.2321
# 2 46.1696 56.0270 22.8609 2.5829 -6.8228 -18.9393
# 3 32.9883 22.8609 100.5316 -2.4910 10.9182 6.0902
# 4 8.8083 2.5829 -2.4910 19.0907 -7.2294 2.2397
# 5 -0.1427 -6.8228 10.9182 -7.2294 52.2978 3.8920
# 6 -26.2321 -18.9393 6.0902 2.2397 3.8920 33.0310
#
#
#
# Elastic Compliance Matrix: (Units=1/GPa)
#
#
# Indices 1 2 3 4 5 6 
#
# 1 0.011366 -0.005817 -0.002809 -0.006191 -0.001504 0.006806
# 2 -0.005817 0.030445 -0.006330 -0.002381 0.003929 0.013703
# 3 -0.002809 -0.006330 0.013170 0.003923 -0.002425 -0.008269
# 4 -0.006191 -0.002381 0.003923 0.060565 0.008124 -0.012070
# 5 -0.001504 0.003929 -0.002425 0.008124 0.021375 -0.001564
# 6 0.006806 0.013703 -0.008269 -0.012070 -0.001564 0.046064
#
#
# Mechanical properties :
#
#
# Convention : Reuss Voigt Hill
#
# Bulk Modulus (GPa) = 39.89105 55.65015 47.77060
# Shear Modulus (GPa) = 22.59856 33.87023 28.23439
#
# Velocity S-wave (km/s) = 3.13508 3.83810 3.50427
# Velocity P-wave (km/s) = 5.51857 6.62156 6.09507
#
# Compressibility (1/GPa) = 0.02506828
#
# Stress axis : x y z
#
# Youngs Moduli (GPa) = 87.98513 32.84597 75.93025
#
# Poissons Ratio (x) = 0.19105 0.21330
# Poissons Ratio (y) = 0.51178 0.48067
# Poissons Ratio (z) = 0.24716 0.20793
#
# Static dielectric constant tensor:
#      x y z
#    x 1.910930 0.058210 -0.005250 
#    y 0.058210 2.014740 0.059700 
#    z -0.005250 0.059700 1.860000 
# 
# From -- ./inp_files/340179.got.cif
#   From: 2010.05.17/outbox.cif.g08.bks.cpg/sg2_171_cif.got.tgz:340179.got - 2010.06.03 11:33:40.
