data_PCOD9033003
_publ_section_title
;
Structure prediction by ZEFSAII (Michael W. Deem and Ramdas Pophale) SiO2 
 PCOD9033003
Probable space group: P -1
;
_chemical_formula_sum "Si O2"
_cell_formula_units_Z 15
_cell_length_a 16.689009
_cell_length_b 5.544967
_cell_length_c 8.649813
_cell_angle_alpha 51.996949
_cell_angle_beta 103.938947
_cell_angle_gamma 101.018175
_cell_volume 611.206860
_symmetry_space_group_name_H-M "P -1"
_symmetry_group_IT_number 2
_symmetry_cell_setting 'triclinic'
loop_
_space_group_symop_operation_xyz
x,y,z
-x,-y,-z
loop_
_atom_site_type_symbol
_atom_site_label
_atom_site_fract_x
_atom_site_fract_y
_atom_site_fract_z
Si Si1 0.228696 0.132217 0.248048
Si Si2 0.243412 0.739428 0.887202
Si Si3 0.000000 0.500000 0.500000
Si Si4 0.363150 0.123060 0.565633
Si Si5 0.319041 0.770791 0.250940
Si Si6 0.924695 0.040884 0.175675
Si Si7 0.483545 0.135249 0.114124
Si Si8 0.918811 0.623591 0.724285
O O1 0.317246 0.117103 0.382055
O O2 0.160212 0.206212 0.311733
O O3 0.233796 0.815980 0.285430
O O4 0.222089 0.375920 0.008845
O O5 0.160922 0.919217 0.791661
O O6 0.305178 0.897410 0.732624
O O7 0.288388 0.729571 0.077553
O O8 0.068752 0.425860 0.430519
O O9 0.052476 0.296267 0.731435
O O10 0.359130 0.481195 0.461156
O O11 0.454389 0.021033 0.677028
O O12 0.390314 0.037425 0.156950
O O13 0.004604 0.147516 0.274426
O O14 0.922668 0.299853 0.940936
O O15 0.500000 0.500000 0.000000
O O16 0.500000 0.000000 0.000000
#
# Coordination Sequence:
#
# PCOD9033003 Si02
#       8
#     2   2   1   2   2   2   2   2
#     4  10  24  42  66  97 138 183 238 298 361 437
#     4  10  22  44  64  97 136 184 231 296 357 434
#     4  12  22  38  64  92 126 174 232 292 354 422
#     4  11  24  43  71 102 143 183 244 292 363 430
#     4  11  25  44  72 103 139 187 237 299 361 434
#     4  10  23  40  65  93 135 178 232 289 357 422
#     4  12  27  48  79 110 151 196 243 297 368 442
#     4  10  23  43  62  96 135 182 233 296 359 426
#
# _framework density 24.541608
#
# number of rings (size 3 to 8) (size 9 to 14) (size 15 to 20)
#    0.000    1.333    1.333    2.800    3.733    9.067 
#    0.000    0.000    0.000    0.000    0.000    0.000 
#    0.000    0.000    0.000    0.000    0.000    0.000 
#
# Total GULP energy -83537.028676 kJ/mol
# GULP energy per Si atom -5569.135245 kJ/mol
# Density = 2.448575 g / cm^3
# Si number density = 24.541608 Si / 1000 Ang^3
#
#
#
# Elastic Constant Matrix: (Units=GPa)
#
#
# Indices 1 2 3 4 5 6 
#
# 1 103.5651 32.1947 27.2497 3.3433 5.3499 -12.0924
# 2 32.1947 51.8185 33.5180 -5.0968 -6.1295 -20.4634
# 3 27.2497 33.5180 88.1763 -7.1491 16.0188 -20.9024
# 4 3.3433 -5.0968 -7.1491 38.1669 -15.9362 -0.0144
# 5 5.3499 -6.1295 16.0188 -15.9362 54.6675 3.1998
# 6 -12.0924 -20.4634 -20.9024 -0.0144 3.1998 41.7057
#
#
#
# Elastic Compliance Matrix: (Units=1/GPa)
#
#
# Indices 1 2 3 4 5 6 
#
# 1 0.012627 -0.008385 -0.000578 -0.003597 -0.003025 -0.000512
# 2 -0.008385 0.036910 -0.010236 0.007780 0.009652 0.009811
# 3 -0.000578 -0.010236 0.017538 -0.000833 -0.006714 0.004115
# 4 -0.003597 0.007780 -0.000833 0.031852 0.010663 0.001550
# 5 -0.003025 0.009652 -0.006714 0.010663 0.024829 -0.001407
# 6 -0.000512 0.009811 0.004115 0.001550 -0.001407 0.030814
#
#
# Mechanical properties :
#
#
# Convention : Reuss Voigt Hill
#
# Bulk Modulus (GPa) = 34.87175 47.72051 41.29613
# Shear Modulus (GPa) = 24.68800 36.94784 30.81792
#
# Velocity S-wave (km/s) = 3.17514 3.88431 3.54749
# Velocity P-wave (km/s) = 5.26138 6.29318 5.80027
#
# Compressibility (1/GPa) = 0.02867651
#
# Stress axis : x y z
#
# Youngs Moduli (GPa) = 79.19437 27.09274 57.01834
#
# Poissons Ratio (x) = 0.22717 0.03298
# Poissons Ratio (y) = 0.66404 0.58365
# Poissons Ratio (z) = 0.04581 0.27733
#
# Static dielectric constant tensor:
#      x y z
#    x 1.913780 0.060120 -0.011650 
#    y 0.060120 2.302620 -0.087190 
#    z -0.011650 -0.087190 1.979050 
# 
# From -- ./inp_files/106010.got.cif
#   From: 2010.05.17/outbox.cif.g08.bks.cpg/sg2_54_cif.got.tgz:106010.got - 2010.06.03 11:33:40.
