data_PCOD9033009
_publ_section_title
;
Structure prediction by ZEFSAII (Michael W. Deem and Ramdas Pophale) SiO2 
 PCOD9033009
Probable space group: P -1
;
_chemical_formula_sum "Si O2"
_cell_formula_units_Z 15
_cell_length_a 8.471253
_cell_length_b 8.684702
_cell_length_c 13.567921
_cell_angle_alpha 42.300798
_cell_angle_beta 119.483224
_cell_angle_gamma 111.323476
_cell_volume 584.809295
_symmetry_space_group_name_H-M "P -1"
_symmetry_group_IT_number 2
_symmetry_cell_setting 'triclinic'
loop_
_space_group_symop_operation_xyz
x,y,z
-x,-y,-z
loop_
_atom_site_type_symbol
_atom_site_label
_atom_site_fract_x
_atom_site_fract_y
_atom_site_fract_z
Si Si1 0.398020 0.057889 0.043819
Si Si2 0.280618 0.063990 0.659555
Si Si3 0.022963 0.698859 0.774379
Si Si4 0.875829 0.540063 0.281503
Si Si5 0.257384 0.337229 0.135547
Si Si6 0.789377 0.152592 0.743398
Si Si7 0.500000 0.500000 0.500000
Si Si8 0.380121 0.826583 0.607846
O O1 0.560975 0.065131 0.169063
O O2 0.259866 0.872680 0.140971
O O3 0.276645 0.280981 0.887550
O O4 0.500000 0.000000 0.000000
O O5 0.328527 0.328202 0.557936
O O6 0.090715 0.958580 0.686498
O O7 0.285560 0.979708 0.588980
O O8 0.034838 0.600029 0.715321
O O9 0.831390 0.661095 0.784383
O O10 0.168014 0.543888 0.951899
O O11 0.766801 0.347172 0.400046
O O12 0.032001 0.704554 0.291339
O O13 0.471525 0.332838 0.215926
O O14 0.201297 0.101247 0.176559
O O15 0.608881 0.281053 0.592058
O O16 0.500000 0.000000 0.500000
#
# Coordination Sequence:
#
# PCOD9033009 Si02
#       8
#     2   2   2   2   2   2   1   2
#     4  11  23  39  71 105 140 175 227 286 353 408
#     4  10  22  44  64  98 139 181 226 285 340 413
#     4  10  23  40  74 100 137 179 228 286 358 406
#     4  11  24  43  68 105 140 175 234 295 344 409
#     4  11  22  44  71 102 138 182 225 288 350 416
#     4  11  24  45  71 102 144 180 231 291 342 413
#     4  10  22  44  68  86 136 194 218 274 344 394
#     4  11  24  44  68  97 135 189 235 276 340 416
#
# _framework density 25.649387999999998
#
# number of rings (size 3 to 8) (size 9 to 14) (size 15 to 20)
#    0.000    1.333    4.000    1.200    1.867    8.533 
#    0.000    4.000    0.000    0.000    0.000    0.000 
#    0.000    0.000    0.000    0.000    0.000    0.000 
#
# Total GULP energy -83658.985724 kJ/mol
# GULP energy per Si atom -5577.265715 kJ/mol
# Density = 2.559101 g / cm^3
# Si number density = 25.649388 Si / 1000 Ang^3
#
#
#
# Elastic Constant Matrix: (Units=GPa)
#
#
# Indices 1 2 3 4 5 6 
#
# 1 76.9243 50.0196 30.9244 -13.5574 -15.6030 -3.6232
# 2 50.0196 104.7667 38.1651 -27.7607 -20.5582 21.3618
# 3 30.9244 38.1651 49.9428 -5.1035 7.7314 8.7754
# 4 -13.5574 -27.7607 -5.1035 39.7067 3.5895 -12.8805
# 5 -15.6030 -20.5582 7.7314 3.5895 43.1632 -4.3669
# 6 -3.6232 21.3618 8.7754 -12.8805 -4.3669 54.8486
#
#
#
# Elastic Compliance Matrix: (Units=1/GPa)
#
#
# Indices 1 2 3 4 5 6 
#
# 1 0.025223 -0.005604 -0.013685 0.004647 0.009310 0.007871
# 2 -0.005604 0.022549 -0.013606 0.009957 0.009934 -0.003846
# 3 -0.013685 -0.013606 0.041922 -0.009021 -0.018786 -0.005926
# 4 0.004647 0.009957 -0.009021 0.034104 0.005844 0.006346
# 5 0.009310 0.009934 -0.018786 0.005844 0.034536 0.003874
# 6 0.007871 -0.003846 -0.005926 0.006346 0.003874 0.022997
#
#
# Mechanical properties :
#
#
# Convention : Reuss Voigt Hill
#
# Bulk Modulus (GPa) = 41.83428 52.20577 47.02003
# Shear Modulus (GPa) = 19.60099 35.04536 27.32318
#
# Velocity S-wave (km/s) = 2.76740 3.70039 3.26737
# Velocity P-wave (km/s) = 5.15333 6.21731 5.71016
#
# Compressibility (1/GPa) = 0.02390384
#
# Stress axis : x y z
#
# Youngs Moduli (GPa) = 39.64558 44.34781 23.85389
#
# Poissons Ratio (x) = 0.24852 0.32645
# Poissons Ratio (y) = 0.22217 0.32456
# Poissons Ratio (z) = 0.54256 0.60340
#
# Static dielectric constant tensor:
#      x y z
#    x 1.999960 0.035330 -0.040850 
#    y 0.035330 1.957780 0.046100 
#    z -0.040850 0.046100 2.111780 
# 
# From -- ./inp_files/492031.got.cif
#   From: 2010.05.17/outbox.cif.g08.bks.cpg/sg2_247_cif.got.tgz:492031.got - 2010.06.03 11:33:40.
