data_PCOD9033549
_publ_section_title
;
Structure prediction by ZEFSAII (Michael W. Deem and Ramdas Pophale) SiO2 
 PCOD9033549
Probable space group: P -1
;
_chemical_formula_sum "Si O2"
_cell_formula_units_Z 16
_cell_length_a 12.043147
_cell_length_b 12.318932
_cell_length_c 5.637859
_cell_angle_alpha 104.852470
_cell_angle_beta 109.152149
_cell_angle_gamma 115.464854
_cell_volume 631.199367
_symmetry_space_group_name_H-M "P -1"
_symmetry_group_IT_number 2
_symmetry_cell_setting 'triclinic'
loop_
_space_group_symop_operation_xyz
x,y,z
-x,-y,-z
loop_
_atom_site_type_symbol
_atom_site_label
_atom_site_fract_x
_atom_site_fract_y
_atom_site_fract_z
Si Si1 0.677295 0.968609 0.322887
Si Si2 0.418171 0.436065 0.654768
Si Si3 0.239915 0.532403 0.790673
Si Si4 0.045057 0.855649 0.034318
Si Si5 0.318261 0.786052 0.683703
Si Si6 0.878831 0.953770 0.195201
Si Si7 0.981023 0.365835 0.830931
Si Si8 0.486057 0.744509 0.405314
O O1 0.814260 0.050865 0.646381
O O2 0.649667 0.063238 0.192904
O O3 0.724043 0.884856 0.155999
O O4 0.539714 0.867098 0.325726
O O5 0.500000 0.500000 0.500000
O O6 0.298803 0.467825 0.620028
O O7 0.393944 0.288366 0.535976
O O8 0.500000 0.500000 0.000000
O O9 0.252643 0.664586 0.762723
O O10 0.087381 0.410355 0.709940
O O11 0.345957 0.605197 0.131108
O O12 0.916025 0.872968 0.002159
O O13 0.987616 0.705017 0.981091
O O14 0.093388 0.912143 0.837442
O O15 0.441950 0.782858 0.636335
O O16 0.184784 0.729097 0.385804
O O17 0.000000 0.000000 0.500000
O O18 0.000000 0.500000 0.000000
#
# Coordination Sequence:
#
# PCOD9033549 Si02
#       8
#     2   2   2   2   2   2   2   2
#     4  10  23  37  64  92 124 169 215 269 331 403
#     4  10  22  44  68  96 135 180 228 284 340 409
#     4  11  24  42  66  94 131 174 222 276 335 405
#     4   9  21  41  62  89 130 164 212 272 329 394
#     4  11  23  42  62  91 131 166 221 269 336 401
#     4   9  19  41  62  91 122 164 216 269 328 390
#     4  11  23  41  66  94 128 174 219 274 341 405
#     4  11  23  42  62  93 130 168 222 274 333 408
#
# _framework density 25.348568
#
# number of rings (size 3 to 8) (size 9 to 14) (size 15 to 20)
#    0.000    1.750    2.500    0.750    3.500    1.500 
#    2.250    5.000    0.000    0.000    0.000    0.000 
#    0.000    0.000    0.000    0.000    0.000    0.000 
#
# Total GULP energy -89287.388115 kJ/mol
# GULP energy per Si atom -5580.461757 kJ/mol
# Density = 2.529087 g / cm^3
# Si number density = 25.348568 Si / 1000 Ang^3
#
#
#
# Elastic Constant Matrix: (Units=GPa)
#
#
# Indices 1 2 3 4 5 6 
#
# 1 129.1341 32.1312 33.1573 -0.1495 -6.6626 -4.3185
# 2 32.1312 114.4752 7.6008 -32.1638 3.3376 -32.0818
# 3 33.1573 7.6008 64.9547 -10.2102 6.4054 -5.3999
# 4 -0.1495 -32.1638 -10.2102 48.3914 4.2763 5.4431
# 5 -6.6626 3.3376 6.4054 4.2763 37.8848 -6.9772
# 6 -4.3185 -32.0818 -5.3999 5.4431 -6.9772 32.3618
#
#
#
# Elastic Compliance Matrix: (Units=1/GPa)
#
#
# Indices 1 2 3 4 5 6 
#
# 1 0.010522 -0.004631 -0.006057 -0.004299 0.003257 -0.002772
# 2 -0.004631 0.016868 0.003371 0.010382 -0.001348 0.014630
# 3 -0.006057 0.003371 0.019882 0.006416 -0.004758 0.003746
# 4 -0.004299 0.010382 0.006416 0.028814 -0.005117 0.004839
# 5 0.003257 -0.001348 -0.004758 -0.005117 0.029486 0.005522
# 6 -0.002772 0.014630 0.003746 0.004839 0.005522 0.046035
#
#
# Mechanical properties :
#
#
# Convention : Reuss Voigt Hill
#
# Bulk Modulus (GPa) = 30.63867 50.48249 40.56058
# Shear Modulus (GPa) = 28.22969 39.43924 33.83446
#
# Velocity S-wave (km/s) = 3.34078 3.94874 3.65741
# Velocity P-wave (km/s) = 5.19560 6.38346 5.81992
#
# Compressibility (1/GPa) = 0.03263850
#
# Stress axis : x y z
#
# Youngs Moduli (GPa) = 95.04217 59.28485 50.29754
#
# Poissons Ratio (x) = 0.27454 0.30463
# Poissons Ratio (y) = 0.44013 -0.16956
# Poissons Ratio (z) = 0.57563 -0.19986
#
# Static dielectric constant tensor:
#      x y z
#    x 2.009270 0.145280 0.083820 
#    y 0.145280 2.282630 -0.163190 
#    z 0.083820 -0.163190 1.943660 
# 
# From -- ./inp_files/69210.got.cif
#   From: 2010.05.17/outbox.cif.g08.bks.cpg/sg2_35_cif.got.tgz:69210.got - 2010.06.03 11:33:40.
