data_PCOD9033913
_publ_section_title
;
Structure prediction by ZEFSAII (Michael W. Deem and Ramdas Pophale) SiO2 
 PCOD9033913
Probable space group: P -1
;
_chemical_formula_sum "Si O2"
_cell_formula_units_Z 16
_cell_length_a 8.440402
_cell_length_b 18.875259
_cell_length_c 11.813751
_cell_angle_alpha 26.555113
_cell_angle_beta 56.559640
_cell_angle_gamma 58.398330
_cell_volume 699.683182
_symmetry_space_group_name_H-M "P -1"
_symmetry_group_IT_number 2
_symmetry_cell_setting 'triclinic'
loop_
_space_group_symop_operation_xyz
x,y,z
-x,-y,-z
loop_
_atom_site_type_symbol
_atom_site_label
_atom_site_fract_x
_atom_site_fract_y
_atom_site_fract_z
Si Si1 0.417212 0.721160 0.665175
Si Si2 0.219099 0.304707 0.741489
Si Si3 0.345132 0.800759 0.236096
Si Si4 0.969265 0.803714 0.483547
Si Si5 0.113112 0.010484 0.326032
Si Si6 0.384501 0.390971 0.036075
Si Si7 0.609553 0.398854 0.701922
Si Si8 0.791263 0.845260 0.256534
O O1 0.297881 0.885388 0.447059
O O2 0.450487 0.692552 0.826753
O O3 0.628262 0.735506 0.516050
O O4 0.344085 0.566615 0.855514
O O5 0.447446 0.249660 0.723179
O O6 0.221113 0.492114 0.488919
O O7 0.114223 0.250235 0.749015
O O8 0.153628 0.192124 0.027488
O O9 0.336590 0.759586 0.164557
O O10 0.178730 0.722409 0.483138
O O11 0.298592 0.988750 0.994752
O O12 0.809639 0.696504 0.748350
O O13 0.902438 0.870763 0.291349
O O14 0.999645 0.939713 0.367977
O O15 0.000000 0.000000 0.500000
O O16 0.473769 0.384665 0.884048
O O17 0.500000 0.500000 0.500000
#
# Coordination Sequence:
#
# PCOD9033913 Si02
#       8
#     2   2   2   2   2   2   2   2
#     4  10  22  44  70  92 128 183 220 266 329 411
#     4  11  22  43  68  91 130 177 222 265 328 404
#     4  11  22  40  66  99 130 175 218 272 332 385
#     4  11  26  39  65 102 131 172 219 281 331 387
#     4  12  27  42  65  99 136 174 223 276 335 390
#     4  10  23  44  68  97 134 174 223 268 337 392
#     4  10  24  40  68  97 132 170 223 268 325 396
#     4  11  20  41  70  93 128 171 231 267 323 399
#
# _framework density 22.867493
#
# number of rings (size 3 to 8) (size 9 to 14) (size 15 to 20)
#    0.000    1.250    3.750    1.500    5.250    2.500 
#    0.000    3.125    0.000    0.000    0.000    0.000 
#    0.000    0.000    0.000    0.000    0.000    0.000 
#
# Total GULP energy -89372.398033 kJ/mol
# GULP energy per Si atom -5585.774877 kJ/mol
# Density = 2.281545 g / cm^3
# Si number density = 22.867493 Si / 1000 Ang^3
#
#
#
# Elastic Constant Matrix: (Units=GPa)
#
#
# Indices 1 2 3 4 5 6 
#
# 1 75.8588 27.9181 23.3654 14.4369 -0.4952 16.2799
# 2 27.9181 126.6942 49.2750 25.3677 -9.3477 25.4458
# 3 23.3654 49.2750 117.8070 29.8579 -17.5437 -0.3354
# 4 14.4369 25.3677 29.8579 40.8727 2.3524 11.0061
# 5 -0.4952 -9.3477 -17.5437 2.3524 34.6597 4.0765
# 6 16.2799 25.4458 -0.3354 11.0061 4.0765 34.1015
#
#
#
# Elastic Compliance Matrix: (Units=1/GPa)
#
#
# Indices 1 2 3 4 5 6 
#
# 1 0.015953 -0.001027 -0.002443 -0.001479 -0.000439 -0.006343
# 2 -0.001027 0.011823 -0.003884 -0.002126 0.002288 -0.007957
# 3 -0.002443 -0.003884 0.013683 -0.008758 0.005692 0.006346
# 4 -0.001479 -0.002126 -0.008758 0.035348 -0.006435 -0.008432
# 5 -0.000439 0.002288 0.005692 -0.006435 0.033172 -0.003330
# 6 -0.006343 -0.007957 0.006346 -0.008432 -0.003330 0.041472
#
#
# Mechanical properties :
#
#
# Convention : Reuss Voigt Hill
#
# Bulk Modulus (GPa) = 37.38385 57.94190 47.66288
# Shear Modulus (GPa) = 28.55906 36.58022 32.56964
#
# Velocity S-wave (km/s) = 3.53780 4.00391 3.77805
# Velocity P-wave (km/s) = 5.75079 6.83873 6.31822
#
# Compressibility (1/GPa) = 0.02674952
#
# Stress axis : x y z
#
# Youngs Moduli (GPa) = 62.68451 84.58211 73.08303
#
# Poissons Ratio (x) = 0.08691 0.17853
# Poissons Ratio (y) = 0.06441 0.28388
# Poissons Ratio (z) = 0.15313 0.32854
#
# Static dielectric constant tensor:
#      x y z
#    x 1.935330 0.005810 0.012680 
#    y 0.005810 1.882680 -0.015360 
#    z 0.012680 -0.015360 1.877250 
# 
# From -- ./inp_files/353589.got.cif
#   From: 2010.05.17/outbox.cif.g08.bks.cpg/sg2_177_cif.got.tgz:353589.got - 2010.06.03 11:33:40.
