data_PCOD9033495
_publ_section_title
;
Structure prediction by ZEFSAII (Michael W. Deem and Ramdas Pophale) SiO2 
 PCOD9033495
Probable space group: P -1
;
_chemical_formula_sum "Si O2"
_cell_formula_units_Z 13
_cell_length_a 12.333088
_cell_length_b 7.724131
_cell_length_c 5.146375
_cell_angle_alpha 79.567071
_cell_angle_beta 85.822945
_cell_angle_gamma 89.361139
_cell_volume 480.869077
_symmetry_space_group_name_H-M "P -1"
_symmetry_group_IT_number 2
_symmetry_cell_setting 'triclinic'
loop_
_space_group_symop_operation_xyz
x,y,z
-x,-y,-z
loop_
_atom_site_type_symbol
_atom_site_label
_atom_site_fract_x
_atom_site_fract_y
_atom_site_fract_z
Si Si1 0.732410 0.368903 0.535822
Si Si2 0.267696 0.287847 0.883084
Si Si3 0.672866 0.028657 0.342971
Si Si4 0.925270 0.800330 0.764033
Si Si5 0.936913 0.218568 0.742517
Si Si6 0.500000 0.500000 0.500000
Si Si7 0.531437 0.803697 0.834225
O O1 0.759087 0.540939 0.317800
O O2 0.730807 0.199025 0.395339
O O3 0.824145 0.321556 0.737840
O O4 0.611830 0.411590 0.641834
O O5 0.248903 0.110960 0.768785
O O6 0.194680 0.276354 0.151730
O O7 0.397796 0.282377 0.921702
O O8 0.579460 0.087424 0.137523
O O9 0.611443 0.930610 0.617597
O O10 0.983784 0.728202 0.520516
O O11 0.915639 0.012684 0.730160
O O12 0.999733 0.756260 0.009600
O O13 0.497964 0.652326 0.681304
#
# Coordination Sequence:
#
# PCOD9033495 Si02
#       7
#     2   2   2   2   2   1   2
#     4  11  25  44  73 106 149 185 249 292 379 421
#     4  12  25  43  71 106 141 194 237 316 350 451
#     4  10  23  44  66 102 140 197 240 298 363 443
#     4  10  25  45  79 103 149 187 259 293 378 425
#     4  10  24  48  73 111 140 200 238 316 357 448
#     4  10  22  44  68 106 142 188 232 304 346 460
#     4  10  22  44  68  97 148 189 243 297 370 425
#
# _framework density 27.034385
#
# number of rings (size 3 to 8) (size 9 to 14) (size 15 to 20)
#    0.000    1.538    1.538    1.385    8.615    4.923 
#   11.077    0.000    0.000    0.000    0.000    0.000 
#    0.000    0.000    0.000    0.000    0.000    0.000 
#
# Total GULP energy -72783.202080 kJ/mol
# GULP energy per Si atom -5598.707852 kJ/mol
# Density = 2.697285 g / cm^3
# Si number density = 27.034385 Si / 1000 Ang^3
#
#
#
# Elastic Constant Matrix: (Units=GPa)
#
#
# Indices 1 2 3 4 5 6 
#
# 1 136.3439 30.9253 33.5617 -21.3164 14.3886 -38.4949
# 2 30.9253 141.9189 35.1792 5.0804 6.3708 -8.8192
# 3 33.5617 35.1792 83.0799 -11.7448 9.2366 -26.6418
# 4 -21.3164 5.0804 -11.7448 23.8237 -14.5543 8.9491
# 5 14.3886 6.3708 9.2366 -14.5543 50.0580 -15.7414
# 6 -38.4949 -8.8192 -26.6418 8.9491 -15.7414 37.5743
#
#
#
# Elastic Compliance Matrix: (Units=1/GPa)
#
#
# Indices 1 2 3 4 5 6 
#
# 1 0.012077 -0.002608 0.000872 0.009340 0.003004 0.011413
# 2 -0.002608 0.008859 -0.004380 -0.006738 -0.002519 -0.003148
# 3 0.000872 -0.004380 0.018236 0.008025 0.003107 0.012185
# 4 0.009340 -0.006738 0.008025 0.064060 0.017069 0.005571
# 5 0.003004 -0.002519 0.003107 0.017069 0.027664 0.012214
# 6 0.011413 -0.003148 0.012185 0.005571 0.012214 0.049997
#
#
# Mechanical properties :
#
#
# Convention : Reuss Voigt Hill
#
# Bulk Modulus (GPa) = 37.12006 62.29721 49.70864
# Shear Modulus (GPa) = 24.73976 39.73629 32.23803
#
# Velocity S-wave (km/s) = 3.02838 3.83801 3.45698
# Velocity P-wave (km/s) = 5.09790 6.53714 5.86186
#
# Compressibility (1/GPa) = 0.02693961
#
# Stress axis : x y z
#
# Youngs Moduli (GPa) = 82.80415 112.88220 54.83805
#
# Poissons Ratio (x) = 0.29436 -0.04780
# Poissons Ratio (y) = 0.21593 0.24018
# Poissons Ratio (z) = -0.07218 0.49439
#
# Static dielectric constant tensor:
#      x y z
#    x 1.234270 -0.651750 1.184430 
#    y -0.651750 1.422050 0.951780 
#    z 1.184430 0.951780 0.422590 
# 
# From -- ./inp_files/60396.got.cif
#   From: 2010.05.17/outbox.cif.g08.bks.cpg/sg2_31_cif.got.tgz:60396.got - 2010.06.03 11:33:40.
