data_PCOD9033145
_publ_section_title
;
Structure prediction by ZEFSAII (Michael W. Deem and Ramdas Pophale) SiO2 
 PCOD9033145
Probable space group: P -1
;
_chemical_formula_sum "Si O2"
_cell_formula_units_Z 16
_cell_length_a 8.103475
_cell_length_b 14.687711
_cell_length_c 22.771179
_cell_angle_alpha 28.212835
_cell_angle_beta 31.582838
_cell_angle_gamma 49.265764
_cell_volume 616.089999
_symmetry_space_group_name_H-M "P -1"
_symmetry_group_IT_number 2
_symmetry_cell_setting 'triclinic'
loop_
_space_group_symop_operation_xyz
x,y,z
-x,-y,-z
loop_
_atom_site_type_symbol
_atom_site_label
_atom_site_fract_x
_atom_site_fract_y
_atom_site_fract_z
Si Si1 0.178000 0.802158 0.027781
Si Si2 0.918027 0.312927 0.742013
Si Si3 0.638569 0.555380 0.231176
Si Si4 0.292633 0.102425 0.465711
Si Si5 0.282650 0.780534 0.359236
Si Si6 0.350007 0.255629 0.168905
Si Si7 0.198998 0.737814 0.872745
Si Si8 0.060110 0.133530 0.690712
O O1 0.133466 0.739449 0.144576
O O2 0.869384 0.688495 0.140106
O O3 0.496632 0.748668 0.938872
O O4 0.348543 0.054270 0.827402
O O5 0.608481 0.351470 0.779902
O O6 0.226865 0.541689 0.515224
O O7 0.994763 0.151631 0.768544
O O8 0.404743 0.328072 0.456375
O O9 0.896071 0.550034 0.103796
O O10 0.567018 0.280631 0.240467
O O11 0.030350 0.187210 0.529075
O O12 0.500000 0.000000 0.500000
O O13 0.042309 0.898593 0.621126
O O14 0.230395 0.831722 0.278886
O O15 0.537665 0.160290 0.211805
O O16 0.500000 0.500000 0.000000
O O17 0.061610 0.913142 0.797513
#
# Coordination Sequence:
#
# PCOD9033145 Si02
#       8
#     2   2   2   2   2   2   2   2
#     4  10  24  43  68 104 136 175 236 283 341 414
#     4  11  25  45  73  97 138 190 226 289 346 398
#     4  10  24  44  69 101 137 181 234 280 338 413
#     4  11  23  41  70 102 135 177 222 283 340 410
#     4  10  22  44  66 103 142 174 231 286 339 410
#     4  10  25  44  68 101 140 177 224 282 338 415
#     4  11  24  42  69 100 135 181 219 279 351 393
#     4  11  24  46  70  98 140 182 232 283 344 411
#
# _framework density 25.970229
#
# number of rings (size 3 to 8) (size 9 to 14) (size 15 to 20)
#    0.000    1.500    1.250    2.625    7.000    6.500 
#    0.000   11.875    0.000    0.000    0.000    0.000 
#    0.000    0.000    0.000    0.000    0.000    0.000 
#
# Total GULP energy -89559.685077 kJ/mol
# GULP energy per Si atom -5597.480317 kJ/mol
# Density = 2.591112 g / cm^3
# Si number density = 25.970229 Si / 1000 Ang^3
#
#
#
# Elastic Constant Matrix: (Units=GPa)
#
#
# Indices 1 2 3 4 5 6 
#
# 1 100.5113 14.4390 32.9449 22.0023 9.4235 23.1328
# 2 14.4390 61.4115 3.3420 10.8285 16.6151 19.9729
# 3 32.9449 3.3420 95.4803 11.5468 -5.9135 19.3174
# 4 22.0023 10.8285 11.5468 36.2661 16.5966 -0.7146
# 5 9.4235 16.6151 -5.9135 16.5966 47.7617 6.3023
# 6 23.1328 19.9729 19.3174 -0.7146 6.3023 42.9657
#
#
#
# Elastic Compliance Matrix: (Units=1/GPa)
#
#
# Indices 1 2 3 4 5 6 
#
# 1 0.014019 0.000358 -0.002435 -0.008233 0.000572 -0.006840
# 2 0.000358 0.021592 0.001656 -0.005534 -0.004072 -0.010469
# 3 -0.002435 0.001656 0.013422 -0.005356 0.004246 -0.006205
# 4 -0.008233 -0.005534 -0.005356 0.042300 -0.013407 0.012084
# 5 0.000572 -0.004072 0.004246 -0.013407 0.028041 -0.004660
# 6 -0.006840 -0.010469 -0.006205 0.012084 -0.004660 0.035498
#
#
# Mechanical properties :
#
#
# Convention : Reuss Voigt Hill
#
# Bulk Modulus (GPa) = 20.75087 39.87279 30.31183
# Shear Modulus (GPa) = 29.10772 39.17718 34.14245
#
# Velocity S-wave (km/s) = 3.35148 3.88821 3.62978
# Velocity P-wave (km/s) = 4.79418 5.96189 5.40964
#
# Compressibility (1/GPa) = 0.04819075
#
# Stress axis : x y z
#
# Youngs Moduli (GPa) = 71.33350 46.31399 74.50690
#
# Poissons Ratio (x) = -0.01659 0.18139
# Poissons Ratio (y) = -0.02555 -0.12336
# Poissons Ratio (z) = 0.17367 -0.07668
#
# Static dielectric constant tensor:
#      x y z
#    x 2.058150 -0.016130 -0.010420 
#    y -0.016130 2.102580 0.025490 
#    z -0.010420 0.025490 2.058880 
# 
# From -- ./inp_files/608172.got.cif
#   From: 2010.05.17/outbox.cif.g08.bks.cpg/sg2_305_cif.got.tgz:608172.got - 2010.06.03 11:33:40.
