data_PCOD9033992
_publ_section_title
;
Structure prediction by ZEFSAII (Michael W. Deem and Ramdas Pophale) SiO2 
 PCOD9033992
Probable space group: P -1
;
_chemical_formula_sum "Si O2"
_cell_formula_units_Z 16
_cell_length_a 5.435767
_cell_length_b 15.549955
_cell_length_c 12.222138
_cell_angle_alpha 135.475023
_cell_angle_beta 97.852288
_cell_angle_gamma 102.320190
_cell_volume 641.804062
_symmetry_space_group_name_H-M "P -1"
_symmetry_group_IT_number 2
_symmetry_cell_setting 'triclinic'
loop_
_space_group_symop_operation_xyz
x,y,z
-x,-y,-z
loop_
_atom_site_type_symbol
_atom_site_label
_atom_site_fract_x
_atom_site_fract_y
_atom_site_fract_z
Si Si1 0.316952 0.335434 0.854888
Si Si2 0.905696 0.296830 0.604714
Si Si3 0.194069 0.913839 0.770764
Si Si4 0.317974 0.316719 0.096681
Si Si5 0.768389 0.472955 0.604063
Si Si6 0.392400 0.096698 0.516835
Si Si7 0.720217 0.281565 0.245952
Si Si8 0.183775 0.949060 0.161215
O O1 0.359711 0.204936 0.693941
O O2 0.056536 0.315757 0.746157
O O3 0.500000 0.500000 0.000000
O O4 0.322988 0.322271 0.972704
O O5 0.971939 0.209044 0.438285
O O6 0.929893 0.432280 0.670295
O O7 0.591262 0.201435 0.533064
O O8 0.249756 0.846782 0.821338
O O9 0.499171 0.999930 0.811751
O O10 0.995395 0.983961 0.846665
O O11 0.411636 0.467112 0.289477
O O12 0.510425 0.260689 0.116582
O O13 0.998432 0.213347 0.010142
O O14 0.618747 0.341812 0.398864
O O15 0.981450 0.596739 0.655866
O O16 0.500000 0.000000 0.500000
O O17 0.161910 0.987238 0.323025
#
# Coordination Sequence:
#
# PCOD9033992 Si02
#       8
#     2   2   2   2   2   2   2   2
#     4  12  26  43  70 107 145 189 241 304 367 437
#     4  10  22  44  70  98 141 187 242 292 361 435
#     4  10  24  47  74 104 138 195 241 298 358 438
#     4  12  27  40  69 104 145 183 240 308 362 436
#     4  10  23  46  68 100 135 190 244 299 366 436
#     4  11  25  44  73 102 148 195 240 298 365 444
#     4  10  24  45  73  97 139 187 244 298 365 436
#     4  11  26  45  74 107 148 188 244 297 371 434
#
# _framework density 24.929725000000001
#
# number of rings (size 3 to 8) (size 9 to 14) (size 15 to 20)
#    0.000    1.250    1.250    2.625    7.000    6.000 
#    6.750    0.000    0.000    0.000    0.000    0.000 
#    0.000    0.000    0.000    0.000    0.000    0.000 
#
# Total GULP energy -89388.492143 kJ/mol
# GULP energy per Si atom -5586.780759 kJ/mol
# Density = 2.487298 g / cm^3
# Si number density = 24.929725 Si / 1000 Ang^3
#
#
#
# Elastic Constant Matrix: (Units=GPa)
#
#
# Indices 1 2 3 4 5 6 
#
# 1 61.4128 26.5068 32.4654 0.9410 -7.0055 -23.5200
# 2 26.5068 119.7758 53.6448 -22.3024 -12.7376 -27.1923
# 3 32.4654 53.6448 117.9707 -9.9322 -12.1073 -17.4622
# 4 0.9410 -22.3024 -9.9322 52.4307 -6.7356 -0.0041
# 5 -7.0055 -12.7376 -12.1073 -6.7356 41.4719 3.8741
# 6 -23.5200 -27.1923 -17.4622 -0.0041 3.8741 39.1974
#
#
#
# Elastic Compliance Matrix: (Units=1/GPa)
#
#
# Indices 1 2 3 4 5 6 
#
# 1 0.023504 -0.000755 -0.004427 -0.001434 0.001139 0.011494
# 2 -0.000755 0.013089 -0.004037 0.005196 0.002947 0.006538
# 3 -0.004427 -0.004037 0.011701 0.000784 0.001593 -0.000402
# 4 -0.001434 0.005196 0.000784 0.022090 0.004926 0.002608
# 5 0.001139 0.002947 0.001593 0.004926 0.026398 0.000829
# 6 0.011494 0.006538 -0.000402 0.002608 0.000829 0.036684
#
#
# Mechanical properties :
#
#
# Convention : Reuss Voigt Hill
#
# Bulk Modulus (GPa) = 33.49441 58.26593 45.88017
# Shear Modulus (GPa) = 30.89182 39.05614 34.97398
#
# Velocity S-wave (km/s) = 3.52398 3.96239 3.74960
# Velocity P-wave (km/s) = 5.47929 6.66009 6.09834
#
# Compressibility (1/GPa) = 0.02985573
#
# Stress axis : x y z
#
# Youngs Moduli (GPa) = 42.54675 76.39925 85.46563
#
# Poissons Ratio (x) = 0.05768 0.37838
# Poissons Ratio (y) = 0.03212 0.34498
# Poissons Ratio (z) = 0.18837 0.30839
#
# Static dielectric constant tensor:
#      x y z
#    x 2.056850 0.021480 0.113400 
#    y 0.021480 1.954780 0.094060 
#    z 0.113400 0.094060 2.817220 
# 
# From -- ./inp_files/368098.got.cif
#   From: 2010.05.17/outbox.cif.g08.bks.cpg/sg2_185_cif.got.tgz:368098.got - 2010.06.03 11:33:40.
