data_PCOD9033437
_publ_section_title
;
Structure prediction by ZEFSAII (Michael W. Deem and Ramdas Pophale) SiO2 
 PCOD9033437
Probable space group: P -1
;
_chemical_formula_sum "Si O2"
_cell_formula_units_Z 14
_cell_length_a 5.054136
_cell_length_b 10.471739
_cell_length_c 16.264319
_cell_angle_alpha 47.153755
_cell_angle_beta 114.826789
_cell_angle_gamma 108.528498
_cell_volume 572.121059
_symmetry_space_group_name_H-M "P -1"
_symmetry_group_IT_number 2
_symmetry_cell_setting 'triclinic'
loop_
_space_group_symop_operation_xyz
x,y,z
-x,-y,-z
loop_
_atom_site_type_symbol
_atom_site_label
_atom_site_fract_x
_atom_site_fract_y
_atom_site_fract_z
Si Si1 0.632098 0.703154 0.025305
Si Si2 0.135769 0.658067 0.743036
Si Si3 0.000000 0.500000 0.000000
Si Si4 0.498819 0.380662 0.357073
Si Si5 0.435074 0.252951 0.732428
Si Si6 0.782329 0.219461 0.624026
Si Si7 0.500000 0.000000 0.000000
Si Si8 0.304778 0.166225 0.199834
O O1 0.827010 0.530860 0.124260
O O2 0.306152 0.624517 0.001550
O O3 0.642232 0.823283 0.053949
O O4 0.743673 0.815896 0.912366
O O5 0.277564 0.627702 0.684972
O O6 0.354011 0.800719 0.751308
O O7 0.809836 0.714349 0.663084
O O8 0.152022 0.336326 0.135720
O O9 0.418611 0.579504 0.276618
O O10 0.637355 0.306842 0.489565
O O11 0.582800 0.229961 0.673877
O O12 0.101106 0.296424 0.654428
O O13 0.460313 0.084267 0.866386
O O14 0.814710 0.014715 0.701922
#
# Coordination Sequence:
#
# PCOD9033437 Si02
#       8
#     2   2   1   2   2   2   1   2
#     4  11  24  44  70 107 143 192 233 306 370 442
#     4  11  26  43  74 103 141 188 243 297 361 427
#     4  10  22  44  68 100 142 194 226 290 372 438
#     4  12  26  48  71 103 142 194 244 299 347 437
#     4  12  26  46  73 106 143 191 233 304 364 437
#     4  12  27  48  73 101 146 192 243 290 367 428
#     4  12  24  44  74 110 144 174 246 304 362 424
#     4  11  26  42  74 104 144 191 235 300 373 436
#
# _framework density 24.470345999999999
#
# number of rings (size 3 to 8) (size 9 to 14) (size 15 to 20)
#    0.000    0.571    2.857    5.143    8.000    2.857 
#    0.000    0.000    0.000    0.000    0.000    0.000 
#    0.000    0.000    0.000    0.000    0.000    0.000 
#
# Total GULP energy -78011.077333 kJ/mol
# GULP energy per Si atom -5572.219810 kJ/mol
# Density = 2.441465 g / cm^3
# Si number density = 24.470346 Si / 1000 Ang^3
#
#
#
# Elastic Constant Matrix: (Units=GPa)
#
#
# Indices 1 2 3 4 5 6 
#
# 1 457.1867 33.3332 -238.7179 11.5061 -45.4048 -89.2522
# 2 33.3332 51.0002 -21.6907 -2.3394 -11.3794 -14.5754
# 3 -238.7179 -21.6907 290.4809 10.9510 32.4320 63.3667
# 4 11.5061 -2.3394 10.9510 33.2748 1.5074 0.7137
# 5 -45.4048 -11.3794 32.4320 1.5074 18.7488 28.1462
# 6 -89.2522 -14.5754 63.3667 0.7137 28.1462 66.1507
#
#
#
# Elastic Compliance Matrix: (Units=1/GPa)
#
#
# Indices 1 2 3 4 5 6 
#
# 1 0.004557 -0.000662 0.003082 -0.002793 0.002500 0.002017
# 2 -0.000662 0.022960 -0.000120 0.001186 0.016713 -0.002843
# 3 0.003082 -0.000120 0.006578 -0.003140 -0.001466 -0.001512
# 4 -0.002793 0.001186 -0.003140 0.032348 -0.005370 0.001437
# 5 0.002500 0.016713 -0.001466 -0.005370 0.165302 -0.061816
# 6 0.002017 -0.002843 -0.001512 0.001437 -0.061816 0.044947
#
#
# Mechanical properties :
#
#
# Convention : Reuss Voigt Hill
#
# Bulk Modulus (GPa) = 25.84252 38.27967 32.06109
# Shear Modulus (GPa) = 17.54451 92.01773 54.78112
#
# Velocity S-wave (km/s) = 2.68053 6.13884 4.73660
# Velocity P-wave (km/s) = 4.49044 8.11939 6.56081
#
# Compressibility (1/GPa) = 0.03869592
#
# Stress axis : x y z
#
# Youngs Moduli (GPa) = 219.44488 43.55365 152.02013
#
# Poissons Ratio (x) = 0.02881 -0.46848
# Poissons Ratio (y) = 0.14518 0.01821
# Poissons Ratio (z) = -0.67626 0.00522
#
# Static dielectric constant tensor:
#      x y z
#    x 1.949250 -0.008810 -0.002910 
#    y -0.008810 1.892620 -0.018160 
#    z -0.002910 -0.018160 1.877270 
# 
# From -- ./inp_files/93226.got.cif
#   From: 2010.05.17/outbox.cif.g08.bks.cpg/sg2_47_cif.got.tgz:93226.got - 2010.06.03 11:33:40.
