data_PCOD9033245
_publ_section_title
;
Structure prediction by ZEFSAII (Michael W. Deem and Ramdas Pophale) SiO2 
 PCOD9033245
Probable space group: P -1
;
_chemical_formula_sum "Si O2"
_cell_formula_units_Z 16
_cell_length_a 11.834065
_cell_length_b 11.888984
_cell_length_c 11.293948
_cell_angle_alpha 71.905276
_cell_angle_beta 152.593153
_cell_angle_gamma 116.239257
_cell_volume 643.017853
_symmetry_space_group_name_H-M "P -1"
_symmetry_group_IT_number 2
_symmetry_cell_setting 'triclinic'
loop_
_space_group_symop_operation_xyz
x,y,z
-x,-y,-z
loop_
_atom_site_type_symbol
_atom_site_label
_atom_site_fract_x
_atom_site_fract_y
_atom_site_fract_z
Si Si1 0.629266 0.304357 0.746545
Si Si2 0.796521 0.685977 0.462873
Si Si3 0.699599 0.064543 0.773722
Si Si4 0.204454 0.930357 0.699437
Si Si5 0.051626 0.270187 0.886825
Si Si6 0.431901 0.350413 0.993761
Si Si7 0.374191 0.833403 0.670953
Si Si8 0.105548 0.511677 0.249761
O O1 0.407873 0.298916 0.636706
O O2 0.613428 0.168754 0.727597
O O3 0.637297 0.394611 0.611678
O O4 0.919371 0.387463 0.044426
O O5 0.709127 0.701400 0.244196
O O6 0.813231 0.548248 0.541047
O O7 0.078548 0.800251 0.699754
O O8 0.988064 0.154117 0.959295
O O9 0.500000 0.000000 0.500000
O O10 0.654388 0.945753 0.858691
O O11 0.230723 0.905438 0.593302
O O12 0.000000 0.000000 0.500000
O O13 0.500000 0.000000 0.000000
O O14 0.782832 0.226174 0.573589
O O15 0.067508 0.402987 0.914920
O O16 0.274084 0.298401 0.985879
O O17 0.500000 0.500000 0.000000
O O18 0.646977 0.287229 0.228292
#
# Coordination Sequence:
#
# PCOD9033245 Si02
#       8
#     2   2   2   2   2   2   2   2
#     4  10  22  44  68 103 137 180 242 300 373 441
#     4  12  25  41  69  99 142 188 242 304 373 439
#     4   9  21  43  71  92 131 181 234 306 361 441
#     4  12  28  46  71 105 150 200 253 308 378 453
#     4  10  22  44  66  99 136 182 238 298 366 439
#     4  12  26  41  69 104 146 192 242 302 373 454
#     4  11  24  44  68  99 140 185 244 302 371 435
#     4  10  23  41  71 101 139 185 237 305 363 450
#
# _framework density 24.882667999999999
#
# number of rings (size 3 to 8) (size 9 to 14) (size 15 to 20)
#    0.000    1.250    1.250    3.375    7.000    1.500 
#    0.000    7.500    0.000    0.000    0.000    0.000 
#    0.000    0.000    0.000    0.000    0.000    0.000 
#
# Total GULP energy -89460.074318 kJ/mol
# GULP energy per Si atom -5591.254645 kJ/mol
# Density = 2.482603 g / cm^3
# Si number density = 24.882668 Si / 1000 Ang^3
#
#
#
# Elastic Constant Matrix: (Units=GPa)
#
#
# Indices 1 2 3 4 5 6 
#
# 1 132.4412 49.8401 6.4278 9.4097 21.5468 -0.4544
# 2 49.8401 170.5893 26.1755 8.1622 6.0933 7.4798
# 3 6.4278 26.1755 46.1877 8.6025 1.5152 -4.3568
# 4 9.4097 8.1622 8.6025 33.7367 2.8938 -3.1339
# 5 21.5468 6.0933 1.5152 2.8938 33.6884 9.2731
# 6 -0.4544 7.4798 -4.3568 -3.1339 9.2731 49.6481
#
#
#
# Elastic Compliance Matrix: (Units=1/GPa)
#
#
# Indices 1 2 3 4 5 6 
#
# 1 0.009629 -0.002723 0.000845 -0.001579 -0.006008 0.001595
# 2 -0.002723 0.007305 -0.003907 -0.000261 0.001083 -0.001687
# 3 0.000845 -0.003907 0.025032 -0.005317 -0.001243 0.002690
# 4 -0.001579 -0.000261 -0.005317 0.031850 -0.001973 0.001937
# 5 -0.006008 0.001083 -0.001243 -0.001973 0.035506 -0.007083
# 6 0.001595 -0.001687 0.002690 0.001937 -0.007083 0.022092
#
#
# Mechanical properties :
#
#
# Convention : Reuss Voigt Hill
#
# Bulk Modulus (GPa) = 32.89901 57.12278 45.01090
# Shear Modulus (GPa) = 32.65513 41.19960 36.92736
#
# Velocity S-wave (km/s) = 3.62659 4.07351 3.85653
# Velocity P-wave (km/s) = 5.54856 6.71799 6.16108
#
# Compressibility (1/GPa) = 0.03039605
#
# Stress axis : x y z
#
# Youngs Moduli (GPa) = 103.85126 136.89677 39.94867
#
# Poissons Ratio (x) = 0.37273 -0.03374
# Poissons Ratio (y) = 0.28275 0.15607
# Poissons Ratio (z) = -0.08771 0.53484
#
# Static dielectric constant tensor:
#      x y z
#    x 1.989310 -0.013500 0.278670 
#    y -0.013500 2.037810 -0.146160 
#    z 0.278670 -0.146160 2.120840 
# 
# From -- ./inp_files/69764.got.cif
#   From: 2010.05.17/outbox.cif.g08.bks.cpg/sg2_35_cif.got.tgz:69764.got - 2010.06.03 11:33:40.
