data_PCOD9033977
_publ_section_title
;
Structure prediction by ZEFSAII (Michael W. Deem and Ramdas Pophale) SiO2 
 PCOD9033977
Probable space group: P -1
;
_chemical_formula_sum "Si O2"
_cell_formula_units_Z 13
_cell_length_a 15.808290
_cell_length_b 13.660440
_cell_length_c 9.507639
_cell_angle_alpha 140.409060
_cell_angle_beta 135.342602
_cell_angle_gamma 25.428998
_cell_volume 560.965361
_symmetry_space_group_name_H-M "P -1"
_symmetry_group_IT_number 2
_symmetry_cell_setting 'triclinic'
loop_
_space_group_symop_operation_xyz
x,y,z
-x,-y,-z
loop_
_atom_site_type_symbol
_atom_site_label
_atom_site_fract_x
_atom_site_fract_y
_atom_site_fract_z
Si Si1 0.185855 0.097363 0.862479
Si Si2 0.315656 0.131107 0.517740
Si Si3 0.111417 0.802039 0.206243
Si Si4 0.078224 0.681135 0.446607
Si Si5 0.960697 0.309108 0.254844
Si Si6 0.572532 0.862220 0.786524
Si Si7 0.500000 0.500000 0.500000
O O1 0.006968 0.212763 0.871557
O O2 0.082669 0.246345 0.756432
O O3 0.349997 0.800545 0.699446
O O4 0.281050 0.150459 0.105420
O O5 0.164037 0.425418 0.664876
O O6 0.192376 0.111724 0.292885
O O7 0.500000 0.000000 0.500000
O O8 0.400282 0.010185 0.636978
O O9 0.326572 0.611456 0.311877
O O10 0.107912 0.768780 0.999360
O O11 0.979588 0.085543 0.389470
O O12 0.075979 0.655182 0.581828
O O13 0.295885 0.423019 0.361410
O O14 0.500000 0.000000 0.000000
#
# Coordination Sequence:
#
# PCOD9033977 Si02
#       7
#     2   2   2   2   2   2   1
#     4  11  25  43  72  99 138 182 229 283 343 402
#     4  11  23  44  68  99 139 181 227 280 339 413
#     4  11  25  45  74  97 140 182 228 281 348 407
#     4  11  24  45  65 103 141 173 230 291 335 404
#     4  11  24  43  70  98 139 181 226 281 346 405
#     4  12  26  42  73 103 138 183 232 283 345 404
#     4  10  22  44  70  98 132 176 226 274 338 408
#
# _framework density 23.174336
#
# number of rings (size 3 to 8) (size 9 to 14) (size 15 to 20)
#    0.000    0.923    1.538    5.538    8.615    0.000 
#    0.000    0.769    0.000    0.000    0.000    0.000 
#    0.000    0.000    0.000    0.000    0.000    0.000 
#
# Total GULP energy -72526.612512 kJ/mol
# GULP energy per Si atom -5578.970193 kJ/mol
# Density = 2.312159 g / cm^3
# Si number density = 23.174336 Si / 1000 Ang^3
#
#
#
# Elastic Constant Matrix: (Units=GPa)
#
#
# Indices 1 2 3 4 5 6 
#
# 1 35.8124 30.5456 12.4877 -11.7297 -17.5707 -9.0309
# 2 30.5456 185.1045 65.9602 -29.5239 -18.5619 3.9105
# 3 12.4877 65.9602 123.0537 -30.9727 -6.9609 -6.7872
# 4 -11.7297 -29.5239 -30.9727 44.1439 -4.8703 1.1914
# 5 -17.5707 -18.5619 -6.9609 -4.8703 34.4780 -0.9962
# 6 -9.0309 3.9105 -6.7872 1.1914 -0.9962 29.2868
#
#
#
# Elastic Compliance Matrix: (Units=1/GPa)
#
#
# Indices 1 2 3 4 5 6 
#
# 1 0.055922 -0.005519 0.004251 0.016865 0.029325 0.019278
# 2 -0.005519 0.007971 -0.003446 0.001644 0.000911 -0.003601
# 3 0.004251 -0.003446 0.011884 0.007475 0.003892 0.004353
# 4 0.016865 0.001644 0.007475 0.035100 0.016116 0.005834
# 5 0.029325 0.000911 0.003892 0.016116 0.047813 0.010794
# 6 0.019278 -0.003601 0.004353 0.005834 0.010794 0.041709
#
#
# Mechanical properties :
#
#
# Convention : Reuss Voigt Hill
#
# Bulk Modulus (GPa) = 15.07209 62.43971 38.75590
# Shear Modulus (GPa) = 21.55703 37.24687 29.40195
#
# Velocity S-wave (km/s) = 3.05325 4.01340 3.56579
# Velocity P-wave (km/s) = 4.35289 6.96265 5.80629
#
# Compressibility (1/GPa) = 0.06634779
#
# Stress axis : x y z
#
# Youngs Moduli (GPa) = 17.88211 125.46043 84.14807
#
# Poissons Ratio (x) = 0.69246 -0.35768
# Poissons Ratio (y) = 0.09870 0.28993
# Poissons Ratio (z) = -0.07601 0.43228
#
# Static dielectric constant tensor:
#      x y z
#    x 2.008600 -0.018380 -0.010260 
#    y -0.018380 1.841720 0.018240 
#    z -0.010260 0.018240 1.880490 
# 
# From -- ./inp_files/40311.got.cif
#   From: 2010.05.17/outbox.cif.g08.bks.cpg/sg2_21_cif.got.tgz:40311.got - 2010.06.03 11:33:40.
