data_PCOD9033671
_publ_section_title
;
Structure prediction by ZEFSAII (Michael W. Deem and Ramdas Pophale) SiO2 
 PCOD9033671
Probable space group: P -1
;
_chemical_formula_sum "Si O2"
_cell_formula_units_Z 14
_cell_length_a 14.206665
_cell_length_b 7.486477
_cell_length_c 6.126126
_cell_angle_alpha 92.896113
_cell_angle_beta 89.109743
_cell_angle_gamma 122.268352
_cell_volume 550.178355
_symmetry_space_group_name_H-M "P -1"
_symmetry_group_IT_number 2
_symmetry_cell_setting 'triclinic'
loop_
_space_group_symop_operation_xyz
x,y,z
-x,-y,-z
loop_
_atom_site_type_symbol
_atom_site_label
_atom_site_fract_x
_atom_site_fract_y
_atom_site_fract_z
Si Si1 0.241593 0.856127 0.310288
Si Si2 0.794541 0.660563 0.098007
Si Si3 0.653067 0.266067 0.361777
Si Si4 0.900673 0.032359 0.441806
Si Si5 0.591837 0.481422 0.757423
Si Si6 0.952170 0.593926 0.839147
Si Si7 0.552237 0.826234 0.890143
O O1 0.313963 0.879627 0.522185
O O2 0.169274 0.959818 0.355165
O O3 0.157168 0.607329 0.270085
O O4 0.327514 0.962444 0.116179
O O5 0.753664 0.449006 0.227939
O O6 0.818719 0.847011 0.270253
O O7 0.695631 0.595856 0.929051
O O8 0.907418 0.722300 0.974696
O O9 0.626747 0.389582 0.554295
O O10 0.543047 0.147093 0.209985
O O11 0.958115 0.257079 0.331908
O O12 0.000000 0.000000 0.500000
O O13 0.562043 0.657455 0.726478
O O14 0.490937 0.291803 0.886314
O O15 0.000000 0.500000 0.000000
#
# Coordination Sequence:
#
# PCOD9033671 Si02
#       7
#     2   2   2   2   2   2   2
#     4  12  25  44  71 102 145 181 228 296 359 407
#     4  11  24  44  74  98 138 188 231 286 350 417
#     4  11  22  46  68 106 144 182 226 289 354 422
#     4  12  27  46  74 102 138 191 248 289 349 421
#     4  10  22  44  69 104 142 181 234 282 342 432
#     4  12  26  46  68 104 142 180 240 303 351 408
#     4  10  24  40  70 105 140 185 230 280 348 434
#
# _framework density 25.446293000000001
#
# number of rings (size 3 to 8) (size 9 to 14) (size 15 to 20)
#    0.000    0.857    1.429    5.143    4.000    2.857 
#    2.571    0.000    0.000    0.000    0.000    0.000 
#    0.000    0.000    0.000    0.000    0.000    0.000 
#
# Total GULP energy -78584.202856 kJ/mol
# GULP energy per Si atom -5613.157347 kJ/mol
# Density = 2.538838 g / cm^3
# Si number density = 25.446293 Si / 1000 Ang^3
#
#
#
# Elastic Constant Matrix: (Units=GPa)
#
#
# Indices 1 2 3 4 5 6 
#
# 1 126.0241 12.1436 22.4094 -10.5099 2.7209 -3.8420
# 2 12.1436 122.7965 22.6175 -7.8030 -0.9450 15.5953
# 3 22.4094 22.6175 58.7810 -2.2384 -1.1709 11.7589
# 4 -10.5099 -7.8030 -2.2384 46.7164 -6.6554 -8.7447
# 5 2.7209 -0.9450 -1.1709 -6.6554 51.1557 -5.5117
# 6 -3.8420 15.5953 11.7589 -8.7447 -5.5117 39.1926
#
#
#
# Elastic Compliance Matrix: (Units=1/GPa)
#
#
# Indices 1 2 3 4 5 6 
#
# 1 0.008896 -0.000393 -0.003682 0.002255 0.000013 0.002638
# 2 -0.000393 0.009082 -0.002786 0.000791 -0.000057 -0.002648
# 3 -0.003682 -0.002786 0.020585 -0.001415 -0.000190 -0.005771
# 4 0.002255 0.000791 -0.001415 0.023633 0.003595 0.006109
# 5 0.000013 -0.000057 -0.000190 0.003595 0.020414 0.003754
# 6 0.002638 -0.002648 -0.005771 0.006109 0.003754 0.030450
#
#
# Mechanical properties :
#
#
# Convention : Reuss Voigt Hill
#
# Bulk Modulus (GPa) = 40.25671 46.88250 43.56961
# Shear Modulus (GPa) = 37.02035 44.10835 40.56435
#
# Velocity S-wave (km/s) = 3.81838 4.16792 3.99697
# Velocity P-wave (km/s) = 5.94093 6.45183 6.20164
#
# Compressibility (1/GPa) = 0.02484058
#
# Stress axis : x y z
#
# Youngs Moduli (GPa) = 112.41329 110.11181 48.58018
#
# Poissons Ratio (x) = 0.04330 0.17886
# Poissons Ratio (y) = 0.04421 0.13533
# Poissons Ratio (z) = 0.41387 0.30675
#
# Static dielectric constant tensor:
#      x y z
#    x 1.971870 -0.008910 0.018810 
#    y -0.008910 1.981940 0.047430 
#    z 0.018810 0.047430 1.977000 
# 
# From -- ./inp_files/90470.got.cif
#   From: 2010.05.17/outbox.cif.g08.bks.cpg/sg2_46_cif.got.tgz:90470.got - 2010.06.03 11:33:40.
