data_PCOD9033533
_publ_section_title
;
Structure prediction by ZEFSAII (Michael W. Deem and Ramdas Pophale) SiO2 
 PCOD9033533
Probable space group: P -1
;
_chemical_formula_sum "Si O2"
_cell_formula_units_Z 15
_cell_length_a 13.430116
_cell_length_b 14.160646
_cell_length_c 8.312260
_cell_angle_alpha 81.218547
_cell_angle_beta 100.952794
_cell_angle_gamma 31.013932
_cell_volume 625.077860
_symmetry_space_group_name_H-M "P -1"
_symmetry_group_IT_number 2
_symmetry_cell_setting 'triclinic'
loop_
_space_group_symop_operation_xyz
x,y,z
-x,-y,-z
loop_
_atom_site_type_symbol
_atom_site_label
_atom_site_fract_x
_atom_site_fract_y
_atom_site_fract_z
Si Si1 0.596587 0.289153 0.146597
Si Si2 0.000000 0.000000 0.500000
Si Si3 0.603770 0.843898 0.928083
Si Si4 0.188088 0.081202 0.564224
Si Si5 0.909896 0.298525 0.957025
Si Si6 0.907427 0.693225 0.811800
Si Si7 0.246197 0.852139 0.126863
Si Si8 0.761654 0.359138 0.542319
O O1 0.311334 0.533860 0.034085
O O2 0.728387 0.103483 0.370351
O O3 0.655838 0.208249 0.006384
O O4 0.749097 0.250772 0.253753
O O5 0.114109 0.848049 0.413596
O O6 0.680287 0.833174 0.788991
O O7 0.387129 0.956143 0.780872
O O8 0.866703 0.565175 0.122979
O O9 0.500000 0.000000 0.000000
O O10 0.174947 0.157492 0.383009
O O11 0.913644 0.305991 0.494948
O O12 0.817494 0.345727 0.742523
O O13 0.969132 0.357814 0.985172
O O14 0.157335 0.025661 0.137428
O O15 0.473737 0.608533 0.349578
O O16 0.000000 0.000000 0.000000
#
# Coordination Sequence:
#
# PCOD9033533 Si02
#       8
#     2   1   2   2   2   2   2   2
#     4  11  25  45  69 100 145 183 240 295 351 427
#     4  10  22  44  68  94 142 180 234 296 350 408
#     4  11  25  47  74 106 149 182 237 297 351 433
#     4  11  23  48  72 104 146 189 231 292 360 425
#     4  12  25  47  71 105 145 185 242 298 354 431
#     4  11  26  44  75 109 143 189 234 291 363 427
#     4  12  28  46  71 105 138 194 245 294 362 422
#     4  11  26  44  74 103 141 192 241 296 363 424
#
# _framework density 23.997011000000001
#
# number of rings (size 3 to 8) (size 9 to 14) (size 15 to 20)
#    0.000    0.800    4.000    2.800    3.733    4.800 
#    0.000    0.000    0.000    0.000    0.000    0.000 
#    0.000    0.000    0.000    0.000    0.000    0.000 
#
# Total GULP energy -83681.218153 kJ/mol
# GULP energy per Si atom -5578.747877 kJ/mol
# Density = 2.394239 g / cm^3
# Si number density = 23.997011 Si / 1000 Ang^3
#
#
#
# Elastic Constant Matrix: (Units=GPa)
#
#
# Indices 1 2 3 4 5 6 
#
# 1 71.6968 40.6162 30.0084 6.0116 -9.2483 -29.4780
# 2 40.6162 174.2363 35.1109 -7.3924 0.8245 -6.2040
# 3 30.0084 35.1109 86.6804 -6.3161 -10.9845 -4.8839
# 4 6.0116 -7.3924 -6.3161 21.7993 -3.3093 1.5833
# 5 -9.2483 0.8245 -10.9845 -3.3093 53.5867 -4.1501
# 6 -29.4780 -6.2040 -4.8839 1.5833 -4.1501 34.3421
#
#
#
# Elastic Compliance Matrix: (Units=1/GPa)
#
#
# Indices 1 2 3 4 5 6 
#
# 1 0.034841 -0.006082 -0.008360 -0.015336 0.005693 0.029013
# 2 -0.006082 0.007384 -0.001029 0.003979 -0.001469 -0.004394
# 3 -0.008360 -0.001029 0.015280 0.007031 0.001729 -0.005304
# 4 -0.015336 0.003979 0.007031 0.054651 0.001037 -0.013839
# 5 0.005693 -0.001469 0.001729 0.001037 0.020651 0.007315
# 6 0.029013 -0.004394 -0.005304 -0.013839 0.007315 0.053997
#
#
# Mechanical properties :
#
#
# Convention : Reuss Voigt Hill
#
# Bulk Modulus (GPa) = 37.64515 60.45385 49.04950
# Shear Modulus (GPa) = 22.06536 37.07081 29.56808
#
# Velocity S-wave (km/s) = 3.03562 3.93467 3.51402
# Velocity P-wave (km/s) = 5.29227 6.77415 6.07854
#
# Compressibility (1/GPa) = 0.02656385
#
# Stress axis : x y z
#
# Youngs Moduli (GPa) = 28.70202 135.43268 65.44436
#
# Poissons Ratio (x) = 0.82366 0.54709
# Poissons Ratio (y) = 0.17456 0.06735
# Poissons Ratio (z) = 0.23994 0.13938
#
# Static dielectric constant tensor:
#      x y z
#    x 1.719180 -0.048680 -0.133160 
#    y -0.048680 1.949630 -0.064010 
#    z -0.133160 -0.064010 1.961780 
# 
# From -- ./inp_files/315105.got.cif
#   From: 2010.05.17/outbox.cif.g08.bks.cpg/sg2_158_cif.got.tgz:315105.got - 2010.06.03 11:33:40.
