data_PCOD9033451
_publ_section_title
;
Structure prediction by ZEFSAII (Michael W. Deem and Ramdas Pophale) SiO2 
 PCOD9033451
Probable space group: P -1
;
_chemical_formula_sum "Si O2"
_cell_formula_units_Z 16
_cell_length_a 6.223168
_cell_length_b 8.292458
_cell_length_c 17.150648
_cell_angle_alpha 62.894497
_cell_angle_beta 67.192195
_cell_angle_gamma 72.075183
_cell_volume 716.919634
_symmetry_space_group_name_H-M "P -1"
_symmetry_group_IT_number 2
_symmetry_cell_setting 'triclinic'
loop_
_space_group_symop_operation_xyz
x,y,z
-x,-y,-z
loop_
_atom_site_type_symbol
_atom_site_label
_atom_site_fract_x
_atom_site_fract_y
_atom_site_fract_z
Si Si1 0.480419 0.229529 0.220109
Si Si2 0.957848 0.235638 0.352957
Si Si3 0.221062 0.763994 0.299009
Si Si4 0.337079 0.101177 0.114448
Si Si5 0.641366 0.293316 0.528504
Si Si6 0.181616 0.136369 0.962254
Si Si7 0.682277 0.530959 0.213083
Si Si8 0.251362 0.074838 0.646848
O O1 0.413605 0.237946 0.136996
O O2 0.620647 0.391288 0.187250
O O3 0.235935 0.232806 0.301675
O O4 0.644275 0.041994 0.266464
O O5 0.868660 0.256741 0.449233
O O6 0.821084 0.411064 0.287502
O O7 0.865551 0.061050 0.363480
O O8 0.291367 0.753616 0.381543
O O9 0.425009 0.627908 0.257581
O O10 0.944314 0.752292 0.338288
O O11 0.219165 0.960373 0.214596
O O12 0.568941 0.979432 0.073337
O O13 0.185199 0.178137 0.044773
O O14 0.500000 0.500000 0.500000
O O15 0.462302 0.156578 0.558576
O O16 0.166408 0.321209 0.873853
O O17 0.000000 0.000000 0.000000
#
# Coordination Sequence:
#
# PCOD9033451 Si02
#       8
#     2   2   2   2   2   2   2   2
#     4  11  24  45  69  99 143 181 224 278 342 406
#     4  11  24  44  65  98 141 183 225 278 345 394
#     4  11  23  43  68  99 133 182 230 275 343 396
#     4  10  22  44  68 102 130 177 226 272 344 406
#     4  12  25  41  65 103 135 180 234 286 330 398
#     4  10  24  43  74 103 133 171 225 281 339 414
#     4  10  25  43  67 105 136 178 225 282 343 400
#     4  11  24  42  69  95 136 186 226 284 331 405
#
# _framework density 22.317705
#
# number of rings (size 3 to 8) (size 9 to 14) (size 15 to 20)
#    0.000    1.250    3.750    0.375    3.500    8.000 
#    0.000    1.250    0.000    0.000    0.000    0.000 
#    0.000    0.000    0.000    0.000    0.000    0.000 
#
# Total GULP energy -89447.249595 kJ/mol
# GULP energy per Si atom -5590.453100 kJ/mol
# Density = 2.226691 g / cm^3
# Si number density = 22.317705 Si / 1000 Ang^3
#
#
#
# Elastic Constant Matrix: (Units=GPa)
#
#
# Indices 1 2 3 4 5 6 
#
# 1 55.7284 19.2371 21.5386 -4.2048 -7.9444 -2.0712
# 2 19.2371 61.9415 33.3597 -10.8870 3.1592 -4.3773
# 3 21.5386 33.3597 109.6414 4.3998 4.7955 11.8879
# 4 -4.2048 -10.8870 4.3998 33.6773 8.9283 -2.6164
# 5 -7.9444 3.1592 4.7955 8.9283 25.1603 1.4062
# 6 -2.0712 -4.3773 11.8879 -2.6164 1.4062 40.7571
#
#
#
# Elastic Compliance Matrix: (Units=1/GPa)
#
#
# Indices 1 2 3 4 5 6 
#
# 1 0.022338 -0.005801 -0.003079 -0.000888 0.008625 0.001056
# 2 -0.005801 0.024249 -0.006896 0.010427 -0.007555 0.005251
# 3 -0.003079 -0.006896 0.012554 -0.004457 -0.000648 -0.004822
# 4 -0.000888 0.010427 -0.004457 0.037776 -0.014441 0.005298
# 5 0.008625 -0.007555 -0.000648 -0.014441 0.048822 -0.002796
# 6 0.001056 0.005251 -0.004822 0.005298 -0.002796 0.026996
#
#
# Mechanical properties :
#
#
# Convention : Reuss Voigt Hill
#
# Bulk Modulus (GPa) = 36.24593 41.73136 38.98865
# Shear Modulus (GPa) = 23.42117 30.13068 26.77592
#
# Velocity S-wave (km/s) = 3.24303 3.67833 3.46752
# Velocity P-wave (km/s) = 5.50446 6.06461 5.79131
#
# Compressibility (1/GPa) = 0.02758931
#
# Stress axis : x y z
#
# Youngs Moduli (GPa) = 44.76595 41.23960 79.65742
#
# Poissons Ratio (x) = 0.23921 0.24530
# Poissons Ratio (y) = 0.25967 0.54929
# Poissons Ratio (z) = 0.13786 0.28438
#
# Static dielectric constant tensor:
#      x y z
#    x 1.840310 0.001510 -0.023970 
#    y 0.001510 1.838870 0.010860 
#    z -0.023970 0.010860 1.825220 
# 
# From -- ./inp_files/39227.got.cif
#   From: 2010.05.17/outbox.cif.g08.bks.cpg/sg2_20_cif.got.tgz:39227.got - 2010.06.03 11:33:40.
