data_PCOD9033150
_publ_section_title
;
Structure prediction by ZEFSAII (Michael W. Deem and Ramdas Pophale) SiO2 
 PCOD9033150
Probable space group: P -1
;
_chemical_formula_sum "Si O2"
_cell_formula_units_Z 14
_cell_length_a 7.888072
_cell_length_b 7.828704
_cell_length_c 11.381264
_cell_angle_alpha 92.788325
_cell_angle_beta 87.108967
_cell_angle_gamma 56.244711
_cell_volume 581.110145
_symmetry_space_group_name_H-M "P -1"
_symmetry_group_IT_number 2
_symmetry_cell_setting 'triclinic'
loop_
_space_group_symop_operation_xyz
x,y,z
-x,-y,-z
loop_
_atom_site_type_symbol
_atom_site_label
_atom_site_fract_x
_atom_site_fract_y
_atom_site_fract_z
Si Si1 0.507436 0.895714 0.872775
Si Si2 0.608492 0.139687 0.743139
Si Si3 0.889212 0.441286 0.659503
Si Si4 0.446003 0.561196 0.639330
Si Si5 0.870766 0.475630 0.908225
Si Si6 0.231978 0.815098 0.009972
Si Si7 0.000712 0.766362 0.596758
O O1 0.736042 0.697668 0.861242
O O2 0.476367 0.045235 0.774311
O O3 0.359579 0.819710 0.897517
O O4 0.500000 0.000000 0.000000
O O5 0.480210 0.366255 0.702395
O O6 0.697180 0.147435 0.866649
O O7 0.796538 0.982059 0.647348
O O8 0.637946 0.572395 0.670974
O O9 0.964582 0.339717 0.782903
O O10 0.971596 0.585008 0.633748
O O11 0.963743 0.275187 0.546009
O O12 0.500000 0.500000 0.500000
O O13 0.202744 0.733790 0.649697
O O14 0.751161 0.397219 0.980493
O O15 0.000000 0.500000 0.000000
O O16 0.000000 0.000000 0.000000
#
# Coordination Sequence:
#
# PCOD9033150 Si02
#       7
#     2   2   2   2   2   2   2
#     4  10  23  43  65  98 140 178 238 296 346 431
#     4  11  22  46  70 102 147 182 239 301 352 435
#     4  10  22  44  66 104 141 179 245 287 353 437
#     4  10  23  44  69 102 141 186 242 292 359 424
#     4  12  23  43  71  96 143 190 228 298 362 416
#     4  11  25  43  65 106 139 182 244 288 359 433
#     4  10  23  44  75  99 145 187 232 300 359 427
#
# _framework density 24.091819000000001
#
# number of rings (size 3 to 8) (size 9 to 14) (size 15 to 20)
#    0.000    1.429    2.857    2.143    0.000    6.857 
#    0.000    6.429    3.143    0.000    0.000    0.000 
#    0.000    0.000    0.000    0.000    0.000    0.000 
#
# Total GULP energy -78241.646365 kJ/mol
# GULP energy per Si atom -5588.689026 kJ/mol
# Density = 2.403698 g / cm^3
# Si number density = 24.091819 Si / 1000 Ang^3
#
#
#
# Elastic Constant Matrix: (Units=GPa)
#
#
# Indices 1 2 3 4 5 6 
#
# 1 119.3987 2.0846 57.8490 5.0642 -4.8889 8.6345
# 2 2.0846 28.3572 11.7893 2.9700 1.6364 -4.4800
# 3 57.8490 11.7893 140.8318 1.8921 4.1709 -1.9328
# 4 5.0642 2.9700 1.8921 38.1965 7.4451 -9.3212
# 5 -4.8889 1.6364 4.1709 7.4451 46.8617 -3.2872
# 6 8.6345 -4.4800 -1.9328 -9.3212 -3.2872 40.5674
#
#
#
# Elastic Compliance Matrix: (Units=1/GPa)
#
#
# Indices 1 2 3 4 5 6 
#
# 1 0.010983 0.000813 -0.004638 -0.002320 0.001698 -0.002864
# 2 0.000813 0.037360 -0.003379 -0.001965 -0.000375 0.003310
# 3 -0.004638 -0.003379 0.009329 0.000948 -0.001265 0.001174
# 4 -0.002320 -0.001965 0.000948 0.029075 -0.004411 0.006645
# 5 0.001698 -0.000375 -0.001265 -0.004411 0.022366 0.000336
# 6 -0.002864 0.003310 0.001174 0.006645 0.000336 0.027236
#
#
# Mechanical properties :
#
#
# Convention : Reuss Voigt Hill
#
# Bulk Modulus (GPa) = 23.11306 48.00371 35.55839
# Shear Modulus (GPa) = 30.27036 39.58277 34.92656
#
# Velocity S-wave (km/s) = 3.54850 4.05779 3.81166
# Velocity P-wave (km/s) = 5.13845 6.47478 5.84493
#
# Compressibility (1/GPa) = 0.04326558
#
# Stress axis : x y z
#
# Youngs Moduli (GPa) = 91.04729 26.76693 107.18696
#
# Poissons Ratio (x) = -0.02177 0.49714
# Poissons Ratio (y) = -0.07405 0.36214
# Poissons Ratio (z) = 0.42229 0.09044
#
# Static dielectric constant tensor:
#      x y z
#    x 1.887980 0.035200 0.100770 
#    y 0.035200 1.902810 0.038070 
#    z 0.100770 0.038070 1.871480 
# 
# From -- ./inp_files/241033.got.cif
#   From: 2010.05.17/outbox.cif.g08.bks.cpg/sg2_121_cif.got.tgz:241033.got - 2010.06.03 11:33:40.
