data_PCOD9033789
_publ_section_title
;
Structure prediction by ZEFSAII (Michael W. Deem and Ramdas Pophale) SiO2 
 PCOD9033789
Probable space group: P -1
;
_chemical_formula_sum "Si O2"
_cell_formula_units_Z 14
_cell_length_a 16.923476
_cell_length_b 5.530595
_cell_length_c 7.352714
_cell_angle_alpha 107.956497
_cell_angle_beta 122.015689
_cell_angle_gamma 68.811869
_cell_volume 538.114410
_symmetry_space_group_name_H-M "P -1"
_symmetry_group_IT_number 2
_symmetry_cell_setting 'triclinic'
loop_
_space_group_symop_operation_xyz
x,y,z
-x,-y,-z
loop_
_atom_site_type_symbol
_atom_site_label
_atom_site_fract_x
_atom_site_fract_y
_atom_site_fract_z
Si Si1 0.107388 0.526576 0.600972
Si Si2 0.102293 0.292999 0.044132
Si Si3 0.159401 0.008441 0.674325
Si Si4 0.193028 0.713887 0.116814
Si Si5 0.545015 0.839884 0.195106
Si Si6 0.402646 0.710429 0.481048
Si Si7 0.364785 0.683508 0.863851
O O1 0.158873 0.221595 0.566835
O O2 0.000000 0.500000 0.500000
O O3 0.116005 0.757800 0.526939
O O4 0.154625 0.623229 0.859303
O O5 0.174439 0.487006 0.176288
O O6 0.133806 0.020652 0.134598
O O7 0.105560 0.168940 0.817237
O O8 0.000000 0.500000 0.000000
O O9 0.269047 0.893022 0.838407
O O10 0.306257 0.697833 0.256180
O O11 0.634800 0.618426 0.181154
O O12 0.575191 0.004531 0.428903
O O13 0.454293 0.720906 0.101056
O O14 0.500000 0.000000 0.000000
O O15 0.500000 0.500000 0.500000
O O16 0.379873 0.690388 0.665003
#
# Coordination Sequence:
#
# PCOD9033789 Si02
#       7
#     2   2   2   2   2   2   2
#     4  10  22  44  69  99 135 184 237 295 358 421
#     4  10  22  45  70  97 140 186 236 298 365 423
#     4  10  23  41  73  98 137 178 242 290 361 418
#     4  10  24  44  69 103 141 186 235 294 363 432
#     4   9  22  42  69  96 138 181 241 289 358 424
#     4  11  26  44  70 103 147 188 236 297 368 439
#     4  10  23  44  67 102 136 191 237 300 350 434
#
# _framework density 26.016774000000002
#
# number of rings (size 3 to 8) (size 9 to 14) (size 15 to 20)
#    0.000    2.000    0.000    0.857   10.000    6.286 
#   15.429    0.000    0.000    0.000    0.000    0.000 
#    0.000    0.000    0.000    0.000    0.000    0.000 
#
# Total GULP energy -78158.626164 kJ/mol
# GULP energy per Si atom -5582.759012 kJ/mol
# Density = 2.595756 g / cm^3
# Si number density = 26.016774 Si / 1000 Ang^3
#
#
#
# Elastic Constant Matrix: (Units=GPa)
#
#
# Indices 1 2 3 4 5 6 
#
# 1 63.6448 34.2184 44.7696 10.7358 24.8933 -0.0557
# 2 34.2184 202.6753 31.6856 9.2498 26.7791 17.3119
# 3 44.7696 31.6856 161.4532 16.5030 24.9552 -10.1071
# 4 10.7358 9.2498 16.5030 28.4929 -2.8485 20.5652
# 5 24.8933 26.7791 24.9552 -2.8485 59.3348 3.8093
# 6 -0.0557 17.3119 -10.1071 20.5652 3.8093 50.2631
#
#
#
# Elastic Compliance Matrix: (Units=1/GPa)
#
#
# Indices 1 2 3 4 5 6 
#
# 1 0.024853 -0.002434 -0.003572 -0.011296 -0.008717 0.005430
# 2 -0.002434 0.005739 -0.000523 0.000970 -0.001149 -0.002394
# 3 -0.003572 -0.000523 0.008818 -0.007683 -0.002683 0.005296
# 4 -0.011296 0.000970 -0.007683 0.066426 0.012649 -0.030028
# 5 -0.008717 -0.001149 -0.002683 0.012649 0.023220 -0.007089
# 6 0.005430 -0.002394 0.005296 -0.030028 -0.007089 0.034614
#
#
# Mechanical properties :
#
#
# Convention : Reuss Voigt Hill
#
# Bulk Modulus (GPa) = 37.94721 72.12451 55.03586
# Shear Modulus (GPa) = 26.95242 48.75813 37.85527
#
# Velocity S-wave (km/s) = 3.22213 4.33379 3.81863
# Velocity P-wave (km/s) = 5.33481 7.26807 6.37515
#
# Compressibility (1/GPa) = 0.02635240
#
# Stress axis : x y z
#
# Youngs Moduli (GPa) = 40.23628 174.25561 113.39920
#
# Poissons Ratio (x) = 0.42417 0.40506
# Poissons Ratio (y) = 0.09794 0.05928
# Poissons Ratio (z) = 0.14372 0.09110
#
# Static dielectric constant tensor:
#      x y z
#    x 2.253760 0.146480 0.017780 
#    y 0.146480 2.168630 0.039460 
#    z 0.017780 0.039460 1.952640 
# 
# From -- ./inp_files/100629.got.cif
#   From: 2010.05.17/outbox.cif.g08.bks.cpg/sg2_51_cif.got.tgz:100629.got - 2010.06.03 11:33:40.
