data_PCOD9033347
_publ_section_title
;
Structure prediction by ZEFSAII (Michael W. Deem and Ramdas Pophale) SiO2 
 PCOD9033347
Probable space group: P -1
;
_chemical_formula_sum "Si O2"
_cell_formula_units_Z 14
_cell_length_a 8.846778
_cell_length_b 5.834112
_cell_length_c 21.267267
_cell_angle_alpha 76.810177
_cell_angle_beta 138.590084
_cell_angle_gamma 121.217305
_cell_volume 595.389656
_symmetry_space_group_name_H-M "P -1"
_symmetry_group_IT_number 2
_symmetry_cell_setting 'triclinic'
loop_
_space_group_symop_operation_xyz
x,y,z
-x,-y,-z
loop_
_atom_site_type_symbol
_atom_site_label
_atom_site_fract_x
_atom_site_fract_y
_atom_site_fract_z
Si Si1 0.415023 0.695824 0.263265
Si Si2 0.289124 0.082842 0.444295
Si Si3 0.669597 0.230184 0.231852
Si Si4 0.906182 0.717890 0.446424
Si Si5 0.790915 0.635821 0.905475
Si Si6 0.761979 0.483262 0.654666
Si Si7 0.374845 0.897476 0.038138
O O1 0.585492 0.567105 0.349419
O O2 0.257056 0.541241 0.161686
O O3 0.233695 0.648875 0.269924
O O4 0.615560 0.013376 0.284189
O O5 0.465073 0.296405 0.542485
O O6 0.207581 0.217369 0.356290
O O7 0.500000 0.000000 0.500000
O O8 0.020655 0.837689 0.406265
O O9 0.445900 0.304570 0.169341
O O10 0.987075 0.467303 0.312107
O O11 0.597123 0.082748 0.149359
O O12 0.000000 0.500000 0.500000
O O13 0.000000 0.000000 0.500000
O O14 0.731662 0.426513 0.958430
O O15 0.101982 0.893121 0.974949
O O16 0.500000 0.000000 0.000000
#
# Coordination Sequence:
#
# PCOD9033347 Si02
#       7
#     2   2   2   2   2   2   2
#     4  11  24  41  63  95 135 179 229 283 347 417
#     4  11  25  40  63  92 134 181 237 294 343 413
#     4  11  24  40  67  97 133 173 227 283 348 420
#     4  12  26  45  71 100 140 193 240 294 359 415
#     4  10  24  41  66  96 131 171 221 283 342 426
#     4  11  24  42  60  95 133 173 235 282 350 405
#     4  10  22  44  67  96 130 169 219 276 354 419
#
# _framework density 23.514012999999998
#
# number of rings (size 3 to 8) (size 9 to 14) (size 15 to 20)
#    0.000    1.143    2.857    2.143    6.000    2.857 
#    0.000    0.000    0.000    0.000    0.000    0.000 
#    0.000    0.000    0.000    0.000    0.000    0.000 
#
# Total GULP energy -78031.715712 kJ/mol
# GULP energy per Si atom -5573.693979 kJ/mol
# Density = 2.346049 g / cm^3
# Si number density = 23.514013 Si / 1000 Ang^3
#
#
#
# Elastic Constant Matrix: (Units=GPa)
#
#
# Indices 1 2 3 4 5 6 
#
# 1 141.7546 57.2427 35.9460 -27.2873 -2.5084 37.3778
# 2 57.2427 64.7219 29.4446 -22.3706 -10.9458 22.2951
# 3 35.9460 29.4446 87.0434 -16.4601 8.7005 7.9958
# 4 -27.2873 -22.3706 -16.4601 41.9179 2.1503 1.8361
# 5 -2.5084 -10.9458 8.7005 2.1503 55.9781 -9.1755
# 6 37.3778 22.2951 7.9958 1.8361 -9.1755 48.8209
#
#
#
# Elastic Compliance Matrix: (Units=1/GPa)
#
#
# Indices 1 2 3 4 5 6 
#
# 1 0.012968 -0.007330 -0.001199 0.004464 -0.001972 -0.006924
# 2 -0.007330 0.031103 -0.005512 0.009714 0.005073 -0.007101
# 3 -0.001199 -0.005512 0.014569 0.002161 -0.003426 0.000324
# 4 0.004464 0.009714 0.002161 0.033274 -0.001099 -0.009665
# 5 -0.001972 0.005073 -0.003426 -0.001099 0.019923 0.003540
# 6 -0.006924 -0.007101 0.000324 -0.009665 0.003540 0.030002
#
#
# Mechanical properties :
#
#
# Convention : Reuss Voigt Hill
#
# Bulk Modulus (GPa) = 32.72368 59.86514 46.29441
# Shear Modulus (GPa) = 27.76112 40.73583 34.24847
#
# Velocity S-wave (km/s) = 3.43974 4.16673 3.82057
# Velocity P-wave (km/s) = 5.45185 6.97592 6.26044
#
# Compressibility (1/GPa) = 0.03055891
#
# Stress axis : x y z
#
# Youngs Moduli (GPa) = 77.11065 32.15131 68.63676
#
# Poissons Ratio (x) = 0.23567 0.08227
# Poissons Ratio (y) = 0.56523 0.37834
# Poissons Ratio (z) = 0.09243 0.17722
#
# Static dielectric constant tensor:
#      x y z
#    x 2.249840 -0.210540 0.117280 
#    y -0.210540 2.239240 0.014000 
#    z 0.117280 0.014000 2.001520 
# 
# From -- ./inp_files/46130.got.cif
#   From: 2010.05.17/outbox.cif.g08.bks.cpg/sg2_24_cif.got.tgz:46130.got - 2010.06.03 11:33:40.
