data_PCOD9033980
_publ_section_title
;
Structure prediction by ZEFSAII (Michael W. Deem and Ramdas Pophale) SiO2 
 PCOD9033980
Probable space group: P -1
;
_chemical_formula_sum "Si O2"
_cell_formula_units_Z 16
_cell_length_a 9.989012
_cell_length_b 8.772913
_cell_length_c 15.743951
_cell_angle_alpha 124.588468
_cell_angle_beta 137.236642
_cell_angle_gamma 84.645980
_cell_volume 628.953091
_symmetry_space_group_name_H-M "P -1"
_symmetry_group_IT_number 2
_symmetry_cell_setting 'triclinic'
loop_
_space_group_symop_operation_xyz
x,y,z
-x,-y,-z
loop_
_atom_site_type_symbol
_atom_site_label
_atom_site_fract_x
_atom_site_fract_y
_atom_site_fract_z
Si Si1 0.027924 0.323257 0.512416
Si Si2 0.297180 0.107001 0.985425
Si Si3 0.405274 0.641398 0.465221
Si Si4 0.887676 0.992496 0.647934
Si Si5 0.099378 0.424164 0.769853
Si Si6 0.681067 0.492747 0.809112
Si Si7 0.507889 0.900866 0.111563
Si Si8 0.751265 0.147615 0.784014
O O1 0.137792 0.419140 0.685802
O O2 0.000000 0.500000 0.500000
O O3 0.156967 0.221790 0.492067
O O4 0.754348 0.100234 0.331832
O O5 0.396829 0.356211 0.140969
O O6 0.339053 0.984973 0.040344
O O7 0.020925 0.982101 0.790475
O O8 0.410934 0.111528 0.950144
O O9 0.500000 0.500000 0.500000
O O10 0.132355 0.564459 0.328395
O O11 0.424626 0.614792 0.365083
O O12 0.580839 0.898095 0.663595
O O13 0.045175 0.202715 0.722216
O O14 0.759137 0.092496 0.670075
O O15 0.339321 0.650189 0.990566
O O16 0.632843 0.285142 0.776828
O O17 0.975976 0.677200 0.999359
#
# Coordination Sequence:
#
# PCOD9033980 Si02
#       8
#     2   2   2   2   2   2   2   2
#     4  11  25  44  73 102 132 181 226 270 340 401
#     4   9  20  41  71  98 123 180 221 266 337 398
#     4  12  29  43  66 101 139 176 224 284 331 395
#     4  10  22  44  70  98 136 173 223 284 327 400
#     4  12  26  45  64 102 139 174 226 278 337 396
#     4  10  22  44  72  95 127 178 224 273 337 404
#     4  10  23  44  66 100 137 171 224 281 327 400
#     4  10  23  47  69  96 131 177 227 274 337 401
#
# _framework density 25.4391
#
# number of rings (size 3 to 8) (size 9 to 14) (size 15 to 20)
#    0.000    1.500    1.250    3.000    7.000    4.500 
#    2.250    0.000    0.000    0.000    0.000    0.000 
#    0.000    0.000    0.000    0.000    0.000    0.000 
#
# Total GULP energy -89423.216762 kJ/mol
# GULP energy per Si atom -5588.951048 kJ/mol
# Density = 2.538120 g / cm^3
# Si number density = 25.439100 Si / 1000 Ang^3
#
#
#
# Elastic Constant Matrix: (Units=GPa)
#
#
# Indices 1 2 3 4 5 6 
#
# 1 62.7052 5.7129 -16.6148 -0.6044 -18.5092 -12.0357
# 2 5.7129 93.2795 21.1000 18.1251 -13.6586 -21.9329
# 3 -16.6148 21.1000 116.5154 15.6951 -3.1216 3.6623
# 4 -0.6044 18.1251 15.6951 44.1216 0.2798 -8.1747
# 5 -18.5092 -13.6586 -3.1216 0.2798 39.0854 1.3498
# 6 -12.0357 -21.9329 3.6623 -8.1747 1.3498 30.5013
#
#
#
# Elastic Compliance Matrix: (Units=1/GPa)
#
#
# Indices 1 2 3 4 5 6 
#
# 1 0.021356 0.001681 0.002716 0.000217 0.010609 0.008898
# 2 0.001681 0.015100 -0.002213 -0.003461 0.005554 0.010613
# 3 0.002716 -0.002213 0.009903 -0.003066 0.001415 -0.002593
# 4 0.000217 -0.003461 -0.003066 0.026125 -0.001713 0.005042
# 5 0.010609 0.005554 0.001415 -0.001713 0.032464 0.006114
# 6 0.008898 0.010613 -0.002593 0.005042 0.006114 0.045321
#
#
# Mechanical properties :
#
#
# Convention : Reuss Voigt Hill
#
# Bulk Modulus (GPa) = 19.71362 32.54403 26.12882
# Shear Modulus (GPa) = 30.71089 40.22849 35.46969
#
# Velocity S-wave (km/s) = 3.47829 3.98095 3.73808
# Velocity P-wave (km/s) = 4.88851 5.82678 5.37814
#
# Compressibility (1/GPa) = 0.05072635
#
# Stress axis : x y z
#
# Youngs Moduli (GPa) = 46.82605 66.22719 100.97900
#
# Poissons Ratio (x) = -0.11134 -0.27427
# Poissons Ratio (y) = -0.07872 0.22349
# Poissons Ratio (z) = -0.12718 0.14657
#
# Static dielectric constant tensor:
#      x y z
#    x 2.143460 -0.018140 0.145130 
#    y -0.018140 2.001750 0.021320 
#    z 0.145130 0.021320 2.096770 
# 
# From -- ./inp_files/566960.got.cif
#   From: 2010.05.17/outbox.cif.g08.bks.cpg/sg2_284_cif.got.tgz:566960.got - 2010.06.03 11:33:40.
