data_PCOD9033600
_publ_section_title
;
Structure prediction by ZEFSAII (Michael W. Deem and Ramdas Pophale) SiO2 
 PCOD9033600
Probable space group: P -1
;
_chemical_formula_sum "Si O2"
_cell_formula_units_Z 14
_cell_length_a 6.688990
_cell_length_b 11.329497
_cell_length_c 8.660915
_cell_angle_alpha 73.483950
_cell_angle_beta 65.364803
_cell_angle_gamma 79.230425
_cell_volume 570.230020
_symmetry_space_group_name_H-M "P -1"
_symmetry_group_IT_number 2
_symmetry_cell_setting 'triclinic'
loop_
_space_group_symop_operation_xyz
x,y,z
-x,-y,-z
loop_
_atom_site_type_symbol
_atom_site_label
_atom_site_fract_x
_atom_site_fract_y
_atom_site_fract_z
Si Si1 0.607120 0.887249 0.903185
Si Si2 0.583692 0.806009 0.436345
Si Si3 0.764621 0.997113 0.501028
Si Si4 0.950601 0.640419 0.515518
Si Si5 0.014626 0.310229 0.149286
Si Si6 0.358896 0.507633 0.886543
Si Si7 0.604840 0.293527 0.770185
O O1 0.624368 0.935433 0.705144
O O2 0.856819 0.823169 0.879585
O O3 0.452220 0.776173 0.028459
O O4 0.500000 0.000000 0.000000
O O5 0.742367 0.913697 0.389221
O O6 0.706779 0.690881 0.524747
O O7 0.536588 0.771351 0.289523
O O8 0.346150 0.866705 0.544179
O O9 0.000000 0.000000 0.500000
O O10 0.976331 0.664992 0.679261
O O11 0.000000 0.500000 0.500000
O O12 0.137158 0.715715 0.344972
O O13 0.772235 0.361415 0.151531
O O14 0.174679 0.408256 0.990884
O O15 0.524810 0.438343 0.737363
O O16 0.500000 0.500000 0.000000
#
# Coordination Sequence:
#
# PCOD9033600 Si02
#       7
#     2   2   2   2   2   2   2
#     4  11  23  45  72 101 145 186 236 298 354 426
#     4  11  24  43  74 106 143 188 241 295 359 430
#     4  11  24  49  73 102 144 194 242 299 358 428
#     4  12  25  44  72 106 144 189 242 295 362 429
#     4  10  23  42  66  98 140 181 233 294 349 424
#     4  10  22  44  68  98 141 186 232 294 362 420
#     4  11  25  44  70 106 149 183 245 297 353 432
#
# _framework density 24.551496
#
# number of rings (size 3 to 8) (size 9 to 14) (size 15 to 20)
#    0.000    1.143    2.857    2.571    0.000    5.714 
#    0.000    4.286    0.000    0.000    0.000    0.000 
#    0.000    0.000    0.000    0.000    0.000    0.000 
#
# Total GULP energy -78198.773872 kJ/mol
# GULP energy per Si atom -5585.626705 kJ/mol
# Density = 2.449562 g / cm^3
# Si number density = 24.551496 Si / 1000 Ang^3
#
#
#
# Elastic Constant Matrix: (Units=GPa)
#
#
# Indices 1 2 3 4 5 6 
#
# 1 158.8918 74.9934 34.8041 5.5134 15.5660 -37.0644
# 2 74.9934 187.1396 33.8948 16.3340 17.3810 -45.3442
# 3 34.8041 33.8948 77.2296 -4.5546 -7.9544 -2.7961
# 4 5.5134 16.3340 -4.5546 45.7905 2.0835 3.0617
# 5 15.5660 17.3810 -7.9544 2.0835 40.0445 1.0905
# 6 -37.0644 -45.3442 -2.7961 3.0617 1.0905 61.0704
#
#
#
# Elastic Compliance Matrix: (Units=1/GPa)
#
#
# Indices 1 2 3 4 5 6 
#
# 1 0.009290 -0.001501 -0.003820 -0.001090 -0.003784 0.004471
# 2 -0.001501 0.008565 -0.003475 -0.003417 -0.003797 0.005528
# 3 -0.003820 -0.003475 0.016883 0.003387 0.006291 -0.004408
# 4 -0.001090 -0.003417 0.003387 0.023744 0.001460 -0.004260
# 5 -0.003784 -0.003797 0.006291 0.001460 0.029412 -0.005426
# 6 0.004471 0.005528 -0.004408 -0.004260 -0.005426 0.023301
#
#
# Mechanical properties :
#
#
# Convention : Reuss Voigt Hill
#
# Bulk Modulus (GPa) = 58.32218 78.96060 68.64139
# Shear Modulus (GPa) = 37.17363 48.01900 42.59631
#
# Velocity S-wave (km/s) = 3.89538 4.42729 4.16983
# Velocity P-wave (km/s) = 6.63615 7.63974 7.15556
#
# Compressibility (1/GPa) = 0.01714613
#
# Stress axis : x y z
#
# Youngs Moduli (GPa) = 107.63920 116.75418 59.23083
#
# Poissons Ratio (x) = 0.17527 0.22626
# Poissons Ratio (y) = 0.16159 0.20582
# Poissons Ratio (z) = 0.41118 0.40572
#
# Static dielectric constant tensor:
#      x y z
#    x 1.842940 -0.217930 0.036510 
#    y -0.217930 1.705130 0.144250 
#    z 0.036510 0.144250 1.880230 
# 
# From -- ./inp_files/131423.got.cif
#   From: 2010.05.17/outbox.cif.g08.bks.cpg/sg2_66_cif.got.tgz:131423.got - 2010.06.03 11:33:40.
