data_PCOD9033177
_publ_section_title
;
Structure prediction by ZEFSAII (Michael W. Deem and Ramdas Pophale) SiO2 
 PCOD9033177
Probable space group: P -1
;
_chemical_formula_sum "Si O2"
_cell_formula_units_Z 14
_cell_length_a 9.334401
_cell_length_b 23.795096
_cell_length_c 6.655020
_cell_angle_alpha 130.443223
_cell_angle_beta 54.844927
_cell_angle_gamma 144.150718
_cell_volume 654.680653
_symmetry_space_group_name_H-M "P -1"
_symmetry_group_IT_number 2
_symmetry_cell_setting 'triclinic'
loop_
_space_group_symop_operation_xyz
x,y,z
-x,-y,-z
loop_
_atom_site_type_symbol
_atom_site_label
_atom_site_fract_x
_atom_site_fract_y
_atom_site_fract_z
Si Si1 0.456208 0.033239 0.415018
Si Si2 0.111300 0.170441 0.663771
Si Si3 0.521558 0.196556 0.538399
Si Si4 0.844617 0.427168 0.769859
Si Si5 0.772655 0.664837 0.334014
Si Si6 0.087311 0.795328 0.765856
Si Si7 0.232086 0.473602 0.258463
O O1 0.472206 0.127735 0.607028
O O2 0.698494 0.085298 0.207414
O O3 0.500000 0.000000 0.500000
O O4 0.177153 0.932992 0.352988
O O5 0.275240 0.146042 0.503926
O O6 0.200660 0.245861 0.578264
O O7 0.113091 0.224007 0.982232
O O8 0.643959 0.311172 0.745471
O O9 0.732871 0.211323 0.288062
O O10 0.737152 0.462709 0.810058
O O11 0.021219 0.438502 0.494730
O O12 0.000000 0.500000 0.000000
O O13 0.491860 0.558218 0.360658
O O14 0.951022 0.717123 0.504391
O O15 0.833672 0.624072 0.014529
#
# Coordination Sequence:
#
# PCOD9033177 Si02
#       7
#     2   2   2   2   2   2   2
#     4  10  22  44  66  93 132 168 212 273 325 385
#     4  12  21  43  68  94 130 168 219 267 318 392
#     4  10  23  40  64  97 124 170 213 266 320 380
#     4  11  22  41  63  96 130 166 219 266 319 385
#     4  11  22  42  64  95 130 170 217 260 329 384
#     4  10  24  40  66  93 129 170 211 264 329 379
#     4  10  24  39  64  94 130 172 210 270 319 383
#
# _framework density 21.38447
#
# number of rings (size 3 to 8) (size 9 to 14) (size 15 to 20)
#    0.857    0.571    2.857    2.571    2.000    0.000 
#    0.000    5.714    0.000    0.000    0.000    0.000 
#    0.000    0.000    0.000    0.000    0.000    0.000 
#
# Total GULP energy -77965.352118 kJ/mol
# GULP energy per Si atom -5568.953723 kJ/mol
# Density = 2.133580 g / cm^3
# Si number density = 21.384470 Si / 1000 Ang^3
#
#
#
# Elastic Constant Matrix: (Units=GPa)
#
#
# Indices 1 2 3 4 5 6 
#
# 1 122.2494 33.4955 38.7720 -3.0999 -9.3271 2.4665
# 2 33.4955 88.5632 23.8960 16.9334 8.6514 -8.0362
# 3 38.7720 23.8960 23.2479 5.4367 5.8811 1.4593
# 4 -3.0999 16.9334 5.4367 19.7627 9.9787 -1.9010
# 5 -9.3271 8.6514 5.8811 9.9787 23.4776 8.4610
# 6 2.4665 -8.0362 1.4593 -1.9010 8.4610 46.9629
#
#
#
# Elastic Compliance Matrix: (Units=1/GPa)
#
#
# Indices 1 2 3 4 5 6 
#
# 1 0.025779 0.000009 -0.049692 0.006785 0.020997 -0.003317
# 2 0.000009 0.018005 -0.016378 -0.011245 0.001199 0.002918
# 3 -0.049692 -0.016378 0.157792 -0.011929 -0.049357 0.003314
# 4 0.006785 -0.011245 -0.011929 0.077973 -0.025412 0.005825
# 5 0.020997 0.001199 -0.049357 -0.025412 0.078924 -0.014612
# 6 -0.003317 0.002918 0.003314 0.005825 -0.014612 0.024732
#
#
# Mechanical properties :
#
#
# Convention : Reuss Voigt Hill
#
# Bulk Modulus (GPa) = 14.39833 47.37641 30.88737
# Shear Modulus (GPa) = 9.28540 27.23376 18.25958
#
# Velocity S-wave (km/s) = 2.08604 3.57253 2.92528
# Velocity P-wave (km/s) = 3.54256 6.26258 5.08772
#
# Compressibility (1/GPa) = 0.06945251
#
# Stress axis : x y z
#
# Youngs Moduli (GPa) = 38.79173 55.54023 6.33745
#
# Poissons Ratio (x) = -0.00048 0.31492
# Poissons Ratio (y) = -0.00034 0.10380
# Poissons Ratio (z) = 1.92764 0.90965
#
# Static dielectric constant tensor:
#      x y z
#    x 1.804780 0.000750 -0.012330 
#    y 0.000750 1.822940 -0.010150 
#    z -0.012330 -0.010150 1.798390 
# 
# From -- ./inp_files/55708.got.cif
#   From: 2010.05.17/outbox.cif.g08.bks.cpg/sg2_28_cif.got.tgz:55708.got - 2010.06.03 11:33:40.
