data_PCOD9033883
_publ_section_title
;
Structure prediction by ZEFSAII (Michael W. Deem and Ramdas Pophale) SiO2 
 PCOD9033883
Probable space group: P -1
;
_chemical_formula_sum "Si O2"
_cell_formula_units_Z 13
_cell_length_a 15.916979
_cell_length_b 7.847620
_cell_length_c 7.237782
_cell_angle_alpha 101.157874
_cell_angle_beta 114.462671
_cell_angle_gamma 43.113434
_cell_volume 553.752936
_symmetry_space_group_name_H-M "P -1"
_symmetry_group_IT_number 2
_symmetry_cell_setting 'triclinic'
loop_
_space_group_symop_operation_xyz
x,y,z
-x,-y,-z
loop_
_atom_site_type_symbol
_atom_site_label
_atom_site_fract_x
_atom_site_fract_y
_atom_site_fract_z
Si Si1 0.500000 0.000000 0.500000
Si Si2 0.234304 0.755357 0.124482
Si Si3 0.048229 0.086484 0.697439
Si Si4 0.511210 0.365212 0.743104
Si Si5 0.388662 0.300146 0.926085
Si Si6 0.752566 0.086420 0.465812
Si Si7 0.781813 0.655375 0.532849
O O1 0.491788 0.223173 0.568276
O O2 0.335154 0.210939 0.397770
O O3 0.339893 0.764517 0.169003
O O4 0.201210 0.833755 0.324031
O O5 0.315771 0.473018 0.075792
O O6 0.105908 0.945907 0.915472
O O7 0.925833 0.387682 0.665852
O O8 0.173105 0.994553 0.677373
O O9 0.000000 0.000000 0.500000
O O10 0.464094 0.351482 0.895142
O O11 0.404840 0.658024 0.649188
O O12 0.277325 0.371797 0.702591
O O13 0.500000 0.000000 0.000000
O O14 0.784599 0.852333 0.520107
#
# Coordination Sequence:
#
# PCOD9033883 Si02
#       7
#     1   2   2   2   2   2   2
#     4  10  22  44  70 106 136 186 236 304 354 424
#     4  12  25  45  75 108 143 197 244 296 365 438
#     4  12  26  52  69 102 156 195 242 303 364 431
#     4  11  23  44  71 107 151 180 243 310 358 425
#     4  11  24  42  72 106 145 191 241 303 367 431
#     4  12  26  46  76 107 146 192 246 302 365 435
#     4  11  24  47  71 104 150 191 239 307 367 423
#
# _framework density 23.476172999999999
#
# number of rings (size 3 to 8) (size 9 to 14) (size 15 to 20)
#    0.000    0.615    4.615    3.231    6.462    1.231 
#    0.000    0.000    0.000    0.000    0.000    0.000 
#    0.000    0.000    0.000    0.000    0.000    0.000 
#
# Total GULP energy -72538.439146 kJ/mol
# GULP energy per Si atom -5579.879934 kJ/mol
# Density = 2.342274 g / cm^3
# Si number density = 23.476173 Si / 1000 Ang^3
#
#
#
# Elastic Constant Matrix: (Units=GPa)
#
#
# Indices 1 2 3 4 5 6 
#
# 1 39.9737 21.8552 -4.0693 -8.0446 -4.2400 -3.8168
# 2 21.8552 157.4880 34.1636 -7.5862 -1.4341 -0.7588
# 3 -4.0693 34.1636 107.9757 -16.1381 -4.5165 -6.1419
# 4 -8.0446 -7.5862 -16.1381 15.7797 -6.2133 6.5220
# 5 -4.2400 -1.4341 -4.5165 -6.2133 35.5787 3.2792
# 6 -3.8168 -0.7588 -6.1419 6.5220 3.2792 38.9922
#
#
#
# Elastic Compliance Matrix: (Units=1/GPa)
#
#
# Indices 1 2 3 4 5 6 
#
# 1 0.034894 -0.005042 0.007301 0.026999 0.009676 -0.000862
# 2 -0.005042 0.007578 -0.002986 -0.002241 -0.001033 -0.000355
# 3 0.007301 -0.002986 0.013470 0.018692 0.005801 -0.000836
# 4 0.026999 -0.002241 0.018692 0.111970 0.026474 -0.015412
# 5 0.009676 -0.001033 0.005801 0.026474 0.035088 -0.005538
# 6 -0.000862 -0.000355 -0.000836 -0.015412 -0.005538 0.028467
#
#
# Mechanical properties :
#
#
# Convention : Reuss Voigt Hill
#
# Bulk Modulus (GPa) = 18.35244 45.48181 31.91713
# Shear Modulus (GPa) = 19.91372 34.96932 27.44152
#
# Velocity S-wave (km/s) = 2.91564 3.86368 3.42264
# Velocity P-wave (km/s) = 4.37825 6.27054 5.40780
#
# Compressibility (1/GPa) = 0.05448866
#
# Stress axis : x y z
#
# Youngs Moduli (GPa) = 28.65855 131.96057 74.23821
#
# Poissons Ratio (x) = 0.66530 -0.54202
# Poissons Ratio (y) = 0.14449 0.22168
# Poissons Ratio (z) = -0.20924 0.39404
#
# Static dielectric constant tensor:
#      x y z
#    x 1.888180 -0.000160 -0.033390 
#    y -0.000160 1.861960 0.046970 
#    z -0.033390 0.046970 1.929030 
# 
# From -- ./inp_files/320215.got.cif
#   From: 2010.05.17/outbox.cif.g08.bks.cpg/sg2_161_cif.got.tgz:320215.got - 2010.06.03 11:33:40.
