data_PCOD9033640
_publ_section_title
;
Structure prediction by ZEFSAII (Michael W. Deem and Ramdas Pophale) SiO2 
 PCOD9033640
Probable space group: P -1
;
_chemical_formula_sum "Si O2"
_cell_formula_units_Z 16
_cell_length_a 8.381762
_cell_length_b 5.132867
_cell_length_c 18.571776
_cell_angle_alpha 69.296373
_cell_angle_beta 119.401877
_cell_angle_gamma 85.768804
_cell_volume 620.422292
_symmetry_space_group_name_H-M "P -1"
_symmetry_group_IT_number 2
_symmetry_cell_setting 'triclinic'
loop_
_space_group_symop_operation_xyz
x,y,z
-x,-y,-z
loop_
_atom_site_type_symbol
_atom_site_label
_atom_site_fract_x
_atom_site_fract_y
_atom_site_fract_z
Si Si1 0.854823 0.335441 0.017976
Si Si2 0.593101 0.814063 0.650495
Si Si3 0.917373 0.703871 0.346944
Si Si4 0.454395 0.840220 0.760210
Si Si5 0.753565 0.562995 0.189697
Si Si6 0.618033 0.961406 0.922718
Si Si7 0.675386 0.635063 0.531313
Si Si8 0.956399 0.890514 0.778484
O O1 0.246489 0.846501 0.038661
O O2 0.974775 0.108605 0.125656
O O3 0.000000 0.500000 0.000000
O O4 0.700683 0.618034 0.993110
O O5 0.538737 0.666373 0.723467
O O6 0.706039 0.650145 0.622536
O O7 0.732832 0.972294 0.704003
O O8 0.407139 0.042106 0.551296
O O9 0.838985 0.504395 0.295734
O O10 0.122676 0.541715 0.442394
O O11 0.731883 0.893134 0.330058
O O12 0.964207 0.919402 0.277285
O O13 0.384030 0.640203 0.819778
O O14 0.593412 0.958594 0.830181
O O15 0.934703 0.442943 0.190269
O O16 0.601239 0.881248 0.114126
O O17 0.500000 0.500000 0.500000
#
# Coordination Sequence:
#
# PCOD9033640 Si02
#       8
#     2   2   2   2   2   2   2   2
#     4  12  27  45  69 106 147 184 239 302 352 416
#     4  11  24  42  70 103 135 185 231 292 360 426
#     4  10  22  44  69 101 137 185 236 290 355 429
#     4  10  23  45  71 102 143 190 234 291 358 418
#     4  10  22  45  69  99 140 190 233 290 349 430
#     4  11  24  47  68 100 145 186 236 293 348 418
#     4  11  23  43  68 102 141 174 235 294 355 432
#     4  11  24  42  71  99 137 187 238 285 361 422
#
# _framework density 25.788886000000002
#
# number of rings (size 3 to 8) (size 9 to 14) (size 15 to 20)
#    0.000    1.250    3.750    1.125    1.750    3.500 
#    2.250    1.250    0.000    0.000    0.000    0.000 
#    0.000    0.000    0.000    0.000    0.000    0.000 
#
# Total GULP energy -89309.544831 kJ/mol
# GULP energy per Si atom -5581.846552 kJ/mol
# Density = 2.573019 g / cm^3
# Si number density = 25.788886 Si / 1000 Ang^3
#
#
#
# Elastic Constant Matrix: (Units=GPa)
#
#
# Indices 1 2 3 4 5 6 
#
# 1 37.4629 1.0759 23.4378 7.8802 14.3696 1.3753
# 2 1.0759 85.4826 29.6012 2.6894 9.3051 10.7438
# 3 23.4378 29.6012 117.6025 4.9201 24.2766 -5.9349
# 4 7.8802 2.6894 4.9201 37.4091 -0.8397 9.3716
# 5 14.3696 9.3051 24.2766 -0.8397 37.7633 3.8740
# 6 1.3753 10.7438 -5.9349 9.3716 3.8740 35.1762
#
#
#
# Elastic Compliance Matrix: (Units=1/GPa)
#
#
# Indices 1 2 3 4 5 6 
#
# 1 0.035651 0.002787 -0.005216 -0.007281 -0.011064 0.000033
# 2 0.002787 0.013808 -0.003996 0.000138 -0.001390 -0.004884
# 3 -0.005216 -0.003996 0.011891 -0.001388 -0.005154 0.004368
# 4 -0.007281 0.000138 -0.001388 0.030749 0.005211 -0.008758
# 5 -0.011064 -0.001390 -0.005154 0.005211 0.035001 -0.005255
# 6 0.000033 -0.004884 0.004368 -0.008758 -0.005255 0.033568
#
#
# Mechanical properties :
#
#
# Convention : Reuss Voigt Hill
#
# Bulk Modulus (GPa) = 20.61931 38.75310 29.68620
# Shear Modulus (GPa) = 26.35947 34.49860 30.42903
#
# Velocity S-wave (km/s) = 3.20054 3.66147 3.43873
# Velocity P-wave (km/s) = 4.65518 5.73889 5.22520
#
# Compressibility (1/GPa) = 0.04849822
#
# Stress axis : x y z
#
# Youngs Moduli (GPa) = 28.04991 72.42235 84.09654
#
# Poissons Ratio (x) = -0.20183 0.43867
# Poissons Ratio (y) = -0.07817 0.33608
# Poissons Ratio (z) = 0.14632 0.28943
#
# Static dielectric constant tensor:
#      x y z
#    x 2.115060 0.034970 0.040580 
#    y 0.034970 2.176350 0.006800 
#    z 0.040580 0.006800 2.054850 
# 
# From -- ./inp_files/51566.got.cif
#   From: 2010.05.17/outbox.cif.g08.bks.cpg/sg2_26_cif.got.tgz:51566.got - 2010.06.03 11:33:40.
