data_PCOD9033441
_publ_section_title
;
Structure prediction by ZEFSAII (Michael W. Deem and Ramdas Pophale) SiO2 
 PCOD9033441
Probable space group: P -1
;
_chemical_formula_sum "Si O2"
_cell_formula_units_Z 11
_cell_length_a 14.135800
_cell_length_b 9.423368
_cell_length_c 4.734597
_cell_angle_alpha 83.679868
_cell_angle_beta 61.401576
_cell_angle_gamma 46.666334
_cell_volume 378.485567
_symmetry_space_group_name_H-M "P -1"
_symmetry_group_IT_number 2
_symmetry_cell_setting 'triclinic'
loop_
_space_group_symop_operation_xyz
x,y,z
-x,-y,-z
loop_
_atom_site_type_symbol
_atom_site_label
_atom_site_fract_x
_atom_site_fract_y
_atom_site_fract_z
Si Si1 0.500000 0.000000 0.000000
Si Si2 0.483129 0.235675 0.476480
Si Si3 0.729236 0.161762 0.502666
Si Si4 0.840561 0.216234 0.808687
Si Si5 0.091687 0.303449 0.629437
Si Si6 0.821873 0.500191 0.420328
O O1 0.546970 0.098388 0.133405
O O2 0.546384 0.850155 0.219699
O O3 0.586477 0.250863 0.489928
O O4 0.311862 0.446850 0.576309
O O5 0.705343 0.272901 0.797777
O O6 0.828179 0.923736 0.494146
O O7 0.828157 0.166586 0.148062
O O8 0.847318 0.377607 0.683306
O O9 0.000000 0.000000 0.500000
O O10 0.235373 0.278930 0.494862
O O11 0.000000 0.500000 0.500000
O O12 0.978012 0.375815 0.039778
#
# Coordination Sequence:
#
# PCOD9033441 Si02
#       6
#     1   2   2   2   2   2
#     4  10  22  44  68 100 154 178 228 280 380 406
#     4  11  25  43  71 108 140 192 227 305 351 429
#     4  12  27  46  75 101 147 188 242 284 370 423
#     4  12  26  49  71 104 143 196 232 296 354 436
#     4  11  25  44  71 106 137 191 239 302 343 431
#     4  11  27  43  72 105 144 180 248 293 357 413
#
# _framework density 29.063193999999999
#
# number of rings (size 3 to 8) (size 9 to 14) (size 15 to 20)
#    0.000    0.727    1.818    4.909   10.182    1.455 
#    0.000    0.000    0.000    0.000    0.000    0.000 
#    0.000    0.000    0.000    0.000    0.000    0.000 
#
# Total GULP energy -61427.262213 kJ/mol
# GULP energy per Si atom -5584.296565 kJ/mol
# Density = 2.899704 g / cm^3
# Si number density = 29.063194 Si / 1000 Ang^3
#
#
#
# Elastic Constant Matrix: (Units=GPa)
#
#
# Indices 1 2 3 4 5 6 
#
# 1 165.9496 38.6840 21.7004 -10.1374 3.8075 0.4162
# 2 38.6840 163.6418 59.1654 -45.8460 -13.6845 27.7391
# 3 21.7004 59.1654 183.5732 -35.8372 13.5773 4.6260
# 4 -10.1374 -45.8460 -35.8372 47.7181 0.9208 6.8628
# 5 3.8075 -13.6845 13.5773 0.9208 52.8839 -7.1317
# 6 0.4162 27.7391 4.6260 6.8628 -7.1317 58.3725
#
#
#
# Elastic Compliance Matrix: (Units=1/GPa)
#
#
# Indices 1 2 3 4 5 6 
#
# 1 0.006460 -0.001825 -0.000277 -0.000695 -0.000742 0.000834
# 2 -0.001825 0.011083 -0.001426 0.010010 0.002378 -0.006027
# 3 -0.000277 -0.001426 0.006877 0.003865 -0.002262 -0.000596
# 4 -0.000695 0.010010 0.003865 0.034649 -0.000190 -0.009155
# 5 -0.000742 0.002378 -0.002262 -0.000190 0.020373 0.001566
# 6 0.000834 -0.006027 -0.000596 -0.009155 0.001566 0.021304
#
#
# Mechanical properties :
#
#
# Convention : Reuss Voigt Hill
#
# Bulk Modulus (GPa) = 57.59396 83.58494 70.58945
# Shear Modulus (GPa) = 44.01750 58.03588 51.02669
#
# Velocity S-wave (km/s) = 3.89594 4.47350 4.19467
# Velocity P-wave (km/s) = 6.33227 7.45017 6.91385
#
# Compressibility (1/GPa) = 0.01736293
#
# Stress axis : x y z
#
# Youngs Moduli (GPa) = 154.79698 90.22863 145.41948
#
# Poissons Ratio (x) = 0.16467 0.04033
# Poissons Ratio (y) = 0.28250 0.20738
# Poissons Ratio (z) = 0.04293 0.12867
#
# Static dielectric constant tensor:
#      x y z
#    x 2.502060 0.083380 0.064240 
#    y 0.083380 2.109580 -0.104490 
#    z 0.064240 -0.104490 1.795420 
# 
# From -- ./inp_files/87148.got.cif
#   From: 2010.05.17/outbox.cif.g08.bks.cpg/sg2_44_cif.got.tgz:87148.got - 2010.06.03 11:33:40.
