data_PCOD9033231
_publ_section_title
;
Structure prediction by ZEFSAII (Michael W. Deem and Ramdas Pophale) SiO2 
 PCOD9033231
Probable space group: P -1
;
_chemical_formula_sum "Si O2"
_cell_formula_units_Z 14
_cell_length_a 15.262739
_cell_length_b 25.154718
_cell_length_c 7.659353
_cell_angle_alpha 129.444201
_cell_angle_beta 59.434785
_cell_angle_gamma 162.429716
_cell_volume 623.141121
_symmetry_space_group_name_H-M "P -1"
_symmetry_group_IT_number 2
_symmetry_cell_setting 'triclinic'
loop_
_space_group_symop_operation_xyz
x,y,z
-x,-y,-z
loop_
_atom_site_type_symbol
_atom_site_label
_atom_site_fract_x
_atom_site_fract_y
_atom_site_fract_z
Si Si1 0.864451 0.125449 0.630134
Si Si2 0.714234 0.171203 0.987370
Si Si3 0.108800 0.185607 0.227428
Si Si4 0.228771 0.571880 0.533348
Si Si5 0.776833 0.027022 0.903700
Si Si6 0.495817 0.690528 0.868280
Si Si7 0.780993 0.372738 0.790824
O O1 0.104131 0.239796 0.497298
O O2 0.917133 0.143660 0.821334
O O3 0.526623 0.872576 0.404959
O O4 0.808303 0.170743 0.759633
O O5 0.476934 0.080714 0.981234
O O6 0.032757 0.401209 0.240430
O O7 0.500000 0.000000 0.000000
O O8 0.403103 0.322309 0.225742
O O9 0.038559 0.175738 0.092415
O O10 0.805236 0.939018 0.048774
O O11 0.556767 0.818247 0.653658
O O12 0.306161 0.578163 0.644254
O O13 0.988130 0.477793 0.642146
O O14 0.320069 0.613487 0.048939
O O15 0.000000 0.500000 0.000000
#
# Coordination Sequence:
#
# PCOD9033231 Si02
#       7
#     2   2   2   2   2   2   2
#     4  10  20  35  55  80 110 146 175 221 276 318
#     4  10  19  32  53  82 111 144 174 221 281 319
#     4   9  18  36  53  78 111 142 184 219 267 318
#     4  10  17  32  55  83 110 138 180 228 268 318
#     4  10  20  33  59  81 111 139 182 228 262 323
#     4   8  17  32  54  78 108 144 177 227 266 315
#     4   9  16  29  53  81 102 135 178 221 267 312
#
# _framework density 22.466820999999999
#
# number of rings (size 3 to 8) (size 9 to 14) (size 15 to 20)
#    0.000    2.571    2.857    1.286    0.000    0.571 
#    0.000   12.143    0.000    3.429    0.000    0.000 
#    0.000    0.000    0.000    0.000    0.000    0.000 
#
# Total GULP energy -78162.841030 kJ/mol
# GULP energy per Si atom -5583.060074 kJ/mol
# Density = 2.241569 g / cm^3
# Si number density = 22.466821 Si / 1000 Ang^3
#
#
#
# Elastic Constant Matrix: (Units=GPa)
#
#
# Indices 1 2 3 4 5 6 
#
# 1 121.3320 33.9975 64.3900 -5.8571 4.5486 28.2667
# 2 33.9975 43.6865 37.3121 -12.2496 -0.5355 15.0219
# 3 64.3900 37.3121 107.9978 -29.4503 -5.0021 17.6493
# 4 -5.8571 -12.2496 -29.4503 25.4609 -1.6728 -12.4024
# 5 4.5486 -0.5355 -5.0021 -1.6728 29.2206 -4.1283
# 6 28.2667 15.0219 17.6493 -12.4024 -4.1283 36.0594
#
#
#
# Elastic Compliance Matrix: (Units=1/GPa)
#
#
# Indices 1 2 3 4 5 6 
#
# 1 0.019945 -0.004259 -0.014371 -0.022242 -0.009109 -0.015520
# 2 -0.004259 0.036321 -0.007821 0.004184 -0.000704 -0.006605
# 3 -0.014371 -0.007821 0.027569 0.031951 0.010510 0.013223
# 4 -0.022242 0.004184 0.031951 0.090640 0.018916 0.033395
# 5 -0.009109 -0.000704 0.010510 0.018916 0.040406 0.013421
# 6 -0.015520 -0.006605 0.013223 0.033395 0.013421 0.049200
#
#
# Mechanical properties :
#
#
# Convention : Reuss Voigt Hill
#
# Bulk Modulus (GPa) = 32.32931 60.49061 46.40996
# Shear Modulus (GPa) = 15.27673 27.30261 21.28967
#
# Velocity S-wave (km/s) = 2.61045 3.48981 3.08166
# Velocity P-wave (km/s) = 4.84840 6.57429 5.77617
#
# Compressibility (1/GPa) = 0.03093169
#
# Stress axis : x y z
#
# Youngs Moduli (GPa) = 50.13668 27.53233 36.27295
#
# Poissons Ratio (x) = 0.11727 0.52129
# Poissons Ratio (y) = 0.21355 0.28369
# Poissons Ratio (z) = 0.72053 0.21533
#
# Static dielectric constant tensor:
#      x y z
#    x 1.889910 -0.042410 -0.042960 
#    y -0.042410 1.888660 0.022030 
#    z -0.042960 0.022030 1.852870 
# 
# From -- ./inp_files/178909.got.cif
#   From: 2010.05.17/outbox.cif.g08.bks.cpg/sg2_90_cif.got.tgz:178909.got - 2010.06.03 11:33:40.
