data_PCOD9033257
_publ_section_title
;
Structure prediction by ZEFSAII (Michael W. Deem and Ramdas Pophale) SiO2 
 PCOD9033257
Probable space group: P -1
;
_chemical_formula_sum "Si O2"
_cell_formula_units_Z 14
_cell_length_a 8.093810
_cell_length_b 13.181408
_cell_length_c 11.596563
_cell_angle_alpha 34.140091
_cell_angle_beta 83.092423
_cell_angle_gamma 65.552025
_cell_volume 569.131055
_symmetry_space_group_name_H-M "P -1"
_symmetry_group_IT_number 2
_symmetry_cell_setting 'triclinic'
loop_
_space_group_symop_operation_xyz
x,y,z
-x,-y,-z
loop_
_atom_site_type_symbol
_atom_site_label
_atom_site_fract_x
_atom_site_fract_y
_atom_site_fract_z
Si Si1 0.707397 0.174728 0.241926
Si Si2 0.953430 0.265053 0.313076
Si Si3 0.698326 0.761734 0.849015
Si Si4 0.818191 0.655579 0.450598
Si Si5 0.382745 0.529009 0.246493
Si Si6 0.608444 0.103418 0.730187
Si Si7 0.790071 0.043033 0.003821
O O1 0.498192 0.188239 0.253791
O O2 0.799172 0.228548 0.291826
O O3 0.904852 0.931655 0.426064
O O4 0.651947 0.356063 0.979958
O O5 0.131374 0.236701 0.240466
O O6 0.817112 0.518046 0.122479
O O7 0.620803 0.939536 0.789362
O O8 0.783780 0.532879 0.671371
O O9 0.602772 0.753056 0.317834
O O10 0.000000 0.500000 0.500000
O O11 0.808457 0.876256 0.254566
O O12 0.592674 0.299543 0.474757
O O13 0.348305 0.709235 0.172492
O O14 0.750998 0.985476 0.934845
O O15 0.000000 0.000000 0.000000
#
# Coordination Sequence:
#
# PCOD9033257 Si02
#       7
#     2   2   2   2   2   2   2
#     4  11  24  49  74 112 152 197 252 310 389 447
#     4  10  26  47  80 108 148 203 249 316 382 457
#     4  11  24  49  74 114 149 196 256 314 378 449
#     4  10  22  44  67 100 143 193 244 308 360 434
#     4  10  25  43  71 106 148 194 249 301 370 449
#     4  10  25  44  71 106 148 190 247 307 368 440
#     4  12  22  44  69 105 146 199 241 306 368 443
#
# _framework density 24.598904999999998
#
# number of rings (size 3 to 8) (size 9 to 14) (size 15 to 20)
#    0.857    0.571    1.429    2.571    2.000    5.714 
#    5.143    0.000    0.000    0.000    0.000    0.000 
#    0.000    0.000    0.000    0.000    0.000    0.000 
#
# Total GULP energy -78032.610923 kJ/mol
# GULP energy per Si atom -5573.757923 kJ/mol
# Density = 2.454292 g / cm^3
# Si number density = 24.598905 Si / 1000 Ang^3
#
#
#
# Elastic Constant Matrix: (Units=GPa)
#
#
# Indices 1 2 3 4 5 6 
#
# 1 119.2855 42.1880 33.0012 10.4304 -3.3088 3.2393
# 2 42.1880 88.8700 58.2497 -9.7091 2.9605 16.5802
# 3 33.0012 58.2497 154.4529 -22.5594 -23.8836 6.6025
# 4 10.4304 -9.7091 -22.5594 48.6070 -6.5014 -0.5802
# 5 -3.3088 2.9605 -23.8836 -6.5014 44.9798 -4.1102
# 6 3.2393 16.5802 6.6025 -0.5802 -4.1102 28.0640
#
#
#
# Elastic Compliance Matrix: (Units=1/GPa)
#
#
# Indices 1 2 3 4 5 6 
#
# 1 0.010799 -0.005373 -0.000861 -0.003719 0.000346 0.002104
# 2 -0.005373 0.020789 -0.007055 0.001051 -0.006355 -0.010911
# 3 -0.000861 -0.007055 0.011030 0.004895 0.007224 0.002832
# 4 -0.003719 0.001051 0.004895 0.024631 0.005818 0.000018
# 5 0.000346 -0.006355 0.007224 0.005818 0.027922 0.006225
# 6 0.002104 -0.010911 0.002832 0.000018 0.006225 0.042082
#
#
# Mechanical properties :
#
#
# Convention : Reuss Voigt Hill
#
# Bulk Modulus (GPa) = 62.33896 69.94290 66.14093
# Shear Modulus (GPa) = 29.55459 39.60811 34.58135
#
# Velocity S-wave (km/s) = 3.46997 4.01703 3.75348
# Velocity P-wave (km/s) = 6.43828 7.07181 6.76246
#
# Compressibility (1/GPa) = 0.01604133
#
# Stress axis : x y z
#
# Youngs Moduli (GPa) = 92.59970 48.10136 90.66035
#
# Poissons Ratio (x) = 0.25843 0.07804
# Poissons Ratio (y) = 0.49750 0.63963
# Poissons Ratio (z) = 0.07971 0.33937
#
# Static dielectric constant tensor:
#      x y z
#    x 2.060170 -0.331730 0.048950 
#    y -0.331730 3.232070 -0.451430 
#    z 0.048950 -0.451430 2.169470 
# 
# From -- ./inp_files/388813.got.cif
#   From: 2010.05.17/outbox.cif.g08.bks.cpg/sg2_195_cif.got.tgz:388813.got - 2010.06.03 11:33:40.
