data_PCOD9033748
_publ_section_title
;
Structure prediction by ZEFSAII (Michael W. Deem and Ramdas Pophale) SiO2 
 PCOD9033748
Probable space group: P -1
;
_chemical_formula_sum "Si O2"
_cell_formula_units_Z 16
_cell_length_a 14.730092
_cell_length_b 12.150122
_cell_length_c 8.493838
_cell_angle_alpha 105.666324
_cell_angle_beta 70.178590
_cell_angle_gamma 46.153701
_cell_volume 688.903665
_symmetry_space_group_name_H-M "P -1"
_symmetry_group_IT_number 2
_symmetry_cell_setting 'triclinic'
loop_
_space_group_symop_operation_xyz
x,y,z
-x,-y,-z
loop_
_atom_site_type_symbol
_atom_site_label
_atom_site_fract_x
_atom_site_fract_y
_atom_site_fract_z
Si Si1 0.121290 0.453311 0.287482
Si Si2 0.461601 0.001147 0.704080
Si Si3 0.906702 0.171845 0.983950
Si Si4 0.304427 0.837323 0.485263
Si Si5 0.603909 0.625548 0.833618
Si Si6 0.282670 0.062523 0.375946
Si Si7 0.224351 0.752691 0.229170
Si Si8 0.565444 0.630062 0.517073
O O1 0.259723 0.403302 0.270542
O O2 0.000000 0.500000 0.500000
O O3 0.946036 0.700077 0.403048
O O4 0.258725 0.247375 0.000423
O O5 0.500000 0.000000 0.500000
O O6 0.625109 0.907139 0.661193
O O7 0.491393 0.836066 0.643086
O O8 0.781627 0.230641 0.949686
O O9 0.771047 0.406975 0.227526
O O10 0.083438 0.048382 0.742839
O O11 0.000000 0.000000 0.000000
O O12 0.334964 0.725622 0.271389
O O13 0.424514 0.698454 0.519965
O O14 0.345248 0.923480 0.435194
O O15 0.701211 0.448455 0.842493
O O16 0.595610 0.564216 0.654012
O O17 0.389880 0.888185 0.103137
O O18 0.000000 0.000000 0.500000
#
# Coordination Sequence:
#
# PCOD9033748 Si02
#       8
#     2   2   2   2   2   2   2   2
#     4  11  24  44  71 101 137 188 242 281 357 433
#     4  11  25  44  68 103 148 182 231 304 357 406
#     4  11  26  45  70 102 140 175 226 295 350 413
#     4  11  25  43  69 100 130 187 235 277 353 422
#     4  11  25  44  69 101 143 184 230 299 349 411
#     4  11  24  44  71  97 135 186 236 283 354 427
#     4  10  22  44  69  96 137 182 232 286 356 416
#     4  12  25  43  68 103 141 178 233 288 349 413
#
# _framework density 23.225308999999999
#
# number of rings (size 3 to 8) (size 9 to 14) (size 15 to 20)
#    0.000    1.000    1.250    5.250    3.500   10.500 
#    0.000    0.000    0.000    0.000    0.000    0.000 
#    0.000    0.000    0.000    0.000    0.000    0.000 
#
# Total GULP energy -89437.527772 kJ/mol
# GULP energy per Si atom -5589.845486 kJ/mol
# Density = 2.317245 g / cm^3
# Si number density = 23.225309 Si / 1000 Ang^3
#
#
#
# Elastic Constant Matrix: (Units=GPa)
#
#
# Indices 1 2 3 4 5 6 
#
# 1 109.6104 40.6082 52.4985 0.0562 8.6970 -8.5793
# 2 40.6082 111.6185 37.0136 -5.3241 12.2467 -17.8472
# 3 52.4985 37.0136 181.6287 14.2803 0.6496 -14.7932
# 4 0.0562 -5.3241 14.2803 38.6516 -1.6610 4.9549
# 5 8.6970 12.2467 0.6496 -1.6610 35.4134 -9.1552
# 6 -8.5793 -17.8472 -14.7932 4.9549 -9.1552 38.8751
#
#
#
# Elastic Compliance Matrix: (Units=1/GPa)
#
#
# Indices 1 2 3 4 5 6 
#
# 1 0.011767 -0.003188 -0.002826 0.000566 -0.001824 -0.000444
# 2 -0.003188 0.011375 -0.001235 0.001505 -0.002194 0.003340
# 3 -0.002826 -0.001235 0.006979 -0.002963 0.001417 0.002177
# 4 0.000566 0.001505 -0.002963 0.027661 -0.000319 -0.003912
# 5 -0.001824 -0.002194 0.001417 -0.000319 0.031081 0.006490
# 6 -0.000444 0.003340 0.002177 -0.003912 0.006490 0.030014
#
#
# Mechanical properties :
#
#
# Convention : Reuss Voigt Hill
#
# Bulk Modulus (GPa) = 64.00305 73.67758 68.84032
# Shear Modulus (GPa) = 36.07919 40.77049 38.42484
#
# Velocity S-wave (km/s) = 3.94565 4.19434 4.07189
# Velocity P-wave (km/s) = 6.95520 7.43293 7.19803
#
# Compressibility (1/GPa) = 0.01562425
#
# Stress axis : x y z
#
# Youngs Moduli (GPa) = 84.98081 87.91164 143.27978
#
# Poissons Ratio (x) = 0.28025 0.40487
# Poissons Ratio (y) = 0.27091 0.17697
# Poissons Ratio (z) = 0.24013 0.10858
#
# Static dielectric constant tensor:
#      x y z
#    x 1.876870 -0.020090 0.013470 
#    y -0.020090 1.921220 -0.037570 
#    z 0.013470 -0.037570 1.881170 
# 
# From -- ./inp_files/307960.got.cif
#   From: 2010.05.17/outbox.cif.g08.bks.cpg/sg2_154_cif.got.tgz:307960.got - 2010.06.03 11:33:40.
