data_PCOD9033379
_publ_section_title
;
Structure prediction by ZEFSAII (Michael W. Deem and Ramdas Pophale) SiO2 
 PCOD9033379
Probable space group: P -1
;
_chemical_formula_sum "Si O2"
_cell_formula_units_Z 16
_cell_length_a 12.036857
_cell_length_b 17.938394
_cell_length_c 17.406344
_cell_angle_alpha 36.171599
_cell_angle_beta 161.154401
_cell_angle_gamma 142.305107
_cell_volume 709.147719
_symmetry_space_group_name_H-M "P -1"
_symmetry_group_IT_number 2
_symmetry_cell_setting 'triclinic'
loop_
_space_group_symop_operation_xyz
x,y,z
-x,-y,-z
loop_
_atom_site_type_symbol
_atom_site_label
_atom_site_fract_x
_atom_site_fract_y
_atom_site_fract_z
Si Si1 0.731169 0.162314 0.729071
Si Si2 0.707236 0.994653 0.720897
Si Si3 0.356686 0.509725 0.273407
Si Si4 0.304678 0.564446 0.590051
Si Si5 0.807909 0.383380 0.113731
Si Si6 0.712904 0.842575 0.117017
Si Si7 0.158406 0.254832 0.563447
Si Si8 0.340082 0.078824 0.692227
O O1 0.547872 0.045665 0.651778
O O2 0.718332 0.288407 0.564637
O O3 0.520544 0.165169 0.668773
O O4 0.106224 0.127686 0.032669
O O5 0.040686 0.104454 0.834798
O O6 0.500000 0.000000 0.500000
O O7 0.656836 0.484173 0.432216
O O8 0.484926 0.648279 0.274183
O O9 0.208618 0.411531 0.323905
O O10 0.000000 0.500000 0.000000
O O11 0.000000 0.500000 0.500000
O O12 0.638296 0.513046 0.890461
O O13 0.850407 0.327193 0.271604
O O14 0.576138 0.272877 0.004403
O O15 0.929243 0.796832 0.366388
O O16 0.570261 0.967373 0.952258
O O17 0.236193 0.152074 0.637549
O O18 0.000000 0.000000 0.500000
#
# Coordination Sequence:
#
# PCOD9033379 Si02
#       8
#     2   2   2   2   2   2   2   2
#     4  10  24  45  67  95 140 174 229 289 340 411
#     4  10  24  46  70  97 133 188 228 279 356 416
#     4  10  22  44  67  97 141 184 230 287 348 413
#     4  11  23  43  69  98 135 181 228 288 346 408
#     4  11  23  43  69 101 140 185 228 288 354 416
#     4  11  23  42  68 102 137 175 234 287 347 414
#     4  12  23  41  71  99 142 182 231 285 357 411
#     4  11  24  42  68 105 136 180 230 291 343 404
#
# _framework density 22.562294999999999
#
# number of rings (size 3 to 8) (size 9 to 14) (size 15 to 20)
#    0.000    1.250    3.750    2.250    1.750    2.000 
#   11.250    0.625    0.000    0.000    0.000    0.000 
#    0.000    0.000    0.000    0.000    0.000    0.000 
#
# Total GULP energy -89168.737571 kJ/mol
# GULP energy per Si atom -5573.046098 kJ/mol
# Density = 2.251094 g / cm^3
# Si number density = 22.562295 Si / 1000 Ang^3
#
#
#
# Elastic Constant Matrix: (Units=GPa)
#
#
# Indices 1 2 3 4 5 6 
#
# 1 86.2402 24.9509 39.3193 -0.5872 -8.8844 17.4471
# 2 24.9509 102.6622 35.7258 -11.2564 -2.1108 3.2009
# 3 39.3193 35.7258 98.5763 -30.3760 -29.4449 5.2881
# 4 -0.5872 -11.2564 -30.3760 41.0140 8.9271 -10.3731
# 5 -8.8844 -2.1108 -29.4449 8.9271 52.0679 -1.0579
# 6 17.4471 3.2009 5.2881 -10.3731 -1.0579 45.7662
#
#
#
# Elastic Compliance Matrix: (Units=1/GPa)
#
#
# Indices 1 2 3 4 5 6 
#
# 1 0.017499 -0.001936 -0.008696 -0.008454 -0.000712 -0.007463
# 2 -0.001936 0.011579 -0.003813 0.000932 -0.002166 0.000530
# 3 -0.008696 -0.003813 0.021571 0.014150 0.008226 0.004486
# 4 -0.008454 0.000932 0.014150 0.037447 0.000380 0.010019
# 5 -0.000712 -0.002166 0.008226 0.000380 0.023585 0.000104
# 6 -0.007463 0.000530 0.004486 0.010019 0.000104 0.026413
#
#
# Mechanical properties :
#
#
# Convention : Reuss Voigt Hill
#
# Bulk Modulus (GPa) = 45.95329 54.16343 50.05836
# Shear Modulus (GPa) = 28.69665 40.26847 34.48256
#
# Velocity S-wave (km/s) = 3.57022 4.22923 3.91362
# Velocity P-wave (km/s) = 6.11611 6.92148 6.53122
#
# Compressibility (1/GPa) = 0.02176123
#
# Stress axis : x y z
#
# Youngs Moduli (GPa) = 57.14565 86.36310 46.35842
#
# Poissons Ratio (x) = 0.16718 0.40312
# Poissons Ratio (y) = 0.11062 0.17674
# Poissons Ratio (z) = 0.49692 0.32926
#
# Static dielectric constant tensor:
#      x y z
#    x 1.944560 0.106490 -0.061030 
#    y 0.106490 1.773140 0.182230 
#    z -0.061030 0.182230 1.537270 
# 
# From -- ./inp_files/570352.got.cif
#   From: 2010.05.17/outbox.cif.g08.bks.cpg/sg2_286_cif.got.tgz:570352.got - 2010.06.03 11:33:40.
