data_PCOD9033243
_publ_section_title
;
Structure prediction by ZEFSAII (Michael W. Deem and Ramdas Pophale) SiO2 
 PCOD9033243
Probable space group: P -1
;
_chemical_formula_sum "Si O2"
_cell_formula_units_Z 15
_cell_length_a 11.067085
_cell_length_b 14.234056
_cell_length_c 7.883080
_cell_angle_alpha 60.545906
_cell_angle_beta 108.459241
_cell_angle_gamma 58.347792
_cell_volume 581.364668
_symmetry_space_group_name_H-M "P -1"
_symmetry_group_IT_number 2
_symmetry_cell_setting 'triclinic'
loop_
_space_group_symop_operation_xyz
x,y,z
-x,-y,-z
loop_
_atom_site_type_symbol
_atom_site_label
_atom_site_fract_x
_atom_site_fract_y
_atom_site_fract_z
Si Si1 0.627910 0.465098 0.404863
Si Si2 0.258577 0.820126 0.124858
Si Si3 0.669387 0.968398 0.435621
Si Si4 0.744341 0.684930 0.674978
Si Si5 0.623562 0.194287 0.447354
Si Si6 0.500000 0.500000 0.000000
Si Si7 0.047305 0.187280 0.612784
Si Si8 0.772517 0.719776 0.262699
O O1 0.498980 0.647574 0.285197
O O2 0.763011 0.293978 0.746156
O O3 0.452719 0.516359 0.173060
O O4 0.787190 0.376886 0.387940
O O5 0.245054 0.872137 0.264667
O O6 0.116742 0.013229 0.802314
O O7 0.713808 0.026137 0.543330
O O8 0.652926 0.855198 0.576065
O O9 0.881483 0.823938 0.529769
O O10 0.441043 0.153844 0.063513
O O11 0.618570 0.672253 0.709339
O O12 0.715308 0.722367 0.427077
O O13 0.000000 0.500000 0.000000
O O14 0.619723 0.296591 0.228949
O O15 0.174780 0.187350 0.787626
O O16 0.000000 0.500000 0.500000
#
# Coordination Sequence:
#
# PCOD9033243 Si02
#       8
#     2   2   2   2   2   1   2   2
#     4  10  23  43  68  98 132 179 230 280 344 408
#     4  10  22  44  66  99 131 180 225 287 341 401
#     4  11  24  44  66 101 142 182 226 289 345 413
#     4  11  24  40  66 101 135 182 228 286 350 408
#     4  11  23  42  67  91 142 173 229 279 342 404
#     4  10  24  40  68  96 130 182 218 284 334 404
#     4  11  23  40  72  93 137 173 232 278 347 416
#     4  11  25  42  69 103 133 186 230 278 358 415
#
# _framework density 25.801359000000001
#
# number of rings (size 3 to 8) (size 9 to 14) (size 15 to 20)
#    0.000    1.333    0.000    5.600    9.333    1.067 
#    0.000    7.333    0.000    0.000    0.000    0.000 
#    0.000    0.000    0.000    0.000    0.000    0.000 
#
# Total GULP energy -83624.424759 kJ/mol
# GULP energy per Si atom -5574.961651 kJ/mol
# Density = 2.574263 g / cm^3
# Si number density = 25.801359 Si / 1000 Ang^3
#
#
#
# Elastic Constant Matrix: (Units=GPa)
#
#
# Indices 1 2 3 4 5 6 
#
# 1 101.5705 25.3538 27.1054 -18.3478 -11.2461 3.8434
# 2 25.3538 163.9352 32.5582 -18.5367 7.7891 3.0112
# 3 27.1054 32.5582 99.3160 -23.4295 -4.2675 3.8493
# 4 -18.3478 -18.5367 -23.4295 34.2691 -5.3878 2.6558
# 5 -11.2461 7.7891 -4.2675 -5.3878 27.8815 -9.0268
# 6 3.8434 3.0112 3.8493 2.6558 -9.0268 37.1141
#
#
#
# Elastic Compliance Matrix: (Units=1/GPa)
#
#
# Indices 1 2 3 4 5 6 
#
# 1 0.012278 -0.001271 -0.001246 0.006020 0.006300 0.000062
# 2 -0.001271 0.006952 -0.001627 0.001619 -0.002729 -0.001043
# 3 -0.001246 -0.001627 0.012974 0.007891 0.003179 -0.000876
# 4 0.006020 0.001619 0.007891 0.040456 0.010371 -0.001946
# 5 0.006300 -0.002729 0.003179 0.010371 0.044693 0.009367
# 6 0.000062 -0.001043 -0.000876 -0.001946 0.009367 0.029531
#
#
# Mechanical properties :
#
#
# Convention : Reuss Voigt Hill
#
# Bulk Modulus (GPa) = 41.81248 59.42849 50.62049
# Shear Modulus (GPa) = 30.64796 38.50657 34.57727
#
# Velocity S-wave (km/s) = 3.45025 3.86738 3.66475
# Velocity P-wave (km/s) = 5.66683 6.55937 6.12937
#
# Compressibility (1/GPa) = 0.02391630
#
# Stress axis : x y z
#
# Youngs Moduli (GPa) = 81.44781 143.85267 77.07551
#
# Poissons Ratio (x) = 0.18287 0.09601
# Poissons Ratio (y) = 0.10354 0.12538
# Poissons Ratio (z) = 0.10146 0.23401
#
# Static dielectric constant tensor:
#      x y z
#    x 2.009780 -0.058450 -0.140780 
#    y -0.058450 2.022220 -0.114240 
#    z -0.140780 -0.114240 1.834020 
# 
# From -- ./inp_files/272202.got.cif
#   From: 2010.05.17/outbox.cif.g08.bks.cpg/sg2_137_cif.got.tgz:272202.got - 2010.06.03 11:33:40.
