data_PCOD9033387
_publ_section_title
;
Structure prediction by ZEFSAII (Michael W. Deem and Ramdas Pophale) SiO2 
 PCOD9033387
Probable space group: P -1
;
_chemical_formula_sum "Si O2"
_cell_formula_units_Z 15
_cell_length_a 9.202471
_cell_length_b 12.160721
_cell_length_c 16.195462
_cell_angle_alpha 137.749229
_cell_angle_beta 130.496654
_cell_angle_gamma 37.236420
_cell_volume 729.309349
_symmetry_space_group_name_H-M "P -1"
_symmetry_group_IT_number 2
_symmetry_cell_setting 'triclinic'
loop_
_space_group_symop_operation_xyz
x,y,z
-x,-y,-z
loop_
_atom_site_type_symbol
_atom_site_label
_atom_site_fract_x
_atom_site_fract_y
_atom_site_fract_z
Si Si1 0.888232 0.758933 0.289741
Si Si2 0.084298 0.338906 0.192759
Si Si3 0.723146 0.965670 0.516421
Si Si4 0.113224 0.523435 0.473775
Si Si5 0.000000 0.000000 0.000000
Si Si6 0.631228 0.974731 0.144492
Si Si7 0.376574 0.803443 0.880656
Si Si8 0.612615 0.366919 0.640160
O O1 0.730107 0.903799 0.389013
O O2 0.776756 0.873767 0.226118
O O3 0.927326 0.543323 0.191322
O O4 0.155501 0.696723 0.361299
O O5 0.073233 0.425465 0.327350
O O6 0.365566 0.189493 0.185958
O O7 0.003643 0.194888 0.085555
O O8 0.966631 0.766596 0.536082
O O9 0.500000 0.000000 0.500000
O O10 0.695529 0.173990 0.621474
O O11 0.394015 0.414109 0.530328
O O12 0.000000 0.500000 0.500000
O O13 0.185344 0.866164 0.915974
O O14 0.742695 0.034654 0.150085
O O15 0.574939 0.826785 0.002594
O O16 0.506149 0.573568 0.767301
#
# Coordination Sequence:
#
# PCOD9033387 Si02
#       8
#     2   2   2   2   1   2   2   2
#     4  11  25  43  70 100 140 177 229 283 333 409
#     4  10  22  44  67  98 134 176 228 276 339 402
#     4  11  25  43  64 101 141 180 226 274 336 407
#     4  11  23  41  69  96 139 181 217 283 340 399
#     4  10  22  44  72  94 130 174 224 282 336 406
#     4  10  22  46  66  94 135 179 218 290 334 393
#     4  10  23  44  69  97 131 173 232 276 344 408
#     4  12  24  43  67 103 131 182 229 274 343 408
#
# _framework density 20.567402999999999
#
# number of rings (size 3 to 8) (size 9 to 14) (size 15 to 20)
#    0.000    1.333    2.667    2.000    3.733    2.667 
#    0.000    2.667    0.000    0.000    0.000    0.000 
#    0.000    0.000    0.000    0.000    0.000    0.000 
#
# Total GULP energy -83603.711225 kJ/mol
# GULP energy per Si atom -5573.580748 kJ/mol
# Density = 2.052059 g / cm^3
# Si number density = 20.567403 Si / 1000 Ang^3
#
#
#
# Elastic Constant Matrix: (Units=GPa)
#
#
# Indices 1 2 3 4 5 6 
#
# 1 130.5966 32.5970 21.2260 7.0689 0.7226 2.7657
# 2 32.5970 110.4870 39.4583 8.0509 1.4659 16.3937
# 3 21.2260 39.4583 67.7875 22.9182 -2.1190 7.1160
# 4 7.0689 8.0509 22.9182 35.4221 7.8988 -0.6992
# 5 0.7226 1.4659 -2.1190 7.8988 26.4405 8.6669
# 6 2.7657 16.3937 7.1160 -0.6992 8.6669 22.0314
#
#
#
# Elastic Compliance Matrix: (Units=1/GPa)
#
#
# Indices 1 2 3 4 5 6 
#
# 1 0.008413 -0.002105 -0.001553 -0.000027 -0.000644 0.001264
# 2 -0.002105 0.013035 -0.006553 0.001343 0.000911 -0.007634
# 3 -0.001553 -0.006553 0.026176 -0.017614 0.010399 -0.008034
# 4 -0.000027 0.001343 -0.017614 0.043839 -0.019030 0.013571
# 5 -0.000644 0.000911 0.010399 -0.019030 0.052581 -0.025245
# 6 0.001264 -0.007634 -0.008034 0.013571 -0.025245 0.063868
#
#
# Mechanical properties :
#
#
# Convention : Reuss Voigt Hill
#
# Bulk Modulus (GPa) = 36.75940 55.04817 45.90379
# Shear Modulus (GPa) = 21.06144 31.15144 26.10644
#
# Velocity S-wave (km/s) = 3.20350 3.89601 3.56661
# Velocity P-wave (km/s) = 5.62092 6.86013 6.27121
#
# Compressibility (1/GPa) = 0.02720392
#
# Stress axis : x y z
#
# Youngs Moduli (GPa) = 118.86182 76.71862 38.20292
#
# Poissons Ratio (x) = 0.16146 0.05932
# Poissons Ratio (y) = 0.25015 0.25033
# Poissons Ratio (z) = 0.18458 0.50270
#
# Static dielectric constant tensor:
#      x y z
#    x 1.721630 0.006810 0.001660 
#    y 0.006810 1.740880 -0.005770 
#    z 0.001660 -0.005770 1.742570 
# 
# From -- ./inp_files/261017.got.cif
#   From: 2010.05.17/outbox.cif.g08.bks.cpg/sg2_131_cif.got.tgz:261017.got - 2010.06.03 11:33:40.
