data_PCOD9033726
_publ_section_title
;
Structure prediction by ZEFSAII (Michael W. Deem and Ramdas Pophale) SiO2 
 PCOD9033726
Probable space group: P -1
;
_chemical_formula_sum "Si O2"
_cell_formula_units_Z 14
_cell_length_a 11.265672
_cell_length_b 11.964301
_cell_length_c 10.885998
_cell_angle_alpha 97.652747
_cell_angle_beta 46.659409
_cell_angle_gamma 60.277681
_cell_volume 613.398697
_symmetry_space_group_name_H-M "P -1"
_symmetry_group_IT_number 2
_symmetry_cell_setting 'triclinic'
loop_
_space_group_symop_operation_xyz
x,y,z
-x,-y,-z
loop_
_atom_site_type_symbol
_atom_site_label
_atom_site_fract_x
_atom_site_fract_y
_atom_site_fract_z
Si Si1 0.161693 0.780555 0.746426
Si Si2 0.474395 0.483241 0.253378
Si Si3 0.857303 0.603181 0.985623
Si Si4 0.588602 0.689044 0.592512
Si Si5 0.357710 0.050633 0.741485
Si Si6 0.880992 0.107020 0.806217
Si Si7 0.620886 0.251178 0.763546
O O1 0.369240 0.598283 0.475145
O O2 0.353680 0.760398 0.682998
O O3 0.948719 0.975756 0.843059
O O4 0.965512 0.814911 0.981249
O O5 0.398577 0.393995 0.307708
O O6 0.325023 0.646403 0.284206
O O7 0.794941 0.275725 0.951105
O O8 0.108708 0.496954 0.706484
O O9 0.648163 0.825581 0.173326
O O10 0.683837 0.596831 0.055986
O O11 0.000000 0.500000 0.000000
O O12 0.534585 0.851981 0.649406
O O13 0.500000 0.000000 0.500000
O O14 0.658882 0.201646 0.870575
O O15 0.164532 0.941956 0.499301
#
# Coordination Sequence:
#
# PCOD9033726 Si02
#       7
#     2   2   2   2   2   2   2
#     4  11  24  41  68  98 132 172 220 273 324 395
#     4  11  22  39  72  94 130 172 220 273 324 387
#     4  12  25  43  62  99 140 166 216 276 332 388
#     4  12  25  40  65 101 132 170 216 272 329 393
#     4  12  26  40  65  99 136 173 211 268 345 387
#     4  10  22  44  69  95 129 172 232 262 321 392
#     4  10  25  43  68  99 129 174 221 276 318 386
#
# _framework density 22.823651999999999
#
# number of rings (size 3 to 8) (size 9 to 14) (size 15 to 20)
#    0.000    0.857    4.286    3.000    2.000    1.143 
#    0.000    1.429    0.000    0.000    0.000    0.000 
#    0.000    0.000    0.000    0.000    0.000    0.000 
#
# Total GULP energy -77990.028852 kJ/mol
# GULP energy per Si atom -5570.716347 kJ/mol
# Density = 2.277170 g / cm^3
# Si number density = 22.823652 Si / 1000 Ang^3
#
#
#
# Elastic Constant Matrix: (Units=GPa)
#
#
# Indices 1 2 3 4 5 6 
#
# 1 65.5387 45.7939 47.8845 -3.5860 5.4472 -10.6779
# 2 45.7939 138.0981 47.0027 20.4610 17.8911 15.4503
# 3 47.8845 47.0027 123.8976 1.2317 35.7118 -3.8614
# 4 -3.5860 20.4610 1.2317 32.9272 3.3840 15.2271
# 5 5.4472 17.8911 35.7118 3.3840 35.1997 9.9445
# 6 -10.6779 15.4503 -3.8614 15.2271 9.9445 38.4341
#
#
#
# Elastic Compliance Matrix: (Units=1/GPa)
#
#
# Indices 1 2 3 4 5 6 
#
# 1 0.029655 -0.008909 -0.010203 0.005251 0.007901 0.006671
# 2 -0.008909 0.012088 -0.000512 -0.006229 -0.002435 -0.004288
# 3 -0.010203 -0.000512 0.017099 -0.001579 -0.016481 0.003979
# 4 0.005251 -0.006229 -0.001579 0.040619 0.003800 -0.013272
# 5 0.007901 -0.002435 -0.016481 0.003800 0.048307 -0.012486
# 6 0.006671 -0.004288 0.003979 -0.013272 -0.012486 0.038484
#
#
# Mechanical properties :
#
#
# Convention : Reuss Voigt Hill
#
# Bulk Modulus (GPa) = 51.03863 67.65518 59.34690
# Shear Modulus (GPa) = 21.54873 33.76909 27.65891
#
# Velocity S-wave (km/s) = 3.07602 3.85068 3.48494
# Velocity P-wave (km/s) = 5.91833 7.03401 6.50015
#
# Compressibility (1/GPa) = 0.01959300
#
# Stress axis : x y z
#
# Youngs Moduli (GPa) = 33.72079 82.72622 58.48292
#
# Poissons Ratio (x) = 0.73700 0.59672
# Poissons Ratio (y) = 0.30042 0.02997
# Poissons Ratio (z) = 0.34406 0.04239
#
# Static dielectric constant tensor:
#      x y z
#    x 1.906860 0.081760 -0.090240 
#    y 0.081760 1.836200 0.214880 
#    z -0.090240 0.214880 1.376790 
# 
# From -- ./inp_files/425876.got.cif
#   From: 2010.05.17/outbox.cif.g08.bks.cpg/sg2_213_cif.got.tgz:425876.got - 2010.06.03 11:33:40.
