data_PCOD9033221
_publ_section_title
;
Structure prediction by ZEFSAII (Michael W. Deem and Ramdas Pophale) SiO2 
 PCOD9033221
Probable space group: P -1
;
_chemical_formula_sum "Si O2"
_cell_formula_units_Z 16
_cell_length_a 15.192425
_cell_length_b 8.003619
_cell_length_c 11.434540
_cell_angle_alpha 112.065046
_cell_angle_beta 56.427498
_cell_angle_gamma 66.386295
_cell_volume 661.270218
_symmetry_space_group_name_H-M "P -1"
_symmetry_group_IT_number 2
_symmetry_cell_setting 'triclinic'
loop_
_space_group_symop_operation_xyz
x,y,z
-x,-y,-z
loop_
_atom_site_type_symbol
_atom_site_label
_atom_site_fract_x
_atom_site_fract_y
_atom_site_fract_z
Si Si1 0.280894 0.738635 0.990493
Si Si2 0.613937 0.571282 0.406916
Si Si3 0.288946 0.390343 0.068758
Si Si4 0.047714 0.699644 0.975109
Si Si5 0.770615 0.818899 0.121288
Si Si6 0.780031 0.320363 0.450725
Si Si7 0.060348 0.624143 0.506666
Si Si8 0.455463 0.415713 0.110012
O O1 0.305730 0.517793 0.987476
O O2 0.326146 0.636373 0.797137
O O3 0.394869 0.752009 0.954019
O O4 0.096239 0.050924 0.245562
O O5 0.772056 0.501302 0.272081
O O6 0.636336 0.477406 0.498655
O O7 0.417617 0.889953 0.609218
O O8 0.122695 0.616151 0.333615
O O9 0.435567 0.252719 0.016434
O O10 0.281041 0.206751 0.967765
O O11 0.113583 0.480880 0.971919
O O12 0.902891 0.807121 0.026380
O O13 0.948299 0.000691 0.186846
O O14 0.801991 0.497844 0.526560
O O15 0.715494 0.313560 0.617065
O O16 0.000000 0.500000 0.500000
O O17 0.500000 0.500000 0.000000
#
# Coordination Sequence:
#
# PCOD9033221 Si02
#       8
#     2   2   2   2   2   2   2   2
#     4  11  22  43  71  98 134 189 238 288 368 424
#     4  12  25  43  73 104 150 183 232 302 360 427
#     4  10  22  44  66  97 141 184 241 295 341 436
#     4  11  24  44  70 104 148 188 237 293 353 437
#     4  11  25  43  70 107 141 189 243 289 359 418
#     4  11  24  46  68 105 145 186 234 295 367 429
#     4  11  25  41  67  97 139 185 239 292 358 422
#     4   9  22  42  69  97 131 185 244 287 346 426
#
# _framework density 24.195857
#
# number of rings (size 3 to 8) (size 9 to 14) (size 15 to 20)
#    0.000    1.250    2.500    1.875    1.750    6.000 
#    2.250    2.500    0.000    0.000    0.000    0.000 
#    0.000    0.000    0.000    0.000    0.000    0.000 
#
# Total GULP energy -89185.669634 kJ/mol
# GULP energy per Si atom -5574.104352 kJ/mol
# Density = 2.414079 g / cm^3
# Si number density = 24.195857 Si / 1000 Ang^3
#
#
#
# Elastic Constant Matrix: (Units=GPa)
#
#
# Indices 1 2 3 4 5 6 
#
# 1 213.8810 33.9059 67.9381 -11.7177 9.5803 12.7513
# 2 33.9059 66.3726 7.1651 -7.0342 6.8880 -7.4399
# 3 67.9381 7.1651 96.4763 -6.3930 5.7713 -5.6821
# 4 -11.7177 -7.0342 -6.3930 39.6991 -3.2937 -1.1890
# 5 9.5803 6.8880 5.7713 -3.2937 44.1833 -7.6757
# 6 12.7513 -7.4399 -5.6821 -1.1890 -7.6757 22.4367
#
#
#
# Elastic Compliance Matrix: (Units=1/GPa)
#
#
# Indices 1 2 3 4 5 6 
#
# 1 0.007519 -0.003901 -0.005327 0.000315 -0.001596 -0.007445
# 2 -0.003901 0.018143 0.002120 0.002620 -0.000549 0.008721
# 3 -0.005327 0.002120 0.014477 0.001392 0.000356 0.007592
# 4 0.000315 0.002620 0.001392 0.026214 0.001827 0.003056
# 5 -0.001596 -0.000549 0.000356 0.001827 0.024786 0.009391
# 6 -0.007445 0.008721 0.007592 0.003056 0.009391 0.056990
#
#
# Mechanical properties :
#
#
# Convention : Reuss Voigt Hill
#
# Bulk Modulus (GPa) = 38.57750 66.08315 52.33032
# Shear Modulus (GPa) = 29.24216 39.11189 34.17703
#
# Velocity S-wave (km/s) = 3.48021 4.02490 3.76242
# Velocity P-wave (km/s) = 5.66812 6.99791 6.36782
#
# Compressibility (1/GPa) = 0.02592184
#
# Stress axis : x y z
#
# Youngs Moduli (GPa) = 133.00231 55.11832 69.07454
#
# Poissons Ratio (x) = 0.21503 0.36796
# Poissons Ratio (y) = 0.51889 -0.14644
# Poissons Ratio (z) = 0.70851 -0.11685
#
# Static dielectric constant tensor:
#      x y z
#    x 2.060330 0.005480 -0.072710 
#    y 0.005480 2.028030 -0.051570 
#    z -0.072710 -0.051570 1.940270 
# 
# From -- ./inp_files/448026.got.cif
#   From: 2010.05.17/outbox.cif.g08.bks.cpg/sg2_225_cif.got.tgz:448026.got - 2010.06.03 11:33:40.
