data_PCOD9033281
_publ_section_title
;
Structure prediction by ZEFSAII (Michael W. Deem and Ramdas Pophale) SiO2 
 PCOD9033281
Probable space group: P -1
;
_chemical_formula_sum "Si O2"
_cell_formula_units_Z 16
_cell_length_a 10.895829
_cell_length_b 11.619612
_cell_length_c 8.886034
_cell_angle_alpha 107.685032
_cell_angle_beta 46.421073
_cell_angle_gamma 131.368598
_cell_volume 587.301103
_symmetry_space_group_name_H-M "P -1"
_symmetry_group_IT_number 2
_symmetry_cell_setting 'triclinic'
loop_
_space_group_symop_operation_xyz
x,y,z
-x,-y,-z
loop_
_atom_site_type_symbol
_atom_site_label
_atom_site_fract_x
_atom_site_fract_y
_atom_site_fract_z
Si Si1 0.431086 0.784815 0.569456
Si Si2 0.656502 0.992496 0.174635
Si Si3 0.328953 0.352660 0.199315
Si Si4 0.050073 0.750350 0.312452
Si Si5 0.904896 0.754580 0.919383
Si Si6 0.690326 0.682331 0.367960
Si Si7 0.251597 0.075422 0.257511
Si Si8 0.992580 0.513422 0.693221
O O1 0.385509 0.882994 0.743524
O O2 0.619718 0.789141 0.486611
O O3 0.210228 0.604020 0.654269
O O4 0.479371 0.851861 0.383913
O O5 0.881916 0.088076 0.121317
O O6 0.679726 0.939447 0.975278
O O7 0.165263 0.359424 0.437804
O O8 0.153550 0.212117 0.173673
O O9 0.390658 0.267807 0.218694
O O10 0.500000 0.500000 0.000000
O O11 0.923277 0.745420 0.270398
O O12 0.153148 0.665535 0.190110
O O13 0.232395 0.931109 0.287815
O O14 0.929175 0.622954 0.818378
O O15 0.706947 0.678800 0.173295
O O16 0.500000 0.500000 0.500000
O O17 0.000000 0.000000 0.500000
O O18 0.000000 0.500000 0.500000
#
# Coordination Sequence:
#
# PCOD9033281 Si02
#       8
#     2   2   2   2   2   2   2   2
#     4  10  24  41  68 104 139 180 235 296 336 411
#     4  10  22  44  67 103 136 181 238 283 349 413
#     4  11  24  42  66 101 136 181 234 277 344 422
#     4  11  23  42  64  99 138 177 224 286 348 408
#     4  11  24  39  72  99 130 191 231 282 342 416
#     4  12  23  39  64 102 139 174 224 287 350 401
#     4  10  23  41  67  98 141 179 224 289 346 418
#     4  11  23  44  68  99 138 183 234 281 343 422
#
# _framework density 27.243262999999999
#
# number of rings (size 3 to 8) (size 9 to 14) (size 15 to 20)
#    0.000    1.250    3.750    1.500    3.500    2.500 
#    0.000    0.000    0.000    4.500    0.000    0.000 
#    0.000    0.000    0.000    0.000    0.000    0.000 
#
# Total GULP energy -89309.868313 kJ/mol
# GULP energy per Si atom -5581.866770 kJ/mol
# Density = 2.718126 g / cm^3
# Si number density = 27.243263 Si / 1000 Ang^3
#
#
#
# Elastic Constant Matrix: (Units=GPa)
#
#
# Indices 1 2 3 4 5 6 
#
# 1 107.3233 9.9729 13.5681 13.1415 5.9881 -4.7470
# 2 9.9729 136.1510 4.1999 -0.9169 -13.7024 -31.6340
# 3 13.5681 4.1999 93.8543 13.4136 9.1460 -9.0279
# 4 13.1415 -0.9169 13.4136 39.0816 -2.6510 -3.9240
# 5 5.9881 -13.7024 9.1460 -2.6510 31.4116 5.9406
# 6 -4.7470 -31.6340 -9.0279 -3.9240 5.9406 46.3591
#
#
#
# Elastic Compliance Matrix: (Units=1/GPa)
#
#
# Indices 1 2 3 4 5 6 
#
# 1 0.010042 -0.000912 -0.000670 -0.003304 -0.002455 0.000310
# 2 -0.000912 0.009095 -0.000236 0.001400 0.003237 0.005770
# 3 -0.000670 -0.000236 0.011959 -0.003940 -0.004226 0.002308
# 4 -0.003304 0.001400 -0.003940 0.028557 0.004478 0.001693
# 5 -0.002455 0.003237 -0.004226 0.004478 0.035908 -0.003088
# 6 0.000310 0.005770 0.002308 0.001693 -0.003088 0.026529
#
#
# Mechanical properties :
#
#
# Convention : Reuss Voigt Hill
#
# Bulk Modulus (GPa) = 36.41476 43.64559 40.03017
# Shear Modulus (GPa) = 37.07057 44.00964 40.54011
#
# Velocity S-wave (km/s) = 3.69280 4.02360 3.86175
# Velocity P-wave (km/s) = 5.61942 6.13525 5.88299
#
# Compressibility (1/GPa) = 0.02746140
#
# Stress axis : x y z
#
# Youngs Moduli (GPa) = 99.57887 109.95335 83.61872
#
# Poissons Ratio (x) = 0.10029 0.05600
# Poissons Ratio (y) = 0.09083 0.01969
# Poissons Ratio (z) = 0.06669 0.02590
#
# Static dielectric constant tensor:
#      x y z
#    x 2.264890 0.100770 -0.031080 
#    y 0.100770 2.263760 -0.053540 
#    z -0.031080 -0.053540 2.182420 
# 
# From -- ./inp_files/262661.got.cif
#   From: 2010.05.17/outbox.cif.g08.bks.cpg/sg2_132_cif.got.tgz:262661.got - 2010.06.03 11:33:40.
