data_PCOD9033357
_publ_section_title
;
Structure prediction by ZEFSAII (Michael W. Deem and Ramdas Pophale) SiO2 
 PCOD9033357
Probable space group: P -1
;
_chemical_formula_sum "Si O2"
_cell_formula_units_Z 16
_cell_length_a 15.897797
_cell_length_b 28.359465
_cell_length_c 8.899004
_cell_angle_alpha 133.032087
_cell_angle_beta 39.050499
_cell_angle_gamma 161.762417
_cell_volume 759.451748
_symmetry_space_group_name_H-M "P -1"
_symmetry_group_IT_number 2
_symmetry_cell_setting 'triclinic'
loop_
_space_group_symop_operation_xyz
x,y,z
-x,-y,-z
loop_
_atom_site_type_symbol
_atom_site_label
_atom_site_fract_x
_atom_site_fract_y
_atom_site_fract_z
Si Si1 0.119577 0.323225 0.105115
Si Si2 0.137782 0.224518 0.083468
Si Si3 0.724799 0.160781 0.015727
Si Si4 0.252304 0.068391 0.083492
Si Si5 0.734402 0.407921 0.549662
Si Si6 0.297039 0.090348 0.421206
Si Si7 0.823319 0.637275 0.447942
Si Si8 0.959429 0.366354 0.627415
O O1 0.031326 0.214890 0.058588
O O2 0.030081 0.289505 0.983569
O O3 0.921318 0.291052 0.397459
O O4 0.500000 0.500000 0.000000
O O5 0.137893 0.280790 0.328912
O O6 0.499186 0.356214 0.843378
O O7 0.907826 0.061559 0.067418
O O8 0.507177 0.126761 0.281060
O O9 0.868044 0.230797 0.803176
O O10 0.500000 0.000000 0.000000
O O11 0.229243 0.042774 0.238265
O O12 0.619268 0.237818 0.890292
O O13 0.029126 0.033915 0.307871
O O14 0.512119 0.249831 0.468493
O O15 0.000000 0.500000 0.500000
O O16 0.880471 0.505916 0.412179
O O17 0.500000 0.500000 0.500000
O O18 0.828812 0.575926 0.411910
#
# Coordination Sequence:
#
# PCOD9033357 Si02
#       8
#     2   2   2   2   2   2   2   2
#     4  11  22  39  69  97 139 179 229 275 347 411
#     4  10  23  43  68  96 135 181 223 278 344 404
#     4  12  25  44  70 104 137 180 229 291 350 406
#     4  10  22  44  67  96 135 178 227 277 342 409
#     4  11  24  43  69  97 134 185 227 278 340 411
#     4  10  23  45  65  96 140 176 228 283 340 408
#     4  11  26  43  68 106 141 173 231 292 337 413
#     4  11  23  42  72  99 132 181 230 277 342 406
#
# _framework density 21.067829
#
# number of rings (size 3 to 8) (size 9 to 14) (size 15 to 20)
#    0.000    1.250    2.500    3.000    3.500    1.500 
#    2.250    1.875    0.000    0.000    0.000    0.000 
#    0.000    0.000    0.000    0.000    0.000    0.000 
#
# Total GULP energy -89438.615291 kJ/mol
# GULP energy per Si atom -5589.913456 kJ/mol
# Density = 2.101988 g / cm^3
# Si number density = 21.067829 Si / 1000 Ang^3
#
#
#
# Elastic Constant Matrix: (Units=GPa)
#
#
# Indices 1 2 3 4 5 6 
#
# 1 123.8005 38.2434 49.0654 -1.5879 -13.9430 4.9457
# 2 38.2434 69.3628 39.5294 -2.5382 -12.1298 9.2031
# 3 49.0654 39.5294 127.8554 -7.7031 -25.2123 0.8576
# 4 -1.5879 -2.5382 -7.7031 29.9956 1.5044 0.0448
# 5 -13.9430 -12.1298 -25.2123 1.5044 31.8056 2.4445
# 6 4.9457 9.2031 0.8576 0.0448 2.4445 29.3760
#
#
#
# Elastic Compliance Matrix: (Units=1/GPa)
#
#
# Indices 1 2 3 4 5 6 
#
# 1 0.010495 -0.004081 -0.002584 -0.000506 0.001058 -0.000500
# 2 -0.004081 0.020303 -0.004022 0.000317 0.003198 -0.005823
# 3 -0.002584 -0.004022 0.011404 0.002139 0.006207 0.000842
# 4 -0.000506 0.000317 0.002139 0.033888 0.000002 -0.000129
# 5 0.001058 0.003198 0.006207 0.000002 0.038395 -0.004556
# 6 -0.000500 -0.005823 0.000842 -0.000129 -0.004556 0.036305
#
#
# Mechanical properties :
#
#
# Convention : Reuss Voigt Hill
#
# Bulk Modulus (GPa) = 48.01465 63.85501 55.93483
# Shear Modulus (GPa) = 27.91654 31.18082 29.54868
#
# Velocity S-wave (km/s) = 3.64411 3.85128 3.74913
# Velocity P-wave (km/s) = 6.36758 7.08177 6.73415
#
# Compressibility (1/GPa) = 0.02082698
#
# Stress axis : x y z
#
# Youngs Moduli (GPa) = 95.28335 49.25499 87.68997
#
# Poissons Ratio (x) = 0.20100 0.22662
# Poissons Ratio (y) = 0.38883 0.35270
# Poissons Ratio (z) = 0.24624 0.19811
#
# Static dielectric constant tensor:
#      x y z
#    x 1.780310 0.003950 -0.002880 
#    y 0.003950 1.757780 -0.008630 
#    z -0.002880 -0.008630 1.761270 
# 
# From -- ./inp_files/320705.got.cif
#   From: 2010.05.17/outbox.cif.g08.bks.cpg/sg2_161_cif.got.tgz:320705.got - 2010.06.03 11:33:40.
