data_PCOD9033659
_publ_section_title
;
Structure prediction by ZEFSAII (Michael W. Deem and Ramdas Pophale) SiO2 
 PCOD9033659
Probable space group: P -1
;
_chemical_formula_sum "Si O2"
_cell_formula_units_Z 16
_cell_length_a 16.262796
_cell_length_b 6.243105
_cell_length_c 11.018139
_cell_angle_alpha 59.273834
_cell_angle_beta 124.271287
_cell_angle_gamma 124.523049
_cell_volume 730.808311
_symmetry_space_group_name_H-M "P -1"
_symmetry_group_IT_number 2
_symmetry_cell_setting 'triclinic'
loop_
_space_group_symop_operation_xyz
x,y,z
-x,-y,-z
loop_
_atom_site_type_symbol
_atom_site_label
_atom_site_fract_x
_atom_site_fract_y
_atom_site_fract_z
Si Si1 0.526706 0.540073 0.367268
Si Si2 0.092139 0.286435 0.034704
Si Si3 0.684397 0.739416 0.865290
Si Si4 0.156927 0.221904 0.496303
Si Si5 0.328839 0.775684 0.428423
Si Si6 0.022407 0.766748 0.795541
Si Si7 0.274605 0.903313 0.613282
Si Si8 0.221743 0.303449 0.804352
O O1 0.500000 0.500000 0.500000
O O2 0.421138 0.490856 0.214510
O O3 0.568016 0.299962 0.444862
O O4 0.621644 0.832445 0.335188
O O5 0.208044 0.282944 0.096768
O O6 0.064952 0.312848 0.145584
O O7 0.075650 0.547273 0.889756
O O8 0.000000 0.000000 0.000000
O O9 0.674326 0.016203 0.735253
O O10 0.693848 0.732937 0.020646
O O11 0.235342 0.484247 0.412835
O O12 0.039238 0.221803 0.382410
O O13 0.210679 0.250380 0.665621
O O14 0.168242 0.966850 0.517813
O O15 0.299976 0.874937 0.502787
O O16 0.108950 0.063645 0.817359
O O17 0.248445 0.622447 0.741647
#
# Coordination Sequence:
#
# PCOD9033659 Si02
#       8
#     2   2   2   2   2   2   2   2
#     4  11  24  43  74 105 126 175 230 275 341 401
#     4  11  24  43  65 106 136 169 230 281 337 385
#     4  12  24  43  71 100 138 174 217 294 333 392
#     4  10  23  43  69  93 138 183 221 272 330 401
#     4  10  22  44  69 103 131 167 229 278 333 398
#     4  11  24  42  68  98 135 183 227 273 328 405
#     4  10  23  47  66 100 135 175 230 272 330 411
#     4  11  26  43  63 103 139 178 225 271 344 399
#
# _framework density 21.893564999999999
#
# number of rings (size 3 to 8) (size 9 to 14) (size 15 to 20)
#    0.000    1.250    2.500    2.250    5.250    2.000 
#    0.000    5.625    0.000    0.000    0.000    0.000 
#    0.000    0.000    0.000    0.000    0.000    0.000 
#
# Total GULP energy -89261.125792 kJ/mol
# GULP energy per Si atom -5578.820362 kJ/mol
# Density = 2.184373 g / cm^3
# Si number density = 21.893565 Si / 1000 Ang^3
#
#
#
# Elastic Constant Matrix: (Units=GPa)
#
#
# Indices 1 2 3 4 5 6 
#
# 1 63.3217 31.4350 41.4263 -3.8467 20.3506 -4.6257
# 2 31.4350 91.4647 72.8918 -13.6182 14.6740 13.7338
# 3 41.4263 72.8918 151.4644 -5.0346 13.0525 8.7765
# 4 -3.8467 -13.6182 -5.0346 44.0049 6.7405 -0.0061
# 5 20.3506 14.6740 13.0525 6.7405 31.0207 0.0173
# 6 -4.6257 13.7338 8.7765 -0.0061 0.0173 33.8782
#
#
#
# Elastic Compliance Matrix: (Units=1/GPa)
#
#
# Indices 1 2 3 4 5 6 
#
# 1 0.025422 -0.003618 -0.004287 0.002720 -0.013757 0.006056
# 2 -0.003618 0.021805 -0.008379 0.006360 -0.005794 -0.007159
# 3 -0.004287 -0.008379 0.011548 -0.002007 0.002353 -0.000182
# 4 0.002720 0.006360 -0.002007 0.026177 -0.009635 -0.001677
# 5 -0.013757 -0.005794 0.002353 -0.009635 0.045106 -0.000164
# 6 0.006056 -0.007159 -0.000182 -0.001677 -0.000164 0.033293
#
#
# Mechanical properties :
#
#
# Convention : Reuss Voigt Hill
#
# Bulk Modulus (GPa) = 38.15621 66.41742 52.28682
# Shear Modulus (GPa) = 24.43145 32.48060 28.45603
#
# Velocity S-wave (km/s) = 3.34416 3.85589 3.60911
# Velocity P-wave (km/s) = 5.69009 7.08705 6.42664
#
# Compressibility (1/GPa) = 0.02620805
#
# Stress axis : x y z
#
# Youngs Moduli (GPa) = 39.33619 45.86051 86.59523
#
# Poissons Ratio (x) = 0.16592 0.37122
# Poissons Ratio (y) = 0.14232 0.72556
# Poissons Ratio (z) = 0.16863 0.38425
#
# Static dielectric constant tensor:
#      x y z
#    x 1.850290 0.014750 -0.018590 
#    y 0.014750 1.815660 0.007790 
#    z -0.018590 0.007790 1.832010 
# 
# From -- ./inp_files/459406.got.cif
#   From: 2010.05.17/outbox.cif.g08.bks.cpg/sg2_230_cif.got.tgz:459406.got - 2010.06.03 11:33:40.
