data_PCOD9033912
_publ_section_title
;
Structure prediction by ZEFSAII (Michael W. Deem and Ramdas Pophale) SiO2 
 PCOD9033912
Probable space group: P -1
;
_chemical_formula_sum "Si O2"
_cell_formula_units_Z 15
_cell_length_a 18.938910
_cell_length_b 7.279349
_cell_length_c 19.504064
_cell_angle_alpha 52.192380
_cell_angle_beta 159.577864
_cell_angle_gamma 116.605481
_cell_volume 658.444085
_symmetry_space_group_name_H-M "P -1"
_symmetry_group_IT_number 2
_symmetry_cell_setting 'triclinic'
loop_
_space_group_symop_operation_xyz
x,y,z
-x,-y,-z
loop_
_atom_site_type_symbol
_atom_site_label
_atom_site_fract_x
_atom_site_fract_y
_atom_site_fract_z
Si Si1 0.802737 0.214909 0.141837
Si Si2 0.819076 0.740758 0.737315
Si Si3 0.399771 0.852340 0.166903
Si Si4 0.886866 0.325661 0.408345
Si Si5 0.899475 0.050438 0.994601
Si Si6 0.533109 0.634667 0.896417
Si Si7 0.500000 0.500000 0.500000
Si Si8 0.909832 0.543918 0.713920
O O1 0.980521 0.330633 0.267387
O O2 0.746096 0.126481 0.037804
O O3 0.577721 0.451121 0.913531
O O4 0.909679 0.966309 0.346033
O O5 0.586133 0.725909 0.537748
O O6 0.889724 0.691017 0.733767
O O7 0.000000 0.500000 0.000000
O O8 0.862239 0.971334 0.756069
O O9 0.279052 0.817714 0.133535
O O10 0.651516 0.615665 0.443346
O O11 0.438449 0.108033 0.151553
O O12 0.707516 0.303922 0.303119
O O13 0.000000 0.500000 0.500000
O O14 0.735005 0.463214 0.172662
O O15 0.763181 0.282150 0.763760
O O16 0.932653 0.766499 0.071580
#
# Coordination Sequence:
#
# PCOD9033912 Si02
#       8
#     2   2   2   2   2   2   1   2
#     4  12  25  42  70  99 133 178 226 269 340 392
#     4  10  23  44  67  98 133 171 220 272 327 400
#     4  12  24  42  66 100 132 173 224 275 331 398
#     4  11  24  45  69  97 138 179 221 277 326 397
#     4  11  24  44  69  98 131 173 221 276 331 397
#     4  11  25  44  68  98 135 175 222 278 330 393
#     4  10  22  44  70  90 138 174 210 276 326 394
#     4  12  25  42  71  98 132 179 221 276 339 389
#
# _framework density 22.780978000000001
#
# number of rings (size 3 to 8) (size 9 to 14) (size 15 to 20)
#    0.000    0.800    6.667    0.400    0.000    6.933 
#    0.000    2.000    0.000    0.000    0.000    0.000 
#    0.000    0.000    0.000    0.000    0.000    0.000 
#
# Total GULP energy -83599.564546 kJ/mol
# GULP energy per Si atom -5573.304303 kJ/mol
# Density = 2.272913 g / cm^3
# Si number density = 22.780978 Si / 1000 Ang^3
#
#
#
# Elastic Constant Matrix: (Units=GPa)
#
#
# Indices 1 2 3 4 5 6 
#
# 1 25.7683 -9.0126 -19.3442 4.2270 6.7642 4.0140
# 2 -9.0126 110.3816 18.9786 1.5377 9.0238 11.1583
# 3 -19.3442 18.9786 80.8992 -1.8080 -3.0268 -0.7132
# 4 4.2270 1.5377 -1.8080 48.8041 1.7971 -1.0483
# 5 6.7642 9.0238 -3.0268 1.7971 25.7492 4.7112
# 6 4.0140 11.1583 -0.7132 -1.0483 4.7112 29.6186
#
#
#
# Elastic Compliance Matrix: (Units=1/GPa)
#
#
# Indices 1 2 3 4 5 6 
#
# 1 0.053797 0.004242 0.011241 -0.004051 -0.012784 -0.006728
# 2 0.004242 0.010435 -0.001641 -0.000686 -0.004202 -0.003902
# 3 0.011241 -0.001641 0.015405 -0.000345 -0.000456 -0.000474
# 4 -0.004051 -0.000686 -0.000345 0.020903 -0.000491 0.001617
# 5 -0.012784 -0.004202 -0.000456 -0.000491 0.044337 -0.003765
# 6 -0.006728 -0.003902 -0.000474 0.001617 -0.003765 0.036789
#
#
# Mechanical properties :
#
#
# Convention : Reuss Voigt Hill
#
# Bulk Modulus (GPa) = 9.31790 22.03250 15.67520
# Shear Modulus (GPa) = 26.34953 35.92954 31.13954
#
# Velocity S-wave (km/s) = 3.40464 3.97567 3.70119
# Velocity P-wave (km/s) = 4.42205 5.54681 5.01605
#
# Compressibility (1/GPa) = 0.10732034
#
# Stress axis : x y z
#
# Youngs Moduli (GPa) = 18.58823 95.82736 64.91464
#
# Poissons Ratio (x) = -0.40645 -0.72968
# Poissons Ratio (y) = -0.07884 0.10652
# Poissons Ratio (z) = -0.20894 0.15724
#
# Static dielectric constant tensor:
#      x y z
#    x 1.806980 -0.018010 0.029520 
#    y -0.018010 1.865760 0.042740 
#    z 0.029520 0.042740 1.831550 
# 
# From -- ./inp_files/10477.got.cif
#   From: 2010.05.17/outbox.cif.g08.bks.cpg/sg2_6_cif.got.tgz:10477.got - 2010.06.03 11:33:40.
