data_PCOD9033135
_publ_section_title
;
Structure prediction by ZEFSAII (Michael W. Deem and Ramdas Pophale) SiO2 
 PCOD9033135
Probable space group: P -1
;
_chemical_formula_sum "Si O2"
_cell_formula_units_Z 16
_cell_length_a 14.611026
_cell_length_b 8.971727
_cell_length_c 10.917881
_cell_angle_alpha 93.727944
_cell_angle_beta 150.023274
_cell_angle_gamma 79.712903
_cell_volume 691.789389
_symmetry_space_group_name_H-M "P -1"
_symmetry_group_IT_number 2
_symmetry_cell_setting 'triclinic'
loop_
_space_group_symop_operation_xyz
x,y,z
-x,-y,-z
loop_
_atom_site_type_symbol
_atom_site_label
_atom_site_fract_x
_atom_site_fract_y
_atom_site_fract_z
Si Si1 0.690887 0.533975 0.872460
Si Si2 0.033256 0.117970 0.376622
Si Si3 0.002539 0.618956 0.118801
Si Si4 0.534189 0.257611 0.595533
Si Si5 0.133690 0.028135 0.048326
Si Si6 0.349655 0.254951 0.642479
Si Si7 0.629213 0.409460 0.312349
Si Si8 0.281441 0.846966 0.804333
O O1 0.675668 0.363751 0.806856
O O2 0.577648 0.650322 0.643152
O O3 0.575229 0.575305 0.864726
O O4 0.900515 0.556717 0.110624
O O5 0.156249 0.212820 0.449817
O O6 0.949921 0.015555 0.178675
O O7 0.855888 0.202970 0.257598
O O8 0.173845 0.006936 0.627452
O O9 0.213606 0.625683 0.398977
O O10 0.884766 0.790910 0.964013
O O11 0.000000 0.500000 0.000000
O O12 0.399841 0.254876 0.556639
O O13 0.661876 0.088604 0.705403
O O14 0.000000 0.000000 0.000000
O O15 0.356785 0.423428 0.708196
O O16 0.527850 0.140278 0.906951
O O17 0.676133 0.278521 0.259736
#
# Coordination Sequence:
#
# PCOD9033135 Si02
#       8
#     2   2   2   2   2   2   2   2
#     4  10  23  43  67  98 143 178 213 281 341 401
#     4  11  26  45  70  99 139 177 220 291 336 399
#     4  12  25  43  68  98 139 183 220 277 350 402
#     4  10  22  44  66 102 140 170 225 279 334 411
#     4  12  25  42  70 103 138 176 228 283 340 411
#     4  11  24  42  74  98 133 182 227 272 346 399
#     4  11  25  43  70 103 135 178 231 277 333 409
#     4  11  24  49  66  96 141 174 233 282 333 394
#
# _framework density 23.128426000000001
#
# number of rings (size 3 to 8) (size 9 to 14) (size 15 to 20)
#    0.000    1.000    2.500    4.500    5.250    3.000 
#    0.000    0.000    0.000    0.000    0.000    0.000 
#    0.000    0.000    0.000    0.000    0.000    0.000 
#
# Total GULP energy -89617.670196 kJ/mol
# GULP energy per Si atom -5601.104387 kJ/mol
# Density = 2.307578 g / cm^3
# Si number density = 23.128426 Si / 1000 Ang^3
#
#
#
# Elastic Constant Matrix: (Units=GPa)
#
#
# Indices 1 2 3 4 5 6 
#
# 1 121.8138 51.0673 8.5871 16.6141 30.6186 -0.4080
# 2 51.0673 97.4901 17.1350 -12.7079 16.4556 2.8650
# 3 8.5871 17.1350 68.1163 -8.8317 -3.7994 1.1444
# 4 16.6141 -12.7079 -8.8317 36.6481 7.3072 3.3927
# 5 30.6186 16.4556 -3.7994 7.3072 46.4254 4.4375
# 6 -0.4080 2.8650 1.1444 3.3927 4.4375 40.3381
#
#
#
# Elastic Compliance Matrix: (Units=1/GPa)
#
#
# Indices 1 2 3 4 5 6 
#
# 1 0.013848 -0.007196 -0.001340 -0.008164 -0.005597 0.001992
# 2 -0.007196 0.015997 -0.002062 0.008932 -0.002342 -0.001644
# 3 -0.001340 -0.002062 0.015952 0.003323 0.002480 -0.000872
# 4 -0.008164 0.008932 0.003323 0.035770 -0.002804 -0.003511
# 5 -0.005597 -0.002342 0.002480 -0.002804 0.026963 -0.002691
# 6 0.001992 -0.001644 -0.000872 -0.003511 -0.002691 0.025543
#
#
# Mechanical properties :
#
#
# Convention : Reuss Voigt Hill
#
# Bulk Modulus (GPa) = 40.64812 48.99987 44.82399
# Shear Modulus (GPa) = 30.58692 38.72436 34.65564
#
# Velocity S-wave (km/s) = 3.64054 4.09628 3.87512
# Velocity P-wave (km/s) = 5.94007 6.60339 6.28049
#
# Compressibility (1/GPa) = 0.02460138
#
# Stress axis : x y z
#
# Youngs Moduli (GPa) = 72.21517 62.51121 62.68742
#
# Poissons Ratio (x) = 0.44984 0.08398
# Poissons Ratio (y) = 0.51967 0.12926
# Poissons Ratio (z) = 0.09674 0.12889
#
# Static dielectric constant tensor:
#      x y z
#    x 1.838920 0.026630 -0.006840 
#    y 0.026630 1.857030 -0.022880 
#    z -0.006840 -0.022880 1.932880 
# 
# From -- ./inp_files/447568.got.cif
#   From: 2010.05.17/outbox.cif.g08.bks.cpg/sg2_224_cif.got.tgz:447568.got - 2010.06.03 11:33:40.
