data_PCOD9033055
_publ_section_title
;
Structure prediction by ZEFSAII (Michael W. Deem and Ramdas Pophale) SiO2 
 PCOD9033055
Probable space group: P -1
;
_chemical_formula_sum "Si O2"
_cell_formula_units_Z 12
_cell_length_a 6.976657
_cell_length_b 5.052618
_cell_length_c 15.358492
_cell_angle_alpha 103.788640
_cell_angle_beta 83.258617
_cell_angle_gamma 110.820876
_cell_volume 491.136124
_symmetry_space_group_name_H-M "P -1"
_symmetry_group_IT_number 2
_symmetry_cell_setting 'triclinic'
loop_
_space_group_symop_operation_xyz
x,y,z
-x,-y,-z
loop_
_atom_site_type_symbol
_atom_site_label
_atom_site_fract_x
_atom_site_fract_y
_atom_site_fract_z
Si Si1 0.784847 0.038001 0.756180
Si Si2 0.622746 0.176386 0.400052
Si Si3 0.157274 0.530143 0.760698
Si Si4 0.095081 0.135826 0.095395
Si Si5 0.439825 0.531910 0.197408
Si Si6 0.762265 0.816036 0.497297
O O1 0.606188 0.173917 0.770624
O O2 0.982794 0.239925 0.711069
O O3 0.694989 0.690766 0.738172
O O4 0.877546 0.096219 0.855482
O O5 0.736122 0.273909 0.311292
O O6 0.718342 0.473210 0.474634
O O7 0.377914 0.114983 0.414088
O O8 0.668891 0.912217 0.422711
O O9 0.330835 0.452631 0.798946
O O10 0.048997 0.709785 0.838219
O O11 0.326321 0.371053 0.103514
O O12 0.000000 0.000000 0.000000
O O13 0.000000 0.000000 0.500000
#
# Coordination Sequence:
#
# PCOD9033055 Si02
#       6
#     2   2   2   2   2   2
#     4   9  22  39  57  89 122 158 211 262 309 367
#     4  10  24  38  64  98 123 160 215 247 306 382
#     4  11  23  39  67  91 130 167 209 267 312 365
#     4   9  22  43  61  90 129 167 216 263 310 373
#     4   9  22  38  60  89 121 163 213 256 319 366
#     4  10  22  44  65  92 129 165 196 256 314 371
#
# _framework density 24.433143000000001
#
# number of rings (size 3 to 8) (size 9 to 14) (size 15 to 20)
#    1.000    1.333    0.000    0.500    4.667    7.333 
#    0.000    1.667    0.000    0.000    0.000    0.000 
#    0.000    0.000    0.000    0.000    0.000    0.000 
#
# Total GULP energy -67035.656045 kJ/mol
# GULP energy per Si atom -5586.304670 kJ/mol
# Density = 2.437753 g / cm^3
# Si number density = 24.433143 Si / 1000 Ang^3
#
#
#
# Elastic Constant Matrix: (Units=GPa)
#
#
# Indices 1 2 3 4 5 6 
#
# 1 161.8678 32.4369 17.9470 0.1296 9.6773 5.7111
# 2 32.4369 108.2133 7.2617 -12.2730 -1.9195 4.9508
# 3 17.9470 7.2617 38.4094 -0.7903 -0.9826 -17.2759
# 4 0.1296 -12.2730 -0.7903 36.2533 -4.4746 6.4562
# 5 9.6773 -1.9195 -0.9826 -4.4746 28.4558 -8.6131
# 6 5.7111 4.9508 -17.2759 6.4562 -8.6131 55.5510
#
#
#
# Elastic Compliance Matrix: (Units=1/GPa)
#
#
# Indices 1 2 3 4 5 6 
#
# 1 0.007341 -0.001964 -0.004230 -0.000809 -0.003617 -0.002362
# 2 -0.001964 0.010480 -0.001599 0.003965 0.001502 -0.001457
# 3 -0.004230 -0.001599 0.033931 -0.001218 0.006004 0.012202
# 4 -0.000809 0.003965 -0.001218 0.030039 0.004167 -0.003494
# 5 -0.003617 0.001502 0.006004 0.004167 0.039690 0.007775
# 6 -0.002362 -0.001457 0.012202 -0.003494 0.007775 0.023781
#
#
# Mechanical properties :
#
#
# Convention : Reuss Voigt Hill
#
# Bulk Modulus (GPa) = 27.65110 47.08686 37.36898
# Shear Modulus (GPa) = 28.91798 40.77501 34.84650
#
# Velocity S-wave (km/s) = 3.44402 4.08958 3.78060
# Velocity P-wave (km/s) = 5.21120 6.45082 5.86386
#
# Compressibility (1/GPa) = 0.03616492
#
# Stress axis : x y z
#
# Youngs Moduli (GPa) = 136.22499 95.41860 29.47160
#
# Poissons Ratio (x) = 0.18744 0.12467
# Poissons Ratio (y) = 0.26760 0.04712
# Poissons Ratio (z) = 0.57626 0.15256
#
# Static dielectric constant tensor:
#      x y z
#    x 1.945720 0.077390 0.039620 
#    y 0.077390 1.991750 0.044650 
#    z 0.039620 0.044650 2.027670 
# 
# From -- ./inp_files/120859.got.cif
#   From: 2010.05.17/outbox.cif.g08.bks.cpg/sg2_61_cif.got.tgz:120859.got - 2010.06.03 11:33:40.
