data_PCOD9033186
_publ_section_title
;
Structure prediction by ZEFSAII (Michael W. Deem and Ramdas Pophale) SiO2 
 PCOD9033186
Probable space group: P -1
;
_chemical_formula_sum "Si O2"
_cell_formula_units_Z 16
_cell_length_a 5.317596
_cell_length_b 18.845526
_cell_length_c 8.072632
_cell_angle_alpha 126.611183
_cell_angle_beta 72.045711
_cell_angle_gamma 100.010043
_cell_volume 617.694849
_symmetry_space_group_name_H-M "P -1"
_symmetry_group_IT_number 2
_symmetry_cell_setting 'triclinic'
loop_
_space_group_symop_operation_xyz
x,y,z
-x,-y,-z
loop_
_atom_site_type_symbol
_atom_site_label
_atom_site_fract_x
_atom_site_fract_y
_atom_site_fract_z
Si Si1 0.556035 0.603898 0.393461
Si Si2 0.593428 0.309731 0.760897
Si Si3 0.075873 0.670554 0.790407
Si Si4 0.327838 0.059675 0.988161
Si Si5 0.094171 0.555396 0.901961
Si Si6 0.600350 0.194100 0.867181
Si Si7 0.929850 0.763381 0.637833
Si Si8 0.798444 0.032841 0.444262
O O1 0.532058 0.610760 0.209353
O O2 0.272592 0.616361 0.552930
O O3 0.693107 0.515602 0.309880
O O4 0.734349 0.690628 0.503826
O O5 0.433244 0.245089 0.825625
O O6 0.776318 0.255362 0.517337
O O7 0.786041 0.360278 0.914671
O O8 0.942106 0.598694 0.837118
O O9 0.914883 0.736233 0.796387
O O10 0.261084 0.735120 0.946808
O O11 0.501152 0.122345 0.919552
O O12 0.166273 0.003739 0.802716
O O13 0.164573 0.136381 0.223931
O O14 0.500000 0.000000 0.000000
O O15 0.000000 0.500000 0.000000
O O16 0.793322 0.137286 0.627351
O O17 0.500000 0.000000 0.500000
O O18 0.000000 0.000000 0.500000
#
# Coordination Sequence:
#
# PCOD9033186 Si02
#       8
#     2   2   2   2   2   2   2   2
#     4  11  22  42  65  93 137 172 224 277 341 411
#     4  10  24  42  66  94 133 179 222 281 339 422
#     4  10  23  42  67  95 134 179 224 279 343 419
#     4  11  25  44  73 106 138 182 240 301 360 430
#     4  11  22  42  63 102 132 175 227 276 337 404
#     4  10  22  44  66  94 133 176 231 280 355 423
#     4  11  23  43  66  98 132 177 223 287 347 418
#     4  10  23  44  69 101 138 184 237 303 363 435
#
# _framework density 25.902757999999999
#
# number of rings (size 3 to 8) (size 9 to 14) (size 15 to 20)
#    0.000    1.500    2.500    1.500    1.750    3.500 
#    4.500    3.750    0.000    0.000    0.000    0.000 
#    0.000    0.000    0.000    0.000    0.000    0.000 
#
# Total GULP energy -89233.689184 kJ/mol
# GULP energy per Si atom -5577.105574 kJ/mol
# Density = 2.584380 g / cm^3
# Si number density = 25.902758 Si / 1000 Ang^3
#
#
#
# Elastic Constant Matrix: (Units=GPa)
#
#
# Indices 1 2 3 4 5 6 
#
# 1 73.6763 26.1356 13.5152 17.4612 12.0267 -11.8849
# 2 26.1356 216.3461 30.5617 -29.5735 -19.3214 -38.4084
# 3 13.5152 30.5617 103.3724 14.1441 -9.4380 -4.4041
# 4 17.4612 -29.5735 14.1441 83.0057 5.1474 6.3152
# 5 12.0267 -19.3214 -9.4380 5.1474 46.8634 11.8423
# 6 -11.8849 -38.4084 -4.4041 6.3152 11.8423 59.7328
#
#
#
# Elastic Compliance Matrix: (Units=1/GPa)
#
#
# Indices 1 2 3 4 5 6 
#
# 1 0.017193 -0.002377 -0.001393 -0.004110 -0.006088 0.003432
# 2 -0.002377 0.006140 -0.001581 0.002636 0.001848 0.002713
# 3 -0.001393 -0.001581 0.010804 -0.002199 0.002305 -0.000721
# 4 -0.004110 0.002636 -0.002199 0.014270 0.000349 -0.000863
# 5 -0.006088 0.001848 0.002305 0.000349 0.025330 -0.004912
# 6 0.003432 0.002713 -0.000721 -0.000863 -0.004912 0.020181
#
#
# Mechanical properties :
#
#
# Convention : Reuss Voigt Hill
#
# Bulk Modulus (GPa) = 42.66857 59.31332 50.99094
# Shear Modulus (GPa) = 44.47270 59.46588 51.96929
#
# Velocity S-wave (km/s) = 4.14806 4.79658 4.48406
# Velocity P-wave (km/s) = 6.28094 7.32287 6.82183
#
# Compressibility (1/GPa) = 0.02343645
#
# Stress axis : x y z
#
# Youngs Moduli (GPa) = 58.16410 162.87554 92.55961
#
# Poissons Ratio (x) = 0.38708 0.12890
# Poissons Ratio (y) = 0.13823 0.14632
# Poissons Ratio (z) = 0.08100 0.25747
#
# Static dielectric constant tensor:
#      x y z
#    x 2.502410 -0.321000 -0.097880 
#    y -0.321000 2.410070 0.002550 
#    z -0.097880 0.002550 2.149850 
# 
# From -- ./inp_files/139517.got.cif
#   From: 2010.05.17/outbox.cif.g08.bks.cpg/sg2_70_cif.got.tgz:139517.got - 2010.06.03 11:33:40.
