data_PCOD9033716
_publ_section_title
;
Structure prediction by ZEFSAII (Michael W. Deem and Ramdas Pophale) SiO2 
 PCOD9033716
Probable space group: P -1
;
_chemical_formula_sum "Si O2"
_cell_formula_units_Z 16
_cell_length_a 10.012385
_cell_length_b 8.859561
_cell_length_c 12.646271
_cell_angle_alpha 85.386532
_cell_angle_beta 82.877084
_cell_angle_gamma 41.388200
_cell_volume 735.821214
_symmetry_space_group_name_H-M "P -1"
_symmetry_group_IT_number 2
_symmetry_cell_setting 'triclinic'
loop_
_space_group_symop_operation_xyz
x,y,z
-x,-y,-z
loop_
_atom_site_type_symbol
_atom_site_label
_atom_site_fract_x
_atom_site_fract_y
_atom_site_fract_z
Si Si1 0.435272 0.630481 0.194289
Si Si2 0.339277 0.561422 0.592608
Si Si3 0.350302 0.991226 0.052647
Si Si4 0.412430 0.162926 0.599002
Si Si5 0.998190 0.612428 0.392568
Si Si6 0.987448 0.948273 0.312092
Si Si7 0.319840 0.184043 0.239888
Si Si8 0.336829 0.860567 0.849538
O O1 0.560236 0.529729 0.296281
O O2 0.461490 0.759009 0.114565
O O3 0.525886 0.406977 0.138146
O O4 0.199528 0.814321 0.243475
O O5 0.500000 0.500000 0.500000
O O6 0.329605 0.396925 0.565723
O O7 0.129690 0.827180 0.618961
O O8 0.226947 0.179501 0.147174
O O9 0.247346 0.999050 0.961330
O O10 0.500000 0.000000 0.000000
O O11 0.219054 0.230797 0.649067
O O12 0.500000 0.000000 0.500000
O O13 0.584579 0.020356 0.678820
O O14 0.000000 0.500000 0.500000
O O15 0.163370 0.413229 0.307372
O O16 0.023694 0.770467 0.392455
O O17 0.832847 0.031322 0.227816
O O18 0.502516 0.144677 0.197596
#
# Coordination Sequence:
#
# PCOD9033716 Si02
#       8
#     2   2   2   2   2   2   2   2
#     4  11  23  44  69  95 139 171 220 282 334 401
#     4  11  27  42  66  99 139 181 219 275 335 396
#     4  10  23  43  71  97 128 178 226 278 338 396
#     4  12  24  42  68  94 133 177 224 268 328 395
#     4  12  25  39  69  98 133 182 225 270 331 400
#     4  11  25  43  66 101 135 175 226 276 334 404
#     4  11  22  43  65  98 136 171 225 278 328 392
#     4  10  22  44  69  94 131 177 223 273 342 392
#
# _framework density 21.744412000000001
#
# number of rings (size 3 to 8) (size 9 to 14) (size 15 to 20)
#    0.000    1.000    5.000    1.125    5.250    1.000 
#    0.000    1.875    0.000    0.000    0.000    0.000 
#    0.000    0.000    0.000    0.000    0.000    0.000 
#
# Total GULP energy -89322.929454 kJ/mol
# GULP energy per Si atom -5582.683091 kJ/mol
# Density = 2.169492 g / cm^3
# Si number density = 21.744412 Si / 1000 Ang^3
#
#
#
# Elastic Constant Matrix: (Units=GPa)
#
#
# Indices 1 2 3 4 5 6 
#
# 1 67.3571 47.5977 26.8140 1.8716 -3.9106 15.2531
# 2 47.5977 157.5258 48.0055 10.5950 -1.9741 25.7681
# 3 26.8140 48.0055 101.1701 3.9548 10.0952 16.8636
# 4 1.8716 10.5950 3.9548 33.0240 16.6065 -2.8604
# 5 -3.9106 -1.9741 10.0952 16.6065 33.0439 -1.3706
# 6 15.2531 25.7681 16.8636 -2.8604 -1.3706 45.4818
#
#
#
# Elastic Compliance Matrix: (Units=1/GPa)
#
#
# Indices 1 2 3 4 5 6 
#
# 1 0.020194 -0.004550 -0.002987 -0.001409 0.003612 -0.003067
# 2 -0.004550 0.009387 -0.002890 -0.004086 0.002839 -0.002892
# 3 -0.002987 -0.002890 0.012888 0.002214 -0.005667 -0.002171
# 4 -0.001409 -0.004086 0.002214 0.043111 -0.022588 0.003997
# 5 0.003612 0.002839 -0.005667 -0.022588 0.043909 -0.000816
# 6 -0.003067 -0.002892 -0.002171 0.003997 -0.000816 0.025686
#
#
# Mechanical properties :
#
#
# Convention : Reuss Voigt Hill
#
# Bulk Modulus (GPa) = 46.26362 63.43196 54.84779
# Shear Modulus (GPa) = 27.28762 35.88563 31.58662
#
# Velocity S-wave (km/s) = 3.54634 4.06684 3.81548
# Velocity P-wave (km/s) = 6.17179 7.16151 6.68499
#
# Compressibility (1/GPa) = 0.02161525
#
# Stress axis : x y z
#
# Youngs Moduli (GPa) = 49.52017 106.52995 77.59110
#
# Poissons Ratio (x) = 0.48467 0.23180
# Poissons Ratio (y) = 0.22530 0.22422
# Poissons Ratio (z) = 0.14794 0.30784
#
# Static dielectric constant tensor:
#      x y z
#    x 1.824050 0.015190 0.010860 
#    y 0.015190 1.790010 -0.023390 
#    z 0.010860 -0.023390 1.818710 
# 
# From -- ./inp_files/273575.got.cif
#   From: 2010.05.17/outbox.cif.g08.bks.cpg/sg2_137_cif.got.tgz:273575.got - 2010.06.03 11:33:40.
