data_PCOD9033118
_publ_section_title
;
Structure prediction by ZEFSAII (Michael W. Deem and Ramdas Pophale) SiO2 
 PCOD9033118
Probable space group: P -1
;
_chemical_formula_sum "Si O2"
_cell_formula_units_Z 16
_cell_length_a 11.887739
_cell_length_b 20.914153
_cell_length_c 8.155475
_cell_angle_alpha 90.854535
_cell_angle_beta 90.998097
_cell_angle_gamma 19.596180
_cell_volume 679.934511
_symmetry_space_group_name_H-M "P -1"
_symmetry_group_IT_number 2
_symmetry_cell_setting 'triclinic'
loop_
_space_group_symop_operation_xyz
x,y,z
-x,-y,-z
loop_
_atom_site_type_symbol
_atom_site_label
_atom_site_fract_x
_atom_site_fract_y
_atom_site_fract_z
Si Si1 0.152860 0.607727 0.618207
Si Si2 0.623004 0.740330 0.867030
Si Si3 0.246622 0.926659 0.546079
Si Si4 0.755123 0.577306 0.361537
Si Si5 0.835614 0.266766 0.462303
Si Si6 0.334370 0.783752 0.050619
Si Si7 0.217708 0.205161 0.027961
Si Si8 0.527778 0.548866 0.891493
O O1 0.131237 0.547646 0.545627
O O2 0.552788 0.408216 0.600211
O O3 0.004064 0.748584 0.526249
O O4 0.979363 0.697616 0.796964
O O5 0.312585 0.904697 0.737717
O O6 0.632508 0.803101 0.964093
O O7 0.949002 0.563125 0.756132
O O8 0.604586 0.685806 0.967745
O O9 0.600197 0.715726 0.470209
O O10 0.000000 0.000000 0.500000
O O11 0.100001 0.068914 0.470221
O O12 0.449659 0.720028 0.238503
O O13 0.644087 0.365846 0.286305
O O14 0.347105 0.705946 0.977875
O O15 0.000000 0.000000 0.000000
O O16 0.922055 0.355318 0.893469
O O17 0.500000 0.000000 0.000000
O O18 0.500000 0.500000 0.000000
#
# Coordination Sequence:
#
# PCOD9033118 Si02
#       8
#     2   2   2   2   2   2   2   2
#     4  10  22  44  66 100 142 182 230 292 358 413
#     4  11  26  46  69 102 148 189 233 300 364 420
#     4  12  24  44  71 103 138 184 242 286 352 432
#     4  11  22  45  66 100 147 181 227 294 360 422
#     4  11  23  41  72 103 137 182 242 294 347 421
#     4  12  25  41  72 106 138 187 246 290 352 429
#     4  11  26  47  73 103 148 191 238 295 368 428
#     4  12  24  46  73 104 142 187 239 302 354 423
#
# _framework density 23.531679
#
# number of rings (size 3 to 8) (size 9 to 14) (size 15 to 20)
#    0.000    0.750    5.000    3.000    1.750    3.000 
#    0.000    3.125    0.000    0.000    0.000    0.000 
#    0.000    0.000    0.000    0.000    0.000    0.000 
#
# Total GULP energy -89435.816178 kJ/mol
# GULP energy per Si atom -5589.738511 kJ/mol
# Density = 2.347812 g / cm^3
# Si number density = 23.531679 Si / 1000 Ang^3
#
#
#
# Elastic Constant Matrix: (Units=GPa)
#
#
# Indices 1 2 3 4 5 6 
#
# 1 168.4806 50.6769 42.9780 1.2480 -5.8536 42.2090
# 2 50.6769 124.9603 35.4245 3.5080 13.4717 38.7635
# 3 42.9780 35.4245 91.5390 -13.7282 12.1556 19.2960
# 4 1.2480 3.5080 -13.7282 47.5319 -2.9063 6.1059
# 5 -5.8536 13.4717 12.1556 -2.9063 41.8428 0.6571
# 6 42.2090 38.7635 19.2960 6.1059 0.6571 54.3422
#
#
#
# Elastic Compliance Matrix: (Units=1/GPa)
#
#
# Indices 1 2 3 4 5 6 
#
# 1 0.008270 -0.001471 -0.002741 -0.000182 0.002483 -0.004410
# 2 -0.001471 0.011493 -0.002154 -0.000839 -0.003242 -0.006157
# 3 -0.002741 -0.002154 0.014613 0.004487 -0.003592 -0.001984
# 4 -0.000182 -0.000839 0.004487 0.022878 0.000584 -0.003431
# 5 0.002483 -0.003242 -0.003592 0.000584 0.026354 0.001275
# 6 -0.004410 -0.006157 -0.001984 -0.003431 0.001275 0.027294
#
#
# Mechanical properties :
#
#
# Convention : Reuss Voigt Hill
#
# Bulk Modulus (GPa) = 46.20486 71.45987 58.83237
# Shear Modulus (GPa) = 38.21239 45.80340 42.00789
#
# Velocity S-wave (km/s) = 4.03410 4.41665 4.22970
# Velocity P-wave (km/s) = 6.43245 7.51283 6.99353
#
# Compressibility (1/GPa) = 0.02164274
#
# Stress axis : x y z
#
# Youngs Moduli (GPa) = 120.92566 87.01012 68.43303
#
# Poissons Ratio (x) = 0.12802 0.18755
# Poissons Ratio (y) = 0.17792 0.14743
# Poissons Ratio (z) = 0.33141 0.18745
#
# Static dielectric constant tensor:
#      x y z
#    x 1.950440 -0.030180 0.008740 
#    y -0.030180 1.931510 0.000030 
#    z 0.008740 0.000030 1.919450 
# 
# From -- ./inp_files/283102.got.cif
#   From: 2010.05.17/outbox.cif.g08.bks.cpg/sg2_142_cif.got.tgz:283102.got - 2010.06.03 11:33:40.
