data_PCOD9033459
_publ_section_title
;
Structure prediction by ZEFSAII (Michael W. Deem and Ramdas Pophale) SiO2 
 PCOD9033459
Probable space group: P -1
;
_chemical_formula_sum "Si O2"
_cell_formula_units_Z 15
_cell_length_a 6.765980
_cell_length_b 23.013433
_cell_length_c 15.260765
_cell_angle_alpha 158.900143
_cell_angle_beta 108.621701
_cell_angle_gamma 83.551147
_cell_volume 680.187428
_symmetry_space_group_name_H-M "P -1"
_symmetry_group_IT_number 2
_symmetry_cell_setting 'triclinic'
loop_
_space_group_symop_operation_xyz
x,y,z
-x,-y,-z
loop_
_atom_site_type_symbol
_atom_site_label
_atom_site_fract_x
_atom_site_fract_y
_atom_site_fract_z
Si Si1 0.000000 0.500000 0.500000
Si Si2 0.496958 0.878700 0.748245
Si Si3 0.751690 0.418865 0.079955
Si Si4 0.584760 0.595661 0.453362
Si Si5 0.905360 0.683841 0.917573
Si Si6 0.993191 0.660815 0.280199
Si Si7 0.889659 0.122255 0.012824
Si Si8 0.218331 0.106602 0.498649
O O1 0.056870 0.390243 0.274333
O O2 0.842849 0.293390 0.238584
O O3 0.459446 0.681923 0.500105
O O4 0.272352 0.827506 0.580165
O O5 0.500000 0.000000 0.000000
O O6 0.759258 0.001423 0.910605
O O7 0.488606 0.228312 0.750729
O O8 0.704372 0.513715 0.290642
O O9 0.945290 0.363268 0.057883
O O10 0.848334 0.562498 0.212488
O O11 0.812862 0.768921 0.782936
O O12 0.381511 0.431352 0.256566
O O13 0.028717 0.912661 0.251952
O O14 0.871577 0.750005 0.330844
O O15 0.000000 0.500000 0.000000
O O16 0.774729 0.974486 0.709323
#
# Coordination Sequence:
#
# PCOD9033459 Si02
#       8
#     1   2   2   2   2   2   2   2
#     4  10  22  44  68 102 140 182 224 288 350 412
#     4  12  23  40  69 103 138 178 241 288 344 414
#     4  12  24  49  71 103 142 184 237 287 351 416
#     4  12  24  44  74 100 139 186 233 291 350 415
#     4  11  25  47  73 105 142 185 234 286 355 415
#     4  12  25  46  71 103 142 189 232 290 353 413
#     4  11  23  42  65 102 138 180 230 288 347 409
#     4  11  26  44  70 103 140 184 234 288 346 420
#
# _framework density 22.052745000000002
#
# number of rings (size 3 to 8) (size 9 to 14) (size 15 to 20)
#    0.000    0.533    2.667    6.000    0.000    3.733 
#    2.400    0.000    0.000    0.000    0.000    0.000 
#    0.000    0.000    0.000    0.000    0.000    0.000 
#
# Total GULP energy -83710.704054 kJ/mol
# GULP energy per Si atom -5580.713604 kJ/mol
# Density = 2.200255 g / cm^3
# Si number density = 22.052745 Si / 1000 Ang^3
#
#
#
# Elastic Constant Matrix: (Units=GPa)
#
#
# Indices 1 2 3 4 5 6 
#
# 1 48.3448 25.8575 35.2254 8.5648 11.1173 10.7312
# 2 25.8575 76.8905 21.9199 23.9427 7.8552 10.5817
# 3 35.2254 21.9199 97.0186 2.8904 -0.2729 6.4443
# 4 8.5648 23.9427 2.8904 50.7040 -1.3583 7.5107
# 5 11.1173 7.8552 -0.2729 -1.3583 49.1744 8.1912
# 6 10.7312 10.5817 6.4443 7.5107 8.1912 23.0480
#
#
#
# Elastic Compliance Matrix: (Units=1/GPa)
#
#
# Indices 1 2 3 4 5 6 
#
# 1 0.035477 -0.006824 -0.010792 -0.001126 -0.005693 -0.007978
# 2 -0.006824 0.018313 -0.001311 -0.007143 -0.001238 -0.002096
# 3 -0.010792 -0.001311 0.014476 0.001684 0.002768 0.000046
# 4 -0.001126 -0.007143 0.001684 0.024097 0.003001 -0.005587
# 5 -0.005693 -0.001238 0.002768 0.003001 0.023038 -0.006721
# 6 -0.007978 -0.002096 0.000046 -0.005587 -0.006721 0.052261
#
#
# Mechanical properties :
#
#
# Convention : Reuss Voigt Hill
#
# Bulk Modulus (GPa) = 32.88119 43.13995 38.01057
# Shear Modulus (GPa) = 23.18514 33.86869 28.52692
#
# Velocity S-wave (km/s) = 3.24597 3.92318 3.60053
# Velocity P-wave (km/s) = 5.38433 6.33455 5.87867
#
# Compressibility (1/GPa) = 0.03041252
#
# Stress axis : x y z
#
# Youngs Moduli (GPa) = 28.18715 54.60493 69.07806
#
# Poissons Ratio (x) = 0.37262 0.74547
# Poissons Ratio (y) = 0.19235 0.09059
# Poissons Ratio (z) = 0.30419 0.07161
#
# Static dielectric constant tensor:
#      x y z
#    x 5.114380 5.815280 5.262250 
#    y 5.815280 12.030250 9.203290 
#    z 5.262250 9.203290 10.055760 
# 
# From -- ./inp_files/349681.got.cif
#   From: 2010.05.17/outbox.cif.g08.bks.cpg/sg2_175_cif.got.tgz:349681.got - 2010.06.03 11:33:40.
