data_PCOD9033154
_publ_section_title
;
Structure prediction by ZEFSAII (Michael W. Deem and Ramdas Pophale) SiO2 
 PCOD9033154
Probable space group: P -1
;
_chemical_formula_sum "Si O2"
_cell_formula_units_Z 14
_cell_length_a 23.344802
_cell_length_b 12.801673
_cell_length_c 4.939018
_cell_angle_alpha 85.575479
_cell_angle_beta 97.749539
_cell_angle_gamma 157.487333
_cell_volume 555.603413
_symmetry_space_group_name_H-M "P -1"
_symmetry_group_IT_number 2
_symmetry_cell_setting 'triclinic'
loop_
_space_group_symop_operation_xyz
x,y,z
-x,-y,-z
loop_
_atom_site_type_symbol
_atom_site_label
_atom_site_fract_x
_atom_site_fract_y
_atom_site_fract_z
Si Si1 0.679055 0.307340 0.014558
Si Si2 0.973185 0.356228 0.326895
Si Si3 0.273367 0.742439 0.451179
Si Si4 0.891796 0.844398 0.209921
Si Si5 0.751573 0.813412 0.354126
Si Si6 0.669253 0.867926 0.972819
Si Si7 0.526642 0.732092 0.414535
O O1 0.752947 0.343057 0.246602
O O2 0.746173 0.527905 0.121662
O O3 0.710322 0.329017 0.721248
O O4 0.500000 0.000000 0.000000
O O5 0.000000 0.500000 0.500000
O O6 0.131704 0.573101 0.297364
O O7 0.882209 0.110930 0.477359
O O8 0.851120 0.183472 0.056302
O O9 0.419905 0.063637 0.495279
O O10 0.832246 0.861294 0.214976
O O11 0.000000 0.000000 0.500000
O O12 0.000000 0.000000 0.000000
O O13 0.647293 0.583655 0.558983
O O14 0.649642 0.719001 0.118301
O O15 0.587153 0.812292 0.135546
O O16 0.617595 0.802586 0.650165
#
# Coordination Sequence:
#
# PCOD9033154 Si02
#       7
#     2   2   2   2   2   2   2
#     4  12  27  48  73 105 139 182 243 296 347 406
#     4  10  22  44  66 105 138 179 222 276 344 417
#     4  12  25  45  72 103 141 184 229 291 350 408
#     4  12  27  49  72 102 140 187 240 292 347 414
#     4  10  24  44  69 100 137 185 223 286 345 408
#     4  10  25  40  70 100 143 173 229 273 343 416
#     4  12  23  45  68 106 137 182 225 278 345 424
#
# _framework density 25.197828000000001
#
# number of rings (size 3 to 8) (size 9 to 14) (size 15 to 20)
#    0.857    0.000    1.429    5.571    0.000    5.143 
#    0.000    0.000    0.000    0.000    0.000    0.000 
#    0.000    0.000    0.000    0.000    0.000    0.000 
#
# Total GULP energy -78439.309023 kJ/mol
# GULP energy per Si atom -5602.807787 kJ/mol
# Density = 2.514048 g / cm^3
# Si number density = 25.197828 Si / 1000 Ang^3
#
#
#
# Elastic Constant Matrix: (Units=GPa)
#
#
# Indices 1 2 3 4 5 6 
#
# 1 112.8131 27.2386 22.1483 11.1501 -34.2444 -1.4150
# 2 27.2386 109.4635 30.8908 26.5969 -28.4590 -7.1019
# 3 22.1483 30.8908 108.5335 5.0865 -23.5097 2.7986
# 4 11.1501 26.5969 5.0865 45.6855 -7.9308 -10.2547
# 5 -34.2444 -28.4590 -23.5097 -7.9308 41.6804 4.5142
# 6 -1.4150 -7.1019 2.7986 -10.2547 4.5142 52.2083
#
#
#
# Elastic Compliance Matrix: (Units=1/GPa)
#
#
# Indices 1 2 3 4 5 6 
#
# 1 0.011920 -0.000189 -0.000274 -0.001316 0.009340 -0.000754
# 2 -0.000189 0.012881 -0.001967 -0.006107 0.006357 0.000103
# 3 -0.000274 -0.001967 0.010872 0.000574 0.004799 -0.001160
# 4 -0.001316 -0.006107 0.000574 0.026622 -0.000334 0.004361
# 5 0.009340 0.006357 0.004799 -0.000334 0.038928 -0.002571
# 6 -0.000754 0.000103 -0.001160 0.004361 -0.002571 0.020289
#
#
# Mechanical properties :
#
#
# Convention : Reuss Voigt Hill
#
# Bulk Modulus (GPa) = 32.45552 54.59616 43.52584
# Shear Modulus (GPa) = 36.59159 44.61700 40.60429
#
# Velocity S-wave (km/s) = 3.81487 4.21250 4.01861
# Velocity P-wave (km/s) = 5.68442 6.73604 6.23245
#
# Compressibility (1/GPa) = 0.03081140
#
# Stress axis : x y z
#
# Youngs Moduli (GPa) = 83.89486 77.63434 91.97895
#
# Poissons Ratio (x) = 0.01471 0.02521
# Poissons Ratio (y) = 0.01589 0.18093
# Poissons Ratio (z) = 0.02300 0.15271
#
# Static dielectric constant tensor:
#      x y z
#    x 1.935160 -0.040010 0.056880 
#    y -0.040010 2.074900 0.004550 
#    z 0.056880 0.004550 1.938550 
# 
# From -- ./inp_files/127183.got.cif
#   From: 2010.05.17/outbox.cif.g08.bks.cpg/sg2_64_cif.got.tgz:127183.got - 2010.06.03 11:33:40.
