data_PCOD9033035
_publ_section_title
;
Structure prediction by ZEFSAII (Michael W. Deem and Ramdas Pophale) SiO2 
 PCOD9033035
Probable space group: P -1
;
_chemical_formula_sum "Si O2"
_cell_formula_units_Z 14
_cell_length_a 11.072088
_cell_length_b 11.371579
_cell_length_c 6.094991
_cell_angle_alpha 127.433723
_cell_angle_beta 71.214718
_cell_angle_gamma 116.057186
_cell_volume 545.793130
_symmetry_space_group_name_H-M "P -1"
_symmetry_group_IT_number 2
_symmetry_cell_setting 'triclinic'
loop_
_space_group_symop_operation_xyz
x,y,z
-x,-y,-z
loop_
_atom_site_type_symbol
_atom_site_label
_atom_site_fract_x
_atom_site_fract_y
_atom_site_fract_z
Si Si1 0.009524 0.755778 0.228181
Si Si2 0.890959 0.938649 0.195452
Si Si3 0.366182 0.001826 0.722931
Si Si4 0.558756 0.755184 0.687833
Si Si5 0.099044 0.510470 0.660134
Si Si6 0.313032 0.670927 0.428651
Si Si7 0.598622 0.497653 0.146275
O O1 0.920170 0.792960 0.128253
O O2 0.939803 0.636878 0.327700
O O3 0.080550 0.921945 0.486052
O O4 0.103480 0.667401 0.963634
O O5 0.732915 0.904069 0.195572
O O6 0.000000 0.000000 0.000000
O O7 0.500000 0.000000 0.500000
O O8 0.268464 0.822070 0.590069
O O9 0.398840 0.078138 0.031615
O O10 0.458885 0.751737 0.542228
O O11 0.653282 0.666186 0.420551
O O12 0.484939 0.633515 0.783599
O O13 0.242308 0.543944 0.505176
O O14 0.000000 0.500000 0.500000
O O15 0.298212 0.576863 0.106789
O O16 0.500000 0.500000 0.000000
#
# Coordination Sequence:
#
# PCOD9033035 Si02
#       7
#     2   2   2   2   2   2   2
#     4  10  24  48  77 109 144 202 251 316 389 450
#     4  11  25  52  75 111 155 194 257 318 381 458
#     4  12  25  45  76 108 150 202 254 313 383 463
#     4  10  22  44  65 101 142 196 246 300 387 449
#     4  11  24  46  75 111 143 193 262 318 379 453
#     4  11  23  43  71 102 149 188 252 316 378 452
#     4   9  20  43  63  94 140 188 237 300 370 448
#
# _framework density 25.650742000000001
#
# number of rings (size 3 to 8) (size 9 to 14) (size 15 to 20)
#    0.000    1.429    1.429    3.000    2.000    2.286 
#   25.714    0.000    0.000    0.000    0.000    0.000 
#    0.000    0.000    0.000    0.000    0.000    0.000 
#
# Total GULP energy -78232.715680 kJ/mol
# GULP energy per Si atom -5588.051120 kJ/mol
# Density = 2.559236 g / cm^3
# Si number density = 25.650742 Si / 1000 Ang^3
#
#
#
# Elastic Constant Matrix: (Units=GPa)
#
#
# Indices 1 2 3 4 5 6 
#
# 1 106.6406 10.4438 14.1771 -11.0572 4.2401 -24.3680
# 2 10.4438 114.7707 28.8778 -21.2767 -9.3516 -21.8026
# 3 14.1771 28.8778 176.5131 18.9344 0.2576 9.7084
# 4 -11.0572 -21.2767 18.9344 46.7216 -0.1281 -1.2071
# 5 4.2401 -9.3516 0.2576 -0.1281 18.7618 -3.8566
# 6 -24.3680 -21.8026 9.7084 -1.2071 -3.8566 41.7933
#
#
#
# Elastic Compliance Matrix: (Units=1/GPa)
#
#
# Indices 1 2 3 4 5 6 
#
# 1 0.011996 0.002101 -0.002324 0.004965 0.000209 0.008793
# 2 0.002101 0.013799 -0.003940 0.008670 0.008652 0.010388
# 3 -0.002324 -0.003940 0.007394 -0.005491 -0.002716 -0.005537
# 4 0.004965 0.008670 -0.005491 0.029027 0.005537 0.010043
# 5 0.000209 0.008652 -0.002716 0.005537 0.059891 0.010953
# 6 0.008793 0.010388 -0.005537 0.010043 0.010953 0.037060
#
#
# Mechanical properties :
#
#
# Convention : Reuss Voigt Hill
#
# Bulk Modulus (GPa) = 40.22011 56.10241 48.16126
# Shear Modulus (GPa) = 28.44448 44.41706 36.43077
#
# Velocity S-wave (km/s) = 3.33365 4.16578 3.77272
# Velocity P-wave (km/s) = 5.52554 6.71248 6.14772
#
# Compressibility (1/GPa) = 0.02486319
#
# Stress axis : x y z
#
# Youngs Moduli (GPa) = 83.35934 72.47023 135.24203
#
# Poissons Ratio (x) = -0.15226 0.31428
# Poissons Ratio (y) = -0.17514 0.53288
# Poissons Ratio (z) = 0.19371 0.28555
#
# Static dielectric constant tensor:
#      x y z
#    x 2.188060 -0.044890 -0.038710 
#    y -0.044890 2.057030 0.020190 
#    z -0.038710 0.020190 2.036480 
# 
# From -- ./inp_files/72518.got.cif
#   From: 2010.05.17/outbox.cif.g08.bks.cpg/sg2_37_cif.got.tgz:72518.got - 2010.06.03 11:33:40.
