data_PCOD9033874
_publ_section_title
;
Structure prediction by ZEFSAII (Michael W. Deem and Ramdas Pophale) SiO2 
 PCOD9033874
Probable space group: P -1
;
_chemical_formula_sum "Si O2"
_cell_formula_units_Z 14
_cell_length_a 10.440360
_cell_length_b 19.947139
_cell_length_c 9.427206
_cell_angle_alpha 144.712025
_cell_angle_beta 140.451684
_cell_angle_gamma 30.335192
_cell_volume 557.695427
_symmetry_space_group_name_H-M "P -1"
_symmetry_group_IT_number 2
_symmetry_cell_setting 'triclinic'
loop_
_space_group_symop_operation_xyz
x,y,z
-x,-y,-z
loop_
_atom_site_type_symbol
_atom_site_label
_atom_site_fract_x
_atom_site_fract_y
_atom_site_fract_z
Si Si1 0.490798 0.171231 0.129379
Si Si2 0.990954 0.141674 0.244923
Si Si3 0.467425 0.074601 0.395356
Si Si4 0.436135 0.618461 0.531886
Si Si5 0.252449 0.350167 0.524774
Si Si6 0.931736 0.075008 0.722603
Si Si7 0.378413 0.634975 0.944588
O O1 0.429595 0.304302 0.207620
O O2 0.420659 0.242914 0.348948
O O3 0.798480 0.031595 0.150007
O O4 0.396236 0.080947 0.842528
O O5 0.864978 0.240570 0.452007
O O6 0.777029 0.256890 0.139890
O O7 0.281403 0.085601 0.375099
O O8 0.000000 0.000000 0.000000
O O9 0.240025 0.234884 0.401721
O O10 0.699383 0.085115 0.614809
O O11 0.500000 0.500000 0.500000
O O12 0.528635 0.525029 0.303000
O O13 0.000000 0.500000 0.500000
O O14 0.370616 0.397061 0.822224
O O15 0.833189 0.243976 0.912313
O O16 0.000000 0.000000 0.500000
#
# Coordination Sequence:
#
# PCOD9033874 Si02
#       7
#     2   2   2   2   2   2   2
#     4  12  23  45  74  99 144 190 238 301 372 424
#     4  11  21  45  77 101 144 194 241 299 360 426
#     4  11  24  43  75 104 139 186 247 303 348 436
#     4  10  24  42  71 102 140 194 236 292 364 428
#     4  11  27  44  67 109 145 188 238 300 375 432
#     4  11  22  43  69 107 139 183 242 293 369 431
#     4  10  22  44  70 104 147 185 237 301 361 436
#
# _framework density 25.103308999999999
#
# number of rings (size 3 to 8) (size 9 to 14) (size 15 to 20)
#    0.000    1.143    5.714    0.429    4.000    1.714 
#    0.000    9.286    0.000    0.000    0.000    0.000 
#    0.000    0.000    0.000    0.000    0.000    0.000 
#
# Total GULP energy -77952.109823 kJ/mol
# GULP energy per Si atom -5568.007844 kJ/mol
# Density = 2.504617 g / cm^3
# Si number density = 25.103309 Si / 1000 Ang^3
#
#
#
# Elastic Constant Matrix: (Units=GPa)
#
#
# Indices 1 2 3 4 5 6 
#
# 1 59.6994 18.6661 18.0356 10.1450 2.5612 -31.2514
# 2 18.6661 145.4754 64.7892 9.8308 5.9124 -6.6367
# 3 18.0356 64.7892 160.9159 29.5338 -5.6025 -19.9009
# 4 10.1450 9.8308 29.5338 57.4819 -10.3806 -4.8811
# 5 2.5612 5.9124 -5.6025 -10.3806 45.5749 12.2567
# 6 -31.2514 -6.6367 -19.9009 -4.8811 12.2567 38.3923
#
#
#
# Elastic Compliance Matrix: (Units=1/GPa)
#
#
# Indices 1 2 3 4 5 6 
#
# 1 0.035557 -0.003092 0.001973 -0.006081 -0.011428 0.032307
# 2 -0.003092 0.008751 -0.003630 0.000588 -0.000566 -0.002630
# 3 0.001973 -0.003630 0.008810 -0.003963 -0.000892 0.005326
# 4 -0.006081 0.000588 -0.003963 0.021003 0.006236 -0.006223
# 5 -0.011428 -0.000566 -0.000892 0.006236 0.028888 -0.018292
# 6 0.032307 -0.002630 0.005326 -0.006223 -0.018292 0.059700
#
#
# Mechanical properties :
#
#
# Convention : Reuss Voigt Hill
#
# Bulk Modulus (GPa) = 22.92496 63.23028 43.07762
# Shear Modulus (GPa) = 26.77457 45.92980 36.35219
#
# Velocity S-wave (km/s) = 3.26939 4.28206 3.80952
# Velocity P-wave (km/s) = 4.83776 7.04917 6.04544
#
# Compressibility (1/GPa) = 0.04362059
#
# Stress axis : x y z
#
# Youngs Moduli (GPa) = 28.12389 114.27913 113.51259
#
# Poissons Ratio (x) = 0.35334 -0.22400
# Poissons Ratio (y) = 0.08696 0.41201
# Poissons Ratio (z) = -0.05550 0.41479
#
# Static dielectric constant tensor:
#      x y z
#    x 2.143260 0.041880 -0.046440 
#    y 0.041880 2.052910 -0.039240 
#    z -0.046440 -0.039240 2.028810 
# 
# From -- ./inp_files/439175.got.cif
#   From: 2010.05.17/outbox.cif.g08.bks.cpg/sg2_220_cif.got.tgz:439175.got - 2010.06.03 11:33:40.
