data_PCOD9033033
_publ_section_title
;
Structure prediction by ZEFSAII (Michael W. Deem and Ramdas Pophale) SiO2 
 PCOD9033033
Probable space group: P -1
;
_chemical_formula_sum "Si O2"
_cell_formula_units_Z 12
_cell_length_a 8.835783
_cell_length_b 16.429018
_cell_length_c 8.450770
_cell_angle_alpha 107.550461
_cell_angle_beta 80.491980
_cell_angle_gamma 150.499193
_cell_volume 563.477438
_symmetry_space_group_name_H-M "P -1"
_symmetry_group_IT_number 2
_symmetry_cell_setting 'triclinic'
loop_
_space_group_symop_operation_xyz
x,y,z
-x,-y,-z
loop_
_atom_site_type_symbol
_atom_site_label
_atom_site_fract_x
_atom_site_fract_y
_atom_site_fract_z
Si Si1 0.341085 0.196231 0.235455
Si Si2 0.034150 0.442632 0.836056
Si Si3 0.556538 0.000146 0.670001
Si Si4 0.130233 0.312613 0.919153
Si Si5 0.698162 0.301925 0.499185
Si Si6 0.809784 0.045881 0.084319
O O1 0.644046 0.389668 0.219796
O O2 0.408892 0.211690 0.417278
O O3 0.043629 0.110704 0.201227
O O4 0.310253 0.090214 0.086250
O O5 0.054655 0.368361 0.893075
O O6 0.751153 0.315146 0.684125
O O7 0.000000 0.500000 0.000000
O O8 0.341058 0.812784 0.627448
O O9 0.442131 0.020229 0.817014
O O10 0.500000 0.000000 0.500000
O O11 0.924331 0.158441 0.734605
O O12 0.500000 0.500000 0.000000
O O13 0.990382 0.203002 0.037884
O O14 0.000000 0.500000 0.500000
#
# Coordination Sequence:
#
# PCOD9033033 Si02
#       6
#     2   2   2   2   2   2
#     4  10  22  44  65 101 137 178 232 277 351 405
#     4  11  23  41  66 100 140 180 228 279 346 413
#     4  12  25  46  69 102 139 184 237 281 348 412
#     4  12  24  44  68 104 136 179 231 282 345 414
#     4  10  23  42  66  98 136 180 231 284 339 409
#     4  11  24  43  72  98 139 183 225 291 342 413
#
# _framework density 21.296327999999999
#
# number of rings (size 3 to 8) (size 9 to 14) (size 15 to 20)
#    0.000    1.000    5.000    1.500    4.667    0.000 
#    3.000    5.000    0.000    0.000    0.000    0.000 
#    0.000    0.000    0.000    0.000    0.000    0.000 
#
# Total GULP energy -66858.602496 kJ/mol
# GULP energy per Si atom -5571.550208 kJ/mol
# Density = 2.124786 g / cm^3
# Si number density = 21.296328 Si / 1000 Ang^3
#
#
#
# Elastic Constant Matrix: (Units=GPa)
#
#
# Indices 1 2 3 4 5 6 
#
# 1 98.1934 55.5317 79.5784 -1.5686 38.4190 -27.4378
# 2 55.5317 133.4731 36.1736 14.8801 12.0506 -21.1261
# 3 79.5784 36.1736 125.7067 18.5300 48.5726 3.3117
# 4 -1.5686 14.8801 18.5300 30.5491 -3.4651 6.1488
# 5 38.4190 12.0506 48.5726 -3.4651 48.4877 3.2423
# 6 -27.4378 -21.1261 3.3117 6.1488 3.2423 39.6979
#
#
#
# Elastic Compliance Matrix: (Units=1/GPa)
#
#
# Indices 1 2 3 4 5 6 
#
# 1 0.055864 -0.010474 -0.032123 0.019533 -0.010328 0.033535
# 2 -0.010474 0.011574 0.004491 -0.008844 0.000299 -0.000109
# 3 -0.032123 0.004491 0.035237 -0.022819 -0.011370 -0.018289
# 4 0.019533 -0.008844 -0.022819 0.053113 0.013282 0.001386
# 5 -0.010328 0.000299 -0.011370 0.013282 0.041841 -0.011505
# 6 0.033535 -0.000109 -0.018289 0.001386 -0.011505 0.050561
#
#
# Mechanical properties :
#
#
# Convention : Reuss Voigt Hill
#
# Bulk Modulus (GPa) = 37.78782 77.77116 57.77949
# Shear Modulus (GPa) = 15.00498 36.15292 25.57895
#
# Velocity S-wave (km/s) = 2.65727 4.12468 3.46944
# Velocity P-wave (km/s) = 5.21509 7.69947 6.57567
#
# Compressibility (1/GPa) = 0.02646355
#
# Stress axis : x y z
#
# Youngs Moduli (GPa) = 17.90075 86.39759 28.37953
#
# Poissons Ratio (x) = 0.90489 0.91162
# Poissons Ratio (y) = 0.18748 -0.12744
# Poissons Ratio (z) = 0.57502 -0.38797
#
# Static dielectric constant tensor:
#      x y z
#    x 1.759080 0.006880 0.043500 
#    y 0.006880 1.817820 0.049250 
#    z 0.043500 0.049250 1.789850 
# 
# From -- ./inp_files/146541.got.cif
#   From: 2010.05.17/outbox.cif.g08.bks.cpg/sg2_74_cif.got.tgz:146541.got - 2010.06.03 11:33:40.
