data_PCOD9033852
_publ_section_title
;
Structure prediction by ZEFSAII (Michael W. Deem and Ramdas Pophale) SiO2 
 PCOD9033852
Probable space group: P -1
;
_chemical_formula_sum "Si O2"
_cell_formula_units_Z 16
_cell_length_a 17.244430
_cell_length_b 9.329141
_cell_length_c 8.853634
_cell_angle_alpha 119.040152
_cell_angle_beta 140.351812
_cell_angle_gamma 80.220843
_cell_volume 739.584664
_symmetry_space_group_name_H-M "P -1"
_symmetry_group_IT_number 2
_symmetry_cell_setting 'triclinic'
loop_
_space_group_symop_operation_xyz
x,y,z
-x,-y,-z
loop_
_atom_site_type_symbol
_atom_site_label
_atom_site_fract_x
_atom_site_fract_y
_atom_site_fract_z
Si Si1 0.629282 0.146217 0.334038
Si Si2 0.851941 0.047657 0.460206
Si Si3 0.867058 0.733101 0.115454
Si Si4 0.354893 0.908753 0.309116
Si Si5 0.498147 0.567973 0.702203
Si Si6 0.686579 0.752299 0.601415
Si Si7 0.241698 0.250297 0.632658
Si Si8 0.851630 0.479369 0.237293
O O1 0.744828 0.129941 0.392803
O O2 0.640254 0.101569 0.505230
O O3 0.599296 0.325632 0.376093
O O4 0.500000 0.000000 0.000000
O O5 0.983110 0.195075 0.674195
O O6 0.833254 0.890082 0.228868
O O7 0.860293 0.939888 0.568747
O O8 0.841178 0.571274 0.108461
O O9 0.781822 0.693396 0.817382
O O10 0.500000 0.000000 0.500000
O O11 0.291178 0.046713 0.229850
O O12 0.259007 0.714289 0.018110
O O13 0.500000 0.500000 0.500000
O O14 0.454612 0.389244 0.642151
O O15 0.636676 0.695638 0.040145
O O16 0.705659 0.746802 0.451533
O O17 0.178878 0.395906 0.624236
O O18 0.000000 0.500000 0.500000
#
# Coordination Sequence:
#
# PCOD9033852 Si02
#       8
#     2   2   2   2   2   2   2   2
#     4  12  24  43  72 108 143 186 244 303 347 432
#     4  10  22  44  70 103 138 182 245 288 355 434
#     4  10  25  45  74  98 141 192 234 288 375 427
#     4  12  27  44  69 108 144 184 243 294 362 427
#     4  12  24  44  70 100 147 192 233 291 365 431
#     4  12  25  43  69 100 138 190 232 292 363 425
#     4  11  23  45  67 104 144 180 235 296 360 422
#     4  11  27  49  73 102 143 190 243 302 359 433
#
# _framework density 21.633762000000001
#
# number of rings (size 3 to 8) (size 9 to 14) (size 15 to 20)
#    0.000    0.750    2.500    4.875    7.000    3.500 
#    0.000    1.875    0.000    0.000    0.000    0.000 
#    0.000    0.000    0.000    0.000    0.000    0.000 
#
# Total GULP energy -89321.348727 kJ/mol
# GULP energy per Si atom -5582.584295 kJ/mol
# Density = 2.158452 g / cm^3
# Si number density = 21.633762 Si / 1000 Ang^3
#
#
#
# Elastic Constant Matrix: (Units=GPa)
#
#
# Indices 1 2 3 4 5 6 
#
# 1 152.0681 43.9055 33.3960 11.8271 16.3665 -10.2864
# 2 43.9055 132.0485 36.1488 24.0105 12.9339 -14.7478
# 3 33.3960 36.1488 60.9760 3.0167 16.5237 -5.4189
# 4 11.8271 24.0105 3.0167 40.2439 10.4674 5.8001
# 5 16.3665 12.9339 16.5237 10.4674 27.4484 -0.1555
# 6 -10.2864 -14.7478 -5.4189 5.8001 -0.1555 50.3393
#
#
#
# Elastic Compliance Matrix: (Units=1/GPa)
#
#
# Indices 1 2 3 4 5 6 
#
# 1 0.007961 -0.001387 -0.002855 -0.000919 -0.002018 0.001012
# 2 -0.001387 0.010935 -0.005537 -0.006541 0.001520 0.003082
# 3 -0.002855 -0.005537 0.024324 0.005601 -0.012469 -0.000271
# 4 -0.000919 -0.006541 0.005601 0.032530 -0.012178 -0.005287
# 5 -0.002018 0.001520 -0.012469 -0.012178 0.049071 0.000245
# 6 0.001012 0.003082 -0.000271 -0.005287 0.000245 0.021556
#
#
# Mechanical properties :
#
#
# Convention : Reuss Voigt Hill
#
# Bulk Modulus (GPa) = 42.26513 63.55480 52.90996
# Shear Modulus (GPa) = 28.76509 39.04916 33.90712
#
# Velocity S-wave (km/s) = 3.65038 4.25315 3.96324
# Velocity P-wave (km/s) = 6.11114 7.31850 6.74190
#
# Compressibility (1/GPa) = 0.02366017
#
# Stress axis : x y z
#
# Youngs Moduli (GPa) = 125.61596 91.45168 41.11195
#
# Poissons Ratio (x) = 0.12689 0.11738
# Poissons Ratio (y) = 0.17429 0.22763
# Poissons Ratio (z) = 0.35866 0.50636
#
# Static dielectric constant tensor:
#      x y z
#    x 1.825110 -0.009580 0.018870 
#    y -0.009580 1.811590 0.015450 
#    z 0.018870 0.015450 1.849030 
# 
# From -- ./inp_files/329498.got.cif
#   From: 2010.05.17/outbox.cif.g08.bks.cpg/sg2_165_cif.got.tgz:329498.got - 2010.06.03 11:33:40.
