data_PCOD9033573
_publ_section_title
;
Structure prediction by ZEFSAII (Michael W. Deem and Ramdas Pophale) SiO2 
 PCOD9033573
Probable space group: P -1
;
_chemical_formula_sum "Si O2"
_cell_formula_units_Z 14
_cell_length_a 8.759926
_cell_length_b 8.627737
_cell_length_c 12.144485
_cell_angle_alpha 126.994205
_cell_angle_beta 63.524732
_cell_angle_gamma 112.396073
_cell_volume 647.998487
_symmetry_space_group_name_H-M "P -1"
_symmetry_group_IT_number 2
_symmetry_cell_setting 'triclinic'
loop_
_space_group_symop_operation_xyz
x,y,z
-x,-y,-z
loop_
_atom_site_type_symbol
_atom_site_label
_atom_site_fract_x
_atom_site_fract_y
_atom_site_fract_z
Si Si1 0.988712 0.127710 0.731024
Si Si2 0.590835 0.046211 0.341915
Si Si3 0.238634 0.211049 0.481567
Si Si4 0.532756 0.384893 0.766221
Si Si5 0.259297 0.555643 0.053723
Si Si6 0.868892 0.888949 0.079715
Si Si7 0.795223 0.448530 0.521024
O O1 0.870942 0.294775 0.861334
O O2 0.136701 0.202297 0.625991
O O3 0.062089 0.081934 0.805535
O O4 0.874945 0.940300 0.630119
O O5 0.421315 0.138712 0.407859
O O6 0.729737 0.218848 0.422262
O O7 0.539334 0.841888 0.338833
O O8 0.687748 0.970948 0.172836
O O9 0.250621 0.423442 0.512640
O O10 0.622511 0.366423 0.847468
O O11 0.675790 0.486580 0.679423
O O12 0.378579 0.507626 0.892838
O O13 0.161782 0.342812 0.030045
O O14 0.000000 0.000000 0.000000
O O15 0.000000 0.500000 0.500000
#
# Coordination Sequence:
#
# PCOD9033573 Si02
#       7
#     2   2   2   2   2   2   2
#     4  11  24  46  69 101 140 180 231 279 345 402
#     4  11  25  47  67 100 140 179 231 280 344 409
#     4  11  26  43  71 102 136 184 227 286 339 402
#     4  10  23  43  72  98 137 184 226 276 346 408
#     4  10  22  44  68  97 137 186 225 271 346 413
#     4  11  27  42  70 103 136 180 230 285 338 405
#     4  12  26  42  71 105 138 176 232 290 336 402
#
# _framework density 21.604989
#
# number of rings (size 3 to 8) (size 9 to 14) (size 15 to 20)
#    0.000    1.143    1.429    3.000   14.000    1.143 
#    0.000    1.429    0.000    0.000    0.000    0.000 
#    0.000    0.000    0.000    0.000    0.000    0.000 
#
# Total GULP energy -78313.104744 kJ/mol
# GULP energy per Si atom -5593.793196 kJ/mol
# Density = 2.155582 g / cm^3
# Si number density = 21.604989 Si / 1000 Ang^3
#
#
#
# Elastic Constant Matrix: (Units=GPa)
#
#
# Indices 1 2 3 4 5 6 
#
# 1 120.4691 53.2670 60.5642 -1.6234 -17.7465 1.8908
# 2 53.2670 124.2712 79.4901 -24.4831 -9.6071 20.5616
# 3 60.5642 79.4901 109.7980 -2.2223 -14.3729 -6.1220
# 4 -1.6234 -24.4831 -2.2223 39.6215 6.8597 -3.8186
# 5 -17.7465 -9.6071 -14.3729 6.8597 46.5871 8.6105
# 6 1.8908 20.5616 -6.1220 -3.8186 8.6105 32.1579
#
#
#
# Elastic Compliance Matrix: (Units=1/GPa)
#
#
# Indices 1 2 3 4 5 6 
#
# 1 0.012121 -0.001637 -0.005206 -0.001527 0.003212 -0.001699
# 2 -0.001637 0.027229 -0.019550 0.013679 0.000561 -0.019562
# 3 -0.005206 -0.019550 0.026952 -0.009276 0.000583 0.016680
# 4 -0.001527 0.013679 -0.009276 0.033396 -0.004573 -0.005233
# 5 0.003212 0.000561 0.000583 -0.004573 0.025080 -0.007695
# 6 -0.001699 -0.019562 0.016680 -0.005233 -0.007695 0.048319
#
#
# Mechanical properties :
#
#
# Convention : Reuss Voigt Hill
#
# Bulk Modulus (GPa) = 73.99027 82.35344 78.17186
# Shear Modulus (GPa) = 21.70254 34.42110 28.06182
#
# Velocity S-wave (km/s) = 3.17285 3.99582 3.60788
# Velocity P-wave (km/s) = 6.90969 7.71293 7.32233
#
# Compressibility (1/GPa) = 0.01351529
#
# Stress axis : x y z
#
# Youngs Moduli (GPa) = 82.49975 36.72578 37.10365
#
# Poissons Ratio (x) = 0.06012 0.19316
# Poissons Ratio (y) = 0.13505 0.72538
# Poissons Ratio (z) = 0.42949 0.71799
#
# Static dielectric constant tensor:
#      x y z
#    x 1.799860 0.037490 0.002880 
#    y 0.037490 1.754920 0.010800 
#    z 0.002880 0.010800 1.825500 
# 
# From -- ./inp_files/383470.got.cif
#   From: 2010.05.17/outbox.cif.g08.bks.cpg/sg2_192_cif.got.tgz:383470.got - 2010.06.03 11:33:40.
