data_PCOD9033073
_publ_section_title
;
Structure prediction by ZEFSAII (Michael W. Deem and Ramdas Pophale) SiO2 
 PCOD9033073
Probable space group: P -1
;
_chemical_formula_sum "Si O2"
_cell_formula_units_Z 16
_cell_length_a 23.591973
_cell_length_b 6.746606
_cell_length_c 13.108310
_cell_angle_alpha 101.584889
_cell_angle_beta 34.489844
_cell_angle_gamma 127.004077
_cell_volume 714.622604
_symmetry_space_group_name_H-M "P -1"
_symmetry_group_IT_number 2
_symmetry_cell_setting 'triclinic'
loop_
_space_group_symop_operation_xyz
x,y,z
-x,-y,-z
loop_
_atom_site_type_symbol
_atom_site_label
_atom_site_fract_x
_atom_site_fract_y
_atom_site_fract_z
Si Si1 0.330934 0.478053 0.406183
Si Si2 0.829300 0.770785 0.173882
Si Si3 0.234114 0.714765 0.889903
Si Si4 0.383425 0.213607 0.558514
Si Si5 0.124761 0.047201 0.372244
Si Si6 0.387544 0.234487 0.882705
Si Si7 0.106400 0.771960 0.569878
Si Si8 0.688040 0.302604 0.727910
O O1 0.297051 0.467237 0.572677
O O2 0.515780 0.694553 0.154874
O O3 0.296174 0.620181 0.406934
O O4 0.215793 0.113496 0.500929
O O5 0.781134 0.918862 0.227323
O O6 0.798496 0.575513 0.103555
O O7 0.000000 0.000000 0.000000
O O8 0.055469 0.522103 0.154733
O O9 0.320400 0.913809 0.676631
O O10 0.342795 0.979954 0.846321
O O11 0.500000 0.500000 0.500000
O O12 0.493966 0.414418 0.314081
O O13 0.246995 0.394899 0.281692
O O14 0.059765 0.796027 0.531937
O O15 0.222836 0.076096 0.146553
O O16 0.000000 0.000000 0.500000
O O17 0.210759 0.734898 0.398384
O O18 0.500000 0.000000 0.000000
#
# Coordination Sequence:
#
# PCOD9033073 Si02
#       8
#     2   2   2   2   2   2   2   2
#     4  10  23  42  63  94 135 166 212 276 318 379
#     4  11  23  41  65  96 130 169 221 267 321 389
#     4  11  24  41  69  94 133 173 213 266 328 388
#     4   9  23  42  63  95 132 171 214 269 321 386
#     4  11  25  44  67  95 131 167 215 278 319 378
#     4  10  22  44  65  95 134 171 218 270 321 389
#     4  11  24  42  64  98 129 167 219 267 324 385
#     4  11  24  41  67  94 125 174 218 260 328 389
#
# _framework density 22.389437999999998
#
# number of rings (size 3 to 8) (size 9 to 14) (size 15 to 20)
#    0.000    1.500    1.250    2.250    1.750   15.000 
#    0.000    1.250    0.000    0.000    0.000    0.000 
#    0.000    0.000    0.000    0.000    0.000    0.000 
#
# Total GULP energy -89326.002703 kJ/mol
# GULP energy per Si atom -5582.875169 kJ/mol
# Density = 2.233848 g / cm^3
# Si number density = 22.389438 Si / 1000 Ang^3
#
#
#
# Elastic Constant Matrix: (Units=GPa)
#
#
# Indices 1 2 3 4 5 6 
#
# 1 85.8503 11.4677 -3.9056 -0.6759 -5.7952 -2.9071
# 2 11.4677 60.2158 7.2544 -1.7981 7.7919 4.4843
# 3 -3.9056 7.2544 41.9395 -4.2510 0.3309 9.0370
# 4 -0.6759 -1.7981 -4.2510 32.5608 5.2621 -0.1731
# 5 -5.7952 7.7919 0.3309 5.2621 34.0446 -2.0563
# 6 -2.9071 4.4843 9.0370 -0.1731 -2.0563 23.3255
#
#
#
# Elastic Compliance Matrix: (Units=1/GPa)
#
#
# Indices 1 2 3 4 5 6 
#
# 1 0.012370 -0.003031 0.001220 -0.000216 0.002936 0.001909
# 2 -0.003031 0.018452 -0.002561 0.001434 -0.005140 -0.003376
# 3 0.001220 -0.002561 0.026863 0.003434 -0.000589 -0.009790
# 4 -0.000216 0.001434 0.003434 0.032110 -0.005475 -0.001878
# 5 0.002936 -0.005140 -0.000589 -0.005475 0.032166 0.004377
# 6 0.001909 -0.003376 -0.009790 -0.001878 0.004377 0.047923
#
#
# Mechanical properties :
#
#
# Convention : Reuss Voigt Hill
#
# Bulk Modulus (GPa) = 20.43309 24.18207 22.30758
# Shear Modulus (GPa) = 25.64887 29.53213 27.59050
#
# Velocity S-wave (km/s) = 3.38831 3.63577 3.51422
# Velocity P-wave (km/s) = 4.94506 5.33378 5.14309
#
# Compressibility (1/GPa) = 0.04894021
#
# Stress axis : x y z
#
# Youngs Moduli (GPa) = 80.84244 54.19459 37.22648
#
# Poissons Ratio (x) = 0.16428 -0.04541
# Poissons Ratio (y) = 0.24505 0.09533
# Poissons Ratio (z) = -0.09862 0.13878
#
# Static dielectric constant tensor:
#      x y z
#    x 1.889380 -0.037260 -0.060030 
#    y -0.037260 1.830310 0.014930 
#    z -0.060030 0.014930 1.952330 
# 
# From -- ./inp_files/526025.got.cif
#   From: 2010.05.17/outbox.cif.g08.bks.cpg/sg2_264_cif.got.tgz:526025.got - 2010.06.03 11:33:40.
