data_PCOD9033020
_publ_section_title
;
Structure prediction by ZEFSAII (Michael W. Deem and Ramdas Pophale) SiO2 
 PCOD9033020
Probable space group: P -1
;
_chemical_formula_sum "Si O2"
_cell_formula_units_Z 14
_cell_length_a 8.493658
_cell_length_b 5.322674
_cell_length_c 14.349479
_cell_angle_alpha 83.399712
_cell_angle_beta 71.195182
_cell_angle_gamma 113.798095
_cell_volume 538.932636
_symmetry_space_group_name_H-M "P -1"
_symmetry_group_IT_number 2
_symmetry_cell_setting 'triclinic'
loop_
_space_group_symop_operation_xyz
x,y,z
-x,-y,-z
loop_
_atom_site_type_symbol
_atom_site_label
_atom_site_fract_x
_atom_site_fract_y
_atom_site_fract_z
Si Si1 0.553401 0.756400 0.592401
Si Si2 0.550945 0.211720 0.702819
Si Si3 0.458846 0.755087 0.092304
Si Si4 0.101360 0.467829 0.685989
Si Si5 0.783088 0.642007 0.996975
Si Si6 0.918365 0.011875 0.413511
Si Si7 0.152228 0.747663 0.852793
O O1 0.588489 0.523552 0.652389
O O2 0.330409 0.621045 0.624838
O O3 0.689745 0.842852 0.474284
O O4 0.619644 0.048278 0.625824
O O5 0.616565 0.209951 0.795935
O O6 0.325041 0.008237 0.759686
O O7 0.656242 0.752523 0.069451
O O8 0.319732 0.468706 0.077788
O O9 0.500000 0.000000 0.000000
O O10 0.027401 0.158260 0.666579
O O11 0.064867 0.499569 0.800733
O O12 0.030216 0.666840 0.637503
O O13 0.779509 0.387235 0.071812
O O14 0.998405 0.827522 0.919868
O O15 0.000000 0.000000 0.500000
#
# Coordination Sequence:
#
# PCOD9033020 Si02
#       7
#     2   2   2   2   2   2   2
#     4  11  24  44  71  96 130 176 221 267 330 395
#     4  11  23  42  69  98 134 174 224 269 321 395
#     4  11  22  40  62  96 134 181 215 266 332 390
#     4  11  23  44  70  97 131 172 219 270 328 400
#     4  10  23  42  65  91 141 174 225 273 325 387
#     4  12  26  45  69  99 135 166 215 277 336 394
#     4  10  22  44  65 100 125 179 224 278 322 381
#
# _framework density 25.977274000000001
#
# number of rings (size 3 to 8) (size 9 to 14) (size 15 to 20)
#    0.000    1.143    1.429    5.571    2.000    2.857 
#    7.714    0.000    0.000    0.000    0.000    0.000 
#    0.000    0.000    0.000    0.000    0.000    0.000 
#
# Total GULP energy -78503.421342 kJ/mol
# GULP energy per Si atom -5607.387239 kJ/mol
# Density = 2.591815 g / cm^3
# Si number density = 25.977274 Si / 1000 Ang^3
#
#
#
# Elastic Constant Matrix: (Units=GPa)
#
#
# Indices 1 2 3 4 5 6 
#
# 1 105.3653 26.2742 24.4744 1.9540 -1.6728 -11.6262
# 2 26.2742 95.6245 36.2133 22.0926 14.6172 -29.8020
# 3 24.4744 36.2133 104.9375 20.2999 5.3954 -15.3238
# 4 1.9540 22.0926 20.2999 61.2160 1.4923 0.9899
# 5 -1.6728 14.6172 5.3954 1.4923 50.2634 -2.0799
# 6 -11.6262 -29.8020 -15.3238 0.9899 -2.0799 39.4515
#
#
#
# Elastic Compliance Matrix: (Units=1/GPa)
#
#
# Indices 1 2 3 4 5 6 
#
# 1 0.010597 -0.002503 -0.001807 0.001124 0.001265 0.000568
# 2 -0.002503 0.017620 -0.002528 -0.005522 -0.004296 0.011503
# 3 -0.001807 -0.002528 0.011730 -0.002945 -0.000407 0.002167
# 4 0.001124 -0.005522 -0.002945 0.019328 0.001162 -0.005408
# 5 0.001265 -0.004296 -0.000407 0.001162 0.021115 -0.001947
# 6 0.000568 0.011503 0.002167 -0.005408 -0.001947 0.035079
#
#
# Mechanical properties :
#
#
# Convention : Reuss Voigt Hill
#
# Bulk Modulus (GPa) = 38.06522 53.31679 45.69101
# Shear Modulus (GPa) = 36.25727 44.78387 40.52057
#
# Velocity S-wave (km/s) = 3.74000 4.15657 3.95377
# Velocity P-wave (km/s) = 5.77367 6.60341 6.20243
#
# Compressibility (1/GPa) = 0.02627070
#
# Stress axis : x y z
#
# Youngs Moduli (GPa) = 94.36890 56.75313 85.24895
#
# Poissons Ratio (x) = 0.14206 0.15406
# Poissons Ratio (y) = 0.23622 0.21550
# Poissons Ratio (z) = 0.17054 0.14347
#
# Static dielectric constant tensor:
#      x y z
#    x 2.076880 0.096490 0.006880 
#    y 0.096490 2.106410 -0.009220 
#    z 0.006880 -0.009220 1.979000 
# 
# From -- ./inp_files/35260.got.cif
#   From: 2010.05.17/outbox.cif.g08.bks.cpg/sg2_18_cif.got.tgz:35260.got - 2010.06.03 11:33:40.
