data_PCOD9033843
_publ_section_title
;
Structure prediction by ZEFSAII (Michael W. Deem and Ramdas Pophale) SiO2 
 PCOD9033843
Probable space group: P -1
;
_chemical_formula_sum "Si O2"
_cell_formula_units_Z 12
_cell_length_a 9.041638
_cell_length_b 13.723023
_cell_length_c 10.597653
_cell_angle_alpha 34.390330
_cell_angle_beta 120.513296
_cell_angle_gamma 140.514975
_cell_volume 440.685330
_symmetry_space_group_name_H-M "P -1"
_symmetry_group_IT_number 2
_symmetry_cell_setting 'triclinic'
loop_
_space_group_symop_operation_xyz
x,y,z
-x,-y,-z
loop_
_atom_site_type_symbol
_atom_site_label
_atom_site_fract_x
_atom_site_fract_y
_atom_site_fract_z
Si Si1 0.329544 0.710308 0.394477
Si Si2 0.096387 0.235527 0.668824
Si Si3 0.706432 0.776892 0.605119
Si Si4 0.573675 0.751041 0.060045
Si Si5 0.831572 0.372438 0.854622
Si Si6 0.360986 0.738413 0.657699
O O1 0.824035 0.582448 0.374508
O O2 0.612161 0.848231 0.383170
O O3 0.258533 0.752973 0.189356
O O4 0.262475 0.722280 0.492471
O O5 0.301982 0.235114 0.772139
O O6 0.123154 0.385861 0.403962
O O7 0.819728 0.965816 0.855078
O O8 0.593922 0.512078 0.800809
O O9 0.561351 0.739169 0.707233
O O10 0.000000 0.000000 0.500000
O O11 0.400236 0.788706 0.978536
O O12 0.103332 0.499176 0.870863
O O13 0.500000 0.000000 0.500000
#
# Coordination Sequence:
#
# PCOD9033843 Si02
#       6
#     2   2   2   2   2   2
#     4   7  18  31  52  78 106 132 173 221 252 305
#     4   8  18  31  53  81 111 128 176 223 258 307
#     4   9  18  31  52  79 107 140 177 213 263 319
#     4  10  17  32  56  81 107 137 172 218 270 306
#     4  10  18  33  58  80 106 135 181 215 265 312
#     4  10  19  32  53  77 108 146 173 215 267 313
#
# _framework density 27.230312999999999
#
# number of rings (size 3 to 8) (size 9 to 14) (size 15 to 20)
#    2.000    1.000    0.000    2.000    0.000    0.000 
#    0.000    0.833    0.000   10.000    0.000    0.000 
#    0.000    0.000    0.000    0.000    0.000    0.000 
#
# Total GULP energy -67033.094934 kJ/mol
# GULP energy per Si atom -5586.091245 kJ/mol
# Density = 2.716834 g / cm^3
# Si number density = 27.230313 Si / 1000 Ang^3
#
#
#
# Elastic Constant Matrix: (Units=GPa)
#
#
# Indices 1 2 3 4 5 6 
#
# 1 163.3556 74.2198 34.3269 -35.8212 -21.6013 9.1082
# 2 74.2198 134.8941 32.3832 -36.2942 -11.4209 18.8017
# 3 34.3269 32.3832 98.4904 -29.3049 -21.7720 16.4126
# 4 -35.8212 -36.2942 -29.3049 55.0782 14.8516 -6.9033
# 5 -21.6013 -11.4209 -21.7720 14.8516 43.3599 -20.6581
# 6 9.1082 18.8017 16.4126 -6.9033 -20.6581 58.3433
#
#
#
# Elastic Compliance Matrix: (Units=1/GPa)
#
#
# Indices 1 2 3 4 5 6 
#
# 1 0.008913 -0.004121 -0.000716 0.002080 0.002966 0.001434
# 2 -0.004121 0.011370 -0.000992 0.004599 -0.002621 -0.003125
# 3 -0.000716 -0.000992 0.013189 0.004719 0.003720 -0.001403
# 4 0.002080 0.004599 0.004719 0.026234 -0.005272 -0.001897
# 5 0.002966 -0.002621 0.003720 -0.005272 0.032371 0.010173
# 6 0.001434 -0.003125 -0.001403 -0.001897 0.010173 0.021696
#
#
# Mechanical properties :
#
#
# Convention : Reuss Voigt Hill
#
# Bulk Modulus (GPa) = 45.84236 75.40000 60.62118
# Shear Modulus (GPa) = 37.67833 48.41030 43.04431
#
# Velocity S-wave (km/s) = 3.72383 4.22098 3.98018
# Velocity P-wave (km/s) = 5.94650 7.17673 6.59038
#
# Compressibility (1/GPa) = 0.02181388
#
# Stress axis : x y z
#
# Youngs Moduli (GPa) = 112.19717 87.94984 75.81928
#
# Poissons Ratio (x) = 0.36246 0.05427
# Poissons Ratio (y) = 0.46239 0.07522
# Poissons Ratio (z) = 0.08031 0.08726
#
# Static dielectric constant tensor:
#      x y z
#    x 2.188550 0.031510 0.034180 
#    y 0.031510 2.156290 0.059580 
#    z 0.034180 0.059580 2.223750 
# 
# From -- ./inp_files/219366.got.cif
#   From: 2010.05.17/outbox.cif.g08.bks.cpg/sg2_110_cif.got.tgz:219366.got - 2010.06.03 11:33:40.
