data_PCOD9033923
_publ_section_title
;
Structure prediction by ZEFSAII (Michael W. Deem and Ramdas Pophale) SiO2 
 PCOD9033923
Probable space group: P -1
;
_chemical_formula_sum "Si O2"
_cell_formula_units_Z 16
_cell_length_a 8.139392
_cell_length_b 6.305441
_cell_length_c 14.321998
_cell_angle_alpha 86.851604
_cell_angle_beta 89.528006
_cell_angle_gamma 69.149480
_cell_volume 685.816774
_symmetry_space_group_name_H-M "P -1"
_symmetry_group_IT_number 2
_symmetry_cell_setting 'triclinic'
loop_
_space_group_symop_operation_xyz
x,y,z
-x,-y,-z
loop_
_atom_site_type_symbol
_atom_site_label
_atom_site_fract_x
_atom_site_fract_y
_atom_site_fract_z
Si Si1 0.061095 0.774619 0.241475
Si Si2 0.176414 0.369693 0.615194
Si Si3 0.599902 0.660627 0.762279
Si Si4 0.920329 0.840073 0.560502
Si Si5 0.545784 0.579982 0.098350
Si Si6 0.118664 0.291150 0.944886
Si Si7 0.460876 0.960865 0.393916
Si Si8 0.231310 0.038851 0.132254
O O1 0.243274 0.566250 0.267470
O O2 0.919856 0.764813 0.318336
O O3 0.986651 0.728476 0.144201
O O4 0.096221 0.003311 0.208640
O O5 0.150722 0.299895 0.510850
O O6 0.070732 0.639453 0.619593
O O7 0.386551 0.271859 0.633750
O O8 0.448659 0.607798 0.820479
O O9 0.525896 0.837468 0.675456
O O10 0.692699 0.776424 0.833591
O O11 0.745352 0.004101 0.609759
O O12 0.000000 0.000000 0.500000
O O13 0.711832 0.654404 0.087688
O O14 0.387617 0.799407 0.128904
O O15 0.500000 0.500000 0.000000
O O16 0.166112 0.090745 0.025151
O O17 0.000000 0.500000 0.000000
O O18 0.500000 0.000000 0.500000
#
# Coordination Sequence:
#
# PCOD9033923 Si02
#       8
#     2   2   2   2   2   2   2   2
#     4  11  24  41  65  98 134 173 225 276 331 402
#     4  10  23  42  66  98 131 171 220 276 335 401
#     4  11  23  45  66  93 138 173 224 279 337 401
#     4  10  22  44  70  94 131 173 216 279 340 400
#     4  11  24  43  67  95 132 178 222 280 332 399
#     4  12  23  43  63  94 134 175 223 273 333 399
#     4  10  23  44  67  97 136 174 222 282 337 406
#     4  11  24  42  67  93 131 182 216 271 341 391
#
# _framework density 23.329847999999998
#
# number of rings (size 3 to 8) (size 9 to 14) (size 15 to 20)
#    0.000    1.250    3.750    1.500    3.500    1.500 
#    4.500    0.000    0.000    0.000    0.000    0.000 
#    0.000    0.000    0.000    0.000    0.000    0.000 
#
# Total GULP energy -89456.318556 kJ/mol
# GULP energy per Si atom -5591.019910 kJ/mol
# Density = 2.327675 g / cm^3
# Si number density = 23.329848 Si / 1000 Ang^3
#
#
#
# Elastic Constant Matrix: (Units=GPa)
#
#
# Indices 1 2 3 4 5 6 
#
# 1 103.6031 51.3478 36.4140 -21.6593 -27.5046 -27.6003
# 2 51.3478 76.2969 20.7763 -20.4453 -15.2587 -17.7773
# 3 36.4140 20.7763 118.0109 -28.4719 -5.0588 -11.7834
# 4 -21.6593 -20.4453 -28.4719 49.9801 8.7216 0.7343
# 5 -27.5046 -15.2587 -5.0588 8.7216 49.4507 4.0029
# 6 -27.6003 -17.7773 -11.7834 0.7343 4.0029 34.7400
#
#
#
# Elastic Compliance Matrix: (Units=1/GPa)
#
#
# Indices 1 2 3 4 5 6 
#
# 1 0.019520 -0.008196 -0.002813 0.002162 0.006888 0.009521
# 2 -0.008196 0.020983 0.000528 0.005145 0.000722 0.004214
# 3 -0.002813 0.000528 0.010629 0.005268 -0.001380 0.001688
# 4 0.002162 0.005145 0.005268 0.026275 -0.001773 0.005786
# 5 0.006888 0.000722 -0.001380 -0.001773 0.024236 0.002619
# 6 0.009521 0.004214 0.001688 0.005786 0.002619 0.038654
#
#
# Mechanical properties :
#
#
# Convention : Reuss Voigt Hill
#
# Bulk Modulus (GPa) = 33.14415 57.22079 45.18247
# Shear Modulus (GPa) = 29.18588 39.45901 34.32244
#
# Velocity S-wave (km/s) = 3.54080 4.11707 3.83976
# Velocity P-wave (km/s) = 5.56363 6.86880 6.25038
#
# Compressibility (1/GPa) = 0.03017124
#
# Stress axis : x y z
#
# Youngs Moduli (GPa) = 51.22992 47.65674 94.08041
#
# Poissons Ratio (x) = 0.39057 0.26461
# Poissons Ratio (y) = 0.41986 -0.04963
# Poissons Ratio (z) = 0.14409 -0.02514
#
# Static dielectric constant tensor:
#      x y z
#    x 1.966530 -0.152780 0.141020 
#    y -0.152780 2.160320 -0.291450 
#    z 0.141020 -0.291450 2.168790 
# 
# From -- ./inp_files/48576.got.cif
#   From: 2010.05.17/outbox.cif.g08.bks.cpg/sg2_25_cif.got.tgz:48576.got - 2010.06.03 11:33:40.
