data_PCOD9033157
_publ_section_title
;
Structure prediction by ZEFSAII (Michael W. Deem and Ramdas Pophale) SiO2 
 PCOD9033157
Probable space group: P -1
;
_chemical_formula_sum "Si O2"
_cell_formula_units_Z 13
_cell_length_a 5.449497
_cell_length_b 10.908333
_cell_length_c 12.107334
_cell_angle_alpha 47.067562
_cell_angle_beta 80.986720
_cell_angle_gamma 82.713263
_cell_volume 520.239682
_symmetry_space_group_name_H-M "P -1"
_symmetry_group_IT_number 2
_symmetry_cell_setting 'triclinic'
loop_
_space_group_symop_operation_xyz
x,y,z
-x,-y,-z
loop_
_atom_site_type_symbol
_atom_site_label
_atom_site_fract_x
_atom_site_fract_y
_atom_site_fract_z
Si Si1 0.128083 0.677181 0.379239
Si Si2 0.089628 0.410459 0.160631
Si Si3 0.120925 0.998777 0.746914
Si Si4 0.315388 0.758585 0.558652
Si Si5 0.000000 0.000000 0.500000
Si Si6 0.379376 0.565778 0.216898
Si Si7 0.621177 0.796022 0.889980
O O1 0.253913 0.708700 0.468667
O O2 0.316784 0.662005 0.273893
O O3 0.000000 0.500000 0.500000
O O4 0.928527 0.828707 0.289949
O O5 0.141878 0.544752 0.168043
O O6 0.331852 0.310396 0.160155
O O7 0.913817 0.274372 0.315337
O O8 0.000000 0.500000 0.000000
O O9 0.126603 0.036542 0.592512
O O10 0.368598 0.905413 0.829466
O O11 0.873551 0.889621 0.843569
O O12 0.283003 0.955916 0.451202
O O13 0.530742 0.626559 0.653159
O O14 0.576129 0.661802 0.072231
#
# Coordination Sequence:
#
# PCOD9033157 Si02
#       7
#     2   2   2   2   1   2   2
#     4  11  26  50  71 105 142 198 245 293 362 442
#     4  12  23  43  71 108 144 184 241 299 366 427
#     4  11  27  47  73 108 145 191 243 298 369 428
#     4  11  23  44  71 103 143 187 244 294 364 426
#     4  10  22  44  66 106 146 188 236 306 350 432
#     4  12  26  43  75 102 149 192 242 301 362 438
#     4  12  26  46  73 110 145 187 242 307 365 428
#
# _framework density 24.988484
#
# number of rings (size 3 to 8) (size 9 to 14) (size 15 to 20)
#    0.000    0.615    4.615    2.769    0.000    5.538 
#    0.000    0.000    0.000    0.000    0.000    0.000 
#    0.000    0.000    0.000    0.000    0.000    0.000 
#
# Total GULP energy -72559.881459 kJ/mol
# GULP energy per Si atom -5581.529343 kJ/mol
# Density = 2.493161 g / cm^3
# Si number density = 24.988484 Si / 1000 Ang^3
#
#
#
# Elastic Constant Matrix: (Units=GPa)
#
#
# Indices 1 2 3 4 5 6 
#
# 1 96.5512 26.6035 33.2098 -5.9228 11.4671 -18.0896
# 2 26.6035 176.2791 32.7751 19.0195 15.6756 -18.1163
# 3 33.2098 32.7751 93.0172 10.2055 5.4293 -7.8960
# 4 -5.9228 19.0195 10.2055 51.4055 -10.3074 2.8170
# 5 11.4671 15.6756 5.4293 -10.3074 52.2988 -13.3410
# 6 -18.0896 -18.1163 -7.8960 2.8170 -13.3410 31.9058
#
#
#
# Elastic Compliance Matrix: (Units=1/GPa)
#
#
# Indices 1 2 3 4 5 6 
#
# 1 0.013277 -0.000863 -0.004190 0.002307 -0.000318 0.005664
# 2 -0.000863 0.006781 -0.001465 -0.002776 -0.001579 0.002583
# 3 -0.004190 -0.001465 0.013087 -0.002644 -0.000509 0.000052
# 4 0.002307 -0.002776 -0.002644 0.022275 0.004762 -0.000898
# 5 -0.000318 -0.001579 -0.000509 0.004762 0.022658 0.007851
# 6 0.005664 0.002583 0.000052 -0.000898 0.007851 0.039395
#
#
# Mechanical properties :
#
#
# Convention : Reuss Voigt Hill
#
# Bulk Modulus (GPa) = 49.73065 61.22491 55.47778
# Shear Modulus (GPa) = 36.44031 45.33930 40.88980
#
# Velocity S-wave (km/s) = 3.82289 4.26421 4.04957
# Velocity P-wave (km/s) = 6.27938 6.98563 6.64190
#
# Compressibility (1/GPa) = 0.02010832
#
# Stress axis : x y z
#
# Youngs Moduli (GPa) = 75.32074 147.47397 76.41211
#
# Poissons Ratio (x) = 0.12730 0.32014
# Poissons Ratio (y) = 0.06502 0.11195
# Poissons Ratio (z) = 0.31557 0.21607
#
# Static dielectric constant tensor:
#      x y z
#    x 2.110820 -0.062320 0.046740 
#    y -0.062320 1.742930 0.166340 
#    z 0.046740 0.166340 1.824580 
# 
# From -- ./inp_files/66009.got.cif
#   From: 2010.05.17/outbox.cif.g08.bks.cpg/sg2_34_cif.got.tgz:66009.got - 2010.06.03 11:33:40.
