data_PCOD9033623
_publ_section_title
;
Structure prediction by ZEFSAII (Michael W. Deem and Ramdas Pophale) SiO2 
 PCOD9033623
Probable space group: P -1
;
_chemical_formula_sum "Si O2"
_cell_formula_units_Z 12
_cell_length_a 8.730632
_cell_length_b 12.613569
_cell_length_c 10.823304
_cell_angle_alpha 143.154695
_cell_angle_beta 135.886710
_cell_angle_gamma 60.220340
_cell_volume 488.774612
_symmetry_space_group_name_H-M "P -1"
_symmetry_group_IT_number 2
_symmetry_cell_setting 'triclinic'
loop_
_space_group_symop_operation_xyz
x,y,z
-x,-y,-z
loop_
_atom_site_type_symbol
_atom_site_label
_atom_site_fract_x
_atom_site_fract_y
_atom_site_fract_z
Si Si1 0.998219 0.708971 0.223956
Si Si2 0.642523 0.233936 0.329808
Si Si3 0.637199 0.487346 0.944670
Si Si4 0.836403 0.887292 0.060354
Si Si5 0.709592 0.150887 0.809909
Si Si6 0.750876 0.408837 0.307760
O O1 0.241238 0.773584 0.479027
O O2 0.922064 0.836932 0.197809
O O3 0.000000 0.500000 0.000000
O O4 0.814583 0.669867 0.191287
O O5 0.752609 0.375144 0.422934
O O6 0.715017 0.057798 0.145643
O O7 0.388935 0.259217 0.224052
O O8 0.737503 0.312073 0.873486
O O9 0.444211 0.476386 0.720922
O O10 0.500000 0.500000 0.000000
O O11 0.049468 0.909650 0.115621
O O12 0.500000 0.000000 0.500000
O O13 0.686655 0.237876 0.014311
O O14 0.000000 0.500000 0.500000
#
# Coordination Sequence:
#
# PCOD9033623 Si02
#       6
#     2   2   2   2   2   2
#     4  12  24  45  72 101 135 182 237 289 345 418
#     4  11  26  46  71 100 143 188 230 289 355 420
#     4  10  22  44  69 100 137 185 230 281 355 417
#     4  11  26  46  69 103 142 184 236 286 357 416
#     4  11  26  45  72 105 140 187 236 291 354 421
#     4  11  25  45  72 104 142 185 239 292 350 420
#
# _framework density 24.551190999999999
#
# number of rings (size 3 to 8) (size 9 to 14) (size 15 to 20)
#    0.000    1.000    3.333    2.500    7.000    5.333 
#    0.000    0.000    0.000    0.000    0.000    0.000 
#    0.000    0.000    0.000    0.000    0.000    0.000 
#
# Total GULP energy -66901.686867 kJ/mol
# GULP energy per Si atom -5575.140572 kJ/mol
# Density = 2.449531 g / cm^3
# Si number density = 24.551191 Si / 1000 Ang^3
#
#
#
# Elastic Constant Matrix: (Units=GPa)
#
#
# Indices 1 2 3 4 5 6 
#
# 1 83.6474 8.5533 24.7574 -8.0072 10.5546 -24.6072
# 2 8.5533 96.0534 -3.9191 -27.1881 8.1867 0.7947
# 3 24.7574 -3.9191 79.4132 -26.2092 13.0658 -11.2470
# 4 -8.0072 -27.1881 -26.2092 47.5731 -9.5946 4.0711
# 5 10.5546 8.1867 13.0658 -9.5946 35.1527 -7.9686
# 6 -24.6072 0.7947 -11.2470 4.0711 -7.9686 48.0272
#
#
#
# Elastic Compliance Matrix: (Units=1/GPa)
#
#
# Indices 1 2 3 4 5 6 
#
# 1 0.015463 -0.001985 -0.004288 -0.001787 -0.001522 0.006850
# 2 -0.001985 0.013730 0.004668 0.009802 -0.001958 -0.001307
# 3 -0.004288 0.004668 0.018580 0.011438 -0.003463 0.000533
# 4 -0.001787 0.009802 0.011438 0.033274 0.002918 -0.000736
# 5 -0.001522 -0.001958 -0.003463 0.002918 0.032247 0.003545
# 6 0.006850 -0.001307 0.000533 -0.000736 0.003545 0.025128
#
#
# Mechanical properties :
#
#
# Convention : Reuss Voigt Hill
#
# Bulk Modulus (GPa) = 22.43946 35.32190 28.88068
# Shear Modulus (GPa) = 31.95176 41.46542 36.70859
#
# Velocity S-wave (km/s) = 3.61145 4.11413 3.87096
# Velocity P-wave (km/s) = 5.15265 6.08164 5.63632
#
# Compressibility (1/GPa) = 0.04456436
#
# Stress axis : x y z
#
# Youngs Moduli (GPa) = 64.66987 72.83271 53.82215
#
# Poissons Ratio (x) = 0.14455 0.23078
# Poissons Ratio (y) = 0.12835 -0.25126
# Poissons Ratio (z) = 0.27730 -0.34000
#
# Static dielectric constant tensor:
#      x y z
#    x 2.129120 0.019590 -0.028520 
#    y 0.019590 2.048530 0.145330 
#    z -0.028520 0.145330 2.149380 
# 
# From -- ./inp_files/188480.got.cif
#   From: 2010.05.17/outbox.cif.g08.bks.cpg/sg2_95_cif.got.tgz:188480.got - 2010.06.03 11:33:40.
