data_PCOD9033971
_publ_section_title
;
Structure prediction by ZEFSAII (Michael W. Deem and Ramdas Pophale) SiO2 
 PCOD9033971
Probable space group: P -1
;
_chemical_formula_sum "Si O2"
_cell_formula_units_Z 12
_cell_length_a 8.634850
_cell_length_b 10.756338
_cell_length_c 9.896889
_cell_angle_alpha 106.037443
_cell_angle_beta 145.240273
_cell_angle_gamma 87.725092
_cell_volume 473.352506
_symmetry_space_group_name_H-M "P -1"
_symmetry_group_IT_number 2
_symmetry_cell_setting 'triclinic'
loop_
_space_group_symop_operation_xyz
x,y,z
-x,-y,-z
loop_
_atom_site_type_symbol
_atom_site_label
_atom_site_fract_x
_atom_site_fract_y
_atom_site_fract_z
Si Si1 0.809902 0.823042 0.962352
Si Si2 0.688806 0.921970 0.191308
Si Si3 0.127694 0.332770 0.428126
Si Si4 0.156401 0.433209 0.754014
Si Si5 0.250379 0.901579 0.087904
Si Si6 0.256166 0.455352 0.120154
O O1 0.748342 0.840320 0.080853
O O2 0.137543 0.860612 0.147492
O O3 0.665678 0.661036 0.776169
O O4 0.701037 0.937277 0.847079
O O5 0.501550 0.864366 0.177194
O O6 0.000000 0.000000 0.500000
O O7 0.500000 0.000000 0.000000
O O8 0.049313 0.319103 0.527061
O O9 0.463765 0.414297 0.670058
O O10 0.977226 0.445185 0.314396
O O11 0.018237 0.192936 0.225055
O O12 0.500000 0.500000 0.000000
O O13 0.116971 0.381060 0.859618
O O14 0.000000 0.500000 0.000000
#
# Coordination Sequence:
#
# PCOD9033971 Si02
#       6
#     2   2   2   2   2   2
#     4  10  24  46  69 105 145 186 243 302 368 437
#     4  10  24  48  73 108 146 195 242 303 374 448
#     4  10  22  44  70  97 141 182 239 294 359 436
#     4   9  21  39  66  97 134 186 229 289 359 434
#     4  10  23  47  72 104 142 189 243 301 370 436
#     4  11  24  44  64 104 140 186 238 297 366 437
#
# _framework density 25.351084
#
# number of rings (size 3 to 8) (size 9 to 14) (size 15 to 20)
#    0.000    2.000    0.000    1.000    7.000    6.000 
#   24.000    0.000    0.000    0.000    0.000    0.000 
#    0.000    0.000    0.000    0.000    0.000    0.000 
#
# Total GULP energy -66933.539573 kJ/mol
# GULP energy per Si atom -5577.794964 kJ/mol
# Density = 2.529338 g / cm^3
# Si number density = 25.351084 Si / 1000 Ang^3
#
#
#
# Elastic Constant Matrix: (Units=GPa)
#
#
# Indices 1 2 3 4 5 6 
#
# 1 193.0834 42.0920 25.9674 -7.2714 31.3769 -29.7265
# 2 42.0920 105.2502 27.8434 9.3396 -4.3368 -22.5832
# 3 25.9674 27.8434 80.8503 -8.5501 19.0020 -13.8742
# 4 -7.2714 9.3396 -8.5501 23.8503 3.0248 5.2048
# 5 31.3769 -4.3368 19.0020 3.0248 38.1959 3.0732
# 6 -29.7265 -22.5832 -13.8742 5.2048 3.0732 23.0323
#
#
#
# Elastic Compliance Matrix: (Units=1/GPa)
#
#
# Indices 1 2 3 4 5 6 
#
# 1 0.008860 -0.002623 0.002699 0.003569 -0.010088 0.011028
# 2 -0.002623 0.015616 -0.005651 -0.012066 0.006864 0.010332
# 3 0.002699 -0.005651 0.019360 0.009729 -0.014007 0.009275
# 4 0.003569 -0.012066 0.009729 0.055489 -0.012552 -0.012229
# 5 -0.010088 0.006864 -0.014007 -0.012552 0.044645 -0.017848
# 6 0.011028 0.010332 0.009275 -0.012229 -0.017848 0.078513
#
#
# Mechanical properties :
#
#
# Convention : Reuss Voigt Hill
#
# Bulk Modulus (GPa) = 30.59615 63.44328 47.01972
# Shear Modulus (GPa) = 20.44739 35.90110 28.17425
#
# Velocity S-wave (km/s) = 2.84310 3.76727 3.33733
# Velocity P-wave (km/s) = 4.78255 6.63350 5.78256
#
# Compressibility (1/GPa) = 0.03268385
#
# Stress axis : x y z
#
# Youngs Moduli (GPa) = 112.87193 64.03770 51.65204
#
# Poissons Ratio (x) = 0.16799 -0.13939
# Poissons Ratio (y) = 0.29609 0.29190
# Poissons Ratio (z) = -0.30460 0.36190
#
# Static dielectric constant tensor:
#      x y z
#    x 1.925720 0.194840 0.069320 
#    y 0.194840 1.913550 -0.149660 
#    z 0.069320 -0.149660 1.961220 
# 
# From -- ./inp_files/385706.got.cif
#   From: 2010.05.17/outbox.cif.g08.bks.cpg/sg2_193_cif.got.tgz:385706.got - 2010.06.03 11:33:40.
