data_PCOD9033168
_publ_section_title
;
Structure prediction by ZEFSAII (Michael W. Deem and Ramdas Pophale) SiO2 
 PCOD9033168
Probable space group: P -1
;
_chemical_formula_sum "Si O2"
_cell_formula_units_Z 16
_cell_length_a 11.421481
_cell_length_b 12.290953
_cell_length_c 11.846109
_cell_angle_alpha 35.344602
_cell_angle_beta 56.461711
_cell_angle_gamma 47.296616
_cell_volume 706.959023
_symmetry_space_group_name_H-M "P -1"
_symmetry_group_IT_number 2
_symmetry_cell_setting 'triclinic'
loop_
_space_group_symop_operation_xyz
x,y,z
-x,-y,-z
loop_
_atom_site_type_symbol
_atom_site_label
_atom_site_fract_x
_atom_site_fract_y
_atom_site_fract_z
Si Si1 0.233853 0.425559 0.367738
Si Si2 0.862542 0.911785 0.271844
Si Si3 0.479282 0.735375 0.807380
Si Si4 0.656435 0.584231 0.237321
Si Si5 0.342374 0.158125 0.195263
Si Si6 0.992483 0.468258 0.164759
Si Si7 0.466098 0.334382 0.515756
Si Si8 0.977718 0.821259 0.045503
O O1 0.118317 0.318214 0.513319
O O2 0.395894 0.274108 0.343819
O O3 0.302864 0.428247 0.451667
O O4 0.140854 0.653247 0.164845
O O5 0.853802 0.908178 0.141743
O O6 0.700408 0.088525 0.263080
O O7 0.994311 0.982515 0.174607
O O8 0.537041 0.784090 0.852321
O O9 0.500000 0.500000 0.000000
O O10 0.843146 0.424550 0.298045
O O11 0.558076 0.472724 0.332684
O O12 0.575476 0.671926 0.325972
O O13 0.661491 0.755748 0.002716
O O14 0.171990 0.282160 0.244472
O O15 0.412630 0.907036 0.376315
O O16 0.957620 0.678465 0.079655
O O17 0.000000 0.500000 0.000000
#
# Coordination Sequence:
#
# PCOD9033168 Si02
#       8
#     2   2   2   2   2   2   2   2
#     4  12  23  41  67  98 135 166 215 273 329 395
#     4  11  24  40  66  99 130 176 211 268 339 394
#     4  12  22  40  64  97 132 169 210 268 327 391
#     4  10  24  44  65  91 132 170 221 272 316 389
#     4  11  22  42  65  91 126 172 217 264 323 383
#     4  10  22  44  66  91 129 178 216 269 321 385
#     4  11  24  41  66 101 124 172 220 266 332 385
#     4  11  24  45  64  98 137 170 219 270 335 396
#
# _framework density 22.632145000000001
#
# number of rings (size 3 to 8) (size 9 to 14) (size 15 to 20)
#    0.000    1.000    3.750    2.625    0.000    1.500 
#    0.000    5.000    0.000    0.000    0.000    0.000 
#    0.000    0.000    0.000    0.000    0.000    0.000 
#
# Total GULP energy -89403.904554 kJ/mol
# GULP energy per Si atom -5587.744035 kJ/mol
# Density = 2.258063 g / cm^3
# Si number density = 22.632145 Si / 1000 Ang^3
#
#
#
# Elastic Constant Matrix: (Units=GPa)
#
#
# Indices 1 2 3 4 5 6 
#
# 1 70.4457 4.3521 23.6430 -5.8227 -8.5729 15.0135
# 2 4.3521 93.9049 14.8577 -5.4714 -7.6536 6.6356
# 3 23.6430 14.8577 62.1812 0.4223 -11.1298 6.4449
# 4 -5.8227 -5.4714 0.4223 27.3400 1.3638 -2.1041
# 5 -8.5729 -7.6536 -11.1298 1.3638 27.2683 7.9160
# 6 15.0135 6.6356 6.4449 -2.1041 7.9160 40.5861
#
#
#
# Elastic Compliance Matrix: (Units=1/GPa)
#
#
# Indices 1 2 3 4 5 6 
#
# 1 0.018489 0.001196 -0.005572 0.003429 0.005762 -0.007096
# 2 0.001196 0.011542 -0.002392 0.002250 0.003242 -0.002465
# 3 -0.005572 -0.002392 0.020189 -0.002471 0.006569 -0.002163
# 4 0.003429 0.002250 -0.002471 0.037948 -0.001491 0.001014
# 5 0.005762 0.003242 0.006569 -0.001491 0.045844 -0.012723
# 6 -0.007096 -0.002465 -0.002163 0.001014 -0.012723 0.030545
#
#
# Mechanical properties :
#
#
# Convention : Reuss Voigt Hill
#
# Bulk Modulus (GPa) = 27.26074 34.69303 30.97689
# Shear Modulus (GPa) = 26.27171 31.28415 28.77793
#
# Velocity S-wave (km/s) = 3.41077 3.72195 3.56975
# Velocity P-wave (km/s) = 5.25190 5.81660 5.54145
#
# Compressibility (1/GPa) = 0.03668278
#
# Stress axis : x y z
#
# Youngs Moduli (GPa) = 54.08757 86.64283 49.53231
#
# Poissons Ratio (x) = -0.10359 0.27599
# Poissons Ratio (y) = -0.06467 0.11847
# Poissons Ratio (z) = 0.30137 0.20723
#
# Static dielectric constant tensor:
#      x y z
#    x 1.859840 -0.014530 0.017950 
#    y -0.014530 1.846330 0.025460 
#    z 0.017950 0.025460 1.844960 
# 
# From -- ./inp_files/424942.got.cif
#   From: 2010.05.17/outbox.cif.g08.bks.cpg/sg2_213_cif.got.tgz:424942.got - 2010.06.03 11:33:40.
