data_PCOD9033790
_publ_section_title
;
Structure prediction by ZEFSAII (Michael W. Deem and Ramdas Pophale) SiO2 
 PCOD9033790
Probable space group: P -1
;
_chemical_formula_sum "Si O2"
_cell_formula_units_Z 16
_cell_length_a 10.322104
_cell_length_b 18.378139
_cell_length_c 8.853618
_cell_angle_alpha 134.364660
_cell_angle_beta 36.768696
_cell_angle_gamma 131.635186
_cell_volume 697.067712
_symmetry_space_group_name_H-M "P -1"
_symmetry_group_IT_number 2
_symmetry_cell_setting 'triclinic'
loop_
_space_group_symop_operation_xyz
x,y,z
-x,-y,-z
loop_
_atom_site_type_symbol
_atom_site_label
_atom_site_fract_x
_atom_site_fract_y
_atom_site_fract_z
Si Si1 0.781851 0.338943 0.689613
Si Si2 0.223759 0.884052 0.660016
Si Si3 0.241193 0.797120 0.003914
Si Si4 0.422848 0.658155 0.411059
Si Si5 0.014332 0.379360 0.809035
Si Si6 0.142279 0.189357 0.854079
Si Si7 0.425687 0.483593 0.718280
Si Si8 0.654618 0.006938 0.599575
O O1 0.672483 0.215114 0.617708
O O2 0.778580 0.365269 0.554770
O O3 0.007405 0.354342 0.601022
O O4 0.647078 0.415250 0.004692
O O5 0.201411 0.937923 0.599841
O O6 0.403031 0.963479 0.710363
O O7 0.002929 0.836149 0.893468
O O8 0.180650 0.708958 0.063747
O O9 0.335428 0.907972 0.156105
O O10 0.029386 0.804123 0.110072
O O11 0.396312 0.751449 0.680638
O O12 0.658318 0.704729 0.174662
O O13 0.420293 0.556589 0.365839
O O14 0.216524 0.383958 0.741199
O O15 0.000000 0.500000 0.000000
O O16 0.247907 0.090311 0.585872
O O17 0.500000 0.500000 0.500000
#
# Coordination Sequence:
#
# PCOD9033790 Si02
#       8
#     2   2   2   2   2   2   2   2
#     4  11  22  46  70 100 146 179 229 290 353 410
#     4  11  24  46  69 101 140 182 237 294 351 411
#     4  12  24  44  72  99 145 188 230 294 348 414
#     4  12  25  45  72 108 145 183 233 289 352 417
#     4  10  22  44  69  99 139 181 231 282 355 416
#     4  12  24  44  66 101 141 181 242 284 350 414
#     4  11  25  46  73 108 139 185 237 284 350 432
#     4  11  25  45  70  98 140 186 239 289 350 414
#
# _framework density 22.953296000000002
#
# number of rings (size 3 to 8) (size 9 to 14) (size 15 to 20)
#    0.000    0.750    5.000    2.625    0.000    4.000 
#    0.000    6.250    0.000    0.000    0.000    0.000 
#    0.000    0.000    0.000    0.000    0.000    0.000 
#
# Total GULP energy -89351.029903 kJ/mol
# GULP energy per Si atom -5584.439369 kJ/mol
# Density = 2.290105 g / cm^3
# Si number density = 22.953296 Si / 1000 Ang^3
#
#
#
# Elastic Constant Matrix: (Units=GPa)
#
#
# Indices 1 2 3 4 5 6 
#
# 1 84.9483 14.6431 2.9588 11.0074 14.4729 -21.0154
# 2 14.6431 83.4134 37.6950 3.1526 10.4337 -19.3315
# 3 2.9588 37.6950 98.3692 13.2296 14.9291 -2.1345
# 4 11.0074 3.1526 13.2296 36.8924 1.4374 3.8932
# 5 14.4729 10.4337 14.9291 1.4374 31.0948 11.1073
# 6 -21.0154 -19.3315 -2.1345 3.8932 11.1073 43.8252
#
#
#
# Elastic Compliance Matrix: (Units=1/GPa)
#
#
# Indices 1 2 3 4 5 6 
#
# 1 0.018368 0.000873 0.002625 -0.007370 -0.014651 0.013689
# 2 0.000873 0.017401 -0.005324 -0.000583 -0.007124 0.009692
# 3 0.002625 -0.005324 0.013843 -0.005219 -0.006440 0.001680
# 4 -0.007370 -0.000583 -0.005219 0.031856 0.007823 -0.008858
# 5 -0.014651 -0.007124 -0.006440 0.007823 0.052880 -0.024579
# 6 0.013689 0.009692 0.001680 -0.008858 -0.024579 0.040756
#
#
# Mechanical properties :
#
#
# Convention : Reuss Voigt Hill
#
# Bulk Modulus (GPa) = 21.75891 41.92494 31.84193
# Shear Modulus (GPa) = 25.76333 36.45808 31.11070
#
# Velocity S-wave (km/s) = 3.35389 3.98975 3.68556
# Velocity P-wave (km/s) = 4.94958 6.28722 5.65807
#
# Compressibility (1/GPa) = 0.04595819
#
# Stress axis : x y z
#
# Youngs Moduli (GPa) = 54.44384 57.46914 72.23983
#
# Poissons Ratio (x) = -0.05018 -0.18961
# Poissons Ratio (y) = -0.04753 0.38462
# Poissons Ratio (z) = -0.14290 0.30598
#
# Static dielectric constant tensor:
#      x y z
#    x 1.951220 0.079210 -0.047740 
#    y 0.079210 1.962210 -0.103640 
#    z -0.047740 -0.103640 1.893720 
# 
# From -- ./inp_files/282394.got.cif
#   From: 2010.05.17/outbox.cif.g08.bks.cpg/sg2_142_cif.got.tgz:282394.got - 2010.06.03 11:33:40.
