data_PCOD9033673
_publ_section_title
;
Structure prediction by ZEFSAII (Michael W. Deem and Ramdas Pophale) SiO2 
 PCOD9033673
Probable space group: P -1
;
_chemical_formula_sum "Si O2"
_cell_formula_units_Z 16
_cell_length_a 9.566678
_cell_length_b 18.147177
_cell_length_c 7.534330
_cell_angle_alpha 61.620886
_cell_angle_beta 91.366315
_cell_angle_gamma 139.697331
_cell_volume 598.249989
_symmetry_space_group_name_H-M "P -1"
_symmetry_group_IT_number 2
_symmetry_cell_setting 'triclinic'
loop_
_space_group_symop_operation_xyz
x,y,z
-x,-y,-z
loop_
_atom_site_type_symbol
_atom_site_label
_atom_site_fract_x
_atom_site_fract_y
_atom_site_fract_z
Si Si1 0.360122 0.424571 0.394589
Si Si2 0.706863 0.058432 0.556768
Si Si3 0.526674 0.335898 0.486629
Si Si4 0.332830 0.172626 0.021082
Si Si5 0.203010 0.937248 0.093650
Si Si6 0.898595 0.590810 0.820572
Si Si7 0.804412 0.976158 0.365615
Si Si8 0.042490 0.537033 0.209794
O O1 0.500000 0.500000 0.500000
O O2 0.488700 0.408871 0.322604
O O3 0.365217 0.510200 0.175351
O O4 0.057911 0.248975 0.650534
O O5 0.597141 0.000143 0.823662
O O6 0.751586 0.992908 0.533461
O O7 0.963614 0.250242 0.319962
O O8 0.500000 0.000000 0.500000
O O9 0.824160 0.462125 0.423239
O O10 0.397284 0.201249 0.502412
O O11 0.368769 0.252930 0.762441
O O12 0.110946 0.100482 0.223246
O O13 0.191562 0.022360 0.089286
O O14 0.634653 0.300226 0.949715
O O15 0.233469 0.972802 0.848605
O O16 0.038124 0.600852 0.669022
O O17 0.938887 0.547574 0.035651
#
# Coordination Sequence:
#
# PCOD9033673 Si02
#       8
#     2   2   2   2   2   2   2   2
#     4  11  22  42  72 100 141 186 237 304 354 421
#     4  11  24  44  70 107 145 186 241 299 361 425
#     4  11  22  43  72 105 140 189 245 294 348 434
#     4  11  21  43  73 103 138 189 241 285 357 435
#     4  10  22  44  69 104 144 178 243 297 344 438
#     4  10  25  46  61 102 145 187 237 303 356 438
#     4  11  23  44  76 104 143 194 235 297 361 420
#     4  11  24  45  69  98 146 193 236 296 364 425
#
# _framework density 26.744671
#
# number of rings (size 3 to 8) (size 9 to 14) (size 15 to 20)
#    0.000    1.250    2.500    3.375    0.000    3.500 
#    9.000    3.750    0.000    0.000    0.000    0.000 
#    0.000    0.000    0.000    0.000    0.000    0.000 
#
# Total GULP energy -89219.551829 kJ/mol
# GULP energy per Si atom -5576.221989 kJ/mol
# Density = 2.668380 g / cm^3
# Si number density = 26.744671 Si / 1000 Ang^3
#
#
#
# Elastic Constant Matrix: (Units=GPa)
#
#
# Indices 1 2 3 4 5 6 
#
# 1 138.9285 48.6184 44.6559 10.5610 34.4711 29.0553
# 2 48.6184 114.7939 35.2213 0.0230 5.2844 12.5334
# 3 44.6559 35.2213 81.2122 9.0334 6.0442 5.7612
# 4 10.5610 0.0230 9.0334 31.0021 0.7035 4.1405
# 5 34.4711 5.2844 6.0442 0.7035 36.7242 1.8452
# 6 29.0553 12.5334 5.7612 4.1405 1.8452 53.1991
#
#
#
# Elastic Compliance Matrix: (Units=1/GPa)
#
#
# Indices 1 2 3 4 5 6 
#
# 1 0.014258 -0.003377 -0.004816 -0.002400 -0.011763 -0.005875
# 2 -0.003377 0.011135 -0.003321 0.002150 0.002107 -0.000660
# 3 -0.004816 -0.003321 0.016489 -0.003456 0.002259 0.001818
# 4 -0.002400 0.002150 -0.003456 0.034242 0.001934 -0.001554
# 5 -0.011763 0.002107 0.002259 0.001934 0.037346 0.004238
# 6 -0.005875 -0.000660 0.001818 -0.001554 0.004238 0.021939
#
#
# Mechanical properties :
#
#
# Convention : Reuss Voigt Hill
#
# Bulk Modulus (GPa) = 53.04235 65.76955 59.40595
# Shear Modulus (GPa) = 30.35393 37.94767 34.15080
#
# Velocity S-wave (km/s) = 3.37256 3.77090 3.57728
# Velocity P-wave (km/s) = 5.91958 6.60338 6.27081
#
# Compressibility (1/GPa) = 0.01885286
#
# Stress axis : x y z
#
# Youngs Moduli (GPa) = 70.13786 89.80368 60.64557
#
# Poissons Ratio (x) = 0.30331 0.29206
# Poissons Ratio (y) = 0.23689 0.20143
# Poissons Ratio (z) = 0.33777 0.29827
#
# Static dielectric constant tensor:
#      x y z
#    x 2.211560 0.059900 -0.004260 
#    y 0.059900 2.090310 0.086330 
#    z -0.004260 0.086330 2.242110 
# 
# From -- ./inp_files/214775.got.cif
#   From: 2010.05.17/outbox.cif.g08.bks.cpg/sg2_108_cif.got.tgz:214775.got - 2010.06.03 11:33:40.
