data_PCOD9033015
_publ_section_title
;
Structure prediction by ZEFSAII (Michael W. Deem and Ramdas Pophale) SiO2 
 PCOD9033015
Probable space group: P -1
;
_chemical_formula_sum "Si O2"
_cell_formula_units_Z 16
_cell_length_a 14.765122
_cell_length_b 8.173916
_cell_length_c 15.337248
_cell_angle_alpha 95.589291
_cell_angle_beta 38.175412
_cell_angle_gamma 124.352309
_cell_volume 693.886254
_symmetry_space_group_name_H-M "P -1"
_symmetry_group_IT_number 2
_symmetry_cell_setting 'triclinic'
loop_
_space_group_symop_operation_xyz
x,y,z
-x,-y,-z
loop_
_atom_site_type_symbol
_atom_site_label
_atom_site_fract_x
_atom_site_fract_y
_atom_site_fract_z
Si Si1 0.180468 0.506950 0.869792
Si Si2 0.165117 0.948460 0.017667
Si Si3 0.571780 0.080970 0.649406
Si Si4 0.674899 0.536624 0.071814
Si Si5 0.689536 0.519945 0.868370
Si Si6 0.878301 0.898200 0.491759
Si Si7 0.729187 0.235717 0.725777
Si Si8 0.033910 0.691705 0.286944
O O1 0.178158 0.422688 0.962066
O O2 0.081434 0.291909 0.862785
O O3 0.443788 0.823178 0.678794
O O4 0.000000 0.500000 0.000000
O O5 0.130856 0.809659 0.123473
O O6 0.383511 0.065204 0.801677
O O7 0.221794 0.187754 0.007483
O O8 0.602486 0.054295 0.726326
O O9 0.824127 0.368792 0.435989
O O10 0.400786 0.315184 0.298537
O O11 0.674875 0.445726 0.974365
O O12 0.640115 0.337764 0.824636
O O13 0.500000 0.500000 0.000000
O O14 0.960247 0.824671 0.665324
O O15 0.917400 0.758786 0.409559
O O16 0.000000 0.000000 0.500000
O O17 0.000000 0.500000 0.500000
O O18 0.763994 0.168761 0.785912
#
# Coordination Sequence:
#
# PCOD9033015 Si02
#       8
#     2   2   2   2   2   2   2   2
#     4  10  26  46  73  96 134 192 244 304 349 411
#     4  11  23  47  67  97 135 182 245 293 345 415
#     4  10  22  44  64  99 140 182 231 287 359 413
#     4  12  25  45  73 101 144 187 237 295 360 421
#     4  12  25  43  69 112 147 190 234 280 359 444
#     4  12  24  41  69 106 150 186 228 286 357 440
#     4  10  24  41  68 105 148 184 227 291 360 433
#     4  11  24  41  69 103 141 183 229 294 355 434
#
# _framework density 23.058533000000001
#
# number of rings (size 3 to 8) (size 9 to 14) (size 15 to 20)
#    0.000    1.000    3.750    2.625    8.750    1.000 
#    0.000    3.125    0.000    0.000    0.000    0.000 
#    0.000    0.000    0.000    0.000    0.000    0.000 
#
# Total GULP energy -89586.307480 kJ/mol
# GULP energy per Si atom -5599.144218 kJ/mol
# Density = 2.300605 g / cm^3
# Si number density = 23.058533 Si / 1000 Ang^3
#
#
#
# Elastic Constant Matrix: (Units=GPa)
#
#
# Indices 1 2 3 4 5 6 
#
# 1 130.3700 14.8436 37.2605 -13.3803 3.5187 8.5539
# 2 14.8436 103.5930 42.2408 -23.1382 -8.2986 8.8304
# 3 37.2605 42.2408 113.5062 -18.0789 9.5735 2.5276
# 4 -13.3803 -23.1382 -18.0789 45.9389 -5.0532 -6.1371
# 5 3.5187 -8.2986 9.5735 -5.0532 28.3869 -6.8513
# 6 8.5539 8.8304 2.5276 -6.1371 -6.8513 37.4429
#
#
#
# Elastic Compliance Matrix: (Units=1/GPa)
#
#
# Indices 1 2 3 4 5 6 
#
# 1 0.008659 0.000273 -0.002669 0.001355 -0.000259 -0.001688
# 2 0.000273 0.013323 -0.004674 0.005521 0.006216 -0.000847
# 3 -0.002669 -0.004674 0.012003 0.001085 -0.004844 0.000193
# 4 0.001355 0.005521 0.001085 0.026639 0.006768 0.003920
# 5 -0.000259 0.006216 -0.004844 0.006768 0.041767 0.007672
# 6 -0.001688 -0.000847 0.000193 0.003920 0.007672 0.029326
#
#
# Mechanical properties :
#
#
# Convention : Reuss Voigt Hill
#
# Bulk Modulus (GPa) = 50.38797 59.57322 54.98059
# Shear Modulus (GPa) = 32.79326 39.22871 36.01098
#
# Velocity S-wave (km/s) = 3.77526 4.12912 3.95615
# Velocity P-wave (km/s) = 6.39556 6.97313 6.69058
#
# Compressibility (1/GPa) = 0.01984601
#
# Stress axis : x y z
#
# Youngs Moduli (GPa) = 115.48713 75.05745 83.31534
#
# Poissons Ratio (x) = -0.02052 0.22236
# Poissons Ratio (y) = -0.03157 0.38940
# Poissons Ratio (z) = 0.30822 0.35081
#
# Static dielectric constant tensor:
#      x y z
#    x 1.896830 -0.027360 0.009590 
#    y -0.027360 1.884500 -0.041910 
#    z 0.009590 -0.041910 1.876240 
# 
# From -- ./inp_files/315187.got.cif
#   From: 2010.05.17/outbox.cif.g08.bks.cpg/sg2_158_cif.got.tgz:315187.got - 2010.06.03 11:33:40.
