data_PCOD9033736
_publ_section_title
;
Structure prediction by ZEFSAII (Michael W. Deem and Ramdas Pophale) SiO2 
 PCOD9033736
Probable space group: P -1
;
_chemical_formula_sum "Si O2"
_cell_formula_units_Z 16
_cell_length_a 12.753475
_cell_length_b 8.835022
_cell_length_c 16.562897
_cell_angle_alpha 40.752741
_cell_angle_beta 145.655435
_cell_angle_gamma 122.417807
_cell_volume 666.773099
_symmetry_space_group_name_H-M "P -1"
_symmetry_group_IT_number 2
_symmetry_cell_setting 'triclinic'
loop_
_space_group_symop_operation_xyz
x,y,z
-x,-y,-z
loop_
_atom_site_type_symbol
_atom_site_label
_atom_site_fract_x
_atom_site_fract_y
_atom_site_fract_z
Si Si1 0.783218 0.649729 0.307716
Si Si2 0.756874 0.971654 0.432872
Si Si3 0.455631 0.348747 0.174597
Si Si4 0.220631 0.235200 0.919112
Si Si5 0.809942 0.131498 0.219235
Si Si6 0.426336 0.668504 0.584740
Si Si7 0.139836 0.795248 0.224781
Si Si8 0.410683 0.720144 0.281570
O O1 0.718168 0.673880 0.162940
O O2 0.671524 0.507020 0.352322
O O3 0.000000 0.500000 0.500000
O O4 0.778930 0.909094 0.236891
O O5 0.666288 0.200809 0.338311
O O6 0.778466 0.069835 0.317356
O O7 0.602561 0.810101 0.389970
O O8 0.968283 0.850400 0.650367
O O9 0.453269 0.241482 0.306243
O O10 0.337215 0.277768 0.053830
O O11 0.344384 0.627404 0.999236
O O12 0.001859 0.341073 0.765034
O O13 0.269775 0.949358 0.056671
O O14 0.262309 0.847556 0.357627
O O15 0.552299 0.497389 0.668404
O O16 0.296987 0.676150 0.306789
O O17 0.000000 0.000000 0.000000
#
# Coordination Sequence:
#
# PCOD9033736 Si02
#       8
#     2   2   2   2   2   2   2   2
#     4  12  24  39  69 104 141 177 230 282 337 427
#     4  10  23  41  63 102 139 183 226 276 343 402
#     4  11  26  42  67 102 145 181 222 285 346 410
#     4  10  24  43  68 102 137 183 222 279 352 397
#     4  11  24  40  65 100 147 183 221 275 344 415
#     4  12  24  41  69 103 132 176 233 277 350 408
#     4  10  23  46  73  93 130 183 234 283 338 409
#     4  10  22  44  69  96 132 181 231 281 332 411
#
# _framework density 23.996169999999999
#
# number of rings (size 3 to 8) (size 9 to 14) (size 15 to 20)
#    0.000    1.250    2.500    2.250   10.500    1.000 
#    0.000    6.250    0.000    0.000    0.000    0.000 
#    0.000    0.000    0.000    0.000    0.000    0.000 
#
# Total GULP energy -89315.335795 kJ/mol
# GULP energy per Si atom -5582.208487 kJ/mol
# Density = 2.394155 g / cm^3
# Si number density = 23.996170 Si / 1000 Ang^3
#
#
#
# Elastic Constant Matrix: (Units=GPa)
#
#
# Indices 1 2 3 4 5 6 
#
# 1 145.1354 27.6061 58.7427 13.2066 10.6193 -20.7451
# 2 27.6061 71.0769 39.6015 4.7597 3.5398 -29.7627
# 3 58.7427 39.6015 152.8438 17.8165 -6.7868 -16.1022
# 4 13.2066 4.7597 17.8165 30.5863 -9.7629 -5.7195
# 5 10.6193 3.5398 -6.7868 -9.7629 52.1792 12.9753
# 6 -20.7451 -29.7627 -16.1022 -5.7195 12.9753 39.4980
#
#
#
# Elastic Compliance Matrix: (Units=1/GPa)
#
#
# Indices 1 2 3 4 5 6 
#
# 1 0.009274 0.000582 -0.003056 -0.002677 -0.004072 0.005014
# 2 0.000582 0.025270 -0.005029 0.000081 -0.007379 0.019733
# 3 -0.003056 -0.005029 0.009177 -0.003043 0.002296 -0.002848
# 4 -0.002677 0.000081 -0.003043 0.037988 0.007107 0.000580
# 5 -0.004072 -0.007379 0.002296 0.007107 0.025643 -0.014158
# 6 0.005014 0.019733 -0.002848 0.000580 -0.014158 0.046394
#
#
# Mechanical properties :
#
#
# Convention : Reuss Voigt Hill
#
# Bulk Modulus (GPa) = 34.82449 68.99520 51.90985
# Shear Modulus (GPa) = 28.03879 40.65974 34.34927
#
# Velocity S-wave (km/s) = 3.42200 4.12081 3.78755
# Velocity P-wave (km/s) = 5.49158 7.17331 6.38803
#
# Compressibility (1/GPa) = 0.02871542
#
# Stress axis : x y z
#
# Youngs Moduli (GPa) = 107.82263 39.57197 108.97090
#
# Poissons Ratio (x) = -0.02303 0.33299
# Poissons Ratio (y) = -0.06276 0.54806
# Poissons Ratio (z) = 0.32948 0.19902
#
# Static dielectric constant tensor:
#      x y z
#    x 1.916730 0.045340 0.022930 
#    y 0.045340 2.012860 0.022810 
#    z 0.022930 0.022810 1.963590 
# 
# From -- ./inp_files/515114.got.cif
#   From: 2010.05.17/outbox.cif.g08.bks.cpg/sg2_258_cif.got.tgz:515114.got - 2010.06.03 11:33:40.
