data_PCOD9033567
_publ_section_title
;
Structure prediction by ZEFSAII (Michael W. Deem and Ramdas Pophale) SiO2 
 PCOD9033567
Probable space group: P -1
;
_chemical_formula_sum "Si O2"
_cell_formula_units_Z 16
_cell_length_a 14.031463
_cell_length_b 9.405551
_cell_length_c 12.390502
_cell_angle_alpha 26.878437
_cell_angle_beta 106.989871
_cell_angle_gamma 101.900261
_cell_volume 701.392361
_symmetry_space_group_name_H-M "P -1"
_symmetry_group_IT_number 2
_symmetry_cell_setting 'triclinic'
loop_
_space_group_symop_operation_xyz
x,y,z
-x,-y,-z
loop_
_atom_site_type_symbol
_atom_site_label
_atom_site_fract_x
_atom_site_fract_y
_atom_site_fract_z
Si Si1 0.624665 0.735981 0.694511
Si Si2 0.144856 0.942112 0.147914
Si Si3 0.884621 0.055811 0.455116
Si Si4 0.207939 0.209011 0.602320
Si Si5 0.821542 0.731152 0.870450
Si Si6 0.438115 0.937614 0.915774
Si Si7 0.061335 0.155004 0.767844
Si Si8 0.495888 0.875178 0.752046
O O1 0.733963 0.609225 0.854702
O O2 0.574906 0.933340 0.647026
O O3 0.612054 0.977417 0.428589
O O4 0.572137 0.436167 0.843664
O O5 0.174656 0.582238 0.362797
O O6 0.031619 0.028642 0.103555
O O7 0.213930 0.014178 0.220768
O O8 0.138093 0.147532 0.898226
O O9 0.820127 0.869597 0.476024
O O10 0.875024 0.922009 0.665090
O O11 0.859231 0.427734 0.163565
O O12 0.000000 0.000000 0.500000
O O13 0.128352 0.046183 0.760990
O O14 0.323690 0.110912 0.744191
O O15 0.503484 0.002273 0.787868
O O16 0.500000 0.000000 0.000000
O O17 0.000000 0.500000 0.500000
O O18 0.500000 0.500000 0.000000
#
# Coordination Sequence:
#
# PCOD9033567 Si02
#       8
#     2   2   2   2   2   2   2   2
#     4  10  22  44  68  97 133 185 230 294 351 427
#     4  10  24  40  68  97 136 187 240 289 347 429
#     4  12  28  46  72 108 152 188 237 297 366 423
#     4  11  24  42  68 101 140 188 233 298 355 422
#     4  12  27  45  72 106 144 192 241 290 356 438
#     4  11  24  43  66 100 137 179 230 296 361 423
#     4   9  21  41  65  94 139 181 238 285 355 416
#     4   9  21  41  68  93 131 176 229 287 354 418
#
# _framework density 22.811768000000001
#
# number of rings (size 3 to 8) (size 9 to 14) (size 15 to 20)
#    0.000    1.500    1.250    1.875   12.250    5.500 
#    0.000    0.000    0.000    0.000    0.000    0.000 
#    0.000    0.000    0.000    0.000    0.000    0.000 
#
# Total GULP energy -89128.880024 kJ/mol
# GULP energy per Si atom -5570.555002 kJ/mol
# Density = 2.275985 g / cm^3
# Si number density = 22.811768 Si / 1000 Ang^3
#
#
#
# Elastic Constant Matrix: (Units=GPa)
#
#
# Indices 1 2 3 4 5 6 
#
# 1 62.9471 35.2529 23.4188 2.5217 12.2348 -6.5969
# 2 35.2529 151.9959 50.8871 18.2243 -0.9479 -5.4036
# 3 23.4188 50.8871 111.2374 6.0835 6.5251 -6.8409
# 4 2.5217 18.2243 6.0835 34.7532 -2.3912 -2.8306
# 5 12.2348 -0.9479 6.5251 -2.3912 27.9141 5.2888
# 6 -6.5969 -5.4036 -6.8409 -2.8306 5.2888 36.2301
#
#
#
# Elastic Compliance Matrix: (Units=1/GPa)
#
#
# Indices 1 2 3 4 5 6 
#
# 1 0.021310 -0.004373 -0.001675 0.000720 -0.009871 0.004409
# 2 -0.004373 0.009127 -0.003260 -0.003766 0.002809 -0.000755
# 3 -0.001675 -0.003260 0.011075 -0.000133 -0.002284 0.001623
# 4 0.000720 -0.003766 -0.000133 0.030990 0.001923 0.001685
# 5 -0.009871 0.002809 -0.002284 0.001923 0.042433 -0.007854
# 6 0.004409 -0.000755 0.001623 0.001685 -0.007854 0.029876
#
#
# Mechanical properties :
#
#
# Convention : Reuss Voigt Hill
#
# Bulk Modulus (GPa) = 43.67538 60.58868 52.13203
# Shear Modulus (GPa) = 29.22971 34.22093 31.72532
#
# Velocity S-wave (km/s) = 3.58347 3.87737 3.73331
# Velocity P-wave (km/s) = 6.02571 6.83105 6.44098
#
# Compressibility (1/GPa) = 0.02289620
#
# Stress axis : x y z
#
# Youngs Moduli (GPa) = 46.92544 109.56525 90.29526
#
# Poissons Ratio (x) = 0.47911 0.15127
# Poissons Ratio (y) = 0.20520 0.29435
# Poissons Ratio (z) = 0.07861 0.35717
#
# Static dielectric constant tensor:
#      x y z
#    x 1.975850 0.047250 -0.048200 
#    y 0.047250 1.954640 0.013610 
#    z -0.048200 0.013610 1.980540 
# 
# From -- ./inp_files/446549.got.cif
#   From: 2010.05.17/outbox.cif.g08.bks.cpg/sg2_224_cif.got.tgz:446549.got - 2010.06.03 11:33:40.
