data_PCOD9033436
_publ_section_title
;
Structure prediction by ZEFSAII (Michael W. Deem and Ramdas Pophale) SiO2 
 PCOD9033436
Probable space group: P -1
;
_chemical_formula_sum "Si O2"
_cell_formula_units_Z 12
_cell_length_a 9.327105
_cell_length_b 12.812377
_cell_length_c 7.083607
_cell_angle_alpha 131.302789
_cell_angle_beta 53.489018
_cell_angle_gamma 126.105004
_cell_volume 483.277906
_symmetry_space_group_name_H-M "P -1"
_symmetry_group_IT_number 2
_symmetry_cell_setting 'triclinic'
loop_
_space_group_symop_operation_xyz
x,y,z
-x,-y,-z
loop_
_atom_site_type_symbol
_atom_site_label
_atom_site_fract_x
_atom_site_fract_y
_atom_site_fract_z
Si Si1 0.332782 0.849076 0.434294
Si Si2 0.833855 0.573608 0.025979
Si Si3 0.819895 0.980720 0.486541
Si Si4 0.842046 0.546701 0.433227
Si Si5 0.017882 0.190394 0.093785
Si Si6 0.502181 0.320322 0.648836
O O1 0.191018 0.846249 0.711929
O O2 0.423360 0.723684 0.263249
O O3 0.500000 0.000000 0.500000
O O4 0.232365 0.872555 0.346573
O O5 0.811981 0.560419 0.251394
O O6 0.362951 0.416322 0.883222
O O7 0.948185 0.468205 0.737566
O O8 0.969996 0.725896 0.014972
O O9 0.636264 0.839471 0.514130
O O10 0.000000 0.000000 0.500000
O O11 0.892328 0.933884 0.174738
O O12 0.142802 0.307344 0.287087
O O13 0.678942 0.410164 0.488673
#
# Coordination Sequence:
#
# PCOD9033436 Si02
#       6
#     2   2   2   2   2   2
#     4  10  22  44  68 100 142 187 238 286 348 421
#     4  10  23  41  69 106 143 182 228 285 356 424
#     4  10  24  45  74 103 138 191 243 286 351 419
#     4  11  23  44  71 110 142 183 232 294 361 416
#     4  11  23  43  73 100 144 182 231 296 354 414
#     4  10  22  44  73 104 143 182 237 291 354 424
#
# _framework density 24.830431000000001
#
# number of rings (size 3 to 8) (size 9 to 14) (size 15 to 20)
#    0.000    1.667    1.667    1.500    4.667    2.667 
#    3.000    6.667    7.333    0.000    0.000    0.000 
#    0.000    0.000    0.000    0.000    0.000    0.000 
#
# Total GULP energy -66995.376064 kJ/mol
# GULP energy per Si atom -5582.948005 kJ/mol
# Density = 2.477392 g / cm^3
# Si number density = 24.830431 Si / 1000 Ang^3
#
#
#
# Elastic Constant Matrix: (Units=GPa)
#
#
# Indices 1 2 3 4 5 6 
#
# 1 187.5481 73.4400 57.7174 -8.7250 -25.6508 -22.4526
# 2 73.4400 108.2826 56.1188 -7.9889 -10.7993 -18.8581
# 3 57.7174 56.1188 131.1158 -22.5085 -10.6268 3.3108
# 4 -8.7250 -7.9889 -22.5085 60.0935 1.9147 -18.3544
# 5 -25.6508 -10.7993 -10.6268 1.9147 40.0884 2.0864
# 6 -22.4526 -18.8581 3.3108 -18.3544 2.0864 49.6613
#
#
#
# Elastic Compliance Matrix: (Units=1/GPa)
#
#
# Indices 1 2 3 4 5 6 
#
# 1 0.008150 -0.003877 -0.001578 0.000704 0.003592 0.002427
# 2 -0.003877 0.015241 -0.004735 0.001145 0.000067 0.004770
# 3 -0.001578 -0.004735 0.010882 0.002482 0.000603 -0.002345
# 4 0.000704 0.001145 0.002482 0.020294 0.000026 0.008087
# 5 0.003592 0.000067 0.000603 0.000026 0.027396 0.000468
# 6 0.002427 0.004770 -0.002345 0.008087 0.000468 0.026170
#
#
# Mechanical properties :
#
#
# Convention : Reuss Voigt Hill
#
# Bulk Modulus (GPa) = 71.97643 89.05545 80.51594
# Shear Modulus (GPa) = 37.55340 45.94664 41.75002
#
# Velocity S-wave (km/s) = 3.89317 4.30631 4.10494
# Velocity P-wave (km/s) = 7.01849 7.78904 7.41378
#
# Compressibility (1/GPa) = 0.01389344
#
# Stress axis : x y z
#
# Youngs Moduli (GPa) = 122.69402 65.61441 91.89433
#
# Poissons Ratio (x) = 0.25441 0.14497
# Poissons Ratio (y) = 0.47572 0.43511
# Poissons Ratio (z) = 0.19356 0.31068
#
# Static dielectric constant tensor:
#      x y z
#    x 2.041400 -0.020060 -0.022220 
#    y -0.020060 2.111590 0.022600 
#    z -0.022220 0.022600 1.922010 
# 
# From -- ./inp_files/196757.got.cif
#   From: 2010.05.17/outbox.cif.g08.bks.cpg/sg2_99_cif.got.tgz:196757.got - 2010.06.03 11:33:40.
