data_PCOD9033936
_publ_section_title
;
Structure prediction by ZEFSAII (Michael W. Deem and Ramdas Pophale) SiO2 
 PCOD9033936
Probable space group: P -1
;
_chemical_formula_sum "Si O2"
_cell_formula_units_Z 13
_cell_length_a 19.078740
_cell_length_b 15.699969
_cell_length_c 9.239274
_cell_angle_alpha 119.464649
_cell_angle_beta 50.722634
_cell_angle_gamma 160.754672
_cell_volume 642.548104
_symmetry_space_group_name_H-M "P -1"
_symmetry_group_IT_number 2
_symmetry_cell_setting 'triclinic'
loop_
_space_group_symop_operation_xyz
x,y,z
-x,-y,-z
loop_
_atom_site_type_symbol
_atom_site_label
_atom_site_fract_x
_atom_site_fract_y
_atom_site_fract_z
Si Si1 0.103663 0.629691 0.314041
Si Si2 0.851262 0.546339 0.401737
Si Si3 0.485934 0.648452 0.146606
Si Si4 0.671387 0.309919 0.120982
Si Si5 0.919411 0.935435 0.884674
Si Si6 0.589008 0.786188 0.798057
Si Si7 0.500000 0.500000 0.500000
O O1 0.000000 0.500000 0.500000
O O2 0.909981 0.509402 0.388055
O O3 0.392032 0.972286 0.230536
O O4 0.145561 0.576000 0.116723
O O5 0.617313 0.373736 0.628987
O O6 0.794501 0.460201 0.239443
O O7 0.116669 0.879281 0.339172
O O8 0.264365 0.339781 0.159358
O O9 0.747240 0.858812 0.034552
O O10 0.534180 0.739787 0.000661
O O11 0.603971 0.338820 0.143563
O O12 0.183614 0.204573 0.672290
O O13 0.000000 0.000000 0.000000
O O14 0.552475 0.639178 0.669488
#
# Coordination Sequence:
#
# PCOD9033936 Si02
#       7
#     2   2   2   2   2   2   1
#     4  10  22  44  70  95 129 168 213 268 328 395
#     4  11  24  41  67  99 133 170 217 269 330 390
#     4  11  25  41  62  97 131 172 224 271 323 388
#     4  10  24  42  65  99 132 166 216 269 325 392
#     4  11  25  41  64  91 130 175 228 271 319 383
#     4  11  25  40  65  97 132 176 222 269 322 387
#     4  12  24  44  68  90 136 182 220 272 328 372
#
# _framework density 20.231947999999999
#
# number of rings (size 3 to 8) (size 9 to 14) (size 15 to 20)
#    0.000    1.231    3.077    1.385    4.308    2.462 
#    0.000    0.000    0.000    0.000    0.000    0.000 
#    0.000    0.000    0.000    0.000    0.000    0.000 
#
# Total GULP energy -72448.976248 kJ/mol
# GULP energy per Si atom -5572.998173 kJ/mol
# Density = 2.018590 g / cm^3
# Si number density = 20.231948 Si / 1000 Ang^3
#
#
#
# Elastic Constant Matrix: (Units=GPa)
#
#
# Indices 1 2 3 4 5 6 
#
# 1 119.6423 26.9379 73.2836 -3.8826 7.8435 26.8750
# 2 26.9379 36.9181 36.6945 4.4115 -3.9926 18.9417
# 3 73.2836 36.6945 180.6473 5.1223 -15.4255 4.0928
# 4 -3.8826 4.4115 5.1223 40.0953 11.0345 -1.6139
# 5 7.8435 -3.9926 -15.4255 11.0345 29.4092 -1.7815
# 6 26.8750 18.9417 4.0928 -1.6139 -1.7815 19.7963
#
#
#
# Elastic Compliance Matrix: (Units=1/GPa)
#
#
# Indices 1 2 3 4 5 6 
#
# 1 0.026741 0.021984 -0.015692 0.004771 -0.017517 -0.055281
# 2 0.021984 0.100289 -0.027284 -0.007233 -0.011221 -0.121762
# 3 -0.015692 -0.027284 0.017655 -0.002675 0.013456 0.044753
# 4 0.004771 -0.007233 -0.002675 0.030775 -0.015074 0.002149
# 5 -0.017517 -0.011221 0.013456 -0.015074 0.051996 0.035186
# 6 -0.055281 -0.121762 0.044753 0.002149 0.035186 0.236158
#
#
# Mechanical properties :
#
#
# Convention : Reuss Voigt Hill
#
# Bulk Modulus (GPa) = 9.73714 67.89326 38.81520
# Shear Modulus (GPa) = 9.26213 31.21295 20.23754
#
# Velocity S-wave (km/s) = 2.14194 3.93205 3.16615
# Velocity P-wave (km/s) = 3.30763 7.36512 5.70900
#
# Compressibility (1/GPa) = 0.10269961
#
# Stress axis : x y z
#
# Youngs Moduli (GPa) = 37.39531 9.97121 56.64230
#
# Poissons Ratio (x) = -0.21921 0.88885
# Poissons Ratio (y) = -0.82209 1.54543
# Poissons Ratio (z) = 0.58682 0.27205
#
# Static dielectric constant tensor:
#      x y z
#    x 1.708900 -0.027480 -0.003640 
#    y -0.027480 1.707310 -0.013210 
#    z -0.003640 -0.013210 1.675840 
# 
# From -- ./inp_files/36006.got.cif
#   From: 2010.05.17/outbox.cif.g08.bks.cpg/sg2_19_cif.got.tgz:36006.got - 2010.06.03 11:33:40.
