data_PCOD9033351
_publ_section_title
;
Structure prediction by ZEFSAII (Michael W. Deem and Ramdas Pophale) SiO2 
 PCOD9033351
Probable space group: P -1
;
_chemical_formula_sum "Si O2"
_cell_formula_units_Z 12
_cell_length_a 14.562260
_cell_length_b 7.908885
_cell_length_c 9.440254
_cell_angle_alpha 130.096393
_cell_angle_beta 49.407289
_cell_angle_gamma 139.869599
_cell_volume 507.700637
_symmetry_space_group_name_H-M "P -1"
_symmetry_group_IT_number 2
_symmetry_cell_setting 'triclinic'
loop_
_space_group_symop_operation_xyz
x,y,z
-x,-y,-z
loop_
_atom_site_type_symbol
_atom_site_label
_atom_site_fract_x
_atom_site_fract_y
_atom_site_fract_z
Si Si1 0.110095 0.279337 0.948201
Si Si2 0.324700 0.450373 0.065288
Si Si3 0.614666 0.937764 0.907931
Si Si4 0.178656 0.811160 0.906851
Si Si5 0.335214 0.798147 0.489041
Si Si6 0.669438 0.783063 0.483918
O O1 0.211338 0.257924 0.721852
O O2 0.224022 0.476269 0.064900
O O3 0.995909 0.315269 0.999675
O O4 0.000000 0.000000 0.000000
O O5 0.262987 0.135677 0.959141
O O6 0.313540 0.561676 0.285698
O O7 0.495806 0.646063 0.946765
O O8 0.734580 0.156181 0.018642
O O9 0.694257 0.894583 0.678130
O O10 0.500000 0.000000 0.000000
O O11 0.219363 0.686741 0.674154
O O12 0.500000 0.000000 0.500000
O O13 0.320604 0.992898 0.506032
O O14 0.500000 0.500000 0.500000
#
# Coordination Sequence:
#
# PCOD9033351 Si02
#       6
#     2   2   2   2   2   2
#     4  10  22  44  67  96 132 182 216 272 336 387
#     4  11  22  40  70  96 129 179 221 266 331 391
#     4  12  23  40  66  98 134 169 219 280 332 384
#     4  11  24  45  66  95 137 172 226 274 321 403
#     4  12  23  39  70 102 127 176 235 263 321 408
#     4  12  23  40  70  95 135 176 219 274 336 390
#
# _framework density 23.635973
#
# number of rings (size 3 to 8) (size 9 to 14) (size 15 to 20)
#    0.000    0.667    8.333    0.500    2.333    1.333 
#    0.000    0.833    0.000    0.000    0.000    0.000 
#    0.000    0.000    0.000    0.000    0.000    0.000 
#
# Total GULP energy -67199.770646 kJ/mol
# GULP energy per Si atom -5599.980887 kJ/mol
# Density = 2.358218 g / cm^3
# Si number density = 23.635973 Si / 1000 Ang^3
#
#
#
# Elastic Constant Matrix: (Units=GPa)
#
#
# Indices 1 2 3 4 5 6 
#
# 1 167.0213 25.0346 67.7236 -11.2293 7.5907 20.6390
# 2 25.0346 86.4922 26.6044 -8.2591 -0.7984 23.4149
# 3 67.7236 26.6044 246.5658 -13.8734 13.3311 26.3241
# 4 -11.2293 -8.2591 -13.8734 34.4095 9.8252 -9.4748
# 5 7.5907 -0.7984 13.3311 9.8252 43.4683 -1.6413
# 6 20.6390 23.4149 26.3241 -9.4748 -1.6413 43.9706
#
#
#
# Elastic Compliance Matrix: (Units=1/GPa)
#
#
# Indices 1 2 3 4 5 6 
#
# 1 0.007105 -0.001029 -0.001529 0.001337 -0.001154 -0.001627
# 2 -0.001029 0.013829 -0.000479 0.001003 0.000113 -0.006374
# 3 -0.001529 -0.000479 0.004872 0.001336 -0.001603 -0.001716
# 4 0.001337 0.001003 0.001336 0.033988 -0.008116 0.005060
# 5 -0.001154 0.000113 -0.001603 -0.008116 0.025559 0.000646
# 6 -0.001627 -0.006374 -0.001716 0.005060 0.000646 0.029042
#
#
# Mechanical properties :
#
#
# Convention : Reuss Voigt Hill
#
# Bulk Modulus (GPa) = 50.67600 82.08936 66.38268
# Shear Modulus (GPa) = 39.35552 49.75080 44.55316
#
# Velocity S-wave (km/s) = 4.08495 4.59287 4.34634
# Velocity P-wave (km/s) = 6.61331 7.93297 7.30301
#
# Compressibility (1/GPa) = 0.01973321
#
# Stress axis : x y z
#
# Youngs Moduli (GPa) = 140.74906 72.31058 205.23635
#
# Poissons Ratio (x) = 0.07439 0.31384
# Poissons Ratio (y) = 0.14479 0.09825
# Poissons Ratio (z) = 0.21523 0.03462
#
# Static dielectric constant tensor:
#      x y z
#    x 1.952300 -0.022190 0.000890 
#    y -0.022190 1.806510 0.039190 
#    z 0.000890 0.039190 1.817990 
# 
# From -- ./inp_files/174704.got.cif
#   From: 2010.05.17/outbox.cif.g08.bks.cpg/sg2_88_cif.got.tgz:174704.got - 2010.06.03 11:33:40.
