data_PCOD9033873
_publ_section_title
;
Structure prediction by ZEFSAII (Michael W. Deem and Ramdas Pophale) SiO2 
 PCOD9033873
Probable space group: P -1
;
_chemical_formula_sum "Si O2"
_cell_formula_units_Z 15
_cell_length_a 11.991118
_cell_length_b 8.509440
_cell_length_c 9.355194
_cell_angle_alpha 133.622574
_cell_angle_beta 87.606254
_cell_angle_gamma 108.621435
_cell_volume 632.282175
_symmetry_space_group_name_H-M "P -1"
_symmetry_group_IT_number 2
_symmetry_cell_setting 'triclinic'
loop_
_space_group_symop_operation_xyz
x,y,z
-x,-y,-z
loop_
_atom_site_type_symbol
_atom_site_label
_atom_site_fract_x
_atom_site_fract_y
_atom_site_fract_z
Si Si1 0.277235 0.866226 0.582592
Si Si2 0.007388 0.639360 0.432968
Si Si3 0.392050 0.035000 0.403199
Si Si4 0.236445 0.289627 0.541339
Si Si5 0.000000 0.500000 0.000000
Si Si6 0.266144 0.627489 0.984410
Si Si7 0.369741 0.509618 0.394457
Si Si8 0.630575 0.988635 0.013608
O O1 0.142068 0.849192 0.558246
O O2 0.271956 0.600478 0.391009
O O3 0.379999 0.018730 0.562077
O O4 0.323449 0.948347 0.789321
O O5 0.000000 0.500000 0.500000
O O6 0.899106 0.734331 0.499196
O O7 0.995802 0.519679 0.199988
O O8 0.264998 0.058903 0.382525
O O9 0.502345 0.266545 0.488745
O O10 0.376869 0.788618 0.179571
O O11 0.327508 0.465141 0.532170
O O12 0.275549 0.405006 0.766649
O O13 0.859382 0.461368 0.980526
O O14 0.276546 0.809016 0.967124
O O15 0.373681 0.270032 0.185007
O O16 0.500000 0.000000 0.000000
#
# Coordination Sequence:
#
# PCOD9033873 Si02
#       8
#     2   2   2   2   1   2   2   2
#     4  12  26  47  69 109 148 192 246 314 368 440
#     4  11  22  46  74 105 151 194 252 308 367 447
#     4  12  26  43  71 108 147 191 247 307 370 443
#     4  11  24  43  74 107 144 198 246 300 373 445
#     4  10  22  44  70 104 146 200 238 306 376 428
#     4  11  22  42  71 101 137 188 239 298 366 430
#     4  12  25  44  73 105 143 194 246 303 370 447
#     4  12  26  46  77 107 144 195 250 302 379 449
#
# _framework density 23.723586000000001
#
# number of rings (size 3 to 8) (size 9 to 14) (size 15 to 20)
#    0.000    0.533    5.333    3.200    0.000    2.133 
#    0.000    2.000    0.000    0.000    0.000    0.000 
#    0.000    0.000    0.000    0.000    0.000    0.000 
#
# Total GULP energy -83539.515099 kJ/mol
# GULP energy per Si atom -5569.301007 kJ/mol
# Density = 2.366959 g / cm^3
# Si number density = 23.723586 Si / 1000 Ang^3
#
#
#
# Elastic Constant Matrix: (Units=GPa)
#
#
# Indices 1 2 3 4 5 6 
#
# 1 119.8683 16.9844 46.0768 -3.2677 0.6435 10.8096
# 2 16.9844 47.6410 33.2248 -29.3419 -10.7919 22.6274
# 3 46.0768 33.2248 143.1904 -16.8218 1.5129 6.8427
# 4 -3.2677 -29.3419 -16.8218 50.7380 -7.4966 -10.1041
# 5 0.6435 -10.7919 1.5129 -7.4966 40.4048 -6.8412
# 6 10.8096 22.6274 6.8427 -10.1041 -6.8412 41.2499
#
#
#
# Elastic Compliance Matrix: (Units=1/GPa)
#
#
# Indices 1 2 3 4 5 6 
#
# 1 0.009849 -0.002649 -0.002741 -0.002314 -0.001442 -0.001479
# 2 -0.002649 0.061586 -0.008986 0.031142 0.019083 -0.020805
# 3 -0.002741 -0.008986 0.009599 -0.001937 -0.002540 0.003159
# 4 -0.002314 0.031142 -0.001937 0.038250 0.014790 -0.004333
# 5 -0.001442 0.019083 -0.002540 0.014790 0.032601 -0.000639
# 6 -0.001479 -0.020805 0.003159 -0.004333 -0.000639 0.034351
#
#
# Mechanical properties :
#
#
# Convention : Reuss Voigt Hill
#
# Bulk Modulus (GPa) = 19.12699 55.91907 37.52303
# Shear Modulus (GPa) = 21.51314 40.77279 31.14297
#
# Velocity S-wave (km/s) = 3.01462 4.15017 3.62711
# Velocity P-wave (km/s) = 4.49413 6.82550 5.77861
#
# Compressibility (1/GPa) = 0.05228215
#
# Stress axis : x y z
#
# Youngs Moduli (GPa) = 101.52917 16.23737 104.17721
#
# Poissons Ratio (x) = 0.04302 0.28551
# Poissons Ratio (y) = 0.26898 0.93618
# Poissons Ratio (z) = 0.27825 0.14592
#
# Static dielectric constant tensor:
#      x y z
#    x 1.948850 -0.035730 0.011360 
#    y -0.035730 1.950080 -0.047170 
#    z 0.011360 -0.047170 1.929490 
# 
# From -- ./inp_files/241379.got.cif
#   From: 2010.05.17/outbox.cif.g08.bks.cpg/sg2_121_cif.got.tgz:241379.got - 2010.06.03 11:33:40.
