data_PCOD9033463
_publ_section_title
;
Structure prediction by ZEFSAII (Michael W. Deem and Ramdas Pophale) SiO2 
 PCOD9033463
Probable space group: P -1
;
_chemical_formula_sum "Si O2"
_cell_formula_units_Z 15
_cell_length_a 9.249802
_cell_length_b 12.071771
_cell_length_c 9.455276
_cell_angle_alpha 112.346251
_cell_angle_beta 64.806694
_cell_angle_gamma 138.791130
_cell_volume 626.204811
_symmetry_space_group_name_H-M "P -1"
_symmetry_group_IT_number 2
_symmetry_cell_setting 'triclinic'
loop_
_space_group_symop_operation_xyz
x,y,z
-x,-y,-z
loop_
_atom_site_type_symbol
_atom_site_label
_atom_site_fract_x
_atom_site_fract_y
_atom_site_fract_z
Si Si1 0.019187 0.681086 0.692475
Si Si2 0.662125 0.699442 0.539772
Si Si3 0.563736 0.823150 0.111768
Si Si4 0.612735 0.298401 0.568694
Si Si5 0.107433 0.117108 0.190341
Si Si6 0.122146 0.458571 0.011956
Si Si7 0.987088 0.168725 0.759578
Si Si8 0.500000 0.000000 0.000000
O O1 0.230910 0.728229 0.558107
O O2 0.791845 0.499355 0.633972
O O3 0.012142 0.819086 0.743716
O O4 0.021116 0.651792 0.843984
O O5 0.500000 0.500000 0.500000
O O6 0.547135 0.738990 0.507916
O O7 0.693299 0.757019 0.714955
O O8 0.910408 0.797004 0.422350
O O9 0.520992 0.811412 0.289500
O O10 0.354491 0.633309 0.052926
O O11 0.778727 0.861805 0.992714
O O12 0.563367 0.942413 0.075868
O O13 0.980586 0.938972 0.226399
O O14 0.000000 0.500000 0.000000
O O15 0.139712 0.352458 0.855349
O O16 0.731877 0.077127 0.850320
#
# Coordination Sequence:
#
# PCOD9033463 Si02
#       8
#     2   2   2   2   2   2   2   1
#     4  10  24  42  70 105 145 184 239 298 363 417
#     4  12  25  44  75 105 141 187 243 295 358 429
#     4  10  23  43  71 102 144 184 238 293 364 420
#     4  10  24  44  70 105 142 187 238 301 354 428
#     4  11  25  46  69 103 145 186 235 300 359 425
#     4  11  23  40  72 106 136 191 247 289 348 436
#     4  11  26  43  71 102 147 188 238 291 362 422
#     4  10  22  44  68 102 142 184 224 294 358 420
#
# _framework density 23.953824999999998
#
# number of rings (size 3 to 8) (size 9 to 14) (size 15 to 20)
#    0.000    1.333    2.667    1.200    7.467    1.600 
#    2.400    0.667    0.000    0.000    0.000    0.000 
#    0.000    0.000    0.000    0.000    0.000    0.000 
#
# Total GULP energy -83782.319830 kJ/mol
# GULP energy per Si atom -5585.487989 kJ/mol
# Density = 2.389930 g / cm^3
# Si number density = 23.953825 Si / 1000 Ang^3
#
#
#
# Elastic Constant Matrix: (Units=GPa)
#
#
# Indices 1 2 3 4 5 6 
#
# 1 150.0246 59.6160 65.2974 -1.7742 -16.1472 -20.5634
# 2 59.6160 90.3681 19.6999 -12.9488 -5.9016 -13.6328
# 3 65.2974 19.6999 122.1703 -33.0891 -7.0561 -0.0123
# 4 -1.7742 -12.9488 -33.0891 35.6995 7.6997 -8.0872
# 5 -16.1472 -5.9016 -7.0561 7.6997 36.0095 -11.5872
# 6 -20.5634 -13.6328 -0.0123 -8.0872 -11.5872 32.5066
#
#
#
# Elastic Compliance Matrix: (Units=1/GPa)
#
#
# Indices 1 2 3 4 5 6 
#
# 1 0.016096 -0.008586 -0.009935 -0.011854 0.008546 0.006675
# 2 -0.008586 0.018031 0.004847 0.011888 -0.000960 0.004747
# 3 -0.009935 0.004847 0.017322 0.017987 -0.004562 -0.001397
# 4 -0.011854 0.011888 0.017987 0.051922 -0.008579 0.007353
# 5 0.008546 -0.000960 -0.004562 -0.008579 0.037624 0.016279
# 6 0.006675 0.004747 -0.001397 0.007353 0.016279 0.044608
#
#
# Mechanical properties :
#
#
# Convention : Reuss Voigt Hill
#
# Bulk Modulus (GPa) = 41.49474 72.42108 56.95791
# Shear Modulus (GPa) = 22.62587 35.37310 28.99949
#
# Velocity S-wave (km/s) = 3.07671 3.84698 3.48320
# Velocity P-wave (km/s) = 5.47557 7.07330 6.32509
#
# Compressibility (1/GPa) = 0.02409944
#
# Stress axis : x y z
#
# Youngs Moduli (GPa) = 62.12608 55.46090 57.73072
#
# Poissons Ratio (x) = 0.47621 0.57355
# Poissons Ratio (y) = 0.53344 -0.27980
# Poissons Ratio (z) = 0.61722 -0.26880
#
# Static dielectric constant tensor:
#      x y z
#    x 1.853140 0.048320 -0.001440 
#    y 0.048320 1.928470 0.010890 
#    z -0.001440 0.010890 1.872300 
# 
# From -- ./inp_files/189087.got.cif
#   From: 2010.05.17/outbox.cif.g08.bks.cpg/sg2_95_cif.got.tgz:189087.got - 2010.06.03 11:33:40.
