data_PCOD9033065
_publ_section_title
;
Structure prediction by ZEFSAII (Michael W. Deem and Ramdas Pophale) SiO2 
 PCOD9033065
Probable space group: P -1
;
_chemical_formula_sum "Si O2"
_cell_formula_units_Z 15
_cell_length_a 6.669933
_cell_length_b 18.209426
_cell_length_c 8.428140
_cell_angle_alpha 125.097958
_cell_angle_beta 96.018420
_cell_angle_gamma 53.270815
_cell_volume 625.069708
_symmetry_space_group_name_H-M "P -1"
_symmetry_group_IT_number 2
_symmetry_cell_setting 'triclinic'
loop_
_space_group_symop_operation_xyz
x,y,z
-x,-y,-z
loop_
_atom_site_type_symbol
_atom_site_label
_atom_site_fract_x
_atom_site_fract_y
_atom_site_fract_z
Si Si1 0.215628 0.173207 0.033716
Si Si2 0.945282 0.645008 0.267279
Si Si3 0.421896 0.380441 0.987209
Si Si4 0.435264 0.257159 0.375079
Si Si5 0.039439 0.188900 0.696134
Si Si6 0.601854 0.369382 0.327250
Si Si7 0.868364 0.003285 0.156463
Si Si8 0.000000 0.000000 0.500000
O O1 0.396681 0.196673 0.155488
O O2 0.915129 0.279901 0.204094
O O3 0.198068 0.180178 0.851001
O O4 0.263364 0.055989 0.944013
O O5 0.839071 0.649545 0.436873
O O6 0.245605 0.521230 0.111216
O O7 0.908286 0.761295 0.384531
O O8 0.753465 0.648534 0.133957
O O9 0.454657 0.368583 0.163531
O O10 0.719498 0.291403 0.830012
O O11 0.545139 0.319826 0.406206
O O12 0.649163 0.142781 0.362431
O O13 0.110095 0.064979 0.528371
O O14 0.500000 0.500000 0.500000
O O15 0.052134 0.940858 0.250151
O O16 0.000000 0.000000 0.000000
#
# Coordination Sequence:
#
# PCOD9033065 Si02
#       8
#     2   2   2   2   2   2   2   1
#     4  10  23  43  66  96 127 176 221 271 332 398
#     4  11  24  39  66  98 130 171 220 278 331 395
#     4  10  23  42  64  93 131 175 219 271 332 399
#     4  12  25  42  67 101 130 168 227 273 334 404
#     4  10  22  44  65  94 134 176 219 273 335 393
#     4  11  24  42  66  93 131 175 216 273 331 393
#     4  11  23  45  71  97 136 179 221 280 339 398
#     4  10  24  42  70 100 130 176 232 266 330 410
#
# _framework density 23.997322
#
# number of rings (size 3 to 8) (size 9 to 14) (size 15 to 20)
#    0.000    1.333    1.333    3.200    1.867    9.600 
#    2.400    3.333    0.000    0.000    0.000    0.000 
#    0.000    0.000    0.000    0.000    0.000    0.000 
#
# Total GULP energy -83688.896447 kJ/mol
# GULP energy per Si atom -5579.259763 kJ/mol
# Density = 2.394270 g / cm^3
# Si number density = 23.997322 Si / 1000 Ang^3
#
#
#
# Elastic Constant Matrix: (Units=GPa)
#
#
# Indices 1 2 3 4 5 6 
#
# 1 32.1160 26.3504 12.9518 9.9952 4.5091 9.0644
# 2 26.3504 55.7406 7.8543 15.8484 6.9334 15.0664
# 3 12.9518 7.8543 75.3065 7.6802 16.3527 -0.3413
# 4 9.9952 15.8484 7.6802 35.8803 3.6421 18.1522
# 5 4.5091 6.9334 16.3527 3.6421 33.8609 6.1137
# 6 9.0644 15.0664 -0.3413 18.1522 6.1137 46.9165
#
#
#
# Elastic Compliance Matrix: (Units=1/GPa)
#
#
# Indices 1 2 3 4 5 6 
#
# 1 0.054589 -0.023765 -0.007059 -0.002185 0.001663 -0.002338
# 2 -0.023765 0.031777 0.002073 -0.006111 -0.003177 -0.002820
# 3 -0.007059 0.002073 0.016254 -0.003200 -0.007538 0.003036
# 4 -0.002185 -0.006111 -0.003200 0.038077 0.001255 -0.012535
# 5 0.001663 -0.003177 -0.007538 0.001255 0.034244 -0.004304
# 6 -0.002338 -0.002820 0.003036 -0.012535 -0.004304 0.028104
#
#
# Mechanical properties :
#
#
# Convention : Reuss Voigt Hill
#
# Bulk Modulus (GPa) = 22.16369 28.60845 25.38607
# Shear Modulus (GPa) = 18.14317 31.06531 24.60424
#
# Velocity S-wave (km/s) = 2.75262 3.60186 3.20549
# Velocity P-wave (km/s) = 4.39983 5.40789 4.92970
#
# Compressibility (1/GPa) = 0.04511884
#
# Stress axis : x y z
#
# Youngs Moduli (GPa) = 18.31883 31.46900 61.52383
#
# Poissons Ratio (x) = 0.74786 0.43429
# Poissons Ratio (y) = 0.43535 -0.12756
# Poissons Ratio (z) = 0.12931 -0.06524
#
# Static dielectric constant tensor:
#      x y z
#    x 1.883620 -0.053210 0.049940 
#    y -0.053210 1.978770 -0.083340 
#    z 0.049940 -0.083340 1.710160 
# 
# From -- ./inp_files/78269.got.cif
#   From: 2010.05.17/outbox.cif.g08.bks.cpg/sg2_40_cif.got.tgz:78269.got - 2010.06.03 11:33:40.
