data_PCOD9033496
_publ_section_title
;
Structure prediction by ZEFSAII (Michael W. Deem and Ramdas Pophale) SiO2 
 PCOD9033496
Probable space group: P -1
;
_chemical_formula_sum "Si O2"
_cell_formula_units_Z 14
_cell_length_a 11.624857
_cell_length_b 11.669362
_cell_length_c 4.959613
_cell_angle_alpha 52.794811
_cell_angle_beta 73.246647
_cell_angle_gamma 75.069878
_cell_volume 510.046230
_symmetry_space_group_name_H-M "P -1"
_symmetry_group_IT_number 2
_symmetry_cell_setting 'triclinic'
loop_
_space_group_symop_operation_xyz
x,y,z
-x,-y,-z
loop_
_atom_site_type_symbol
_atom_site_label
_atom_site_fract_x
_atom_site_fract_y
_atom_site_fract_z
Si Si1 0.601231 0.246537 0.435318
Si Si2 0.500000 0.000000 0.500000
Si Si3 0.089100 0.494346 0.194427
Si Si4 0.396206 0.310280 0.871944
Si Si5 0.794534 0.090365 0.915407
Si Si6 0.187620 0.225602 0.778318
Si Si7 0.919031 0.188573 0.214762
Si Si8 0.500000 0.500000 0.000000
O O1 0.479467 0.342487 0.505991
O O2 0.691028 0.196627 0.687666
O O3 0.567153 0.101587 0.526218
O O4 0.614855 0.369946 0.032548
O O5 0.553492 0.850028 0.835192
O O6 0.168528 0.342916 0.389010
O O7 0.000000 0.500000 0.500000
O O8 0.139405 0.647329 0.938152
O O9 0.000000 0.500000 0.000000
O O10 0.267301 0.294191 0.848831
O O11 0.411813 0.424142 0.930162
O O12 0.909055 0.107819 0.619117
O O13 0.837768 0.120498 0.142064
O O14 0.752973 0.929869 0.149234
O O15 0.056151 0.196804 0.019552
#
# Coordination Sequence:
#
# PCOD9033496 Si02
#       8
#     2   1   2   2   2   2   2   1
#     4  11  25  44  71 105 145 193 246 306 381 440
#     4  10  22  44  68 106 142 190 242 306 372 442
#     4  10  23  47  71 100 142 190 247 304 361 436
#     4  11  24  47  73 109 144 193 248 315 377 449
#     4  12  27  45  77 105 155 194 249 307 374 450
#     4  11  25  46  74 110 148 197 253 312 375 452
#     4  11  26  48  70 108 149 200 247 305 371 447
#     4  10  26  46  72 108 146 194 246 314 378 456
#
# _framework density 27.44849
#
# number of rings (size 3 to 8) (size 9 to 14) (size 15 to 20)
#    0.000    1.143    1.429    3.429    6.000    3.429 
#   15.429    0.000    0.000    0.000    0.000    0.000 
#    0.000    0.000    0.000    0.000    0.000    0.000 
#
# Total GULP energy -78075.982669 kJ/mol
# GULP energy per Si atom -5576.855905 kJ/mol
# Density = 2.738602 g / cm^3
# Si number density = 27.448490 Si / 1000 Ang^3
#
#
#
# Elastic Constant Matrix: (Units=GPa)
#
#
# Indices 1 2 3 4 5 6 
#
# 1 151.4915 38.7926 30.8853 -4.4567 8.5267 27.2003
# 2 38.7926 175.7049 65.9224 -32.7663 7.7652 48.2742
# 3 30.8853 65.9224 129.4071 -27.8132 22.2317 1.9409
# 4 -4.4567 -32.7663 -27.8132 76.1036 -4.7910 10.9561
# 5 8.5267 7.7652 22.2317 -4.7910 50.3798 -2.6364
# 6 27.2003 48.2742 1.9409 10.9561 -2.6364 44.4983
#
#
#
# Elastic Compliance Matrix: (Units=1/GPa)
#
#
# Indices 1 2 3 4 5 6 
#
# 1 0.007908 0.000761 -0.001845 0.000905 -0.000862 -0.005853
# 2 0.000761 0.012922 -0.005238 0.005954 -0.000066 -0.015725
# 3 -0.001845 -0.005238 0.011530 0.000775 -0.003586 0.005903
# 4 0.000905 0.005954 0.000775 0.017662 -0.000331 -0.011414
# 5 -0.000862 -0.000066 -0.003586 -0.000331 0.021667 0.002120
# 6 -0.005853 -0.015725 0.005903 -0.011414 0.002120 0.045788
#
#
# Mechanical properties :
#
#
# Convention : Reuss Voigt Hill
#
# Bulk Modulus (GPa) = 50.71540 80.86710 65.79125
# Shear Modulus (GPa) = 36.57836 55.59657 46.08746
#
# Velocity S-wave (km/s) = 3.65446 4.50542 4.10207
# Velocity P-wave (km/s) = 6.02690 7.52267 6.81594
#
# Compressibility (1/GPa) = 0.01971788
#
# Stress axis : x y z
#
# Youngs Moduli (GPa) = 126.44901 77.38781 86.72988
#
# Poissons Ratio (x) = -0.05890 0.16000
# Poissons Ratio (y) = -0.09625 0.45425
# Poissons Ratio (z) = 0.23328 0.40532
#
# Static dielectric constant tensor:
#      x y z
#    x 2.259950 -0.169730 0.012860 
#    y -0.169730 2.133580 0.023650 
#    z 0.012860 0.023650 2.108250 
# 
# From -- ./inp_files/68137.got.cif
#   From: 2010.05.17/outbox.cif.g08.bks.cpg/sg2_35_cif.got.tgz:68137.got - 2010.06.03 11:33:40.
