data_PCOD9033358
_publ_section_title
;
Structure prediction by ZEFSAII (Michael W. Deem and Ramdas Pophale) SiO2 
 PCOD9033358
Probable space group: P -1
;
_chemical_formula_sum "Si O2"
_cell_formula_units_Z 16
_cell_length_a 14.696822
_cell_length_b 9.019993
_cell_length_c 11.947539
_cell_angle_alpha 141.536726
_cell_angle_beta 109.868515
_cell_angle_gamma 50.186749
_cell_volume 712.204202
_symmetry_space_group_name_H-M "P -1"
_symmetry_group_IT_number 2
_symmetry_cell_setting 'triclinic'
loop_
_space_group_symop_operation_xyz
x,y,z
-x,-y,-z
loop_
_atom_site_type_symbol
_atom_site_label
_atom_site_fract_x
_atom_site_fract_y
_atom_site_fract_z
Si Si1 0.676137 0.608618 0.126024
Si Si2 0.018312 0.389367 0.743693
Si Si3 0.495460 0.665338 0.484867
Si Si4 0.047947 0.814195 0.116366
Si Si5 0.423046 0.344892 0.123676
Si Si6 0.094485 0.512553 0.619580
Si Si7 0.644126 0.695369 0.406825
Si Si8 0.845966 0.272786 0.649261
O O1 0.677154 0.505641 0.192139
O O2 0.617421 0.966889 0.328676
O O3 0.816331 0.380105 0.001312
O O4 0.593591 0.632809 0.004138
O O5 0.066220 0.460738 0.699718
O O6 0.888256 0.448232 0.709616
O O7 0.119850 0.016210 0.576863
O O8 0.006240 0.608613 0.961814
O O9 0.500000 0.500000 0.500000
O O10 0.474691 0.515088 0.286238
O O11 0.623310 0.598199 0.459855
O O12 0.069158 0.857194 0.278660
O O13 0.950846 0.146380 0.215601
O O14 0.291521 0.522358 0.238338
O O15 0.500000 0.000000 0.000000
O O16 0.244600 0.283418 0.523469
O O17 0.000000 0.500000 0.500000
O O18 0.500000 0.000000 0.500000
#
# Coordination Sequence:
#
# PCOD9033358 Si02
#       8
#     2   2   2   2   2   2   2   2
#     4  10  22  44  67  96 136 180 232 287 350 411
#     4  11  22  43  66  94 137 178 224 284 345 404
#     4  11  23  44  69  96 137 184 228 292 344 420
#     4  11  22  42  68  96 133 181 227 283 348 410
#     4  11  23  41  66 100 137 179 237 283 345 417
#     4  12  25  45  70 103 141 182 235 291 342 419
#     4  10  25  45  69 101 137 184 234 279 356 419
#     4  10  24  41  66 102 132 179 229 288 346 408
#
# _framework density 22.465467
#
# number of rings (size 3 to 8) (size 9 to 14) (size 15 to 20)
#    0.000    1.250    3.750    1.500    1.750    2.500 
#    2.250    0.000    0.000    0.000    0.000    0.000 
#    0.000    0.000    0.000    0.000    0.000    0.000 
#
# Total GULP energy -89265.445941 kJ/mol
# GULP energy per Si atom -5579.090371 kJ/mol
# Density = 2.241433 g / cm^3
# Si number density = 22.465467 Si / 1000 Ang^3
#
#
#
# Elastic Constant Matrix: (Units=GPa)
#
#
# Indices 1 2 3 4 5 6 
#
# 1 122.8101 31.3555 11.1101 -2.5869 -4.9733 15.6498
# 2 31.3555 60.1377 11.3086 -0.9435 -0.0088 4.6351
# 3 11.1101 11.3086 80.7602 8.7805 9.3022 -0.8951
# 4 -2.5869 -0.9435 8.7805 32.7050 -0.2482 0.2074
# 5 -4.9733 -0.0088 9.3022 -0.2482 33.1715 -11.5211
# 6 15.6498 4.6351 -0.8951 0.2074 -11.5211 33.9597
#
#
#
# Elastic Compliance Matrix: (Units=1/GPa)
#
#
# Indices 1 2 3 4 5 6 
#
# 1 0.009951 -0.004709 -0.000900 0.000920 0.000420 -0.003830
# 2 -0.004709 0.019551 -0.002143 0.000769 -0.000327 -0.000670
# 3 -0.000900 -0.002143 0.013694 -0.003839 -0.004109 -0.000302
# 4 0.000920 0.000769 -0.003839 0.031714 0.001322 -0.000376
# 5 0.000420 -0.000327 -0.004109 0.001322 0.035457 0.011764
# 6 -0.003830 -0.000670 -0.000302 -0.000376 0.011764 0.035288
#
#
# Mechanical properties :
#
#
# Convention : Reuss Voigt Hill
#
# Bulk Modulus (GPa) = 36.11478 41.25070 38.68274
# Shear Modulus (GPa) = 29.34433 33.96284 31.65358
#
# Velocity S-wave (km/s) = 3.61806 3.89238 3.75772
# Velocity P-wave (km/s) = 5.79348 6.21309 6.00695
#
# Compressibility (1/GPa) = 0.02768949
#
# Stress axis : x y z
#
# Youngs Moduli (GPa) = 100.49324 51.14934 73.02673
#
# Poissons Ratio (x) = 0.24088 0.06575
# Poissons Ratio (y) = 0.47326 0.15650
# Poissons Ratio (z) = 0.09048 0.10962
#
# Static dielectric constant tensor:
#      x y z
#    x 1.894210 0.013730 0.027430 
#    y 0.013730 1.913010 -0.043820 
#    z 0.027430 -0.043820 1.835110 
# 
# From -- ./inp_files/448375.got.cif
#   From: 2010.05.17/outbox.cif.g08.bks.cpg/sg2_225_cif.got.tgz:448375.got - 2010.06.03 11:33:40.
