data_PCOD9033124
_publ_section_title
;
Structure prediction by ZEFSAII (Michael W. Deem and Ramdas Pophale) SiO2 
 PCOD9033124
Probable space group: P -1
;
_chemical_formula_sum "Si O2"
_cell_formula_units_Z 16
_cell_length_a 11.840813
_cell_length_b 5.212746
_cell_length_c 13.900118
_cell_angle_alpha 99.122940
_cell_angle_beta 45.078949
_cell_angle_gamma 99.795219
_cell_volume 597.739670
_symmetry_space_group_name_H-M "P -1"
_symmetry_group_IT_number 2
_symmetry_cell_setting 'triclinic'
loop_
_space_group_symop_operation_xyz
x,y,z
-x,-y,-z
loop_
_atom_site_type_symbol
_atom_site_label
_atom_site_fract_x
_atom_site_fract_y
_atom_site_fract_z
Si Si1 0.930211 0.007288 0.887896
Si Si2 0.152567 0.328614 0.903530
Si Si3 0.633340 0.874997 0.794320
Si Si4 0.792848 0.538005 0.444966
Si Si5 0.104430 0.328926 0.284924
Si Si6 0.362939 0.629383 0.652236
Si Si7 0.399915 0.962110 0.384985
Si Si8 0.317824 0.686085 0.045019
O O1 0.968173 0.904337 0.753030
O O2 0.810815 0.228940 0.949727
O O3 0.839440 0.803956 0.005078
O O4 0.091844 0.100729 0.851575
O O5 0.308071 0.487183 0.775648
O O6 0.000000 0.500000 0.000000
O O7 0.805078 0.754997 0.679955
O O8 0.584290 0.022034 0.737872
O O9 0.656719 0.075883 0.880266
O O10 0.487538 0.662946 0.892654
O O11 0.788553 0.429920 0.330909
O O12 0.724354 0.818045 0.506172
O O13 0.967604 0.524280 0.384158
O O14 0.672502 0.320279 0.556622
O O15 0.246205 0.452023 0.138860
O O16 0.500000 0.500000 0.500000
O O17 0.439922 0.918020 0.649555
#
# Coordination Sequence:
#
# PCOD9033124 Si02
#       8
#     2   2   2   2   2   2   2   2
#     4  10  23  38  68 102 138 181 228 295 347 428
#     4  11  23  42  65 107 138 180 236 290 353 421
#     4  10  25  43  68 100 136 181 235 292 352 418
#     4  11  26  47  73 101 141 186 237 289 357 417
#     4  11  24  43  72  93 141 180 231 292 357 422
#     4  10  24  45  69  98 145 188 229 289 360 427
#     4  11  27  46  71 105 137 189 236 292 343 432
#     4  10  22  44  66 101 136 181 229 290 363 412
#
# _framework density 26.767503999999999
#
# number of rings (size 3 to 8) (size 9 to 14) (size 15 to 20)
#    0.000    1.500    0.000    3.000   12.250    3.000 
#    4.500    0.000    0.000    0.000    0.000    0.000 
#    0.000    0.000    0.000    0.000    0.000    0.000 
#
# Total GULP energy -89632.713686 kJ/mol
# GULP energy per Si atom -5602.044605 kJ/mol
# Density = 2.670658 g / cm^3
# Si number density = 26.767504 Si / 1000 Ang^3
#
#
#
# Elastic Constant Matrix: (Units=GPa)
#
#
# Indices 1 2 3 4 5 6 
#
# 1 109.0388 5.3216 19.1547 13.4553 0.8373 -8.0159
# 2 5.3216 64.0610 24.6476 -3.6880 -5.5259 -5.8954
# 3 19.1547 24.6476 114.8881 -24.3884 6.1151 4.2423
# 4 13.4553 -3.6880 -24.3884 45.5050 -7.1081 -2.4468
# 5 0.8373 -5.5259 6.1151 -7.1081 28.9721 -1.5911
# 6 -8.0159 -5.8954 4.2423 -2.4468 -1.5911 35.1566
#
#
#
# Elastic Compliance Matrix: (Units=1/GPa)
#
#
# Indices 1 2 3 4 5 6 
#
# 1 0.010390 0.000101 -0.002766 -0.004525 -0.000677 0.002374
# 2 0.000101 0.017975 -0.004239 0.000067 0.004543 0.003759
# 3 -0.002766 -0.004239 0.011590 0.006282 -0.001765 -0.002383
# 4 -0.004525 0.000067 0.006282 0.027583 0.005606 0.000395
# 5 -0.000677 0.004543 -0.001765 0.005606 0.037309 0.002899
# 6 0.002374 0.003759 -0.002383 0.000395 0.002899 0.030062
#
#
# Mechanical properties :
#
#
# Convention : Reuss Voigt Hill
#
# Bulk Modulus (GPa) = 38.24751 42.91507 40.58129
# Shear Modulus (GPa) = 31.75943 37.85102 34.80523
#
# Velocity S-wave (km/s) = 3.44829 3.76449 3.60985
# Velocity P-wave (km/s) = 5.49309 5.91291 5.70686
#
# Compressibility (1/GPa) = 0.02614549
#
# Stress axis : x y z
#
# Youngs Moduli (GPa) = 96.24556 55.63435 86.27897
#
# Poissons Ratio (x) = -0.00560 0.23865
# Poissons Ratio (y) = -0.00969 0.36577
# Poissons Ratio (z) = 0.26622 0.23586
#
# Static dielectric constant tensor:
#      x y z
#    x 2.102950 0.011450 -0.028540 
#    y 0.011450 2.162100 0.037360 
#    z -0.028540 0.037360 2.061650 
# 
# From -- ./inp_files/81143.got.cif
#   From: 2010.05.17/outbox.cif.g08.bks.cpg/sg2_41_cif.got.tgz:81143.got - 2010.06.03 11:33:40.
