data_PCOD9033499
_publ_section_title
;
Structure prediction by ZEFSAII (Michael W. Deem and Ramdas Pophale) SiO2 
 PCOD9033499
Probable space group: P -1
;
_chemical_formula_sum "Si O2"
_cell_formula_units_Z 15
_cell_length_a 6.471257
_cell_length_b 13.300618
_cell_length_c 9.526348
_cell_angle_alpha 81.923142
_cell_angle_beta 121.642467
_cell_angle_gamma 116.797309
_cell_volume 618.094392
_symmetry_space_group_name_H-M "P -1"
_symmetry_group_IT_number 2
_symmetry_cell_setting 'triclinic'
loop_
_space_group_symop_operation_xyz
x,y,z
-x,-y,-z
loop_
_atom_site_type_symbol
_atom_site_label
_atom_site_fract_x
_atom_site_fract_y
_atom_site_fract_z
Si Si1 0.414367 0.381311 0.567638
Si Si2 0.396791 0.878294 0.317468
Si Si3 0.192746 0.326593 0.800549
Si Si4 0.397948 0.115107 0.307868
Si Si5 0.000000 0.000000 0.000000
Si Si6 0.892713 0.272683 0.271762
Si Si7 0.541199 0.834232 0.073766
Si Si8 0.994582 0.518836 0.159464
O O1 0.500000 0.500000 0.500000
O O2 0.255760 0.374376 0.655877
O O3 0.704543 0.387685 0.703677
O O4 0.191664 0.285550 0.409572
O O5 0.585277 0.896911 0.517526
O O6 0.524536 0.857513 0.226639
O O7 0.102357 0.779261 0.267957
O O8 0.346658 0.989841 0.252508
O O9 0.401850 0.274638 0.907501
O O10 0.199935 0.424987 0.883115
O O11 0.159940 0.119812 0.132311
O O12 0.684713 0.209760 0.336268
O O13 0.218311 0.061690 0.936658
O O14 0.928851 0.400636 0.236709
O O15 0.742849 0.199624 0.097831
O O16 0.000000 0.500000 0.000000
#
# Coordination Sequence:
#
# PCOD9033499 Si02
#       8
#     2   2   2   2   1   2   2   2
#     4  10  23  43  69 101 140 184 236 286 352 411
#     4  11  23  44  72 103 138 192 230 290 357 423
#     4  12  23  46  71 101 145 183 235 290 345 430
#     4  10  22  45  71 102 144 180 237 292 353 421
#     4  10  22  44  68 108 138 184 234 292 344 416
#     4  10  22  44  70 104 143 181 234 292 351 414
#     4  11  25  45  72 105 144 186 236 288 354 422
#     4  11  25  46  71 104 140 190 236 287 356 422
#
# _framework density 24.268141
#
# number of rings (size 3 to 8) (size 9 to 14) (size 15 to 20)
#    0.000    1.333    2.667    2.400    0.000    6.933 
#    4.800    5.333    0.000    0.000    0.000    0.000 
#    0.000    0.000    0.000    0.000    0.000    0.000 
#
# Total GULP energy -83690.124305 kJ/mol
# GULP energy per Si atom -5579.341620 kJ/mol
# Density = 2.421291 g / cm^3
# Si number density = 24.268141 Si / 1000 Ang^3
#
#
#
# Elastic Constant Matrix: (Units=GPa)
#
#
# Indices 1 2 3 4 5 6 
#
# 1 118.5129 59.9347 50.0018 2.6238 -10.8814 5.4142
# 2 59.9347 128.6988 12.7874 -13.6087 -13.7001 32.8411
# 3 50.0018 12.7874 121.9539 8.1095 -13.6582 23.8685
# 4 2.6238 -13.6087 8.1095 37.7958 26.2324 2.3853
# 5 -10.8814 -13.7001 -13.6582 26.2324 36.1817 6.2615
# 6 5.4142 32.8411 23.8685 2.3853 6.2615 54.1956
#
#
#
# Elastic Compliance Matrix: (Units=1/GPa)
#
#
# Indices 1 2 3 4 5 6 
#
# 1 0.015182 -0.008422 -0.006371 -0.003290 0.000230 0.006511
# 2 -0.008422 0.014749 0.004428 0.002125 0.005038 -0.010722
# 3 -0.006371 0.004428 0.014605 -0.010690 0.014705 -0.009708
# 4 -0.003290 0.002125 -0.010690 0.066576 -0.053705 0.007024
# 5 0.000230 0.005038 0.014705 -0.053705 0.076885 -0.016072
# 6 0.006511 -0.010722 -0.009708 0.007024 -0.016072 0.030122
#
#
# Mechanical properties :
#
#
# Convention : Reuss Voigt Hill
#
# Bulk Modulus (GPa) = 42.00599 68.29037 55.14818
# Shear Modulus (GPa) = 20.26057 42.06405 31.16231
#
# Velocity S-wave (km/s) = 2.89253 4.16781 3.58730
# Velocity P-wave (km/s) = 5.33876 7.16672 6.31919
#
# Compressibility (1/GPa) = 0.02380613
#
# Stress axis : x y z
#
# Youngs Moduli (GPa) = 65.86904 67.80021 68.46768
#
# Poissons Ratio (x) = 0.57100 0.43622
# Poissons Ratio (y) = 0.55474 -0.30317
# Poissons Ratio (z) = 0.41967 -0.30022
#
# Static dielectric constant tensor:
#      x y z
#    x 1.809600 0.004240 -0.164310 
#    y 0.004240 1.899710 0.074390 
#    z -0.164310 0.074390 1.587880 
# 
# From -- ./inp_files/135422.got.cif
#   From: 2010.05.17/outbox.cif.g08.bks.cpg/sg2_68_cif.got.tgz:135422.got - 2010.06.03 11:33:40.
