data_PCOD9033787
_publ_section_title
;
Structure prediction by ZEFSAII (Michael W. Deem and Ramdas Pophale) SiO2 
 PCOD9033787
Probable space group: P -1
;
_chemical_formula_sum "Si O2"
_cell_formula_units_Z 16
_cell_length_a 9.478139
_cell_length_b 15.962114
_cell_length_c 8.356781
_cell_angle_alpha 98.574519
_cell_angle_beta 49.952060
_cell_angle_gamma 69.098013
_cell_volume 767.001667
_symmetry_space_group_name_H-M "P -1"
_symmetry_group_IT_number 2
_symmetry_cell_setting 'triclinic'
loop_
_space_group_symop_operation_xyz
x,y,z
-x,-y,-z
loop_
_atom_site_type_symbol
_atom_site_label
_atom_site_fract_x
_atom_site_fract_y
_atom_site_fract_z
Si Si1 0.068626 0.459150 0.117577
Si Si2 0.945640 0.223836 0.473855
Si Si3 0.480612 0.735717 0.402517
Si Si4 0.759819 0.028069 0.241652
Si Si5 0.279177 0.582457 0.084392
Si Si6 0.550245 0.572620 0.579250
Si Si7 0.847361 0.974485 0.511964
Si Si8 0.617753 0.929315 0.054412
O O1 0.162786 0.524138 0.122074
O O2 0.828229 0.498733 0.390844
O O3 0.285305 0.336076 0.895248
O O4 0.000000 0.500000 0.000000
O O5 0.728484 0.240067 0.550226
O O6 0.877778 0.322481 0.653331
O O7 0.070410 0.130702 0.486587
O O8 0.141855 0.180638 0.185566
O O9 0.411198 0.847035 0.554903
O O10 0.501189 0.664892 0.520028
O O11 0.846927 0.958755 0.319824
O O12 0.655686 0.992396 0.176752
O O13 0.000000 0.000000 0.000000
O O14 0.500000 0.500000 0.000000
O O15 0.377397 0.609864 0.868378
O O16 0.500000 0.500000 0.500000
O O17 0.584544 0.077140 0.751303
O O18 0.000000 0.000000 0.500000
O O19 0.500000 0.000000 0.000000
#
# Coordination Sequence:
#
# PCOD9033787 Si02
#       8
#     2   2   2   2   2   2   2   2
#     4  10  22  44  69  99 135 174 223 284 337 411
#     4  11  23  44  67  96 138 179 219 284 343 398
#     4  11  22  44  69  99 133 176 226 279 347 408
#     4  12  23  42  69  99 133 180 225 280 340 403
#     4  12  24  44  68 102 140 173 227 286 340 407
#     4  11  23  45  71  97 137 180 223 284 344 408
#     4  11  23  44  66  96 139 176 227 286 336 401
#     4  10  23  44  65  95 139 177 228 281 332 406
#
# _framework density 20.860451999999999
#
# number of rings (size 3 to 8) (size 9 to 14) (size 15 to 20)
#    0.000    1.000    6.250    1.125    1.750    4.500 
#    6.750    0.000    0.000    0.000    0.000    0.000 
#    0.000    0.000    0.000    0.000    0.000    0.000 
#
# Total GULP energy -89095.430189 kJ/mol
# GULP energy per Si atom -5568.464387 kJ/mol
# Density = 2.081297 g / cm^3
# Si number density = 20.860452 Si / 1000 Ang^3
#
#
#
# Elastic Constant Matrix: (Units=GPa)
#
#
# Indices 1 2 3 4 5 6 
#
# 1 176.8187 30.9904 71.5277 13.6872 -3.4124 14.7998
# 2 30.9904 72.6562 34.5443 17.8241 4.5857 -0.6222
# 3 71.5277 34.5443 144.1515 27.2576 -11.6129 20.0399
# 4 13.6872 17.8241 27.2576 41.4354 3.5440 9.2268
# 5 -3.4124 4.5857 -11.6129 3.5440 44.0178 1.5306
# 6 14.7998 -0.6222 20.0399 9.2268 1.5306 40.4684
#
#
#
# Elastic Compliance Matrix: (Units=1/GPa)
#
#
# Indices 1 2 3 4 5 6 
#
# 1 0.007297 -0.001798 -0.003157 0.000736 -0.000094 -0.001298
# 2 -0.001798 0.017500 -0.002957 -0.005620 -0.002421 0.003764
# 3 -0.003157 -0.002957 0.010766 -0.004305 0.003367 -0.003368
# 4 0.000736 -0.005620 -0.004305 0.030507 -0.002773 -0.005075
# 5 -0.000094 -0.002421 0.003367 -0.002773 0.024142 -0.001951
# 6 -0.001298 0.003764 -0.003368 -0.005075 -0.001951 0.028142
#
#
# Mechanical properties :
#
#
# Convention : Reuss Voigt Hill
#
# Bulk Modulus (GPa) = 50.65873 74.19456 62.42665
# Shear Modulus (GPa) = 35.52215 42.28862 38.90538
#
# Velocity S-wave (km/s) = 4.13103 4.50734 4.32329
# Velocity P-wave (km/s) = 6.86230 7.92039 7.41025
#
# Compressibility (1/GPa) = 0.01973993
#
# Stress axis : x y z
#
# Youngs Moduli (GPa) = 137.03789 57.14313 92.88796
#
# Poissons Ratio (x) = 0.10272 0.29320
# Poissons Ratio (y) = 0.24633 0.27470
# Poissons Ratio (z) = 0.43256 0.16899
#
# Static dielectric constant tensor:
#      x y z
#    x 1.679020 0.028500 -0.041420 
#    y 0.028500 1.819510 -0.102970 
#    z -0.041420 -0.102970 1.885340 
# 
# From -- ./inp_files/207527.got.cif
#   From: 2010.05.17/outbox.cif.g08.bks.cpg/sg2_104_cif.got.tgz:207527.got - 2010.06.03 11:33:40.
