data_PCOD9033849
_publ_section_title
;
Structure prediction by ZEFSAII (Michael W. Deem and Ramdas Pophale) SiO2 
 PCOD9033849
Probable space group: P -1
;
_chemical_formula_sum "Si O2"
_cell_formula_units_Z 16
_cell_length_a 15.184478
_cell_length_b 5.449699
_cell_length_c 14.123771
_cell_angle_alpha 81.499122
_cell_angle_beta 43.961727
_cell_angle_gamma 62.633788
_cell_volume 688.029603
_symmetry_space_group_name_H-M "P -1"
_symmetry_group_IT_number 2
_symmetry_cell_setting 'triclinic'
loop_
_space_group_symop_operation_xyz
x,y,z
-x,-y,-z
loop_
_atom_site_type_symbol
_atom_site_label
_atom_site_fract_x
_atom_site_fract_y
_atom_site_fract_z
Si Si1 0.407494 0.370717 0.998726
Si Si2 0.059188 0.671191 0.004913
Si Si3 0.660456 0.389581 0.272671
Si Si4 0.885708 0.614809 0.836573
Si Si5 0.182101 0.439639 0.526114
Si Si6 0.334876 0.898338 0.891775
Si Si7 0.389115 0.212758 0.213353
Si Si8 0.689556 0.222475 0.474200
O O1 0.257782 0.353132 0.104684
O O2 0.405540 0.414144 0.111114
O O3 0.379722 0.599815 0.927128
O O4 0.559354 0.078072 0.869774
O O5 0.235292 0.507658 0.858911
O O6 0.037599 0.655368 0.134659
O O7 0.000000 0.500000 0.000000
O O8 0.000000 0.000000 0.000000
O O9 0.683525 0.128789 0.202626
O O10 0.711224 0.286205 0.345556
O O11 0.487730 0.619934 0.387949
O O12 0.007303 0.605207 0.673607
O O13 0.813842 0.877276 0.952075
O O14 0.237556 0.380772 0.377858
O O15 0.248712 0.618649 0.515362
O O16 0.244589 0.114820 0.536549
O O17 0.479112 0.912928 0.804127
#
# Coordination Sequence:
#
# PCOD9033849 Si02
#       8
#     2   2   2   2   2   2   2   2
#     4  10  22  44  70 103 132 177 237 290 344 413
#     4  12  25  41  65  96 136 181 224 272 333 401
#     4  11  23  43  70  99 136 183 233 278 346 405
#     4  11  26  40  67  98 142 179 233 283 343 416
#     4  12  26  47  66 101 143 183 226 285 346 406
#     4  11  21  43  69 102 134 180 233 289 340 413
#     4  10  23  42  72 100 135 179 233 290 352 404
#     4  11  27  43  69 101 140 179 231 287 336 413
#
# _framework density 23.254812000000001
#
# number of rings (size 3 to 8) (size 9 to 14) (size 15 to 20)
#    0.000    1.000    2.500    3.375    3.500    4.500 
#    0.000    0.625    0.000    0.000    0.000    0.000 
#    0.000    0.000    0.000    0.000    0.000    0.000 
#
# Total GULP energy -89406.260179 kJ/mol
# GULP energy per Si atom -5587.891261 kJ/mol
# Density = 2.320188 g / cm^3
# Si number density = 23.254812 Si / 1000 Ang^3
#
#
#
# Elastic Constant Matrix: (Units=GPa)
#
#
# Indices 1 2 3 4 5 6 
#
# 1 72.7230 1.3658 3.9191 1.4743 8.6329 8.9622
# 2 1.3658 82.6684 -3.3768 2.8783 4.5345 1.5913
# 3 3.9191 -3.3768 156.4359 -2.8176 10.0783 -2.6297
# 4 1.4743 2.8783 -2.8176 35.5010 -3.6020 0.4490
# 5 8.6329 4.5345 10.0783 -3.6020 37.5645 -1.4709
# 6 8.9622 1.5913 -2.6297 0.4490 -1.4709 25.8023
#
#
#
# Elastic Compliance Matrix: (Units=1/GPa)
#
#
# Indices 1 2 3 4 5 6 
#
# 1 0.014881 0.000082 -0.000243 -0.000948 -0.003667 -0.005391
# 2 0.000082 0.012259 0.000340 -0.001136 -0.001731 -0.000829
# 3 -0.000243 0.000340 0.006531 0.000322 -0.001682 0.000627
# 4 -0.000948 -0.001136 0.000322 0.028630 0.003018 0.000106
# 5 -0.003667 -0.001731 -0.001682 0.003018 0.028522 0.002782
# 6 -0.005391 -0.000829 0.000627 0.000106 0.002782 0.040901
#
#
# Mechanical properties :
#
#
# Convention : Reuss Voigt Hill
#
# Bulk Modulus (GPa) = 29.38589 35.07149 32.22869
# Shear Modulus (GPa) = 35.03641 40.43484 37.73562
#
# Velocity S-wave (km/s) = 3.88574 4.17438 4.03265
# Velocity P-wave (km/s) = 5.72677 6.19258 5.96423
#
# Compressibility (1/GPa) = 0.03402994
#
# Stress axis : x y z
#
# Youngs Moduli (GPa) = 67.19885 81.56941 153.12739
#
# Poissons Ratio (x) = -0.00670 0.03713
# Poissons Ratio (y) = -0.00552 -0.05202
# Poissons Ratio (z) = 0.01630 -0.02771
#
# Static dielectric constant tensor:
#      x y z
#    x 1.934330 0.037740 -0.006410 
#    y 0.037740 1.977160 0.014890 
#    z -0.006410 0.014890 1.874290 
# 
# From -- ./inp_files/39339.got.cif
#   From: 2010.05.17/outbox.cif.g08.bks.cpg/sg2_20_cif.got.tgz:39339.got - 2010.06.03 11:33:40.
