data_PCOD9033970
_publ_section_title
;
Structure prediction by ZEFSAII (Michael W. Deem and Ramdas Pophale) SiO2 
 PCOD9033970
Probable space group: P -1
;
_chemical_formula_sum "Si O2"
_cell_formula_units_Z 16
_cell_length_a 23.481060
_cell_length_b 13.845254
_cell_length_c 16.987186
_cell_angle_alpha 28.098415
_cell_angle_beta 157.932039
_cell_angle_gamma 162.284461
_cell_volume 631.351122
_symmetry_space_group_name_H-M "P -1"
_symmetry_group_IT_number 2
_symmetry_cell_setting 'triclinic'
loop_
_space_group_symop_operation_xyz
x,y,z
-x,-y,-z
loop_
_atom_site_type_symbol
_atom_site_label
_atom_site_fract_x
_atom_site_fract_y
_atom_site_fract_z
Si Si1 0.342858 0.263307 0.794508
Si Si2 0.577016 0.767578 0.846910
Si Si3 0.996129 0.138235 0.207455
Si Si4 0.662392 0.257892 0.184822
Si Si5 0.531317 0.403083 0.445111
Si Si6 0.050484 0.796814 0.417581
Si Si7 0.144632 0.305662 0.022591
Si Si8 0.771971 0.226126 0.590970
O O1 0.558160 0.621067 0.847776
O O2 0.132388 0.070474 0.725979
O O3 0.338201 0.332477 0.648798
O O4 0.422640 0.109881 0.012500
O O5 0.402701 0.777012 0.600420
O O6 0.500000 0.500000 0.000000
O O7 0.808769 0.086097 0.959125
O O8 0.034450 0.998107 0.292712
O O9 0.255593 0.470211 0.324018
O O10 0.875031 0.581091 0.275169
O O11 0.698831 0.382703 0.054674
O O12 0.702419 0.057902 0.386788
O O13 0.382658 0.075944 0.446340
O O14 0.340855 0.360091 0.273586
O O15 0.942274 0.534765 0.532852
O O16 0.949902 0.259360 0.843216
O O17 0.000000 0.000000 0.000000
#
# Coordination Sequence:
#
# PCOD9033970 Si02
#       8
#     2   2   2   2   2   2   2   2
#     4  10  18  35  53  81 111 152 183 226 267 338
#     4  10  18  32  57  78 103 143 188 224 264 321
#     4  11  20  35  56  84 118 141 177 240 284 315
#     4   9  17  29  56  83  97 141 200 221 254 323
#     4  10  22  34  55  83 116 148 178 228 290 327
#     4  10  17  32  56  83 103 142 191 233 259 323
#     4   8  17  34  54  78 107 145 183 219 266 332
#     4  10  18  35  56  82 104 151 190 224 266 338
#
# _framework density 25.342476000000001
#
# number of rings (size 3 to 8) (size 9 to 14) (size 15 to 20)
#    0.000    2.250    3.750    1.125    0.000    1.000 
#    0.000    5.625    0.000   12.000    0.000    0.000 
#    0.000    0.000    0.000    0.000    0.000    0.000 
#
# Total GULP energy -89164.208166 kJ/mol
# GULP energy per Si atom -5572.763010 kJ/mol
# Density = 2.528480 g / cm^3
# Si number density = 25.342476 Si / 1000 Ang^3
#
#
#
# Elastic Constant Matrix: (Units=GPa)
#
#
# Indices 1 2 3 4 5 6 
#
# 1 55.0028 10.9078 35.7221 -7.7026 9.9818 18.2462
# 2 10.9078 27.1994 26.8104 8.8059 0.4620 12.1572
# 3 35.7221 26.8104 159.1590 -2.2178 25.0655 -4.2928
# 4 -7.7026 8.8059 -2.2178 45.1495 -7.3422 1.4581
# 5 9.9818 0.4620 25.0655 -7.3422 29.4590 -9.2715
# 6 18.2462 12.1572 -4.2928 1.4581 -9.2715 19.1621
#
#
#
# Elastic Compliance Matrix: (Units=1/GPa)
#
#
# Indices 1 2 3 4 5 6 
#
# 1 0.074611 0.052096 -0.021181 -0.002397 -0.050572 -0.133129
# 2 0.052096 0.119934 -0.028710 -0.018789 -0.048273 -0.154056
# 3 -0.021181 -0.028710 0.015652 0.002818 0.009589 0.046315
# 4 -0.002397 -0.018789 0.002818 0.026760 0.011096 0.018167
# 5 -0.050572 -0.048273 0.009589 0.011096 0.084521 0.120981
# 6 -0.133129 -0.154056 0.046315 0.018167 0.120981 0.344221
#
#
# Mechanical properties :
#
#
# Convention : Reuss Voigt Hill
#
# Bulk Modulus (GPa) = 4.65969 43.13796 23.89882
# Shear Modulus (GPa) = 6.82291 29.94884 18.38588
#
# Velocity S-wave (km/s) = 1.64260 3.44141 2.69643
# Velocity P-wave (km/s) = 2.33242 5.73149 4.37551
#
# Compressibility (1/GPa) = 0.21460669
#
# Stress axis : x y z
#
# Youngs Moduli (GPa) = 13.40286 8.33792 63.89160
#
# Poissons Ratio (x) = -0.43437 1.35329
# Poissons Ratio (y) = -0.69824 1.83433
# Poissons Ratio (z) = 0.28389 0.23938
#
# Static dielectric constant tensor:
#      x y z
#    x 2.135990 0.051600 0.103590 
#    y 0.051600 2.009910 -0.016260 
#    z 0.103590 -0.016260 2.183600 
# 
# From -- ./inp_files/267904.got.cif
#   From: 2010.05.17/outbox.cif.g08.bks.cpg/sg2_134_cif.got.tgz:267904.got - 2010.06.03 11:33:40.
