data_PCOD9033593
_publ_section_title
;
Structure prediction by ZEFSAII (Michael W. Deem and Ramdas Pophale) SiO2 
 PCOD9033593
Probable space group: P -1
;
_chemical_formula_sum "Si O2"
_cell_formula_units_Z 14
_cell_length_a 9.252961
_cell_length_b 8.159056
_cell_length_c 12.719019
_cell_angle_alpha 119.982828
_cell_angle_beta 62.693046
_cell_angle_gamma 79.653853
_cell_volume 626.138722
_symmetry_space_group_name_H-M "P -1"
_symmetry_group_IT_number 2
_symmetry_cell_setting 'triclinic'
loop_
_space_group_symop_operation_xyz
x,y,z
-x,-y,-z
loop_
_atom_site_type_symbol
_atom_site_label
_atom_site_fract_x
_atom_site_fract_y
_atom_site_fract_z
Si Si1 0.534310 0.765264 0.061131
Si Si2 0.928662 0.383969 0.907784
Si Si3 0.418549 0.854044 0.896486
Si Si4 0.946116 0.948339 0.804323
Si Si5 0.333197 0.600642 0.672284
Si Si6 0.160569 0.011369 0.379840
Si Si7 0.292320 0.184530 0.580199
O O1 0.356572 0.791205 0.197365
O O2 0.501436 0.014064 0.150055
O O3 0.737322 0.579568 0.979700
O O4 0.524828 0.729457 0.928275
O O5 0.111957 0.229354 0.723720
O O6 0.886061 0.205588 0.912831
O O7 0.000000 0.500000 0.000000
O O8 0.395538 0.691746 0.776930
O O9 0.212998 0.055230 0.073064
O O10 0.148496 0.802544 0.743581
O O11 0.940322 0.880197 0.663956
O O12 0.500000 0.500000 0.500000
O O13 0.288470 0.413081 0.655538
O O14 0.245639 0.122045 0.462346
O O15 0.000000 0.000000 0.500000
O O16 0.500000 0.000000 0.500000
#
# Coordination Sequence:
#
# PCOD9033593 Si02
#       7
#     2   2   2   2   2   2   2
#     4  10  23  42  72 100 133 184 227 276 343 398
#     4  12  23  40  66 102 134 176 231 276 332 405
#     4  10  22  44  68  98 138 173 225 281 333 412
#     4  11  24  43  66  97 135 179 223 275 344 396
#     4  12  25  41  67  99 136 179 223 279 342 403
#     4  11  24  46  69  98 140 176 226 287 333 408
#     4  12  26  44  68  98 137 181 224 282 341 402
#
# _framework density 22.359262999999999
#
# number of rings (size 3 to 8) (size 9 to 14) (size 15 to 20)
#    0.000    0.857    1.429    5.571    0.000    5.143 
#    0.000    0.000    0.000    0.000    0.000    0.000 
#    0.000    0.000    0.000    0.000    0.000    0.000 
#
# Total GULP energy -78252.723030 kJ/mol
# GULP energy per Si atom -5589.480216 kJ/mol
# Density = 2.230837 g / cm^3
# Si number density = 22.359263 Si / 1000 Ang^3
#
#
#
# Elastic Constant Matrix: (Units=GPa)
#
#
# Indices 1 2 3 4 5 6 
#
# 1 168.4203 63.8558 61.1596 9.5849 26.9774 -22.8661
# 2 63.8558 97.8815 40.3033 16.1870 3.2791 -9.9680
# 3 61.1596 40.3033 114.4153 -24.1704 1.9808 -15.8207
# 4 9.5849 16.1870 -24.1704 34.8428 4.8630 -15.1621
# 5 26.9774 3.2791 1.9808 4.8630 70.1940 -1.0749
# 6 -22.8661 -9.9680 -15.8207 -15.1621 -1.0749 44.7803
#
#
#
# Elastic Compliance Matrix: (Units=1/GPa)
#
#
# Indices 1 2 3 4 5 6 
#
# 1 0.009855 -0.004099 -0.004004 -0.002324 -0.003294 0.001839
# 2 -0.004099 0.018601 -0.008911 -0.016931 0.002027 -0.006785
# 3 -0.004004 -0.008911 0.020913 0.024904 -0.000180 0.011788
# 4 -0.002324 -0.016931 0.024904 0.066343 -0.003213 0.026229
# 5 -0.003294 0.002027 -0.000180 -0.003213 0.015614 -0.002007
# 6 0.001839 -0.006785 0.011788 0.026229 -0.002007 0.034758
#
#
# Mechanical properties :
#
#
# Convention : Reuss Voigt Hill
#
# Bulk Modulus (GPa) = 65.18085 79.03937 72.11011
# Shear Modulus (GPa) = 24.36355 44.32333 34.34344
#
# Velocity S-wave (km/s) = 3.30455 4.45716 3.92341
# Velocity P-wave (km/s) = 6.61627 7.86860 7.26945
#
# Compressibility (1/GPa) = 0.01534193
#
# Stress axis : x y z
#
# Youngs Moduli (GPa) = 101.47101 53.76191 47.81645
#
# Poissons Ratio (x) = 0.22035 0.19145
# Poissons Ratio (y) = 0.41589 0.42610
# Poissons Ratio (z) = 0.40627 0.47908
#
# Static dielectric constant tensor:
#      x y z
#    x 1.821040 -0.008320 0.029880 
#    y -0.008320 1.770410 0.009080 
#    z 0.029880 0.009080 1.806070 
# 
# From -- ./inp_files/189859.got.cif
#   From: 2010.05.17/outbox.cif.g08.bks.cpg/sg2_95_cif.got.tgz:189859.got - 2010.06.03 11:33:40.
