data_PCOD9033493
_publ_section_title
;
Structure prediction by ZEFSAII (Michael W. Deem and Ramdas Pophale) SiO2 
 PCOD9033493
Probable space group: P -1
;
_chemical_formula_sum "Si O2"
_cell_formula_units_Z 14
_cell_length_a 19.296920
_cell_length_b 8.223687
_cell_length_c 5.441679
_cell_angle_alpha 69.855360
_cell_angle_beta 120.490417
_cell_angle_gamma 130.521794
_cell_volume 565.516612
_symmetry_space_group_name_H-M "P -1"
_symmetry_group_IT_number 2
_symmetry_cell_setting 'triclinic'
loop_
_space_group_symop_operation_xyz
x,y,z
-x,-y,-z
loop_
_atom_site_type_symbol
_atom_site_label
_atom_site_fract_x
_atom_site_fract_y
_atom_site_fract_z
Si Si1 0.039433 0.353386 0.613704
Si Si2 0.749204 0.863331 0.732311
Si Si3 0.641379 0.529279 0.340377
Si Si4 0.566905 0.715878 0.772705
Si Si5 0.436601 0.948824 0.160035
Si Si6 0.962182 0.254603 0.026081
Si Si7 0.258132 0.524512 0.841286
O O1 0.154792 0.492641 0.681260
O O2 0.000000 0.500000 0.500000
O O3 0.981824 0.199140 0.358554
O O4 0.021100 0.248731 0.903859
O O5 0.726155 0.761642 0.473926
O O6 0.650706 0.840798 0.653340
O O7 0.761280 0.697960 0.991535
O O8 0.847251 0.097064 0.828322
O O9 0.549778 0.408523 0.432911
O O10 0.692006 0.426575 0.364558
O O11 0.584937 0.549129 0.002003
O O12 0.590273 0.884528 0.938053
O O13 0.500000 0.000000 0.500000
O O14 0.336820 0.713688 0.064744
O O15 0.500000 0.000000 0.000000
O O16 0.000000 0.500000 0.000000
#
# Coordination Sequence:
#
# PCOD9033493 Si02
#       7
#     2   2   2   2   2   2   2
#     4  10  25  47  72  99 139 181 240 298 356 416
#     4  11  25  42  74 100 143 192 238 293 362 423
#     4  10  22  44  68 106 142 186 239 286 357 433
#     4  10  23  41  70 101 145 187 237 284 356 425
#     4  12  27  45  70 109 147 186 238 293 352 426
#     4  10  25  46  70 101 135 178 243 297 351 417
#     4  11  26  44  72 103 146 188 239 295 362 421
#
# _framework density 24.756126999999999
#
# number of rings (size 3 to 8) (size 9 to 14) (size 15 to 20)
#    0.000    1.429    1.429    1.286   12.000    2.286 
#    0.000    0.000    0.000    0.000    0.000    0.000 
#    0.000    0.000    0.000    0.000    0.000    0.000 
#
# Total GULP energy -78211.454911 kJ/mol
# GULP energy per Si atom -5586.532494 kJ/mol
# Density = 2.469978 g / cm^3
# Si number density = 24.756127 Si / 1000 Ang^3
#
#
#
# Elastic Constant Matrix: (Units=GPa)
#
#
# Indices 1 2 3 4 5 6 
#
# 1 188.6677 43.9679 72.7966 28.0206 -1.8519 19.1603
# 2 43.9679 121.1850 28.1385 42.8665 2.7259 4.3200
# 3 72.7966 28.1385 124.6608 36.8351 -23.3886 13.4402
# 4 28.0206 42.8665 36.8351 45.6893 -1.1478 9.0194
# 5 -1.8519 2.7259 -23.3886 -1.1478 53.0149 3.9874
# 6 19.1603 4.3200 13.4402 9.0194 3.9874 33.4599
#
#
#
# Elastic Compliance Matrix: (Units=1/GPa)
#
#
# Indices 1 2 3 4 5 6 
#
# 1 0.007468 -0.002033 -0.004229 0.001194 -0.001288 -0.002484
# 2 -0.002033 0.013069 0.001703 -0.012855 -0.000444 0.002311
# 3 -0.004229 0.001703 0.014406 -0.010159 0.006018 -0.001564
# 4 0.001194 -0.012855 -0.010159 0.042555 -0.002397 -0.006129
# 5 -0.001288 -0.000444 0.006018 -0.002397 0.021712 -0.003564
# 6 -0.002484 0.002311 -0.001564 -0.006129 -0.003564 0.033715
#
#
# Mechanical properties :
#
#
# Convention : Reuss Voigt Hill
#
# Bulk Modulus (GPa) = 38.72006 80.47995 59.60000
# Shear Modulus (GPa) = 33.18941 45.74018 39.46480
#
# Velocity S-wave (km/s) = 3.66547 4.30307 3.99700
# Velocity P-wave (km/s) = 5.79558 7.56758 6.74007
#
# Compressibility (1/GPa) = 0.02582641
#
# Stress axis : x y z
#
# Youngs Moduli (GPa) = 133.90650 76.51927 69.41410
#
# Poissons Ratio (x) = 0.15553 0.29354
# Poissons Ratio (y) = 0.27217 -0.11822
# Poissons Ratio (z) = 0.56627 -0.13032
#
# Static dielectric constant tensor:
#      x y z
#    x 1.982850 0.023430 -0.037650 
#    y 0.023430 2.031980 -0.091750 
#    z -0.037650 -0.091750 1.976970 
# 
# From -- ./inp_files/28419.got.cif
#   From: 2010.05.17/outbox.cif.g08.bks.cpg/sg2_15_cif.got.tgz:28419.got - 2010.06.03 11:33:40.
