data_PCOD9033749
_publ_section_title
;
Structure prediction by ZEFSAII (Michael W. Deem and Ramdas Pophale) SiO2 
 PCOD9033749
Probable space group: P -1
;
_chemical_formula_sum "Si O2"
_cell_formula_units_Z 16
_cell_length_a 5.915432
_cell_length_b 8.597050
_cell_length_c 14.235528
_cell_angle_alpha 81.890162
_cell_angle_beta 73.490590
_cell_angle_gamma 95.681527
_cell_volume 679.746351
_symmetry_space_group_name_H-M "P -1"
_symmetry_group_IT_number 2
_symmetry_cell_setting 'triclinic'
loop_
_space_group_symop_operation_xyz
x,y,z
-x,-y,-z
loop_
_atom_site_type_symbol
_atom_site_label
_atom_site_fract_x
_atom_site_fract_y
_atom_site_fract_z
Si Si1 0.124206 0.849149 0.527529
Si Si2 0.660913 0.916409 0.914761
Si Si3 0.112279 0.106860 0.773034
Si Si4 0.664616 0.621079 0.600343
Si Si5 0.706748 0.367377 0.090881
Si Si6 0.690416 0.191114 0.279656
Si Si7 0.146385 0.294863 0.943093
Si Si8 0.479720 0.287518 0.594678
O O1 0.202070 0.846458 0.628009
O O2 0.343972 0.841688 0.431560
O O3 0.941778 0.685862 0.553531
O O4 0.000000 0.000000 0.500000
O O5 0.509336 0.771719 0.889879
O O6 0.831894 0.835908 0.970369
O O7 0.835342 0.031819 0.816687
O O8 0.500000 0.000000 0.000000
O O9 0.159908 0.215091 0.849086
O O10 0.217562 0.214109 0.665093
O O11 0.277713 0.967590 0.767067
O O12 0.552195 0.737351 0.675234
O O13 0.592255 0.432171 0.636342
O O14 0.544829 0.652984 0.512948
O O15 0.816363 0.329539 0.183098
O O16 0.660071 0.548079 0.082021
O O17 0.892980 0.350972 0.987283
#
# Coordination Sequence:
#
# PCOD9033749 Si02
#       8
#     2   2   2   2   2   2   2   2
#     4  11  23  43  70 103 137 177 228 281 345 413
#     4  12  24  44  70  99 138 182 231 283 346 404
#     4  12  23  43  66 101 137 176 229 282 338 409
#     4  10  22  44  69  96 140 178 224 281 345 408
#     4  11  24  45  71  96 136 183 229 284 340 413
#     4  11  24  41  70  97 134 177 227 279 343 402
#     4  11  24  46  67  99 140 178 227 288 348 400
#     4  10  23  44  67  99 138 182 222 282 345 409
#
# _framework density 23.538191000000001
#
# number of rings (size 3 to 8) (size 9 to 14) (size 15 to 20)
#    0.000    1.000    2.500    4.125    1.750    2.000 
#    6.750    1.250    0.000    0.000    0.000    0.000 
#    0.000    0.000    0.000    0.000    0.000    0.000 
#
# Total GULP energy -89353.871562 kJ/mol
# GULP energy per Si atom -5584.616973 kJ/mol
# Density = 2.348462 g / cm^3
# Si number density = 23.538191 Si / 1000 Ang^3
#
#
#
# Elastic Constant Matrix: (Units=GPa)
#
#
# Indices 1 2 3 4 5 6 
#
# 1 47.4635 30.4762 21.0889 11.5527 -22.8808 8.0358
# 2 30.4762 123.0266 48.3870 13.2511 -24.2384 19.0867
# 3 21.0889 48.3870 105.7111 10.9565 -30.8382 -7.3688
# 4 11.5527 13.2511 10.9565 38.2383 0.6288 -3.6747
# 5 -22.8808 -24.2384 -30.8382 0.6288 36.3126 -9.8980
# 6 8.0358 19.0867 -7.3688 -3.6747 -9.8980 34.2262
#
#
#
# Elastic Compliance Matrix: (Units=1/GPa)
#
#
# Indices 1 2 3 4 5 6 
#
# 1 0.035903 -0.004298 0.002171 -0.010376 0.021665 -0.000414
# 2 -0.004298 0.012600 -0.005535 -0.002210 -0.001075 -0.007757
# 3 0.002171 -0.005535 0.016901 -0.002844 0.014858 0.010207
# 4 -0.010376 -0.002210 -0.002844 0.031371 -0.010009 0.003530
# 5 0.021665 -0.001075 0.014858 -0.010009 0.057123 0.014156
# 6 -0.000414 -0.007757 0.010207 0.003530 0.014156 0.040311
#
#
# Mechanical properties :
#
#
# Convention : Reuss Voigt Hill
#
# Bulk Modulus (GPa) = 19.96767 52.90061 36.43414
# Shear Modulus (GPa) = 22.10191 33.50536 27.80364
#
# Velocity S-wave (km/s) = 3.06760 3.77695 3.44061
# Velocity P-wave (km/s) = 4.58786 6.44544 5.59429
#
# Compressibility (1/GPa) = 0.05008095
#
# Stress axis : x y z
#
# Youngs Moduli (GPa) = 27.85252 79.36724 59.16902
#
# Poissons Ratio (x) = 0.34110 -0.12848
# Poissons Ratio (y) = 0.11970 0.32750
# Poissons Ratio (z) = -0.06048 0.43930
#
# Static dielectric constant tensor:
#      x y z
#    x 1.905010 -0.001230 0.003020 
#    y -0.001230 1.933450 -0.001080 
#    z 0.003020 -0.001080 1.929610 
# 
# From -- ./inp_files/480406.got.cif
#   From: 2010.05.17/outbox.cif.g08.bks.cpg/sg2_241_cif.got.tgz:480406.got - 2010.06.03 11:33:40.
