data_PCOD9033254
_publ_section_title
;
Structure prediction by ZEFSAII (Michael W. Deem and Ramdas Pophale) SiO2 
 PCOD9033254
Probable space group: P -1
;
_chemical_formula_sum "Si O2"
_cell_formula_units_Z 16
_cell_length_a 9.382251
_cell_length_b 19.964054
_cell_length_c 9.946507
_cell_angle_alpha 124.140765
_cell_angle_beta 102.412898
_cell_angle_gamma 34.848785
_cell_volume 752.955271
_symmetry_space_group_name_H-M "P -1"
_symmetry_group_IT_number 2
_symmetry_cell_setting 'triclinic'
loop_
_space_group_symop_operation_xyz
x,y,z
-x,-y,-z
loop_
_atom_site_type_symbol
_atom_site_label
_atom_site_fract_x
_atom_site_fract_y
_atom_site_fract_z
Si Si1 0.287686 0.849769 0.298506
Si Si2 0.118001 0.357971 0.813442
Si Si3 0.774689 0.859660 0.298836
Si Si4 0.614920 0.365427 0.799266
Si Si5 0.978315 0.600051 0.449681
Si Si6 0.422113 0.974712 0.838638
Si Si7 0.070785 0.985343 0.844516
Si Si8 0.630209 0.609352 0.460789
O O1 0.541800 0.789597 0.321443
O O2 0.405303 0.703856 0.189292
O O3 0.000000 0.000000 0.500000
O O4 0.196826 0.900988 0.183012
O O5 0.118366 0.284792 0.835614
O O6 0.952492 0.414397 0.706826
O O7 0.000000 0.500000 0.000000
O O8 0.041239 0.785269 0.324599
O O9 0.500000 0.000000 0.500000
O O10 0.691500 0.927051 0.208406
O O11 0.441406 0.426767 0.698604
O O12 0.500000 0.500000 0.000000
O O13 0.714418 0.784357 0.648731
O O14 0.860222 0.563990 0.395428
O O15 0.238917 0.482741 0.475632
O O16 0.184901 0.022156 0.890429
O O17 0.500000 0.000000 0.000000
O O18 0.333598 0.801361 0.641814
O O19 0.000000 0.000000 0.000000
#
# Coordination Sequence:
#
# PCOD9033254 Si02
#       8
#     2   2   2   2   2   2   2   2
#     4  12  22  46  75  95 135 187 243 290 338 422
#     4  12  26  42  71 105 139 185 240 290 348 427
#     4  12  26  45  71 103 143 184 238 295 356 413
#     4  12  25  44  72 106 140 186 237 296 356 413
#     4  10  22  44  67 100 139 185 228 283 356 423
#     4  11  25  44  69 101 141 184 231 293 358 418
#     4  11  25  43  70 103 135 184 241 289 346 423
#     4  10  23  42  71  97 140 183 230 286 352 422
#
# _framework density 21.249604000000001
#
# number of rings (size 3 to 8) (size 9 to 14) (size 15 to 20)
#    0.000    0.750    5.000    2.250    5.250    1.000 
#    0.000    0.625    0.000    0.000    0.000    0.000 
#    0.000    0.000    0.000    0.000    0.000    0.000 
#
# Total GULP energy -89574.998483 kJ/mol
# GULP energy per Si atom -5598.437405 kJ/mol
# Density = 2.120124 g / cm^3
# Si number density = 21.249604 Si / 1000 Ang^3
#
#
#
# Elastic Constant Matrix: (Units=GPa)
#
#
# Indices 1 2 3 4 5 6 
#
# 1 93.0321 54.6460 37.8978 -13.6815 11.4609 10.2880
# 2 54.6460 162.2631 43.5250 -38.9636 16.2397 7.0092
# 3 37.8978 43.5250 99.1400 -26.6893 21.3106 3.4991
# 4 -13.6815 -38.9636 -26.6893 41.8687 -0.3800 3.3936
# 5 11.4609 16.2397 21.3106 -0.3800 38.5698 -2.6409
# 6 10.2880 7.0092 3.4991 3.3936 -2.6409 44.6390
#
#
#
# Elastic Compliance Matrix: (Units=1/GPa)
#
#
# Indices 1 2 3 4 5 6 
#
# 1 0.014961 -0.004097 -0.004045 -0.001312 -0.000665 -0.002427
# 2 -0.004097 0.009770 0.000086 0.007893 -0.002960 -0.001372
# 3 -0.004045 0.000086 0.015607 0.008754 -0.007468 -0.001412
# 4 -0.001312 0.007893 0.008754 0.036706 -0.007742 -0.004872
# 5 -0.000665 -0.002960 -0.007468 -0.007742 0.031672 0.003666
# 6 -0.002427 -0.001372 -0.001412 -0.004872 0.003666 0.023875
#
#
# Mechanical properties :
#
#
# Convention : Reuss Voigt Hill
#
# Bulk Modulus (GPa) = 41.27689 69.61921 55.44805
# Shear Modulus (GPa) = 31.89264 39.57326 35.73295
#
# Velocity S-wave (km/s) = 3.87829 4.32013 4.10516
# Velocity P-wave (km/s) = 6.28664 7.59726 6.97281
#
# Compressibility (1/GPa) = 0.02422663
#
# Stress axis : x y z
#
# Youngs Moduli (GPa) = 66.84223 102.35168 64.07487
#
# Poissons Ratio (x) = 0.41933 0.25917
# Poissons Ratio (y) = 0.27385 -0.00553
# Poissons Ratio (z) = 0.27036 -0.00883
#
# Static dielectric constant tensor:
#      x y z
#    x 1.785110 -0.000560 -0.026230 
#    y -0.000560 1.775990 0.012910 
#    z -0.026230 0.012910 1.781820 
# 
# From -- ./inp_files/205019.got.cif
#   From: 2010.05.17/outbox.cif.g08.bks.cpg/sg2_103_cif.got.tgz:205019.got - 2010.06.03 11:33:40.
