data_PCOD9033076
_publ_section_title
;
Structure prediction by ZEFSAII (Michael W. Deem and Ramdas Pophale) SiO2 
 PCOD9033076
Probable space group: P -1
;
_chemical_formula_sum "Si O2"
_cell_formula_units_Z 16
_cell_length_a 10.600486
_cell_length_b 6.739243
_cell_length_c 12.883138
_cell_angle_alpha 58.762745
_cell_angle_beta 115.513598
_cell_angle_gamma 116.334664
_cell_volume 680.651824
_symmetry_space_group_name_H-M "P -1"
_symmetry_group_IT_number 2
_symmetry_cell_setting 'triclinic'
loop_
_space_group_symop_operation_xyz
x,y,z
-x,-y,-z
loop_
_atom_site_type_symbol
_atom_site_label
_atom_site_fract_x
_atom_site_fract_y
_atom_site_fract_z
Si Si1 0.239650 0.979349 0.822307
Si Si2 0.032237 0.909522 0.393539
Si Si3 0.559704 0.270941 0.405374
Si Si4 0.457308 0.817458 0.821113
Si Si5 0.142256 0.536299 0.422451
Si Si6 0.844170 0.525656 0.965677
Si Si7 0.275563 0.375570 0.323472
Si Si8 0.718298 0.726499 0.039832
O O1 0.370117 0.001267 0.781007
O O2 0.252448 0.183751 0.857235
O O3 0.237817 0.743923 0.952577
O O4 0.088329 0.957092 0.716090
O O5 0.056552 0.733786 0.357678
O O6 0.967831 0.724516 0.514769
O O7 0.187615 0.107405 0.406588
O O8 0.546500 0.228554 0.289540
O O9 0.723182 0.402694 0.464774
O O10 0.446970 0.409228 0.371336
O O11 0.500000 0.000000 0.500000
O O12 0.373429 0.553035 0.907202
O O13 0.619006 0.874264 0.909280
O O14 0.216596 0.543108 0.335262
O O15 0.773435 0.601661 0.817846
O O16 0.845145 0.711436 0.009621
O O17 0.000000 0.500000 0.000000
#
# Coordination Sequence:
#
# PCOD9033076 Si02
#       8
#     2   2   2   2   2   2   2   2
#     4  11  24  40  72  98 130 182 224 270 341 409
#     4  11  25  46  68 101 135 180 229 281 332 406
#     4  12  25  46  70 100 137 178 227 290 335 390
#     4  10  23  43  65  94 137 175 227 275 333 398
#     4  11  27  46  70  99 135 185 233 271 340 410
#     4  11  24  42  66 102 137 173 217 281 342 398
#     4  12  25  47  71  98 142 179 224 284 344 396
#     4  10  22  44  65  95 136 179 222 274 331 410
#
# _framework density 23.506876999999999
#
# number of rings (size 3 to 8) (size 9 to 14) (size 15 to 20)
#    0.000    1.000    3.750    1.875    3.500    4.500 
#    4.500    0.000    0.000    0.000    0.000    0.000 
#    0.000    0.000    0.000    0.000    0.000    0.000 
#
# Total GULP energy -89464.047957 kJ/mol
# GULP energy per Si atom -5591.502997 kJ/mol
# Density = 2.345337 g / cm^3
# Si number density = 23.506877 Si / 1000 Ang^3
#
#
#
# Elastic Constant Matrix: (Units=GPa)
#
#
# Indices 1 2 3 4 5 6 
#
# 1 151.1280 33.6028 34.9717 8.6215 -3.0199 -39.2597
# 2 33.6028 55.0851 9.3277 10.6838 -4.4020 -14.5313
# 3 34.9717 9.3277 56.2820 7.4331 -8.0091 -11.5286
# 4 8.6215 10.6838 7.4331 32.8946 -1.7806 -11.7472
# 5 -3.0199 -4.4020 -8.0091 -1.7806 30.2721 13.1321
# 6 -39.2597 -14.5313 -11.5286 -11.7472 13.1321 46.7105
#
#
#
# Elastic Compliance Matrix: (Units=1/GPa)
#
#
# Indices 1 2 3 4 5 6 
#
# 1 0.010673 -0.004296 -0.005184 0.002461 -0.004342 0.008194
# 2 -0.004296 0.022348 0.000276 -0.005566 0.001930 0.001468
# 3 -0.005184 0.000276 0.021980 -0.003901 0.005733 -0.001440
# 4 0.002461 -0.005566 -0.003901 0.035581 -0.003546 0.009319
# 5 -0.004342 0.001930 0.005733 -0.003546 0.040186 -0.013823
# 6 0.008194 0.001468 -0.001440 0.009319 -0.013823 0.034627
#
#
# Mechanical properties :
#
#
# Convention : Reuss Voigt Hill
#
# Bulk Modulus (GPa) = 27.32780 46.47772 36.90276
# Shear Modulus (GPa) = 25.51013 34.28162 29.89587
#
# Velocity S-wave (km/s) = 3.29784 3.82300 3.57009
# Velocity P-wave (km/s) = 5.11387 6.26913 5.72074
#
# Compressibility (1/GPa) = 0.03659277
#
# Stress axis : x y z
#
# Youngs Moduli (GPa) = 93.69210 44.74594 45.49681
#
# Poissons Ratio (x) = 0.19221 0.23587
# Poissons Ratio (y) = 0.40245 -0.01254
# Poissons Ratio (z) = 0.48574 -0.01234
#
# Static dielectric constant tensor:
#      x y z
#    x 1.913880 -0.025060 0.006790 
#    y -0.025060 1.907050 0.008420 
#    z 0.006790 0.008420 1.804120 
# 
# From -- ./inp_files/410122.got.cif
#   From: 2010.05.17/outbox.cif.g08.bks.cpg/sg2_206_cif.got.tgz:410122.got - 2010.06.03 11:33:40.
