data_PCOD9033173
_publ_section_title
;
Structure prediction by ZEFSAII (Michael W. Deem and Ramdas Pophale) SiO2 
 PCOD9033173
Probable space group: P -1
;
_chemical_formula_sum "Si O2"
_cell_formula_units_Z 15
_cell_length_a 18.892943
_cell_length_b 8.688706
_cell_length_c 17.025758
_cell_angle_alpha 141.921164
_cell_angle_beta 22.706349
_cell_angle_gamma 141.798099
_cell_volume 644.122866
_symmetry_space_group_name_H-M "P -1"
_symmetry_group_IT_number 2
_symmetry_cell_setting 'triclinic'
loop_
_space_group_symop_operation_xyz
x,y,z
-x,-y,-z
loop_
_atom_site_type_symbol
_atom_site_label
_atom_site_fract_x
_atom_site_fract_y
_atom_site_fract_z
Si Si1 0.420452 0.627466 0.926481
Si Si2 0.156701 0.949820 0.759512
Si Si3 0.153529 0.885361 0.390811
Si Si4 0.179834 0.391013 0.479719
Si Si5 0.852818 0.841132 0.903523
Si Si6 0.000000 0.500000 0.500000
Si Si7 0.775806 0.376066 0.182711
Si Si8 0.463623 0.461594 0.645573
O O1 0.614681 0.614898 0.763733
O O2 0.469560 0.629074 0.784965
O O3 0.321876 0.840819 0.146139
O O4 0.265646 0.361343 0.994140
O O5 0.183851 0.662811 0.623357
O O6 0.059821 0.956125 0.776107
O O7 0.350682 0.165352 0.657197
O O8 0.000000 0.000000 0.000000
O O9 0.965200 0.662530 0.466608
O O10 0.164730 0.781147 0.423834
O O11 0.115543 0.155809 0.513131
O O12 0.868071 0.672025 0.744431
O O13 0.754829 0.071375 0.084810
O O14 0.667871 0.468206 0.403150
O O15 0.666422 0.442114 0.245708
O O16 0.000000 0.500000 0.000000
#
# Coordination Sequence:
#
# PCOD9033173 Si02
#       8
#     2   2   2   2   2   1   2   2
#     4  11  23  43  68 100 129 172 228 278 329 395
#     4  12  22  41  70  99 134 176 224 279 329 395
#     4  10  23  45  65  98 132 170 230 271 331 399
#     4  11  23  40  69  93 130 175 218 279 329 390
#     4  11  23  43  67  95 136 175 223 273 334 394
#     4  10  22  44  66  92 132 176 214 274 328 394
#     4  11  25  43  65  95 138 178 216 277 341 397
#     4  11  25  42  67 102 134 172 230 272 335 411
#
# _framework density 23.287483000000002
#
# number of rings (size 3 to 8) (size 9 to 14) (size 15 to 20)
#    0.000    1.067    5.333    1.200    1.867    6.400 
#    0.000    2.667    0.000    0.000    0.000    0.000 
#    0.000    0.000    0.000    0.000    0.000    0.000 
#
# Total GULP energy -83642.298487 kJ/mol
# GULP energy per Si atom -5576.153232 kJ/mol
# Density = 2.323448 g / cm^3
# Si number density = 23.287483 Si / 1000 Ang^3
#
#
#
# Elastic Constant Matrix: (Units=GPa)
#
#
# Indices 1 2 3 4 5 6 
#
# 1 36.6357 0.4490 40.6246 5.0552 1.6700 14.5337
# 2 0.4490 71.8085 14.3147 31.3174 0.3990 -9.5712
# 3 40.6246 14.3147 160.2199 6.9320 3.8479 -3.0717
# 4 5.0552 31.3174 6.9320 51.8353 1.9582 -13.5204
# 5 1.6700 0.3990 3.8479 1.9582 39.1236 -6.5754
# 6 14.5337 -9.5712 -3.0717 -13.5204 -6.5754 25.7163
#
#
#
# Elastic Compliance Matrix: (Units=1/GPa)
#
#
# Indices 1 2 3 4 5 6 
#
# 1 0.074819 0.005740 -0.019360 -0.022638 -0.009772 -0.056861
# 2 0.005740 0.019629 -0.002710 -0.012844 -0.000044 -0.003026
# 3 -0.019360 -0.002710 0.011379 0.005801 0.001938 0.014837
# 4 -0.022638 -0.012844 0.005801 0.035760 0.003511 0.028405
# 5 -0.009772 -0.000044 0.001938 0.003511 0.028093 0.014766
# 6 -0.056861 -0.003026 0.014837 0.028405 0.014766 0.090377
#
#
# Mechanical properties :
#
#
# Convention : Reuss Voigt Hill
#
# Bulk Modulus (GPa) = 13.66737 42.16009 27.91373
# Shear Modulus (GPa) = 15.76754 37.55345 26.66050
#
# Velocity S-wave (km/s) = 2.60490 4.02008 3.38722
# Velocity P-wave (km/s) = 3.86382 6.30012 5.22593
#
# Compressibility (1/GPa) = 0.07316698
#
# Stress axis : x y z
#
# Youngs Moduli (GPa) = 13.36550 50.94540 87.87930
#
# Poissons Ratio (x) = -0.29241 1.70131
# Poissons Ratio (y) = -0.07671 0.23818
# Poissons Ratio (z) = 0.25875 0.13808
#
# Static dielectric constant tensor:
#      x y z
#    x 1.426360 0.292020 -0.102890 
#    y 0.292020 1.788520 0.027700 
#    z -0.102890 0.027700 1.815300 
# 
# From -- ./inp_files/577470.got.cif
#   From: 2010.05.17/outbox.cif.g08.bks.cpg/sg2_289_cif.got.tgz:577470.got - 2010.06.03 11:33:40.
