data_PCOD9033368
_publ_section_title
;
Structure prediction by ZEFSAII (Michael W. Deem and Ramdas Pophale) SiO2 
 PCOD9033368
Probable space group: P -1
;
_chemical_formula_sum "Si O2"
_cell_formula_units_Z 16
_cell_length_a 17.754482
_cell_length_b 9.742019
_cell_length_c 21.842659
_cell_angle_alpha 136.110406
_cell_angle_beta 163.352660
_cell_angle_gamma 41.531434
_cell_volume 717.494403
_symmetry_space_group_name_H-M "P -1"
_symmetry_group_IT_number 2
_symmetry_cell_setting 'triclinic'
loop_
_space_group_symop_operation_xyz
x,y,z
-x,-y,-z
loop_
_atom_site_type_symbol
_atom_site_label
_atom_site_fract_x
_atom_site_fract_y
_atom_site_fract_z
Si Si1 0.996554 0.727433 0.547636
Si Si2 0.522931 0.335908 0.020100
Si Si3 0.771821 0.071662 0.719450
Si Si4 0.724959 0.366398 0.398533
Si Si5 0.964431 0.331825 0.869605
Si Si6 0.910597 0.374804 0.023958
Si Si7 0.952133 0.363482 0.192256
Si Si8 0.576139 0.022896 0.243025
O O1 0.138706 0.700625 0.582872
O O2 0.000000 0.500000 0.500000
O O3 0.180880 0.783952 0.761646
O O4 0.708243 0.901490 0.368377
O O5 0.349580 0.479872 0.984308
O O6 0.394811 0.160889 0.841858
O O7 0.500000 0.500000 0.000000
O O8 0.888652 0.185961 0.902173
O O9 0.741458 0.228674 0.689250
O O10 0.500000 0.000000 0.500000
O O11 0.001157 0.858818 0.812350
O O12 0.405018 0.482210 0.175627
O O13 0.738898 0.176002 0.393462
O O14 0.856128 0.523581 0.586538
O O15 0.920076 0.472134 0.819833
O O16 0.258786 0.156455 0.041954
O O17 0.000000 0.500000 0.000000
O O18 0.008245 0.314235 0.148995
#
# Coordination Sequence:
#
# PCOD9033368 Si02
#       8
#     2   2   2   2   2   2   2   2
#     4  12  24  41  65  98 135 176 224 273 333 400
#     4  12  24  41  66  98 136 175 221 278 337 400
#     4  11  22  41  73  98 130 175 227 283 337 397
#     4  11  23  42  64  97 134 176 225 275 328 405
#     4   9  22  44  71  95 135 176 221 277 335 398
#     4  10  22  44  67  97 133 180 221 280 336 397
#     4  12  23  40  69  94 137 174 228 276 334 399
#     4  11  24  42  69  96 138 176 223 272 340 398
#
# _framework density 22.299824000000001
#
# number of rings (size 3 to 8) (size 9 to 14) (size 15 to 20)
#    0.000    1.000    5.000    1.500    0.000    2.500 
#    0.000    0.625    8.250    0.000    0.000    0.000 
#    0.000    0.000    0.000    0.000    0.000    0.000 
#
# Total GULP energy -89316.741421 kJ/mol
# GULP energy per Si atom -5582.296339 kJ/mol
# Density = 2.224907 g / cm^3
# Si number density = 22.299824 Si / 1000 Ang^3
#
#
#
# Elastic Constant Matrix: (Units=GPa)
#
#
# Indices 1 2 3 4 5 6 
#
# 1 71.1172 27.9299 23.2792 21.3526 -0.9131 17.1058
# 2 27.9299 126.0713 23.8178 20.1714 0.2631 9.4894
# 3 23.2792 23.8178 74.9888 9.9906 -12.2200 18.3304
# 4 21.3526 20.1714 9.9906 32.4285 7.7554 7.3162
# 5 -0.9131 0.2631 -12.2200 7.7554 34.5131 1.3973
# 6 17.1058 9.4894 18.3304 7.3162 1.3973 43.2694
#
#
#
# Elastic Compliance Matrix: (Units=1/GPa)
#
#
# Indices 1 2 3 4 5 6 
#
# 1 0.020027 -0.001874 -0.002720 -0.010658 0.002163 -0.004622
# 2 -0.001874 0.009337 -0.001861 -0.004068 0.000128 0.000166
# 3 -0.002720 -0.001861 0.017725 -0.002911 0.007106 -0.005763
# 4 -0.010658 -0.004068 -0.002911 0.044124 -0.011166 -0.000761
# 5 0.002163 0.000128 0.007106 -0.011166 0.034182 -0.003109
# 6 -0.004622 0.000166 -0.005763 -0.000761 -0.003109 0.027572
#
#
# Mechanical properties :
#
#
# Convention : Reuss Voigt Hill
#
# Bulk Modulus (GPa) = 29.25803 46.91455 38.08629
# Shear Modulus (GPa) = 28.20532 35.18556 31.69544
#
# Velocity S-wave (km/s) = 3.56029 3.97651 3.77414
# Velocity P-wave (km/s) = 5.48176 6.49364 6.00903
#
# Compressibility (1/GPa) = 0.03417865
#
# Stress axis : x y z
#
# Youngs Moduli (GPa) = 49.93248 107.09948 56.41644
#
# Poissons Ratio (x) = 0.20075 0.15343
# Poissons Ratio (y) = 0.09359 0.10502
# Poissons Ratio (z) = 0.13579 0.19936
#
# Static dielectric constant tensor:
#      x y z
#    x 1.884720 0.009390 0.062280 
#    y 0.009390 1.834400 0.015490 
#    z 0.062280 0.015490 1.982190 
# 
# From -- ./inp_files/599783.got.cif
#   From: 2010.05.17/outbox.cif.g08.bks.cpg/sg2_300_cif.got.tgz:599783.got - 2010.06.03 11:33:40.
