data_PCOD9033761
_publ_section_title
;
Structure prediction by ZEFSAII (Michael W. Deem and Ramdas Pophale) SiO2 
 PCOD9033761
Probable space group: P -1
;
_chemical_formula_sum "Si O2"
_cell_formula_units_Z 16
_cell_length_a 6.486705
_cell_length_b 8.951824
_cell_length_c 19.220382
_cell_angle_alpha 123.036142
_cell_angle_beta 50.454406
_cell_angle_gamma 111.334158
_cell_volume 721.251947
_symmetry_space_group_name_H-M "P -1"
_symmetry_group_IT_number 2
_symmetry_cell_setting 'triclinic'
loop_
_space_group_symop_operation_xyz
x,y,z
-x,-y,-z
loop_
_atom_site_type_symbol
_atom_site_label
_atom_site_fract_x
_atom_site_fract_y
_atom_site_fract_z
Si Si1 0.765753 0.621926 0.988344
Si Si2 0.955173 0.295014 0.296764
Si Si3 0.396574 0.199920 0.065567
Si Si4 0.918008 0.041037 0.736158
Si Si5 0.971436 0.377191 0.542812
Si Si6 0.418578 0.093674 0.343208
Si Si7 0.461336 0.137855 0.605659
Si Si8 0.046220 0.708927 0.080704
O O1 0.764781 0.761863 0.961516
O O2 0.980560 0.465277 0.909021
O O3 0.500000 0.500000 0.000000
O O4 0.810610 0.718246 0.077600
O O5 0.203628 0.261868 0.184038
O O6 0.953849 0.495373 0.375913
O O7 0.673385 0.224782 0.308149
O O8 0.990504 0.160452 0.320430
O O9 0.678710 0.307129 0.026059
O O10 0.500000 0.000000 0.000000
O O11 0.898335 0.127396 0.838195
O O12 0.143857 0.162861 0.681032
O O13 0.665165 0.015762 0.735134
O O14 0.668822 0.300638 0.594254
O O15 0.000000 0.500000 0.500000
O O16 0.171234 0.213203 0.451180
O O17 0.480596 0.958257 0.357737
O O18 0.500000 0.000000 0.500000
#
# Coordination Sequence:
#
# PCOD9033761 Si02
#       8
#     2   2   2   2   2   2   2   2
#     4   9  22  42  67  97 134 178 229 283 350 402
#     4  11  25  42  66 107 134 180 238 282 350 413
#     4  11  23  43  67  99 139 180 231 286 347 413
#     4  11  23  44  69 102 136 185 230 277 348 422
#     4  12  23  45  70  99 142 177 223 292 344 406
#     4  11  24  46  70  96 143 184 225 285 348 414
#     4  11  24  43  69 101 137 177 237 274 344 422
#     4  10  22  44  69  97 142 179 228 290 341 415
#
# _framework density 22.183647000000001
#
# number of rings (size 3 to 8) (size 9 to 14) (size 15 to 20)
#    0.000    1.250    3.750    1.500    0.000    9.500 
#    2.250    0.000    0.000    0.000    0.000    0.000 
#    0.000    0.000    0.000    0.000    0.000    0.000 
#
# Total GULP energy -89264.447002 kJ/mol
# GULP energy per Si atom -5579.027938 kJ/mol
# Density = 2.213316 g / cm^3
# Si number density = 22.183647 Si / 1000 Ang^3
#
#
#
# Elastic Constant Matrix: (Units=GPa)
#
#
# Indices 1 2 3 4 5 6 
#
# 1 127.8555 41.8170 43.5750 5.3521 31.6352 28.1960
# 2 41.8170 94.4906 26.1832 0.8039 10.9826 15.6232
# 3 43.5750 26.1832 102.9186 1.0087 10.4585 30.2992
# 4 5.3521 0.8039 1.0087 32.3971 9.4570 -3.7197
# 5 31.6352 10.9826 10.4585 9.4570 40.2687 3.9060
# 6 28.1960 15.6232 30.2992 -3.7197 3.9060 54.2702
#
#
#
# Elastic Compliance Matrix: (Units=1/GPa)
#
#
# Indices 1 2 3 4 5 6 
#
# 1 0.012537 -0.003319 -0.002621 0.000000 -0.007922 -0.003525
# 2 -0.003319 0.012681 -0.001469 0.000285 -0.000435 -0.001056
# 3 -0.002621 -0.001469 0.012814 -0.000480 -0.000233 -0.005385
# 4 0.000000 0.000285 -0.000480 0.033605 -0.008144 0.003075
# 5 -0.007922 -0.000435 -0.000233 -0.008144 0.033009 0.001437
# 6 -0.003525 -0.001056 -0.005385 0.003075 0.001437 0.023675
#
#
# Mechanical properties :
#
#
# Convention : Reuss Voigt Hill
#
# Bulk Modulus (GPa) = 43.07602 60.93502 52.00552
# Shear Modulus (GPa) = 33.13932 39.63316 36.38624
#
# Velocity S-wave (km/s) = 3.86925 4.23140 4.05437
# Velocity P-wave (km/s) = 6.27865 7.16945 6.73879
#
# Compressibility (1/GPa) = 0.02321477
#
# Stress axis : x y z
#
# Youngs Moduli (GPa) = 79.76077 78.85578 78.04083
#
# Poissons Ratio (x) = 0.26169 0.20457
# Poissons Ratio (y) = 0.26469 0.11465
# Poissons Ratio (z) = 0.20908 0.11584
#
# Static dielectric constant tensor:
#      x y z
#    x 1.871790 0.008750 0.000340 
#    y 0.008750 1.881820 0.013420 
#    z 0.000340 0.013420 1.874080 
# 
# From -- ./inp_files/548271.got.cif
#   From: 2010.05.17/outbox.cif.g08.bks.cpg/sg2_275_cif.got.tgz:548271.got - 2010.06.03 11:33:40.
