data_PCOD9033857
_publ_section_title
;
Structure prediction by ZEFSAII (Michael W. Deem and Ramdas Pophale) SiO2 
 PCOD9033857
Probable space group: P -1
;
_chemical_formula_sum "Si O2"
_cell_formula_units_Z 12
_cell_length_a 8.132864
_cell_length_b 5.053525
_cell_length_c 13.321021
_cell_angle_alpha 75.064490
_cell_angle_beta 82.486555
_cell_angle_gamma 119.424498
_cell_volume 438.678998
_symmetry_space_group_name_H-M "P -1"
_symmetry_group_IT_number 2
_symmetry_cell_setting 'triclinic'
loop_
_space_group_symop_operation_xyz
x,y,z
-x,-y,-z
loop_
_atom_site_type_symbol
_atom_site_label
_atom_site_fract_x
_atom_site_fract_y
_atom_site_fract_z
Si Si1 0.208379 0.851992 0.453588
Si Si2 0.675403 0.122688 0.891689
Si Si3 0.261964 0.300562 0.936042
Si Si4 0.097890 0.707736 0.856118
Si Si5 0.585180 0.534626 0.735150
Si Si6 0.383862 0.110396 0.622655
O O1 0.401985 0.831854 0.423901
O O2 0.000000 0.500000 0.500000
O O3 0.772257 0.889134 0.656561
O O4 0.253930 0.028404 0.541176
O O5 0.609488 0.232738 0.787331
O O6 0.876208 0.472507 0.860921
O O7 0.500000 0.000000 0.000000
O O8 0.734592 0.868536 0.945578
O O9 0.161157 0.499461 0.934454
O O10 0.475210 0.541018 0.843099
O O11 0.154714 0.022115 0.886519
O O12 0.237768 0.815540 0.736718
O O13 0.444520 0.421944 0.658413
#
# Coordination Sequence:
#
# PCOD9033857 Si02
#       6
#     2   2   2   2   2   2
#     4  11  24  44  71 102 141 185 248 297 368 426
#     4  10  23  42  68 106 138 188 238 295 357 435
#     4  10  22  44  70 103 142 196 235 294 360 431
#     4  11  22  44  71 101 148 190 239 293 365 427
#     4  10  22  46  66 102 145 185 242 300 356 434
#     4  10  24  44  68 102 140 194 235 302 359 435
#
# _framework density 27.354855000000001
#
# number of rings (size 3 to 8) (size 9 to 14) (size 15 to 20)
#    0.000    1.667    1.667    1.500    2.333    2.000 
#    6.000    5.833    0.000    0.000    0.000    0.000 
#    0.000    0.000    0.000    0.000    0.000    0.000 
#
# Total GULP energy -67132.949772 kJ/mol
# GULP energy per Si atom -5594.412481 kJ/mol
# Density = 2.729259 g / cm^3
# Si number density = 27.354855 Si / 1000 Ang^3
#
#
#
# Elastic Constant Matrix: (Units=GPa)
#
#
# Indices 1 2 3 4 5 6 
#
# 1 108.7570 63.0519 39.4690 -8.9593 -5.3406 14.1097
# 2 63.0519 128.1970 65.4732 -32.4534 -0.3195 22.8192
# 3 39.4690 65.4732 156.3622 -40.2589 14.3266 29.0204
# 4 -8.9593 -32.4534 -40.2589 68.1726 2.3336 -2.9025
# 5 -5.3406 -0.3195 14.3266 2.3336 41.6275 -9.6011
# 6 14.1097 22.8192 29.0204 -2.9025 -9.6011 61.6082
#
#
#
# Elastic Compliance Matrix: (Units=1/GPa)
#
#
# Indices 1 2 3 4 5 6 
#
# 1 0.013362 -0.006404 -0.001556 -0.002280 0.002400 0.000311
# 2 -0.006404 0.013715 -0.002600 0.004074 -0.000577 -0.002287
# 3 -0.001556 -0.002600 0.010278 0.004623 -0.004956 -0.004077
# 4 -0.002280 0.004074 0.004623 0.019041 -0.003571 -0.002824
# 5 0.002400 -0.000577 -0.004956 -0.003571 0.027648 0.006139
# 6 0.000311 -0.002287 -0.004077 -0.002824 0.006139 0.019751
#
#
# Mechanical properties :
#
#
# Convention : Reuss Voigt Hill
#
# Bulk Modulus (GPa) = 61.59644 81.03383 71.31514
# Shear Modulus (GPa) = 38.36511 49.30313 43.83412
#
# Velocity S-wave (km/s) = 3.74906 4.25002 4.00737
# Velocity P-wave (km/s) = 6.42705 7.33288 6.89486
#
# Compressibility (1/GPa) = 0.01623470
#
# Stress axis : x y z
#
# Youngs Moduli (GPa) = 74.84047 72.91274 97.29406
#
# Poissons Ratio (x) = 0.46691 0.15141
# Poissons Ratio (y) = 0.47926 0.25298
# Poissons Ratio (z) = 0.11647 0.18958
#
# Static dielectric constant tensor:
#      x y z
#    x 2.251920 0.029630 -0.001050 
#    y 0.029630 2.227520 -0.000340 
#    z -0.001050 -0.000340 2.187150 
# 
# From -- ./inp_files/486983.got.cif
#   From: 2010.05.17/outbox.cif.g08.bks.cpg/sg2_244_cif.got.tgz:486983.got - 2010.06.03 11:33:40.
