data_PCOD9033656
_publ_section_title
;
Structure prediction by ZEFSAII (Michael W. Deem and Ramdas Pophale) SiO2 
 PCOD9033656
Probable space group: P -1
;
_chemical_formula_sum "Si O2"
_cell_formula_units_Z 14
_cell_length_a 11.753839
_cell_length_b 10.198057
_cell_length_c 19.119569
_cell_angle_alpha 134.677821
_cell_angle_beta 158.197781
_cell_angle_gamma 56.064619
_cell_volume 565.115115
_symmetry_space_group_name_H-M "P -1"
_symmetry_group_IT_number 2
_symmetry_cell_setting 'triclinic'
loop_
_space_group_symop_operation_xyz
x,y,z
-x,-y,-z
loop_
_atom_site_type_symbol
_atom_site_label
_atom_site_fract_x
_atom_site_fract_y
_atom_site_fract_z
Si Si1 0.263757 0.365018 0.681389
Si Si2 0.088392 0.813928 0.458090
Si Si3 0.193292 0.170061 0.117812
Si Si4 0.020517 0.529520 0.822746
Si Si5 0.166994 0.699612 0.811993
Si Si6 0.777313 0.956689 0.186267
Si Si7 0.128611 0.967836 0.261724
O O1 0.133443 0.546555 0.670013
O O2 0.185820 0.343892 0.711826
O O3 0.650095 0.409687 0.918986
O O4 0.051816 0.159735 0.446892
O O5 0.457100 0.846103 0.705776
O O6 0.094107 0.704509 0.346911
O O7 0.000000 0.000000 0.500000
O O8 0.224047 0.381937 0.245868
O O9 0.000000 0.000000 0.000000
O O10 0.997324 0.143384 0.923945
O O11 0.086194 0.637373 0.823924
O O12 0.948709 0.830736 0.717194
O O13 0.557715 0.825700 0.074096
O O14 0.934879 0.864179 0.181771
O O15 0.500000 0.000000 0.000000
O O16 0.500000 0.000000 0.500000
#
# Coordination Sequence:
#
# PCOD9033656 Si02
#       7
#     2   2   2   2   2   2   2
#     4  11  24  40  72 107 145 182 245 304 363 425
#     4  11  24  40  71 105 148 187 239 303 370 433
#     4  12  24  44  72 101 148 195 236 306 367 424
#     4  11  24  43  68 114 146 182 242 306 371 436
#     4  10  22  44  69 102 143 185 246 298 361 432
#     4  10  23  42  69  96 137 195 239 293 353 428
#     4  11  24  44  68 101 145 192 247 285 364 428
#
# _framework density 24.773713000000001
#
# number of rings (size 3 to 8) (size 9 to 14) (size 15 to 20)
#    0.000    1.143    1.429    5.571    6.000    2.286 
#    0.000    0.000    0.000   12.000    0.000    0.000 
#    0.000    0.000    0.000    0.000    0.000    0.000 
#
# Total GULP energy -78067.031433 kJ/mol
# GULP energy per Si atom -5576.216531 kJ/mol
# Density = 2.471733 g / cm^3
# Si number density = 24.773713 Si / 1000 Ang^3
#
#
#
# Elastic Constant Matrix: (Units=GPa)
#
#
# Indices 1 2 3 4 5 6 
#
# 1 131.0900 44.9432 36.1146 -5.1488 -22.4690 -15.5423
# 2 44.9432 127.9649 37.0267 -16.8499 -8.8520 -49.6233
# 3 36.1146 37.0267 115.2280 -12.8689 -27.7676 -21.3119
# 4 -5.1488 -16.8499 -12.8689 45.3187 -14.7252 -2.3935
# 5 -22.4690 -8.8520 -27.7676 -14.7252 48.6989 -2.0477
# 6 -15.5423 -49.6233 -21.3119 -2.3935 -2.0477 54.4215
#
#
#
# Elastic Compliance Matrix: (Units=1/GPa)
#
#
# Indices 1 2 3 4 5 6 
#
# 1 0.009492 -0.002615 -0.001180 0.000913 0.003508 0.000036
# 2 -0.002615 0.015400 0.000522 0.007900 0.004869 0.014030
# 3 -0.001180 0.000522 0.013029 0.007119 0.009380 0.005907
# 4 0.000913 0.007900 0.007119 0.033125 0.016451 0.012328
# 5 0.003508 0.004869 0.009380 0.016451 0.033828 0.011111
# 6 0.000036 0.014030 0.005907 0.012328 0.011111 0.034452
#
#
# Mechanical properties :
#
#
# Convention : Reuss Voigt Hill
#
# Bulk Modulus (GPa) = 31.87533 67.82799 49.85166
# Shear Modulus (GPa) = 31.98340 46.76770 39.37555
#
# Velocity S-wave (km/s) = 3.59698 4.34959 3.99106
# Velocity P-wave (km/s) = 5.49049 7.25698 6.43464
#
# Compressibility (1/GPa) = 0.03137223
#
# Stress axis : x y z
#
# Youngs Moduli (GPa) = 105.35618 64.93492 76.75289
#
# Poissons Ratio (x) = 0.16982 0.09061
# Poissons Ratio (y) = 0.27553 -0.04004
# Poissons Ratio (z) = 0.12437 -0.03387
#
# Static dielectric constant tensor:
#      x y z
#    x 2.100560 -0.074450 -0.006660 
#    y -0.074450 5.328650 0.105440 
#    z -0.006660 0.105440 2.133700 
# 
# From -- ./inp_files/595143.got.cif
#   From: 2010.05.17/outbox.cif.g08.bks.cpg/sg2_298_cif.got.tgz:595143.got - 2010.06.03 11:33:40.
