data_PCOD9033333
_publ_section_title
;
Structure prediction by ZEFSAII (Michael W. Deem and Ramdas Pophale) SiO2 
 PCOD9033333
Probable space group: P -1
;
_chemical_formula_sum "Si O2"
_cell_formula_units_Z 16
_cell_length_a 13.747594
_cell_length_b 7.110800
_cell_length_c 12.518233
_cell_angle_alpha 63.879397
_cell_angle_beta 147.984182
_cell_angle_gamma 115.291066
_cell_volume 578.760336
_symmetry_space_group_name_H-M "P -1"
_symmetry_group_IT_number 2
_symmetry_cell_setting 'triclinic'
loop_
_space_group_symop_operation_xyz
x,y,z
-x,-y,-z
loop_
_atom_site_type_symbol
_atom_site_label
_atom_site_fract_x
_atom_site_fract_y
_atom_site_fract_z
Si Si1 0.262507 0.062844 0.214592
Si Si2 0.940823 0.907498 0.196537
Si Si3 0.192210 0.368660 0.486387
Si Si4 0.667862 0.189016 0.472034
Si Si5 0.360018 0.966238 0.778968
Si Si6 0.210767 0.545614 0.837671
Si Si7 0.329929 0.769879 0.101285
Si Si8 0.206710 0.440377 0.230145
O O1 0.456209 0.102262 0.322013
O O2 0.247089 0.242313 0.244283
O O3 0.253903 0.846461 0.325943
O O4 0.108248 0.071679 0.979460
O O5 0.815066 0.693223 0.168189
O O6 0.160076 0.892592 0.415384
O O7 0.851275 0.105965 0.111057
O O8 0.325620 0.564678 0.609188
O O9 0.218779 0.139461 0.612751
O O10 0.223217 0.384610 0.383400
O O11 0.994607 0.425054 0.323471
O O12 0.280273 0.724073 0.772767
O O13 0.495005 0.054914 0.787793
O O14 0.500000 0.000000 0.000000
O O15 0.322425 0.606366 0.036231
O O16 0.331178 0.637887 0.243601
O O17 0.000000 0.500000 0.000000
#
# Coordination Sequence:
#
# PCOD9033333 Si02
#       8
#     2   2   2   2   2   2   2   2
#     4  11  22  39  61  94 147 181 211 277 335 409
#     4  11  22  41  68  93 139 177 223 274 340 397
#     4  11  22  40  69  96 132 178 221 279 337 400
#     4  10  23  37  58  95 130 178 220 264 334 402
#     4  10  24  42  68  94 130 178 230 278 332 397
#     4  10  22  44  67  95 131 179 227 275 332 391
#     4  11  22  41  67 102 133 178 219 273 343 405
#     4  12  21  37  67 102 139 173 218 271 345 409
#
# _framework density 27.645295999999998
#
# number of rings (size 3 to 8) (size 9 to 14) (size 15 to 20)
#    0.000    1.250    2.500    3.750    1.750    4.500 
#    0.000    0.000    5.500    6.750    0.000    0.000 
#    0.000    0.000    0.000    0.000    0.000    0.000 
#
# Total GULP energy -89630.902413 kJ/mol
# GULP energy per Si atom -5601.931401 kJ/mol
# Density = 2.758237 g / cm^3
# Si number density = 27.645296 Si / 1000 Ang^3
#
#
#
# Elastic Constant Matrix: (Units=GPa)
#
#
# Indices 1 2 3 4 5 6 
#
# 1 72.0498 34.8051 33.1886 19.1231 -3.7221 -3.6384
# 2 34.8051 187.6197 7.9385 -19.7483 6.8149 23.1917
# 3 33.1886 7.9385 102.8586 -21.4622 34.5597 0.0024
# 4 19.1231 -19.7483 -21.4622 23.5271 26.7707 11.0684
# 5 -3.7221 6.8149 34.5597 26.7707 37.2247 -8.9781
# 6 -3.6384 23.1917 0.0024 11.0684 -8.9781 54.3851
#
#
#
# Elastic Compliance Matrix: (Units=1/GPa)
#
#
# Indices 1 2 3 4 5 6 
#
# 1 0.008408 0.000345 0.003395 0.011181 -0.011315 -0.003728
# 2 0.000345 0.004833 -0.002947 -0.004135 0.004760 -0.000410
# 3 0.003395 -0.002947 0.003984 -0.012004 0.007040 0.005089
# 4 0.011181 -0.004135 -0.012004 -0.008267 0.020804 0.007629
# 5 -0.011315 0.004760 0.007040 0.020804 0.001739 -0.006734
# 6 -0.003728 -0.000410 0.005089 0.007629 -0.006734 0.015648
#
#
# Mechanical properties :
#
#
# Convention : Reuss Voigt Hill
#
# Bulk Modulus (GPa) = 53.15611 57.15469 55.15540
# Shear Modulus (GPa) = 161.13908 42.13378 101.63643
#
# Velocity S-wave (km/s) = 7.64294 3.90819 6.06995
# Velocity P-wave (km/s) = 9.85676 6.40971 8.31385
#
# Compressibility (1/GPa) = 0.01881251
#
# Stress axis : x y z
#
# Youngs Moduli (GPa) = 118.93037 206.90462 251.02023
#
# Poissons Ratio (x) = -0.07143 -0.85222
# Poissons Ratio (y) = -0.04106 0.73965
# Poissons Ratio (z) = -0.40377 0.60966
#
# Static dielectric constant tensor:
#      x y z
#    x 2.185660 -0.042610 -0.026230 
#    y -0.042610 2.199490 0.039370 
#    z -0.026230 0.039370 2.133950 
# 
# From -- ./inp_files/529441.got.cif
#   From: 2010.05.17/outbox.cif.g08.bks.cpg/sg2_265_cif.got.tgz:529441.got - 2010.06.03 11:33:40.
