data_PCOD9033133
_publ_section_title
;
Structure prediction by ZEFSAII (Michael W. Deem and Ramdas Pophale) SiO2 
 PCOD9033133
Probable space group: P -1
;
_chemical_formula_sum "Si O2"
_cell_formula_units_Z 15
_cell_length_a 6.106361
_cell_length_b 8.334878
_cell_length_c 22.526206
_cell_angle_alpha 34.362983
_cell_angle_beta 86.068513
_cell_angle_gamma 80.487525
_cell_volume 633.459501
_symmetry_space_group_name_H-M "P -1"
_symmetry_group_IT_number 2
_symmetry_cell_setting 'triclinic'
loop_
_space_group_symop_operation_xyz
x,y,z
-x,-y,-z
loop_
_atom_site_type_symbol
_atom_site_label
_atom_site_fract_x
_atom_site_fract_y
_atom_site_fract_z
Si Si1 0.386019 0.867369 0.488865
Si Si2 0.121512 0.381100 0.680557
Si Si3 0.175907 0.036146 0.901168
Si Si4 0.412409 0.790387 0.810245
Si Si5 0.197077 0.551522 0.435452
Si Si6 0.500000 0.500000 0.000000
Si Si7 0.862296 0.653529 0.080928
Si Si8 0.231585 0.183292 0.285695
O O1 0.248114 0.642412 0.587495
O O2 0.575265 0.686943 0.496105
O O3 0.500000 0.000000 0.500000
O O4 0.230558 0.109474 0.377578
O O5 0.890247 0.457306 0.627092
O O6 0.104610 0.282580 0.778133
O O7 0.262754 0.101247 0.728175
O O8 0.272349 0.160810 0.920201
O O9 0.351247 0.791961 0.940740
O O10 0.975400 0.878847 0.973480
O O11 0.269387 0.535167 0.901111
O O12 0.528991 0.744472 0.758913
O O13 0.597004 0.703866 0.883850
O O14 0.000000 0.500000 0.500000
O O15 0.229111 0.875074 0.348765
O O16 0.041874 0.423658 0.185929
#
# Coordination Sequence:
#
# PCOD9033133 Si02
#       8
#     2   2   2   2   2   1   2   2
#     4  12  29  44  68 106 143 179 234 290 348 407
#     4  11  24  45  70 102 140 183 231 284 349 410
#     4  10  25  46  68 104 144 173 235 280 344 416
#     4  11  23  42  72 101 140 182 228 284 348 411
#     4  12  24  45  72  98 136 189 233 286 337 417
#     4  10  22  44  66 102 138 178 224 278 338 412
#     4  11  25  46  70 105 136 185 229 289 343 410
#     4  12  24  44  71 102 139 183 232 282 349 416
#
# _framework density 23.679492
#
# number of rings (size 3 to 8) (size 9 to 14) (size 15 to 20)
#    0.000    0.800    5.333    1.200    3.733    4.267 
#    0.000    0.000    0.000    0.000    0.000    0.000 
#    0.000    0.000    0.000    0.000    0.000    0.000 
#
# Total GULP energy -83661.662976 kJ/mol
# GULP energy per Si atom -5577.444198 kJ/mol
# Density = 2.362560 g / cm^3
# Si number density = 23.679492 Si / 1000 Ang^3
#
#
#
# Elastic Constant Matrix: (Units=GPa)
#
#
# Indices 1 2 3 4 5 6 
#
# 1 37.0788 1.2109 28.9134 1.3889 2.4471 1.2168
# 2 1.2109 89.6055 9.5418 3.8395 -13.1284 -11.6325
# 3 28.9134 9.5418 137.8445 24.5520 -3.4558 -12.2689
# 4 1.3889 3.8395 24.5520 35.9437 3.0210 -1.8807
# 5 2.4471 -13.1284 -3.4558 3.0210 38.7587 -9.7636
# 6 1.2168 -11.6325 -12.2689 -1.8807 -9.7636 27.5507
#
#
#
# Elastic Compliance Matrix: (Units=1/GPa)
#
#
# Indices 1 2 3 4 5 6 
#
# 1 0.034367 -0.001620 -0.008828 0.004957 -0.005876 -0.007877
# 2 -0.001620 0.013282 0.000683 -0.001969 0.006906 0.008297
# 3 -0.008828 0.000683 0.011031 -0.007260 0.003976 0.006504
# 4 0.004957 -0.001969 -0.007260 0.033032 -0.005175 -0.003862
# 5 -0.005876 0.006906 0.003976 -0.005175 0.033408 0.016432
# 6 -0.007877 0.008297 0.006504 -0.003862 0.016432 0.048604
#
#
# Mechanical properties :
#
#
# Convention : Reuss Voigt Hill
#
# Bulk Modulus (GPa) = 25.54334 38.20677 31.87506
# Shear Modulus (GPa) = 24.23603 35.44149 29.83876
#
# Velocity S-wave (km/s) = 3.20269 3.87294 3.55365
# Velocity P-wave (km/s) = 4.94842 6.01411 5.50710
#
# Compressibility (1/GPa) = 0.03914914
#
# Stress axis : x y z
#
# Youngs Moduli (GPa) = 29.09775 75.28748 90.65618
#
# Poissons Ratio (x) = 0.12200 0.80029
# Poissons Ratio (y) = 0.04715 -0.06189
# Poissons Ratio (z) = 0.25687 -0.05140
#
# Static dielectric constant tensor:
#      x y z
#    x 2.471980 0.930100 0.542140 
#    y 0.930100 3.473540 0.993750 
#    z 0.542140 0.993750 2.498560 
# 
# From -- ./inp_files/44992.got.cif
#   From: 2010.05.17/outbox.cif.g08.bks.cpg/sg2_23_cif.got.tgz:44992.got - 2010.06.03 11:33:40.
