data_PCOD9033213
_publ_section_title
;
Structure prediction by ZEFSAII (Michael W. Deem and Ramdas Pophale) SiO2 
 PCOD9033213
Probable space group: P -1
;
_chemical_formula_sum "Si O2"
_cell_formula_units_Z 12
_cell_length_a 5.011886
_cell_length_b 15.102195
_cell_length_c 12.030261
_cell_angle_alpha 34.380107
_cell_angle_beta 65.304770
_cell_angle_gamma 69.009787
_cell_volume 466.999424
_symmetry_space_group_name_H-M "P -1"
_symmetry_group_IT_number 2
_symmetry_cell_setting 'triclinic'
loop_
_space_group_symop_operation_xyz
x,y,z
-x,-y,-z
loop_
_atom_site_type_symbol
_atom_site_label
_atom_site_fract_x
_atom_site_fract_y
_atom_site_fract_z
Si Si1 0.288179 0.905828 0.998333
Si Si2 0.598405 0.365121 0.205125
Si Si3 0.817522 0.078302 0.355313
Si Si4 0.674515 0.394492 0.422966
Si Si5 0.206789 0.304024 0.765002
Si Si6 0.855509 0.866648 0.381210
O O1 0.566258 0.835465 0.088774
O O2 0.121463 0.756504 0.130649
O O3 0.369025 0.044849 0.755389
O O4 0.000000 0.000000 0.000000
O O5 0.816999 0.259063 0.201265
O O6 0.690774 0.405013 0.274594
O O7 0.325539 0.254405 0.390002
O O8 0.500000 0.500000 0.000000
O O9 0.500000 0.000000 0.500000
O O10 0.949338 0.015341 0.283184
O O11 0.000000 0.000000 0.500000
O O12 0.349612 0.365060 0.560870
O O13 0.780665 0.552590 0.299169
O O14 0.872037 0.244412 0.586611
#
# Coordination Sequence:
#
# PCOD9033213 Si02
#       6
#     2   2   2   2   2   2
#     4  12  25  46  74 106 142 183 242 282 359 418
#     4  11  26  46  70 102 142 188 241 292 355 414
#     4  10  22  44  66  97 130 178 234 286 340 402
#     4  11  25  46  70 102 148 182 236 287 360 417
#     4  11  28  44  73 110 143 187 227 295 352 427
#     4  11  25  43  72  98 140 186 232 297 344 420
#
# _framework density 25.695964
#
# number of rings (size 3 to 8) (size 9 to 14) (size 15 to 20)
#    0.000    1.000    3.333    1.500    7.000    2.000 
#    3.000    0.000    0.000    0.000    0.000    0.000 
#    0.000    0.000    0.000    0.000    0.000    0.000 
#
# Total GULP energy -67056.268327 kJ/mol
# GULP energy per Si atom -5588.022361 kJ/mol
# Density = 2.563748 g / cm^3
# Si number density = 25.695964 Si / 1000 Ang^3
#
#
#
# Elastic Constant Matrix: (Units=GPa)
#
#
# Indices 1 2 3 4 5 6 
#
# 1 113.3230 19.6051 26.8816 1.2051 12.5204 11.3440
# 2 19.6051 145.4486 29.4436 -37.2385 10.1187 13.6727
# 3 26.8816 29.4436 138.9225 -6.5663 18.7785 0.0452
# 4 1.2051 -37.2385 -6.5663 35.9251 -11.4324 0.4510
# 5 12.5204 10.1187 18.7785 -11.4324 52.5095 -2.4651
# 6 11.3440 13.6727 0.0452 0.4510 -2.4651 34.8357
#
#
#
# Elastic Compliance Matrix: (Units=1/GPa)
#
#
# Indices 1 2 3 4 5 6 
#
# 1 0.009966 -0.001293 -0.001466 -0.002642 -0.002313 -0.002866
# 2 -0.001293 0.010462 -0.001592 0.010987 0.001078 -0.003749
# 3 -0.001466 -0.001592 0.008100 -0.000894 -0.002391 0.000934
# 4 -0.002642 0.010987 -0.000894 0.041656 0.007740 -0.003442
# 5 -0.002313 0.001078 -0.002391 0.007740 0.022012 0.001791
# 6 -0.002866 -0.003749 0.000934 -0.003442 0.001791 0.031281
#
#
# Mechanical properties :
#
#
# Convention : Reuss Voigt Hill
#
# Bulk Modulus (GPa) = 50.43751 61.06164 55.74957
# Shear Modulus (GPa) = 36.02589 46.10499 41.06544
#
# Velocity S-wave (km/s) = 3.74840 4.24045 4.00200
# Velocity P-wave (km/s) = 6.19719 6.91303 6.56487
#
# Compressibility (1/GPa) = 0.01982652
#
# Stress axis : x y z
#
# Youngs Moduli (GPa) = 100.33923 95.58065 123.45599
#
# Poissons Ratio (x) = 0.12357 0.18096
# Poissons Ratio (y) = 0.12973 0.19659
# Poissons Ratio (z) = 0.14708 0.15220
#
# Static dielectric constant tensor:
#      x y z
#    x 2.016310 -0.032880 -0.022440 
#    y -0.032880 2.261740 0.084410 
#    z -0.022440 0.084410 2.020190 
# 
# From -- ./inp_files/23156.got.cif
#   From: 2010.05.17/outbox.cif.g08.bks.cpg/sg2_12_cif.got.tgz:23156.got - 2010.06.03 11:33:40.
