data_PCOD9033649
_publ_section_title
;
Structure prediction by ZEFSAII (Michael W. Deem and Ramdas Pophale) SiO2 
 PCOD9033649
Probable space group: P -1
;
_chemical_formula_sum "Si O2"
_cell_formula_units_Z 15
_cell_length_a 8.953196
_cell_length_b 9.188171
_cell_length_c 8.845886
_cell_angle_alpha 71.713664
_cell_angle_beta 79.440873
_cell_angle_gamma 68.310399
_cell_volume 640.156096
_symmetry_space_group_name_H-M "P -1"
_symmetry_group_IT_number 2
_symmetry_cell_setting 'triclinic'
loop_
_space_group_symop_operation_xyz
x,y,z
-x,-y,-z
loop_
_atom_site_type_symbol
_atom_site_label
_atom_site_fract_x
_atom_site_fract_y
_atom_site_fract_z
Si Si1 0.466217 0.796606 0.716140
Si Si2 0.887732 0.069900 0.140510
Si Si3 0.590912 0.088342 0.655318
Si Si4 0.500000 0.500000 0.000000
Si Si5 0.070395 0.562864 0.608917
Si Si6 0.929004 0.684857 0.889159
Si Si7 0.333030 0.316487 0.854299
Si Si8 0.087139 0.876647 0.394728
O O1 0.421080 0.822699 0.536865
O O2 0.304311 0.858424 0.833279
O O3 0.565229 0.917991 0.685672
O O4 0.544582 0.614016 0.820764
O O5 0.947643 0.217102 0.137733
O O6 0.946534 0.911798 0.287608
O O7 0.000000 0.000000 0.000000
O O8 0.460690 0.189233 0.766637
O O9 0.763325 0.072040 0.699222
O O10 0.586554 0.581875 0.087098
O O11 0.202326 0.429834 0.725027
O O12 0.147879 0.693313 0.493832
O O13 0.000000 0.500000 0.500000
O O14 0.927071 0.659616 0.718535
O O15 0.766787 0.760662 0.989520
O O16 0.000000 0.500000 0.000000
O O17 0.000000 0.000000 0.500000
#
# Coordination Sequence:
#
# PCOD9033649 Si02
#       8
#     2   2   2   1   2   2   2   2
#     4  11  26  48  74 109 146 198 244 310 375 441
#     4  12  26  45  74 103 145 192 249 301 365 446
#     4  11  26  49  76 106 151 193 252 309 372 446
#     4  12  28  46  72 104 158 190 244 304 376 438
#     4  11  26  46  78 110 145 193 251 305 368 438
#     4  10  22  44  69 101 147 183 239 300 358 432
#     4  11  27  47  72 110 150 195 245 305 377 441
#     4  12  25  46  73 104 144 196 246 305 365 443
#
# _framework density 23.431782999999999
#
# number of rings (size 3 to 8) (size 9 to 14) (size 15 to 20)
#    0.000    0.800    2.667    3.200    9.333    4.800 
#    0.000    0.000    0.000    0.000    0.000    0.000 
#    0.000    0.000    0.000    0.000    0.000    0.000 
#
# Total GULP energy -83585.153834 kJ/mol
# GULP energy per Si atom -5572.343589 kJ/mol
# Density = 2.337845 g / cm^3
# Si number density = 23.431783 Si / 1000 Ang^3
#
#
#
# Elastic Constant Matrix: (Units=GPa)
#
#
# Indices 1 2 3 4 5 6 
#
# 1 88.3131 32.9152 7.8367 -0.3750 -14.9385 14.2077
# 2 32.9152 59.9226 26.8442 2.0987 -9.8513 15.0379
# 3 7.8367 26.8442 87.0410 -2.9691 -2.1214 15.7639
# 4 -0.3750 2.0987 -2.9691 47.3998 1.3847 -16.9731
# 5 -14.9385 -9.8513 -2.1214 1.3847 44.6463 5.4278
# 6 14.2077 15.0379 15.7639 -16.9731 5.4278 45.1290
#
#
#
# Elastic Compliance Matrix: (Units=1/GPa)
#
#
# Indices 1 2 3 4 5 6 
#
# 1 0.015240 -0.007508 0.001680 -0.000882 0.003999 -0.003696
# 2 -0.007508 0.025863 -0.006260 -0.003841 0.003741 -0.005962
# 3 0.001680 -0.006260 0.013877 -0.000042 0.000247 -0.003336
# 4 -0.000882 -0.003841 -0.000042 0.025496 -0.003341 0.011563
# 5 0.003999 0.003741 0.000247 -0.003341 0.025518 -0.006918
# 6 -0.003696 -0.005962 -0.003336 0.011563 -0.006918 0.031655
#
#
# Mechanical properties :
#
#
# Convention : Reuss Voigt Hill
#
# Bulk Modulus (GPa) = 32.46458 41.16321 36.81390
# Shear Modulus (GPa) = 29.05416 38.61371 33.83393
#
# Velocity S-wave (km/s) = 3.52511 4.06386 3.80403
# Velocity P-wave (km/s) = 5.51847 6.29487 5.91941
#
# Compressibility (1/GPa) = 0.03080280
#
# Stress axis : x y z
#
# Youngs Moduli (GPa) = 65.61749 38.66588 72.06150
#
# Poissons Ratio (x) = 0.29031 -0.12107
# Poissons Ratio (y) = 0.49266 0.45113
# Poissons Ratio (z) = -0.11025 0.24206
#
# Static dielectric constant tensor:
#      x y z
#    x 1.971120 -0.081570 0.011460 
#    y -0.081570 1.935980 0.001200 
#    z 0.011460 0.001200 1.938270 
# 
# From -- ./inp_files/157365.got.cif
#   From: 2010.05.17/outbox.cif.g08.bks.cpg/sg2_79_cif.got.tgz:157365.got - 2010.06.03 11:33:40.
