data_PCOD9033526
_publ_section_title
;
Structure prediction by ZEFSAII (Michael W. Deem and Ramdas Pophale) SiO2 
 PCOD9033526
Probable space group: P -1
;
_chemical_formula_sum "Si O2"
_cell_formula_units_Z 16
_cell_length_a 9.431911
_cell_length_b 12.529315
_cell_length_c 9.189421
_cell_angle_alpha 94.731347
_cell_angle_beta 102.302870
_cell_angle_gamma 49.745653
_cell_volume 807.533809
_symmetry_space_group_name_H-M "P -1"
_symmetry_group_IT_number 2
_symmetry_cell_setting 'triclinic'
loop_
_space_group_symop_operation_xyz
x,y,z
-x,-y,-z
loop_
_atom_site_type_symbol
_atom_site_label
_atom_site_fract_x
_atom_site_fract_y
_atom_site_fract_z
Si Si1 0.180742 0.848660 0.887125
Si Si2 0.510307 0.315514 0.641241
Si Si3 0.346693 0.594934 0.101342
Si Si4 0.859676 0.517138 0.855932
Si Si5 0.243915 0.974100 0.167464
Si Si6 0.573922 0.959935 0.347121
Si Si7 0.463861 0.777170 0.693108
Si Si8 0.864536 0.623702 0.367722
O O1 0.326837 0.781576 0.777411
O O2 0.225109 0.743760 0.012708
O O3 0.208260 0.948140 0.992005
O O4 0.968260 0.917696 0.802040
O O5 0.565329 0.403816 0.728311
O O6 0.656774 0.163048 0.727664
O O7 0.517933 0.290562 0.467506
O O8 0.310256 0.376498 0.675911
O O9 0.227818 0.547866 0.104445
O O10 0.500000 0.500000 0.000000
O O11 0.678664 0.675815 0.790847
O O12 0.993640 0.429908 0.739879
O O13 0.000000 0.500000 0.000000
O O14 0.397764 0.996381 0.216480
O O15 0.750805 0.791784 0.374286
O O16 0.500000 0.000000 0.500000
O O17 0.611554 0.065102 0.323247
O O18 0.000000 0.500000 0.500000
#
# Coordination Sequence:
#
# PCOD9033526 Si02
#       8
#     2   2   2   2   2   2   2   2
#     4  10  23  42  67  94 131 175 225 277 330 397
#     4  10  22  44  68  93 139 170 221 284 330 400
#     4  11  23  46  66  93 133 183 223 274 338 398
#     4  12  27  44  67 102 135 175 229 277 340 410
#     4   9  21  42  65  91 131 175 218 274 334 393
#     4  11  22  42  68  98 135 178 219 274 341 392
#     4  12  24  44  66 103 137 174 227 282 337 400
#     4  11  22  45  69 100 136 175 222 276 331 404
#
# _framework density 19.813412
#
# number of rings (size 3 to 8) (size 9 to 14) (size 15 to 20)
#    0.000    1.250    5.000    0.750    5.250    4.500 
#    4.500    0.000    0.000    0.000    0.000    0.000 
#    0.000    0.000    0.000    0.000    0.000    0.000 
#
# Total GULP energy -89144.782447 kJ/mol
# GULP energy per Si atom -5571.548903 kJ/mol
# Density = 1.976832 g / cm^3
# Si number density = 19.813412 Si / 1000 Ang^3
#
#
#
# Elastic Constant Matrix: (Units=GPa)
#
#
# Indices 1 2 3 4 5 6 
#
# 1 117.5098 61.6493 64.7630 5.1160 -4.4071 -2.6023
# 2 61.6493 101.7094 37.9810 -9.2771 5.0308 -15.6163
# 3 64.7630 37.9810 92.1615 -0.4151 -2.2741 -1.7227
# 4 5.1160 -9.2771 -0.4151 30.3816 -8.0929 3.3013
# 5 -4.4071 5.0308 -2.2741 -8.0929 39.8174 2.4462
# 6 -2.6023 -15.6163 -1.7227 3.3013 2.4462 45.3121
#
#
#
# Elastic Compliance Matrix: (Units=1/GPa)
#
#
# Indices 1 2 3 4 5 6 
#
# 1 0.018421 -0.008480 -0.009469 -0.005174 0.001637 -0.001936
# 2 -0.008480 0.016649 -0.000843 0.005347 -0.002308 0.004954
# 3 -0.009469 -0.000843 0.017865 0.001734 0.000450 -0.000306
# 4 -0.005174 0.005347 0.001734 0.037341 0.006530 -0.001461
# 5 0.001637 -0.002308 0.000450 0.006530 0.027101 -0.002623
# 6 -0.001936 0.004954 -0.000306 -0.001461 -0.002623 0.023902
#
#
# Mechanical properties :
#
#
# Convention : Reuss Voigt Hill
#
# Bulk Modulus (GPa) = 65.13862 71.12969 68.13415
# Shear Modulus (GPa) = 27.17685 32.90139 30.03912
#
# Velocity S-wave (km/s) = 3.70758 4.07942 3.89794
# Velocity P-wave (km/s) = 7.16070 7.62670 7.39737
#
# Compressibility (1/GPa) = 0.01535188
#
# Stress axis : x y z
#
# Youngs Moduli (GPa) = 54.28501 60.06387 55.97468
#
# Poissons Ratio (x) = 0.50933 0.53004
# Poissons Ratio (y) = 0.46033 0.04717
# Poissons Ratio (z) = 0.51404 0.05061
#
# Static dielectric constant tensor:
#      x y z
#    x 1.758260 -0.063680 0.105170 
#    y -0.063680 1.936290 -0.117740 
#    z 0.105170 -0.117740 1.802710 
# 
# From -- ./inp_files/187779.got.cif
#   From: 2010.05.17/outbox.cif.g08.bks.cpg/sg2_94_cif.got.tgz:187779.got - 2010.06.03 11:33:40.
