data_PCOD9033530
_publ_section_title
;
Structure prediction by ZEFSAII (Michael W. Deem and Ramdas Pophale) SiO2 
 PCOD9033530
Probable space group: P -1
;
_chemical_formula_sum "Si O2"
_cell_formula_units_Z 12
_cell_length_a 14.401778
_cell_length_b 7.144017
_cell_length_c 12.032428
_cell_angle_alpha 43.835186
_cell_angle_beta 150.343888
_cell_angle_gamma 130.010904
_cell_volume 423.770256
_symmetry_space_group_name_H-M "P -1"
_symmetry_group_IT_number 2
_symmetry_cell_setting 'triclinic'
loop_
_space_group_symop_operation_xyz
x,y,z
-x,-y,-z
loop_
_atom_site_type_symbol
_atom_site_label
_atom_site_fract_x
_atom_site_fract_y
_atom_site_fract_z
Si Si1 0.922510 0.802733 0.674316
Si Si2 0.104220 0.040209 0.974762
Si Si3 0.961214 0.348734 0.369713
Si Si4 0.504594 0.627733 0.297126
Si Si5 0.513121 0.931322 0.387486
Si Si6 0.388648 0.481978 0.777926
O O1 0.056893 0.699603 0.761092
O O2 0.731579 0.620169 0.553568
O O3 0.011904 0.843332 0.869646
O O4 0.868242 0.101158 0.447132
O O5 0.323525 0.990074 0.228823
O O6 0.092118 0.350249 0.788749
O O7 0.000000 0.000000 0.000000
O O8 0.184997 0.335178 0.631810
O O9 0.457690 0.868496 0.227813
O O10 0.414257 0.347807 0.370460
O O11 0.489940 0.638374 0.144855
O O12 0.642927 0.200741 0.416308
O O13 0.500000 0.500000 0.000000
#
# Coordination Sequence:
#
# PCOD9033530 Si02
#       6
#     2   2   2   2   2   2
#     4  10  22  44  68  94 132 174 218 266 326 390
#     4  12  25  41  67 100 132 171 219 273 330 388
#     4  10  23  44  69  96 132 174 216 272 326 385
#     4  10  24  45  68  94 133 178 217 269 326 387
#     4  11  25  43  66  97 133 173 219 268 329 394
#     4  11  23  43  71 100 130 170 222 272 325 387
#
# _framework density 28.317229000000001
#
# number of rings (size 3 to 8) (size 9 to 14) (size 15 to 20)
#    0.000    1.333    0.000    5.000    0.000    8.667 
#    0.000    1.667    0.000    0.000    0.000    0.000 
#    0.000    0.000    0.000    0.000    0.000    0.000 
#
# Total GULP energy -67452.090927 kJ/mol
# GULP energy per Si atom -5621.007577 kJ/mol
# Density = 2.825278 g / cm^3
# Si number density = 28.317229 Si / 1000 Ang^3
#
#
#
# Elastic Constant Matrix: (Units=GPa)
#
#
# Indices 1 2 3 4 5 6 
#
# 1 143.7833 34.8064 15.6587 12.4531 -14.6129 -30.6982
# 2 34.8064 153.6405 15.2150 9.7371 -15.4700 -10.3886
# 3 15.6587 15.2150 77.0961 6.9925 -13.2836 -5.5514
# 4 12.4531 9.7371 6.9925 54.8933 -13.1655 -15.9163
# 5 -14.6129 -15.4700 -13.2836 -13.1655 34.7612 10.5592
# 6 -30.6982 -10.3886 -5.5514 -15.9163 10.5592 70.6264
#
#
#
# Elastic Compliance Matrix: (Units=1/GPa)
#
#
# Indices 1 2 3 4 5 6 
#
# 1 0.008207 -0.001402 -0.000896 -0.000275 0.001465 0.003010
# 2 -0.001402 0.007138 -0.000717 -0.000337 0.002192 -0.000019
# 3 -0.000896 -0.000717 0.014111 -0.000414 0.004590 -0.000165
# 4 -0.000275 -0.000337 -0.000414 0.020968 0.006436 0.003562
# 5 0.001465 0.002192 0.004590 0.006436 0.035313 -0.002509
# 6 0.003010 -0.000019 -0.000165 0.003562 -0.002509 0.016629
#
#
# Mechanical properties :
#
#
# Convention : Reuss Voigt Hill
#
# Bulk Modulus (GPa) = 42.68876 56.20891 49.44883
# Shear Modulus (GPa) = 43.02727 52.64549 47.83638
#
# Velocity S-wave (km/s) = 3.90227 4.31644 4.11457
# Velocity P-wave (km/s) = 5.95076 6.68843 6.33035
#
# Compressibility (1/GPa) = 0.02342537
#
# Stress axis : x y z
#
# Youngs Moduli (GPa) = 121.84402 140.09422 70.86751
#
# Poissons Ratio (x) = 0.19642 0.06350
# Poissons Ratio (y) = 0.17084 0.05082
# Poissons Ratio (z) = 0.10918 0.10047
#
# Static dielectric constant tensor:
#      x y z
#    x 2.170510 -0.053930 -0.037760 
#    y -0.053930 2.124500 0.020490 
#    z -0.037760 0.020490 2.176050 
# 
# From -- ./inp_files/440968.got.cif
#   From: 2010.05.17/outbox.cif.g08.bks.cpg/sg2_221_cif.got.tgz:440968.got - 2010.06.03 11:33:40.
