data_PCOD9033796
_publ_section_title
;
Structure prediction by ZEFSAII (Michael W. Deem and Ramdas Pophale) SiO2 
 PCOD9033796
Probable space group: P -1
;
_chemical_formula_sum "Si O2"
_cell_formula_units_Z 14
_cell_length_a 17.726909
_cell_length_b 8.424858
_cell_length_c 11.693318
_cell_angle_alpha 45.470672
_cell_angle_beta 151.715853
_cell_angle_gamma 133.805059
_cell_volume 575.331046
_symmetry_space_group_name_H-M "P -1"
_symmetry_group_IT_number 2
_symmetry_cell_setting 'triclinic'
loop_
_space_group_symop_operation_xyz
x,y,z
-x,-y,-z
loop_
_atom_site_type_symbol
_atom_site_label
_atom_site_fract_x
_atom_site_fract_y
_atom_site_fract_z
Si Si1 0.681985 0.102045 0.281947
Si Si2 0.563842 0.292407 0.350014
Si Si3 0.713833 0.573089 0.186604
Si Si4 0.065328 0.804463 0.623687
Si Si5 0.410898 0.395548 0.549074
Si Si6 0.160403 0.890314 0.267052
Si Si7 0.920796 0.526865 0.001011
O O1 0.652238 0.358421 0.125914
O O2 0.789044 0.115769 0.532820
O O3 0.793399 0.094989 0.325946
O O4 0.556722 0.854247 0.247668
O O5 0.647690 0.480383 0.270196
O O6 0.573171 0.419527 0.420396
O O7 0.661442 0.085340 0.572783
O O8 0.377914 0.236835 0.081236
O O9 0.908981 0.661084 0.415218
O O10 0.140313 0.680049 0.889318
O O11 0.000000 0.000000 0.500000
O O12 0.500000 0.500000 0.500000
O O13 0.222621 0.349469 0.281700
O O14 0.072123 0.658327 0.208462
O O15 0.000000 0.000000 0.000000
O O16 0.000000 0.500000 0.000000
#
# Coordination Sequence:
#
# PCOD9033796 Si02
#       7
#     2   2   2   2   2   2   2
#     4  11  24  44  73 104 140 191 249 296 355 428
#     4  10  22  44  69  99 149 189 229 304 361 425
#     4  10  22  44  72 103 147 181 239 302 360 425
#     4  12  25  42  73 111 138 195 243 299 358 427
#     4  12  27  46  69 106 149 191 241 298 370 430
#     4  11  22  42  77  99 139 192 242 297 360 426
#     4  12  23  46  72 101 149 189 239 299 358 434
#
# _framework density 24.333818000000001
#
# number of rings (size 3 to 8) (size 9 to 14) (size 15 to 20)
#    0.000    0.857    5.714    2.143    2.000    0.571 
#    7.714    2.857    0.000    0.000    0.000    0.000 
#    0.000    0.000    0.000    0.000    0.000    0.000 
#
# Total GULP energy -77968.067132 kJ/mol
# GULP energy per Si atom -5569.147652 kJ/mol
# Density = 2.427843 g / cm^3
# Si number density = 24.333818 Si / 1000 Ang^3
#
#
#
# Elastic Constant Matrix: (Units=GPa)
#
#
# Indices 1 2 3 4 5 6 
#
# 1 186.8228 51.1221 12.5032 -5.3422 -5.7055 -13.4354
# 2 51.1221 80.5251 14.0303 -1.5460 -2.8856 -5.4016
# 3 12.5032 14.0303 121.2391 -1.9455 19.4097 -13.5039
# 4 -5.3422 -1.5460 -1.9455 31.8093 -8.9116 3.4606
# 5 -5.7055 -2.8856 19.4097 -8.9116 39.2787 3.0146
# 6 -13.4354 -5.4016 -13.5039 3.4606 3.0146 33.0523
#
#
#
# Elastic Compliance Matrix: (Units=1/GPa)
#
#
# Indices 1 2 3 4 5 6 
#
# 1 0.006646 -0.004027 -0.000131 0.000941 0.000808 0.001817
# 2 -0.004027 0.015309 -0.001566 0.000354 0.001389 0.000061
# 3 -0.000131 -0.001566 0.009814 -0.001565 -0.005675 0.004382
# 4 0.000941 0.000354 -0.001565 0.034584 0.009139 -0.004653
# 5 0.000808 0.001389 -0.005675 0.009139 0.030982 -0.005546
# 6 0.001817 0.000061 0.004382 -0.004653 -0.005546 0.033787
#
#
# Mechanical properties :
#
#
# Convention : Reuss Voigt Hill
#
# Bulk Modulus (GPa) = 49.21342 60.43314 54.82328
# Shear Modulus (GPa) = 33.47957 41.55683 37.51820
#
# Velocity S-wave (km/s) = 3.71326 4.13701 3.93085
# Velocity P-wave (km/s) = 6.21712 6.90716 6.57120
#
# Compressibility (1/GPa) = 0.02031966
#
# Stress axis : x y z
#
# Youngs Moduli (GPa) = 150.47146 65.32164 101.89015
#
# Poissons Ratio (x) = 0.26307 0.01337
# Poissons Ratio (y) = 0.60600 0.15958
# Poissons Ratio (z) = 0.01974 0.10231
#
# Static dielectric constant tensor:
#      x y z
#    x 1.351590 -0.291750 -0.134520 
#    y -0.291750 1.912570 -0.216600 
#    z -0.134520 -0.216600 2.023280 
# 
# From -- ./inp_files/461945.got.cif
#   From: 2010.05.17/outbox.cif.g08.bks.cpg/sg2_231_cif.got.tgz:461945.got - 2010.06.03 11:33:40.
