data_PCOD9033931
_publ_section_title
;
Structure prediction by ZEFSAII (Michael W. Deem and Ramdas Pophale) SiO2 
 PCOD9033931
Probable space group: P -1
;
_chemical_formula_sum "Si O2"
_cell_formula_units_Z 12
_cell_length_a 5.130090
_cell_length_b 12.295531
_cell_length_c 17.061188
_cell_angle_alpha 33.037691
_cell_angle_beta 72.058302
_cell_angle_gamma 69.142526
_cell_volume 548.173626
_symmetry_space_group_name_H-M "P -1"
_symmetry_group_IT_number 2
_symmetry_cell_setting 'triclinic'
loop_
_space_group_symop_operation_xyz
x,y,z
-x,-y,-z
loop_
_atom_site_type_symbol
_atom_site_label
_atom_site_fract_x
_atom_site_fract_y
_atom_site_fract_z
Si Si1 0.551327 0.257236 0.543132
Si Si2 0.600520 0.156586 0.192205
Si Si3 0.764214 0.552397 0.223615
Si Si4 0.734460 0.491233 0.083908
Si Si5 0.030067 0.782909 0.336103
Si Si6 0.157063 0.779253 0.144671
O O1 0.669995 0.379739 0.390587
O O2 0.703082 0.280150 0.596762
O O3 0.220453 0.323507 0.546572
O O4 0.583410 0.015323 0.670699
O O5 0.617938 0.297201 0.180422
O O6 0.483881 0.305682 0.042002
O O7 0.897675 0.021013 0.222328
O O8 0.815178 0.482153 0.172220
O O9 0.492019 0.733849 0.135924
O O10 0.025504 0.622934 0.197708
O O11 0.000000 0.500000 0.000000
O O12 0.082062 0.759150 0.254477
O O13 0.000000 0.000000 0.000000
#
# Coordination Sequence:
#
# PCOD9033931 Si02
#       6
#     2   2   2   2   2   2
#     4  10  23  43  68 103 134 177 217 276 328 405
#     4   9  23  42  71  97 128 184 219 270 338 392
#     4  12  28  43  69 105 134 171 233 269 337 390
#     4  11  24  44  71  96 135 179 224 281 328 401
#     4  10  22  44  70  94 141 175 219 265 342 392
#     4  12  27  44  70 103 137 176 218 283 323 405
#
# _framework density 21.890875999999999
#
# number of rings (size 3 to 8) (size 9 to 14) (size 15 to 20)
#    1.000    0.333    0.000    4.500    9.333    4.667 
#    0.000    1.667    0.000    0.000    0.000    0.000 
#    0.000    0.000    0.000    0.000    0.000    0.000 
#
# Total GULP energy -67125.334916 kJ/mol
# GULP energy per Si atom -5593.777910 kJ/mol
# Density = 2.184105 g / cm^3
# Si number density = 21.890876 Si / 1000 Ang^3
#
#
#
# Elastic Constant Matrix: (Units=GPa)
#
#
# Indices 1 2 3 4 5 6 
#
# 1 76.8674 11.0452 13.7770 -8.1535 9.4584 13.1742
# 2 11.0452 86.2406 60.9274 10.4214 15.5438 22.5284
# 3 13.7770 60.9274 102.7448 8.9828 12.9941 25.7682
# 4 -8.1535 10.4214 8.9828 41.8048 0.0540 5.2223
# 5 9.4584 15.5438 12.9941 0.0540 30.0754 0.8013
# 6 13.1742 22.5284 25.7682 5.2223 0.8013 40.0015
#
#
#
# Elastic Compliance Matrix: (Units=1/GPa)
#
#
# Indices 1 2 3 4 5 6 
#
# 1 0.014871 0.000186 -0.000615 0.003615 -0.004381 -0.004991
# 2 0.000186 0.021970 -0.010724 -0.002495 -0.006640 -0.005068
# 3 -0.000615 -0.010724 0.017723 -0.000621 -0.001786 -0.005058
# 4 0.003615 -0.002495 -0.000621 0.025724 0.000448 -0.002753
# 5 -0.004381 -0.006640 -0.001786 0.000448 0.038684 0.005499
# 6 -0.004991 -0.005068 -0.005058 -0.002753 0.005499 0.033004
#
#
# Mechanical properties :
#
#
# Convention : Reuss Voigt Hill
#
# Bulk Modulus (GPa) = 30.99974 48.59466 39.79720
# Shear Modulus (GPa) = 27.02184 34.38323 30.70254
#
# Velocity S-wave (km/s) = 3.51720 3.96746 3.74910
# Velocity P-wave (km/s) = 5.53950 6.57529 6.07949
#
# Compressibility (1/GPa) = 0.03225834
#
# Stress axis : x y z
#
# Youngs Moduli (GPa) = 67.24637 45.51592 56.42230
#
# Poissons Ratio (x) = -0.00848 0.03469
# Poissons Ratio (y) = -0.01252 0.60510
# Poissons Ratio (z) = 0.04134 0.48813
#
# Static dielectric constant tensor:
#      x y z
#    x 1.877860 -0.039760 0.001290 
#    y -0.039760 1.822620 -0.074760 
#    z 0.001290 -0.074760 1.788850 
# 
# From -- ./inp_files/86670.got.cif
#   From: 2010.05.17/outbox.cif.g08.bks.cpg/sg2_44_cif.got.tgz:86670.got - 2010.06.03 11:33:40.
