data_PCOD9033413
_publ_section_title
;
Structure prediction by ZEFSAII (Michael W. Deem and Ramdas Pophale) SiO2 
 PCOD9033413
Probable space group: P -1
;
_chemical_formula_sum "Si O2"
_cell_formula_units_Z 14
_cell_length_a 20.742212
_cell_length_b 20.804342
_cell_length_c 6.022702
_cell_angle_alpha 130.739221
_cell_angle_beta 120.593603
_cell_angle_gamma 19.876357
_cell_volume 611.611546
_symmetry_space_group_name_H-M "P -1"
_symmetry_group_IT_number 2
_symmetry_cell_setting 'triclinic'
loop_
_space_group_symop_operation_xyz
x,y,z
-x,-y,-z
loop_
_atom_site_type_symbol
_atom_site_label
_atom_site_fract_x
_atom_site_fract_y
_atom_site_fract_z
Si Si1 0.221084 0.093355 0.881503
Si Si2 0.510677 0.942253 0.139153
Si Si3 0.838001 0.921645 0.833793
Si Si4 0.030065 0.566841 0.156981
Si Si5 0.291468 0.717593 0.768340
Si Si6 0.529958 0.307915 0.853931
Si Si7 0.124783 0.764836 0.920382
O O1 0.027832 0.341419 0.981620
O O2 0.385701 0.864126 0.512363
O O3 0.135665 0.111968 0.936697
O O4 0.342681 0.045656 0.080526
O O5 0.500000 0.000000 0.500000
O O6 0.735298 0.662162 0.893245
O O7 0.500000 0.000000 0.000000
O O8 0.868884 0.792872 0.522192
O O9 0.019785 0.784814 0.734824
O O10 0.614832 0.195053 0.994272
O O11 0.000000 0.500000 0.000000
O O12 0.500000 0.500000 0.500000
O O13 0.247764 0.678978 0.741341
O O14 0.336149 0.748250 0.087855
O O15 0.085640 0.956280 0.801240
O O16 0.291693 0.578004 0.988824
#
# Coordination Sequence:
#
# PCOD9033413 Si02
#       7
#     2   2   2   2   2   2   2
#     4  11  25  44  71  98 145 188 240 304 368 438
#     4  12  27  44  71 104 140 191 249 306 376 442
#     4  10  24  43  65 103 138 184 238 297 363 439
#     4  11  23  44  70  99 141 184 245 302 364 434
#     4  10  23  44  71 103 138 183 236 296 359 440
#     4  10  23  43  67  99 140 182 238 291 357 438
#     4  10  22  44  67  99 140 176 237 287 359 436
#
# _framework density 22.890346000000001
#
# number of rings (size 3 to 8) (size 9 to 14) (size 15 to 20)
#    0.000    1.429    1.429    2.143    8.000    2.857 
#   10.286    0.000    0.000    0.000    0.000    0.000 
#    0.000    0.000    0.000    0.000    0.000    0.000 
#
# Total GULP energy -77940.496648 kJ/mol
# GULP energy per Si atom -5567.178332 kJ/mol
# Density = 2.283825 g / cm^3
# Si number density = 22.890346 Si / 1000 Ang^3
#
#
#
# Elastic Constant Matrix: (Units=GPa)
#
#
# Indices 1 2 3 4 5 6 
#
# 1 140.3987 63.6728 46.0889 6.4811 -0.0343 16.1207
# 2 63.6728 202.2138 25.6907 23.4018 -2.1928 25.5994
# 3 46.0889 25.6907 65.3233 5.3130 9.5694 8.6010
# 4 6.4811 23.4018 5.3130 33.3294 -6.5579 5.2493
# 5 -0.0343 -2.1928 9.5694 -6.5579 28.8597 0.3304
# 6 16.1207 25.5994 8.6010 5.2493 0.3304 28.8391
#
#
#
# Elastic Compliance Matrix: (Units=1/GPa)
#
#
# Indices 1 2 3 4 5 6 
#
# 1 0.010574 -0.002352 -0.006734 0.001478 0.002427 -0.002112
# 2 -0.002352 0.006601 -0.000101 -0.003602 -0.000242 -0.003857
# 3 -0.006734 -0.000101 0.021798 -0.003359 -0.007985 -0.001945
# 4 0.001478 -0.003602 -0.003359 0.035007 0.008832 -0.003101
# 5 0.002427 -0.000242 -0.007985 0.008832 0.039299 -0.000818
# 6 -0.002112 -0.003857 -0.001945 -0.003101 -0.000818 0.040433
#
#
# Mechanical properties :
#
#
# Convention : Reuss Voigt Hill
#
# Bulk Modulus (GPa) = 48.54001 75.42673 61.98337
# Shear Modulus (GPa) = 27.94071 36.37119 32.15595
#
# Velocity S-wave (km/s) = 3.49755 3.99046 3.75211
# Velocity P-wave (km/s) = 6.12878 7.36577 6.77556
#
# Compressibility (1/GPa) = 0.02060156
#
# Stress axis : x y z
#
# Youngs Moduli (GPa) = 94.56866 151.49440 45.87588
#
# Poissons Ratio (x) = 0.35624 0.30891
# Poissons Ratio (y) = 0.22238 0.00462
# Poissons Ratio (z) = 0.63678 0.01526
#
# Static dielectric constant tensor:
#      x y z
#    x 1.914660 0.068870 -0.052400 
#    y 0.068870 1.872100 -0.118600 
#    z -0.052400 -0.118600 2.001900 
# 
# From -- ./inp_files/120491.got.cif
#   From: 2010.05.17/outbox.cif.g08.bks.cpg/sg2_61_cif.got.tgz:120491.got - 2010.06.03 11:33:40.
