data_PCOD9033428
_publ_section_title
;
Structure prediction by ZEFSAII (Michael W. Deem and Ramdas Pophale) SiO2 
 PCOD9033428
Probable space group: P -1
;
_chemical_formula_sum "Si O2"
_cell_formula_units_Z 16
_cell_length_a 8.401394
_cell_length_b 15.402547
_cell_length_c 15.291020
_cell_angle_alpha 28.106254
_cell_angle_beta 104.156122
_cell_angle_gamma 87.208118
_cell_volume 737.031962
_symmetry_space_group_name_H-M "P -1"
_symmetry_group_IT_number 2
_symmetry_cell_setting 'triclinic'
loop_
_space_group_symop_operation_xyz
x,y,z
-x,-y,-z
loop_
_atom_site_type_symbol
_atom_site_label
_atom_site_fract_x
_atom_site_fract_y
_atom_site_fract_z
Si Si1 0.724561 0.364713 0.106424
Si Si2 0.350885 0.182916 0.605287
Si Si3 0.052522 0.953242 0.902506
Si Si4 0.933474 0.856628 0.529370
Si Si5 0.201874 0.638434 0.609990
Si Si6 0.656885 0.436417 0.837502
Si Si7 0.194127 0.247533 0.909069
Si Si8 0.735753 0.850087 0.182315
O O1 0.909424 0.338443 0.208033
O O2 0.806134 0.102454 0.337668
O O3 0.500000 0.500000 0.000000
O O4 0.716187 0.452939 0.929169
O O5 0.226358 0.152946 0.541497
O O6 0.359042 0.383770 0.391022
O O7 0.245051 0.233940 0.641130
O O8 0.578859 0.961030 0.848175
O O9 0.185813 0.989676 0.952964
O O10 0.195418 0.806692 0.970684
O O11 0.880764 0.206266 0.624275
O O12 0.951948 0.829661 0.028092
O O13 0.102262 0.814207 0.519882
O O14 0.439424 0.488673 0.773256
O O15 0.143104 0.462669 0.765416
O O16 0.180788 0.308239 0.750603
O O17 0.500000 0.000000 0.000000
#
# Coordination Sequence:
#
# PCOD9033428 Si02
#       8
#     2   2   2   2   2   2   2   2
#     4  11  23  41  71  97 132 175 229 280 342 404
#     4  11  23  44  69  99 140 182 227 280 346 407
#     4  12  24  45  70 101 137 185 228 279 347 401
#     4  11  23  43  68  98 132 179 222 279 344 404
#     4  12  23  44  73  98 139 183 225 281 343 401
#     4  12  24  44  69 101 138 179 228 283 342 411
#     4  11  25  44  70 102 137 184 234 280 334 406
#     4  10  22  44  68 100 138 179 232 283 332 399
#
# _framework density 21.708691999999999
#
# number of rings (size 3 to 8) (size 9 to 14) (size 15 to 20)
#    0.000    0.750    5.000    3.375    0.000    1.000 
#    2.250    2.500    0.000    0.000    0.000    0.000 
#    0.000    0.000    0.000    0.000    0.000    0.000 
#
# Total GULP energy -89291.364490 kJ/mol
# GULP energy per Si atom -5580.710281 kJ/mol
# Density = 2.165928 g / cm^3
# Si number density = 21.708692 Si / 1000 Ang^3
#
#
#
# Elastic Constant Matrix: (Units=GPa)
#
#
# Indices 1 2 3 4 5 6 
#
# 1 99.1925 33.0331 29.4137 6.3852 17.8005 9.7210
# 2 33.0331 109.4237 37.7408 0.6205 19.1888 2.6393
# 3 29.4137 37.7408 107.4295 7.6996 14.8024 1.9669
# 4 6.3852 0.6205 7.6996 35.4891 2.8416 16.2742
# 5 17.8005 19.1888 14.8024 2.8416 40.6500 -2.8262
# 6 9.7210 2.6393 1.9669 16.2742 -2.8262 32.6787
#
#
#
# Elastic Compliance Matrix: (Units=1/GPa)
#
#
# Indices 1 2 3 4 5 6 
#
# 1 0.012520 -0.002292 -0.002030 0.000348 -0.003959 -0.003933
# 2 -0.002292 0.011516 -0.003031 0.001713 -0.003533 -0.001224
# 3 -0.002030 -0.003031 0.011296 -0.002497 -0.001530 0.001280
# 4 0.000348 0.001713 -0.002497 0.037779 -0.004032 -0.019255
# 5 -0.003959 -0.003533 -0.001530 -0.004032 0.029264 0.006094
# 6 -0.003933 -0.001224 0.001280 -0.019255 0.006094 0.041909
#
#
# Mechanical properties :
#
#
# Convention : Reuss Voigt Hill
#
# Bulk Modulus (GPa) = 48.48782 57.38009 52.93395
# Shear Modulus (GPa) = 30.14475 36.15410 33.14942
#
# Velocity S-wave (km/s) = 3.73044 4.08538 3.91194
# Velocity P-wave (km/s) = 6.39836 6.98162 6.69635
#
# Compressibility (1/GPa) = 0.02062374
#
# Stress axis : x y z
#
# Youngs Moduli (GPa) = 79.87049 86.83739 88.53042
#
# Poissons Ratio (x) = 0.19906 0.17973
# Poissons Ratio (y) = 0.18309 0.26838
# Poissons Ratio (z) = 0.16215 0.26325
#
# Static dielectric constant tensor:
#      x y z
#    x 1.798660 0.005700 0.013530 
#    y 0.005700 1.855480 0.039430 
#    z 0.013530 0.039430 1.808960 
# 
# From -- ./inp_files/505049.got.cif
#   From: 2010.05.17/outbox.cif.g08.bks.cpg/sg2_253_cif.got.tgz:505049.got - 2010.06.03 11:33:40.
