data_PCOD9033763
_publ_section_title
;
Structure prediction by ZEFSAII (Michael W. Deem and Ramdas Pophale) SiO2 
 PCOD9033763
Probable space group: P -1
;
_chemical_formula_sum "Si O2"
_cell_formula_units_Z 15
_cell_length_a 7.501718
_cell_length_b 8.700276
_cell_length_c 22.790743
_cell_angle_alpha 148.422406
_cell_angle_beta 132.205176
_cell_angle_gamma 52.034318
_cell_volume 573.448937
_symmetry_space_group_name_H-M "P -1"
_symmetry_group_IT_number 2
_symmetry_cell_setting 'triclinic'
loop_
_space_group_symop_operation_xyz
x,y,z
-x,-y,-z
loop_
_atom_site_type_symbol
_atom_site_label
_atom_site_fract_x
_atom_site_fract_y
_atom_site_fract_z
Si Si1 0.500000 0.000000 0.500000
Si Si2 0.088249 0.302064 0.074329
Si Si3 0.645832 0.180009 0.717809
Si Si4 0.792476 0.069784 0.411890
Si Si5 0.009090 0.017771 0.160942
Si Si6 0.487220 0.162579 0.959536
Si Si7 0.227804 0.604717 0.376414
Si Si8 0.322009 0.260317 0.823164
O O1 0.649955 0.044561 0.609403
O O2 0.550039 0.342813 0.598995
O O3 0.304084 0.486695 0.163801
O O4 0.932088 0.539544 0.157373
O O5 0.242085 0.006464 0.034072
O O6 0.942855 0.223898 0.958842
O O7 0.370942 0.153081 0.665691
O O8 0.833433 0.034824 0.761588
O O9 0.705224 0.034868 0.315328
O O10 0.066850 0.920809 0.428222
O O11 0.741493 0.357831 0.533942
O O12 0.085325 0.320216 0.247929
O O13 0.727686 0.983925 0.102980
O O14 0.416567 0.173297 0.879466
O O15 0.519604 0.501473 0.093487
#
# Coordination Sequence:
#
# PCOD9033763 Si02
#       8
#     1   2   2   2   2   2   2   2
#     4  10  24  46  70 102 136 190 244 298 360 428
#     4  12  24  44  72 108 149 196 238 299 366 429
#     4  11  24  44  74 102 149 190 240 304 361 428
#     4  10  22  44  69  97 142 194 235 299 358 428
#     4  12  25  45  72 112 144 188 246 299 363 441
#     4  11  25  42  68 107 149 194 236 301 365 425
#     4  10  23  45  74  99 139 190 243 300 365 428
#     4  11  24  43  68 108 149 191 245 296 357 438
#
# _framework density 26.157516999999999
#
# number of rings (size 3 to 8) (size 9 to 14) (size 15 to 20)
#    0.000    1.067    1.333    4.400    3.733    3.200 
#    2.400    0.667    0.000    0.000    0.000    0.000 
#    0.000    0.000    0.000    0.000    0.000    0.000 
#
# Total GULP energy -83536.947288 kJ/mol
# GULP energy per Si atom -5569.129819 kJ/mol
# Density = 2.609798 g / cm^3
# Si number density = 26.157517 Si / 1000 Ang^3
#
#
#
# Elastic Constant Matrix: (Units=GPa)
#
#
# Indices 1 2 3 4 5 6 
#
# 1 39.7478 23.6496 -2.2716 0.0251 -23.3651 22.0618
# 2 23.6496 85.9764 14.0461 -27.3319 0.9246 -15.2585
# 3 -2.2716 14.0461 140.4162 -26.6085 -4.3088 24.7165
# 4 0.0251 -27.3319 -26.6085 40.5077 15.3182 -3.3500
# 5 -23.3651 0.9246 -4.3088 15.3182 16.0151 -1.1174
# 6 22.0618 -15.2585 24.7165 -3.3500 -1.1174 25.3066
#
#
#
# Elastic Compliance Matrix: (Units=1/GPa)
#
#
# Indices 1 2 3 4 5 6 
#
# 1 -0.007310 0.011359 -0.001313 0.018969 -0.028720 0.015748
# 2 0.011359 0.005978 0.000711 -0.003269 0.019086 -0.006583
# 3 -0.001313 0.000711 0.009880 0.009871 -0.009241 -0.007177
# 4 0.018969 -0.003269 0.009871 0.025107 0.004788 -0.024614
# 5 -0.028720 0.019086 -0.009241 0.004788 0.015645 0.046896
# 6 0.015748 -0.006583 -0.007177 -0.024614 0.046896 0.027640
#
#
# Mechanical properties :
#
#
# Convention : Reuss Voigt Hill
#
# Bulk Modulus (GPa) = 33.26556 37.44316 35.35436
# Shear Modulus (GPa) = 76.40020 31.74698 54.07359
#
# Velocity S-wave (km/s) = 5.41028 3.48758 4.55161
# Velocity P-wave (km/s) = 7.19536 5.52840 6.41624
#
# Compressibility (1/GPa) = 0.03006112
#
# Stress axis : x y z
#
# Youngs Moduli (GPa) = -136.79088 167.29229 101.21782
#
# Poissons Ratio (x) = -1.90036 0.13292
# Poissons Ratio (y) = 1.55387 -0.07195
# Poissons Ratio (z) = -0.17963 -0.11892
#
# Static dielectric constant tensor:
#      x y z
#    x 2.401450 -0.054600 -0.075600 
#    y -0.054600 2.140680 0.026140 
#    z -0.075600 0.026140 2.096410 
# 
# From -- ./inp_files/606958.got.cif
#   From: 2010.05.17/outbox.cif.g08.bks.cpg/sg2_304_cif.got.tgz:606958.got - 2010.06.03 11:33:40.
