data_PCOD9033504
_publ_section_title
;
Structure prediction by ZEFSAII (Michael W. Deem and Ramdas Pophale) SiO2 
 PCOD9033504
Probable space group: P -1
;
_chemical_formula_sum "Si O2"
_cell_formula_units_Z 16
_cell_length_a 13.388868
_cell_length_b 18.794788
_cell_length_c 6.760357
_cell_angle_alpha 46.671491
_cell_angle_beta 136.952644
_cell_angle_gamma 139.353010
_cell_volume 722.479222
_symmetry_space_group_name_H-M "P -1"
_symmetry_group_IT_number 2
_symmetry_cell_setting 'triclinic'
loop_
_space_group_symop_operation_xyz
x,y,z
-x,-y,-z
loop_
_atom_site_type_symbol
_atom_site_label
_atom_site_fract_x
_atom_site_fract_y
_atom_site_fract_z
Si Si1 0.305217 0.966199 0.292894
Si Si2 0.817885 0.561639 0.059439
Si Si3 0.164023 0.107657 0.630178
Si Si4 0.814603 0.418646 0.987235
Si Si5 0.000442 0.881548 0.260583
Si Si6 0.190933 0.739030 0.366844
Si Si7 0.638782 0.345749 0.466416
Si Si8 0.280888 0.285848 0.132390
O O1 0.209454 0.858451 0.213351
O O2 0.196150 0.919147 0.428734
O O3 0.500000 0.000000 0.500000
O O4 0.276700 0.066281 0.985459
O O5 0.786391 0.461904 0.356560
O O6 0.016170 0.658132 0.153492
O O7 0.766201 0.497765 0.896321
O O8 0.727446 0.620886 0.922704
O O9 0.085609 0.158494 0.574169
O O10 0.268670 0.192656 0.445570
O O11 0.000000 0.000000 0.500000
O O12 0.681098 0.355132 0.739834
O O13 0.816240 0.327246 0.314484
O O14 0.000000 0.500000 0.000000
O O15 0.877800 0.783438 0.114505
O O16 0.000000 0.000000 0.000000
O O17 0.346737 0.752404 0.435641
O O18 0.459992 0.336555 0.184569
#
# Coordination Sequence:
#
# PCOD9033504 Si02
#       8
#     2   2   2   2   2   2   2   2
#     4  11  25  43  68 101 133 168 223 273 321 388
#     4  11  22  43  65  93 131 167 217 266 321 402
#     4  11  23  45  67  93 132 176 220 261 323 395
#     4  11  21  40  66  93 127 167 216 265 325 386
#     4  10  22  44  68  88 134 177 209 269 330 379
#     4  11  22  42  65  92 131 173 207 266 334 384
#     4  11  25  40  65  96 131 167 214 273 325 386
#     4  12  25  42  67  98 128 174 220 266 329 386
#
# _framework density 22.145966000000001
#
# number of rings (size 3 to 8) (size 9 to 14) (size 15 to 20)
#    0.000    1.000    6.250    1.125    5.250    3.500 
#    2.250    1.250    0.000    0.000    0.000    0.000 
#    0.000    0.000    0.000    0.000    0.000    0.000 
#
# Total GULP energy -89393.461262 kJ/mol
# GULP energy per Si atom -5587.091329 kJ/mol
# Density = 2.209556 g / cm^3
# Si number density = 22.145966 Si / 1000 Ang^3
#
#
#
# Elastic Constant Matrix: (Units=GPa)
#
#
# Indices 1 2 3 4 5 6 
#
# 1 136.8457 17.3794 17.6440 15.8500 14.2908 -15.2084
# 2 17.3794 41.7499 -1.9557 -1.5685 -7.6183 -6.8756
# 3 17.6440 -1.9557 46.7757 11.9932 -4.5116 3.0845
# 4 15.8500 -1.5685 11.9932 20.9071 -2.9733 9.4131
# 5 14.2908 -7.6183 -4.5116 -2.9733 38.6787 7.1740
# 6 -15.2084 -6.8756 3.0845 9.4131 7.1740 34.2819
#
#
#
# Elastic Compliance Matrix: (Units=1/GPa)
#
#
# Indices 1 2 3 4 5 6 
#
# 1 0.011989 -0.005580 -0.002751 -0.013697 -0.008765 0.010042
# 2 -0.005580 0.028082 0.002502 0.006376 0.008485 -0.000594
# 3 -0.002751 0.002502 0.025950 -0.011815 0.003738 -0.000592
# 4 -0.013697 0.006376 -0.011815 0.081114 0.016643 -0.029490
# 5 -0.008765 0.008485 0.003738 0.016643 0.035159 -0.014450
# 6 0.010042 -0.000594 -0.000592 -0.029490 -0.014450 0.044680
#
#
# Mechanical properties :
#
#
# Convention : Reuss Voigt Hill
#
# Bulk Modulus (GPa) = 18.39528 32.38964 25.39246
# Shear Modulus (GPa) = 19.47401 31.59379 25.53390
#
# Velocity S-wave (km/s) = 2.96860 3.78115 3.39924
# Velocity P-wave (km/s) = 4.48046 5.80690 5.18626
#
# Compressibility (1/GPa) = 0.05436177
#
# Stress axis : x y z
#
# Youngs Moduli (GPa) = 83.41282 35.61027 38.53603
#
# Poissons Ratio (x) = 0.19869 0.10602
# Poissons Ratio (y) = 0.46540 -0.09640
# Poissons Ratio (z) = 0.22948 -0.08908
#
# Static dielectric constant tensor:
#      x y z
#    x 1.751170 -0.145660 0.108340 
#    y -0.145660 1.639260 0.139070 
#    z 0.108340 0.139070 1.698250 
# 
# From -- ./inp_files/81262.got.cif
#   From: 2010.05.17/outbox.cif.g08.bks.cpg/sg2_41_cif.got.tgz:81262.got - 2010.06.03 11:33:40.
