data_PCOD9033325
_publ_section_title
;
Structure prediction by ZEFSAII (Michael W. Deem and Ramdas Pophale) SiO2 
 PCOD9033325
Probable space group: P -1
;
_chemical_formula_sum "Si O2"
_cell_formula_units_Z 16
_cell_length_a 8.415739
_cell_length_b 17.486564
_cell_length_c 8.660111
_cell_angle_alpha 131.157339
_cell_angle_beta 52.646786
_cell_angle_gamma 110.011199
_cell_volume 759.264215
_symmetry_space_group_name_H-M "P -1"
_symmetry_group_IT_number 2
_symmetry_cell_setting 'triclinic'
loop_
_space_group_symop_operation_xyz
x,y,z
-x,-y,-z
loop_
_atom_site_type_symbol
_atom_site_label
_atom_site_fract_x
_atom_site_fract_y
_atom_site_fract_z
Si Si1 0.301763 0.220458 0.871333
Si Si2 0.368862 0.916758 0.380860
Si Si3 0.016470 0.049979 0.888139
Si Si4 0.555803 0.504099 0.152664
Si Si5 0.033085 0.605101 0.207752
Si Si6 0.596664 0.101619 0.031149
Si Si7 0.828551 0.569917 0.606831
Si Si8 0.295889 0.271247 0.590977
O O1 0.531716 0.185317 0.733103
O O2 0.282394 0.220549 0.698784
O O3 0.157372 0.142847 0.929322
O O4 0.232552 0.330772 0.123823
O O5 0.500000 0.000000 0.500000
O O6 0.392926 0.902406 0.165306
O O7 0.140129 0.959090 0.599902
O O8 0.809755 0.091800 0.982490
O O9 0.000000 0.000000 0.000000
O O10 0.371102 0.488761 0.354098
O O11 0.626928 0.616256 0.288043
O O12 0.500000 0.500000 0.000000
O O13 0.727947 0.410376 0.943807
O O14 0.919282 0.599252 0.429715
O O15 0.925965 0.702980 0.314848
O O16 0.000000 0.500000 0.000000
O O17 0.450305 0.199144 0.302045
O O18 0.500000 0.000000 0.000000
O O19 0.000000 0.500000 0.500000
#
# Coordination Sequence:
#
# PCOD9033325 Si02
#       8
#     2   2   2   2   2   2   2   2
#     4  11  23  44  68  99 133 181 229 282 349 418
#     4  10  22  44  67  94 130 172 227 283 343 410
#     4  11  24  44  71  99 135 180 226 289 351 415
#     4  11  22  45  70 101 138 188 231 283 346 412
#     4  10  23  43  63  97 139 178 231 290 339 406
#     4  12  24  43  67 100 134 174 227 288 348 414
#     4  12  23  41  72 101 140 183 233 282 345 419
#     4  11  24  44  67  99 139 178 227 287 347 418
#
# _framework density 21.073032999999999
#
# number of rings (size 3 to 8) (size 9 to 14) (size 15 to 20)
#    0.000    1.000    2.500    5.625    1.750    2.000 
#    9.000    0.000    0.000    0.000    0.000    0.000 
#    0.000    0.000    0.000    0.000    0.000    0.000 
#
# Total GULP energy -89373.839470 kJ/mol
# GULP energy per Si atom -5585.864967 kJ/mol
# Density = 2.102507 g / cm^3
# Si number density = 21.073033 Si / 1000 Ang^3
#
#
#
# Elastic Constant Matrix: (Units=GPa)
#
#
# Indices 1 2 3 4 5 6 
#
# 1 103.2628 19.1280 41.8801 12.3285 -27.2361 -34.2202
# 2 19.1280 81.9229 24.0761 0.8000 -4.9209 -14.6909
# 3 41.8801 24.0761 157.7763 14.6634 -10.3149 -28.1669
# 4 12.3285 0.8000 14.6634 41.5951 -11.9160 2.3861
# 5 -27.2361 -4.9209 -10.3149 -11.9160 49.9348 0.9771
# 6 -34.2202 -14.6909 -28.1669 2.3861 0.9771 49.5113
#
#
#
# Elastic Compliance Matrix: (Units=1/GPa)
#
#
# Indices 1 2 3 4 5 6 
#
# 1 0.016102 -0.001035 -0.001620 -0.002590 0.007535 0.009877
# 2 -0.001035 0.013305 -0.001335 0.000540 0.000552 0.002437
# 3 -0.001620 -0.001335 0.007727 -0.002405 -0.000051 0.002997
# 4 -0.002590 0.000540 -0.002405 0.027255 0.004734 -0.004405
# 5 0.007535 0.000552 -0.000051 0.004734 0.025219 0.004617
# 6 0.009877 0.002437 0.002997 -0.004405 0.004617 0.029573
#
#
# Mechanical properties :
#
#
# Convention : Reuss Voigt Hill
#
# Bulk Modulus (GPa) = 34.29802 57.01449 45.65625
# Shear Modulus (GPa) = 36.52866 45.40008 40.96437
#
# Velocity S-wave (km/s) = 4.16797 4.64660 4.41378
# Velocity P-wave (km/s) = 6.28281 7.47678 6.90565
#
# Compressibility (1/GPa) = 0.02915621
#
# Stress axis : x y z
#
# Youngs Moduli (GPa) = 62.10315 75.15808 129.41746
#
# Poissons Ratio (x) = 0.07776 0.20962
# Poissons Ratio (y) = 0.06425 0.17274
# Poissons Ratio (z) = 0.10059 0.10032
#
# Static dielectric constant tensor:
#      x y z
#    x 1.851340 0.051500 -0.065030 
#    y 0.051500 1.711010 0.087650 
#    z -0.065030 0.087650 1.586940 
# 
# From -- ./inp_files/215700.got.cif
#   From: 2010.05.17/outbox.cif.g08.bks.cpg/sg2_108_cif.got.tgz:215700.got - 2010.06.03 11:33:40.
