data_PCOD9033780
_publ_section_title
;
Structure prediction by ZEFSAII (Michael W. Deem and Ramdas Pophale) SiO2 
 PCOD9033780
Probable space group: P -1
;
_chemical_formula_sum "Si O2"
_cell_formula_units_Z 16
_cell_length_a 17.620011
_cell_length_b 5.729906
_cell_length_c 8.781605
_cell_angle_alpha 70.825024
_cell_angle_beta 77.191815
_cell_angle_gamma 57.295598
_cell_volume 703.564057
_symmetry_space_group_name_H-M "P -1"
_symmetry_group_IT_number 2
_symmetry_cell_setting 'triclinic'
loop_
_space_group_symop_operation_xyz
x,y,z
-x,-y,-z
loop_
_atom_site_type_symbol
_atom_site_label
_atom_site_fract_x
_atom_site_fract_y
_atom_site_fract_z
Si Si1 0.071386 0.324000 0.876875
Si Si2 0.129200 0.669094 0.548534
Si Si3 0.262054 0.852483 0.024092
Si Si4 0.614048 0.039623 0.842618
Si Si5 0.447411 0.326847 0.520502
Si Si6 0.584460 0.594303 0.141618
Si Si7 0.979624 0.796312 0.370944
Si Si8 0.303620 0.392355 0.348989
O O1 0.095088 0.521025 0.716360
O O2 0.025232 0.207868 0.805478
O O3 0.000000 0.500000 0.000000
O O4 0.164607 0.077271 0.957479
O O5 0.225407 0.443188 0.488578
O O6 0.062016 0.815225 0.402511
O O7 0.116421 0.947209 0.582543
O O8 0.260466 0.607061 0.179535
O O9 0.303835 0.980799 0.095835
O O10 0.335761 0.711009 0.885491
O O11 0.641990 0.922060 0.683524
O O12 0.518734 0.337543 0.841059
O O13 0.592480 0.811526 0.978650
O O14 0.500000 0.500000 0.500000
O O15 0.406565 0.331208 0.704305
O O16 0.368469 0.471684 0.398345
O O17 0.500000 0.000000 0.500000
O O18 0.000000 0.500000 0.500000
#
# Coordination Sequence:
#
# PCOD9033780 Si02
#       8
#     2   2   2   2   2   2   2   2
#     4  11  27  44  68 103 142 188 242 302 374 439
#     4  10  24  45  73  98 137 183 238 300 365 442
#     4  11  26  42  68 100 143 190 245 303 363 447
#     4  10  22  44  69  98 141 188 238 295 368 437
#     4  12  27  46  73 110 152 198 252 310 377 445
#     4  10  23  43  68  99 141 189 243 296 369 436
#     4   9  22  45  69  96 130 178 230 296 369 430
#     4  11  26  42  71 106 139 190 247 301 370 443
#
# _framework density 22.741353
#
# number of rings (size 3 to 8) (size 9 to 14) (size 15 to 20)
#    0.000    1.500    1.250    1.125   12.250    2.500 
#    0.000    0.000    0.000    0.000    0.000    0.000 
#    0.000    0.000    0.000    0.000    0.000    0.000 
#
# Total GULP energy -89287.800906 kJ/mol
# GULP energy per Si atom -5580.487557 kJ/mol
# Density = 2.268959 g / cm^3
# Si number density = 22.741353 Si / 1000 Ang^3
#
#
#
# Elastic Constant Matrix: (Units=GPa)
#
#
# Indices 1 2 3 4 5 6 
#
# 1 78.2350 52.1059 55.4159 18.5309 14.3026 -19.3831
# 2 52.1059 125.6019 69.4108 27.7074 7.7762 -23.4086
# 3 55.4159 69.4108 137.7300 37.8450 14.0016 -26.7009
# 4 18.5309 27.7074 37.8450 52.3074 -3.6222 7.8134
# 5 14.3026 7.7762 14.0016 -3.6222 50.7352 -0.5260
# 6 -19.3831 -23.4086 -26.7009 7.8134 -0.5260 33.5142
#
#
#
# Elastic Compliance Matrix: (Units=1/GPa)
#
#
# Indices 1 2 3 4 5 6 
#
# 1 0.022091 -0.004551 -0.003315 -0.004540 -0.004857 0.007939
# 2 -0.004551 0.013311 -0.002493 -0.004513 -0.000332 0.005725
# 3 -0.003315 -0.002493 0.015105 -0.010275 -0.003474 0.010717
# 4 -0.004540 -0.004513 -0.010275 0.034301 0.007029 -0.021850
# 5 -0.004857 -0.000332 -0.003474 0.007029 0.022517 -0.007094
# 6 0.007939 0.005725 0.010717 -0.021850 -0.007094 0.051949
#
#
# Mechanical properties :
#
#
# Convention : Reuss Voigt Hill
#
# Bulk Modulus (GPa) = 33.56977 77.27024 55.42000
# Shear Modulus (GPa) = 26.32669 38.28697 32.30683
#
# Velocity S-wave (km/s) = 3.40613 4.10760 3.77320
# Velocity P-wave (km/s) = 5.50114 7.51985 6.58827
#
# Compressibility (1/GPa) = 0.02978870
#
# Stress axis : x y z
#
# Youngs Moduli (GPa) = 45.26733 75.12832 66.20423
#
# Poissons Ratio (x) = 0.34191 0.21944
# Poissons Ratio (y) = 0.20601 0.16506
# Poissons Ratio (z) = 0.15004 0.18731
#
# Static dielectric constant tensor:
#      x y z
#    x 1.891890 0.028090 0.000070 
#    y 0.028090 1.938110 -0.010990 
#    z 0.000070 -0.010990 1.862450 
# 
# From -- ./inp_files/39002.got.cif
#   From: 2010.05.17/outbox.cif.g08.bks.cpg/sg2_20_cif.got.tgz:39002.got - 2010.06.03 11:33:40.
