data_PCOD9033314
_publ_section_title
;
Structure prediction by ZEFSAII (Michael W. Deem and Ramdas Pophale) SiO2 
 PCOD9033314
Probable space group: P -1
;
_chemical_formula_sum "Si O2"
_cell_formula_units_Z 16
_cell_length_a 8.100898
_cell_length_b 21.065519
_cell_length_c 8.681828
_cell_angle_alpha 141.511914
_cell_angle_beta 121.874282
_cell_angle_gamma 47.568559
_cell_volume 680.548395
_symmetry_space_group_name_H-M "P -1"
_symmetry_group_IT_number 2
_symmetry_cell_setting 'triclinic'
loop_
_space_group_symop_operation_xyz
x,y,z
-x,-y,-z
loop_
_atom_site_type_symbol
_atom_site_label
_atom_site_fract_x
_atom_site_fract_y
_atom_site_fract_z
Si Si1 0.917915 0.440644 0.719851
Si Si2 0.928801 0.915996 0.216583
Si Si3 0.249224 0.463633 0.494499
Si Si4 0.693893 0.330237 0.948176
Si Si5 0.759576 0.077674 0.171492
Si Si6 0.711456 0.309447 0.557570
Si Si7 0.544808 0.986094 0.675306
Si Si8 0.623128 0.764652 0.467773
O O1 0.767051 0.532656 0.690858
O O2 0.801985 0.375156 0.620268
O O3 0.138021 0.335415 0.546985
O O4 0.000000 0.500000 0.000000
O O5 0.689847 0.945496 0.219826
O O6 0.102862 0.784612 0.095817
O O7 0.908025 0.957809 0.110242
O O8 0.000000 0.000000 0.500000
O O9 0.459181 0.347911 0.448602
O O10 0.000000 0.500000 0.500000
O O11 0.312641 0.561409 0.764430
O O12 0.716451 0.345637 0.805596
O O13 0.489233 0.303795 0.800696
O O14 0.848656 0.168121 0.359486
O O15 0.550584 0.152384 0.329309
O O16 0.685573 0.044523 0.915920
O O17 0.500000 0.000000 0.500000
O O18 0.647003 0.852034 0.527409
#
# Coordination Sequence:
#
# PCOD9033314 Si02
#       8
#     2   2   2   2   2   2   2   2
#     4  12  27  45  68  97 136 177 222 284 337 386
#     4  11  20  42  69  98 132 177 221 267 329 400
#     4  12  26  43  70 100 128 182 226 270 337 401
#     4  11  23  42  72  97 131 175 229 273 322 410
#     4  10  23  44  69  97 138 176 223 269 324 414
#     4  11  24  45  66 100 138 166 222 288 332 388
#     4  11  25  39  65 100 140 171 217 275 332 392
#     4  10  22  44  67  93 132 180 222 269 330 393
#
# _framework density 23.510451
#
# number of rings (size 3 to 8) (size 9 to 14) (size 15 to 20)
#    0.000    1.000    3.750    5.250    7.000    2.000 
#    0.000    1.250    0.000    0.000    0.000    0.000 
#    0.000    0.000    0.000    0.000    0.000    0.000 
#
# Total GULP energy -89569.622701 kJ/mol
# GULP energy per Si atom -5598.101419 kJ/mol
# Density = 2.345694 g / cm^3
# Si number density = 23.510451 Si / 1000 Ang^3
#
#
#
# Elastic Constant Matrix: (Units=GPa)
#
#
# Indices 1 2 3 4 5 6 
#
# 1 90.5593 25.2564 15.6624 3.4452 4.4436 8.5731
# 2 25.2564 148.1843 16.9370 -12.4829 -16.0552 12.4104
# 3 15.6624 16.9370 100.4471 -32.8615 6.3835 16.9970
# 4 3.4452 -12.4829 -32.8615 42.5218 0.3507 -5.6234
# 5 4.4436 -16.0552 6.3835 0.3507 21.7654 3.2455
# 6 8.5731 12.4104 16.9970 -5.6234 3.2455 44.5374
#
#
#
# Elastic Compliance Matrix: (Units=1/GPa)
#
#
# Indices 1 2 3 4 5 6 
#
# 1 0.012544 -0.002469 -0.002339 -0.003658 -0.003482 -0.001042
# 2 -0.002469 0.008313 -0.000506 0.001938 0.007039 -0.001917
# 3 -0.002339 -0.000506 0.014865 0.011112 -0.003928 -0.003392
# 4 -0.003658 0.001938 0.011112 0.033012 -0.001646 0.000211
# 5 -0.003482 0.007039 -0.003928 -0.001646 0.053609 -0.003906
# 6 -0.001042 -0.001917 -0.003392 0.000211 -0.003906 0.024794
#
#
# Mechanical properties :
#
#
# Convention : Reuss Voigt Hill
#
# Bulk Modulus (GPa) = 39.84749 50.54470 45.19609
# Shear Modulus (GPa) = 30.09725 40.52060 35.30892
#
# Velocity S-wave (km/s) = 3.58182 4.15603 3.87956
# Velocity P-wave (km/s) = 5.83880 6.67649 6.27165
#
# Compressibility (1/GPa) = 0.02509568
#
# Stress axis : x y z
#
# Youngs Moduli (GPa) = 79.71852 120.28783 67.27419
#
# Poissons Ratio (x) = 0.29696 0.15733
# Poissons Ratio (y) = 0.19681 0.03403
# Poissons Ratio (z) = 0.18643 0.06084
#
# Static dielectric constant tensor:
#      x y z
#    x 1.880500 0.026740 -0.076770 
#    y 0.026740 1.857980 0.095850 
#    z -0.076770 0.095850 1.799430 
# 
# From -- ./inp_files/222646.got.cif
#   From: 2010.05.17/outbox.cif.g08.bks.cpg/sg2_112_cif.got.tgz:222646.got - 2010.06.03 11:33:40.
