data_PCOD9033422
_publ_section_title
;
Structure prediction by ZEFSAII (Michael W. Deem and Ramdas Pophale) SiO2 
 PCOD9033422
Probable space group: P -1
;
_chemical_formula_sum "Si O2"
_cell_formula_units_Z 14
_cell_length_a 11.066572
_cell_length_b 20.287105
_cell_length_c 20.350157
_cell_angle_alpha 159.379946
_cell_angle_beta 23.321528
_cell_angle_gamma 148.437409
_cell_volume 636.084865
_symmetry_space_group_name_H-M "P -1"
_symmetry_group_IT_number 2
_symmetry_cell_setting 'triclinic'
loop_
_space_group_symop_operation_xyz
x,y,z
-x,-y,-z
loop_
_atom_site_type_symbol
_atom_site_label
_atom_site_fract_x
_atom_site_fract_y
_atom_site_fract_z
Si Si1 0.699839 0.106329 0.351967
Si Si2 0.299714 0.087102 0.404346
Si Si3 0.140637 0.190686 0.804231
Si Si4 0.961933 0.254341 0.096322
Si Si5 0.449098 0.987096 0.097967
Si Si6 0.181916 0.500380 0.840950
Si Si7 0.805321 0.626736 0.603586
O O1 0.525832 0.110967 0.374105
O O2 0.456509 0.128249 0.553603
O O3 0.921102 0.277758 0.406826
O O4 0.881406 0.906544 0.085350
O O5 0.437389 0.966926 0.164063
O O6 0.199679 0.286932 0.609623
O O7 0.000000 0.000000 0.500000
O O8 0.895015 0.029100 0.770091
O O9 0.148287 0.255010 0.935740
O O10 0.994118 0.359618 0.990474
O O11 0.634236 0.170412 0.164137
O O12 0.918713 0.452305 0.338875
O O13 0.648750 0.801068 0.802956
O O14 0.533709 0.555544 0.718612
O O15 0.000000 0.500000 0.000000
#
# Coordination Sequence:
#
# PCOD9033422 Si02
#       7
#     2   2   2   2   2   2   2
#     4  11  25  44  68 101 137 175 222 279 334 404
#     4  12  22  44  70  99 132 171 226 276 339 390
#     4  11  23  45  69  98 136 175 230 279 324 401
#     4  11  24  45  68  98 138 183 217 272 346 392
#     4  10  22  44  68 100 130 176 230 279 325 397
#     4  11  22  44  69  99 131 176 228 278 327 394
#     4  10  24  44  64 100 139 174 224 271 337 399
#
# _framework density 22.009640999999998
#
# number of rings (size 3 to 8) (size 9 to 14) (size 15 to 20)
#    0.000    1.143    4.286    1.714    0.000    6.857 
#   10.286    0.000    0.000    0.000    0.000    0.000 
#    0.000    0.000    0.000    0.000    0.000    0.000 
#
# Total GULP energy -78265.858670 kJ/mol
# GULP energy per Si atom -5590.418476 kJ/mol
# Density = 2.195955 g / cm^3
# Si number density = 22.009641 Si / 1000 Ang^3
#
#
#
# Elastic Constant Matrix: (Units=GPa)
#
#
# Indices 1 2 3 4 5 6 
#
# 1 86.7009 33.4470 33.9756 -8.4534 17.7977 3.4443
# 2 33.4470 99.6085 35.5100 -0.5150 8.1058 20.1870
# 3 33.9756 35.5100 121.0628 7.5766 23.7624 13.2198
# 4 -8.4534 -0.5150 7.5766 44.7546 0.1286 3.8612
# 5 17.7977 8.1058 23.7624 0.1286 31.7180 -7.7131
# 6 3.4443 20.1870 13.2198 3.8612 -7.7131 37.6641
#
#
#
# Elastic Compliance Matrix: (Units=1/GPa)
#
#
# Indices 1 2 3 4 5 6 
#
# 1 0.015463 -0.003864 -0.002198 0.003279 -0.006093 -0.000155
# 2 -0.003864 0.013449 -0.001884 0.000311 -0.001444 -0.006521
# 3 -0.002198 -0.001884 0.011596 -0.002007 -0.008008 -0.004293
# 4 0.003279 0.000311 -0.002007 0.023517 -0.001094 -0.002397
# 5 -0.006093 -0.001444 -0.008008 -0.001094 0.044574 0.013383
# 6 -0.000155 -0.006521 -0.004293 -0.002397 0.013383 0.034553
#
#
# Mechanical properties :
#
#
# Convention : Reuss Voigt Hill
#
# Bulk Modulus (GPa) = 40.62662 57.02640 48.82651
# Shear Modulus (GPa) = 29.89512 36.45662 33.17587
#
# Velocity S-wave (km/s) = 3.68947 4.07430 3.88665
# Velocity P-wave (km/s) = 6.05378 6.93536 6.50951
#
# Compressibility (1/GPa) = 0.02461440
#
# Stress axis : x y z
#
# Youngs Moduli (GPa) = 64.67147 74.35279 86.23536
#
# Poissons Ratio (x) = 0.28731 0.18958
# Poissons Ratio (y) = 0.24990 0.16250
# Poissons Ratio (z) = 0.14218 0.14011
#
# Static dielectric constant tensor:
#      x y z
#    x 1.810350 -0.014080 0.017790 
#    y -0.014080 1.820870 -0.019110 
#    z 0.017790 -0.019110 1.863650 
# 
# From -- ./inp_files/418627.got.cif
#   From: 2010.05.17/outbox.cif.g08.bks.cpg/sg2_210_cif.got.tgz:418627.got - 2010.06.03 11:33:40.
