data_PCOD9033720
_publ_section_title
;
Structure prediction by ZEFSAII (Michael W. Deem and Ramdas Pophale) SiO2 
 PCOD9033720
Probable space group: P -1
;
_chemical_formula_sum "Si O2"
_cell_formula_units_Z 16
_cell_length_a 8.630139
_cell_length_b 10.963129
_cell_length_c 11.700461
_cell_angle_alpha 127.578485
_cell_angle_beta 94.605872
_cell_angle_gamma 116.247321
_cell_volume 684.869013
_symmetry_space_group_name_H-M "P -1"
_symmetry_group_IT_number 2
_symmetry_cell_setting 'triclinic'
loop_
_space_group_symop_operation_xyz
x,y,z
-x,-y,-z
loop_
_atom_site_type_symbol
_atom_site_label
_atom_site_fract_x
_atom_site_fract_y
_atom_site_fract_z
Si Si1 0.423147 0.836190 0.499724
Si Si2 0.452204 0.531695 0.200409
Si Si3 0.992165 0.598487 0.443979
Si Si4 0.613081 0.846936 0.981649
Si Si5 0.193430 0.633390 0.919566
Si Si6 0.822511 0.686590 0.162057
Si Si7 0.983439 0.916365 0.718812
Si Si8 0.295811 0.013251 0.177041
O O1 0.415737 0.662685 0.343529
O O2 0.207179 0.749091 0.484176
O O3 0.500000 0.000000 0.500000
O O4 0.564281 0.915157 0.664197
O O5 0.408359 0.347282 0.158542
O O6 0.674502 0.655461 0.234505
O O7 0.310240 0.433047 0.025072
O O8 0.915235 0.719705 0.541463
O O9 0.000000 0.500000 0.500000
O O10 0.857316 0.425587 0.248093
O O11 0.433720 0.768685 0.015324
O O12 0.603316 0.930032 0.909030
O O13 0.820534 0.000336 0.147170
O O14 0.095203 0.428125 0.859398
O O15 0.144947 0.775110 0.035973
O O16 0.963826 0.914742 0.270473
O O17 0.819761 0.897369 0.775057
#
# Coordination Sequence:
#
# PCOD9033720 Si02
#       8
#     2   2   2   2   2   2   2   2
#     4  12  27  45  69  98 144 180 234 280 345 402
#     4   9  20  39  69  96 126 177 222 281 330 407
#     4  12  28  46  69 101 144 181 228 289 344 402
#     4  10  22  44  69  94 136 180 227 277 345 406
#     4  11  24  42  71  96 134 182 230 278 341 408
#     4   9  20  41  67  95 135 171 224 271 350 395
#     4  11  25  42  70  99 138 177 226 283 341 407
#     4  12  26  41  70 101 137 180 232 277 340 413
#
# _framework density 23.362133
#
# number of rings (size 3 to 8) (size 9 to 14) (size 15 to 20)
#    0.000    1.250    0.000    5.250   10.500    1.500 
#    0.000    0.000    0.000    0.000    0.000    0.000 
#    0.000    0.000    0.000    0.000    0.000    0.000 
#
# Total GULP energy -89571.497205 kJ/mol
# GULP energy per Si atom -5598.218575 kJ/mol
# Density = 2.330896 g / cm^3
# Si number density = 23.362133 Si / 1000 Ang^3
#
#
#
# Elastic Constant Matrix: (Units=GPa)
#
#
# Indices 1 2 3 4 5 6 
#
# 1 71.1204 14.2567 42.3055 -0.9605 -25.7190 2.4164
# 2 14.2567 114.2372 -2.2997 -14.1157 -5.4120 -12.8167
# 3 42.3055 -2.2997 98.5916 -0.9552 -20.4646 -14.8150
# 4 -0.9605 -14.1157 -0.9552 25.0588 -10.7982 -1.7806
# 5 -25.7190 -5.4120 -20.4646 -10.7982 52.3109 7.3823
# 6 2.4164 -12.8167 -14.8150 -1.7806 7.3823 41.4865
#
#
#
# Elastic Compliance Matrix: (Units=1/GPa)
#
#
# Indices 1 2 3 4 5 6 
#
# 1 0.024026 -0.003320 -0.009565 0.002129 0.009209 -0.007388
# 2 -0.003320 0.010634 0.002684 0.006843 0.001295 0.004500
# 3 -0.009565 0.002684 0.015637 0.002789 0.001300 0.006859
# 4 0.002129 0.006843 0.002789 0.049618 0.012685 0.002858
# 5 0.009209 0.001295 0.001300 0.012685 0.027472 -0.004016
# 6 -0.007388 0.004500 0.006859 0.002858 -0.004016 0.029212
#
#
# Mechanical properties :
#
#
# Convention : Reuss Voigt Hill
#
# Bulk Modulus (GPa) = 33.45045 43.60824 38.52935
# Shear Modulus (GPa) = 26.74275 39.08370 32.91323
#
# Velocity S-wave (km/s) = 3.38702 4.09461 3.75751
# Velocity P-wave (km/s) = 5.44474 6.40790 5.94585
#
# Compressibility (1/GPa) = 0.02989496
#
# Stress axis : x y z
#
# Youngs Moduli (GPa) = 41.62151 94.03806 63.94940
#
# Poissons Ratio (x) = 0.31225 0.61168
# Poissons Ratio (y) = 0.13820 -0.17166
# Poissons Ratio (z) = 0.39811 -0.25242
#
# Static dielectric constant tensor:
#      x y z
#    x 1.938870 0.010900 0.017740 
#    y 0.010900 1.902730 0.009180 
#    z 0.017740 0.009180 1.842600 
# 
# From -- ./inp_files/185695.got.cif
#   From: 2010.05.17/outbox.cif.g08.bks.cpg/sg2_93_cif.got.tgz:185695.got - 2010.06.03 11:33:40.
