data_PCOD9033702
_publ_section_title
;
Structure prediction by ZEFSAII (Michael W. Deem and Ramdas Pophale) SiO2 
 PCOD9033702
Probable space group: P -1
;
_chemical_formula_sum "Si O2"
_cell_formula_units_Z 14
_cell_length_a 15.918174
_cell_length_b 12.071032
_cell_length_c 22.835560
_cell_angle_alpha 34.845021
_cell_angle_beta 163.338612
_cell_angle_gamma 136.011758
_cell_volume 656.400047
_symmetry_space_group_name_H-M "P -1"
_symmetry_group_IT_number 2
_symmetry_cell_setting 'triclinic'
loop_
_space_group_symop_operation_xyz
x,y,z
-x,-y,-z
loop_
_atom_site_type_symbol
_atom_site_label
_atom_site_fract_x
_atom_site_fract_y
_atom_site_fract_z
Si Si1 0.648582 0.777220 0.479855
Si Si2 0.965978 0.294478 0.899486
Si Si3 0.304642 0.004983 0.476611
Si Si4 0.758464 0.477644 0.263005
Si Si5 0.719636 0.133854 0.299652
Si Si6 0.193266 0.316434 0.164249
Si Si7 0.700859 0.392072 0.388171
O O1 0.849745 0.537988 0.695972
O O2 0.305527 0.781785 0.268494
O O3 0.826533 0.823730 0.634375
O O4 0.604757 0.962766 0.324959
O O5 0.335023 0.150595 0.193852
O O6 0.966126 0.294607 0.970769
O O7 0.117946 0.857124 0.402030
O O8 0.336318 0.115743 0.389936
O O9 0.810721 0.261366 0.357207
O O10 0.584558 0.496838 0.201512
O O11 0.086226 0.499488 0.488313
O O12 0.552835 0.677279 0.999250
O O13 0.000000 0.000000 0.500000
O O14 0.447954 0.377098 0.272187
O O15 0.000000 0.500000 0.000000
#
# Coordination Sequence:
#
# PCOD9033702 Si02
#       7
#     2   2   2   2   2   2   2
#     4  11  23  41  62  91 130 164 210 264 315 389
#     4  10  23  39  62  93 125 165 208 257 325 380
#     4  11  22  41  66  91 126 169 205 264 330 376
#     4  10  24  47  65  95 126 175 223 264 316 383
#     4  11  26  42  67  94 128 171 219 267 321 375
#     4  11  23  39  66  99 130 164 217 269 328 385
#     4  10  22  44  69  89 132 170 215 271 318 384
#
# _framework density 21.328455000000002
#
# number of rings (size 3 to 8) (size 9 to 14) (size 15 to 20)
#    0.000    1.429    2.857    2.143    8.000    1.143 
#    0.000    1.429    0.000    0.000    0.000    0.000 
#    0.000    0.000    0.000    0.000    0.000    0.000 
#
# Total GULP energy -78119.247970 kJ/mol
# GULP energy per Si atom -5579.946284 kJ/mol
# Density = 2.127991 g / cm^3
# Si number density = 21.328455 Si / 1000 Ang^3
#
#
#
# Elastic Constant Matrix: (Units=GPa)
#
#
# Indices 1 2 3 4 5 6 
#
# 1 81.0159 31.7701 4.8098 -11.8478 -19.8084 1.4506
# 2 31.7701 145.5908 38.8133 -17.7957 -11.0323 1.6198
# 3 4.8098 38.8133 68.0911 -21.5592 -14.3160 6.3783
# 4 -11.8478 -17.7957 -21.5592 35.3375 1.0903 -8.7027
# 5 -19.8084 -11.0323 -14.3160 1.0903 30.8690 -10.2235
# 6 1.4506 1.6198 6.3783 -8.7027 -10.2235 41.0330
#
#
#
# Elastic Compliance Matrix: (Units=1/GPa)
#
#
# Indices 1 2 3 4 5 6 
#
# 1 0.017932 -0.003452 0.005953 0.008423 0.014013 0.003855
# 2 -0.003452 0.008904 -0.005003 0.000392 -0.001262 0.000317
# 3 0.005953 -0.005003 0.024365 0.014586 0.013714 0.002710
# 4 0.008423 0.000392 0.014586 0.042218 0.014092 0.009885
# 5 0.014013 -0.001262 0.013714 0.014092 0.051156 0.013157
# 6 0.003855 0.000317 0.002710 0.009885 0.013157 0.029175
#
#
# Mechanical properties :
#
#
# Convention : Reuss Voigt Hill
#
# Bulk Modulus (GPa) = 21.64555 49.49824 35.57189
# Shear Modulus (GPa) = 25.75282 36.06820 30.91051
#
# Velocity S-wave (km/s) = 3.47859 4.11674 3.81105
# Velocity P-wave (km/s) = 5.12882 6.77161 6.00664
#
# Compressibility (1/GPa) = 0.04619888
#
# Stress axis : x y z
#
# Youngs Moduli (GPa) = 55.76499 112.30685 41.04248
#
# Poissons Ratio (x) = 0.38763 -0.24432
# Poissons Ratio (y) = 0.19248 0.20532
# Poissons Ratio (z) = -0.33196 0.56183
#
# Static dielectric constant tensor:
#      x y z
#    x 1.785410 -0.020520 0.004370 
#    y -0.020520 1.796960 -0.022500 
#    z 0.004370 -0.022500 1.800480 
# 
# From -- ./inp_files/389858.got.cif
#   From: 2010.05.17/outbox.cif.g08.bks.cpg/sg2_195_cif.got.tgz:389858.got - 2010.06.03 11:33:40.
