data_PCOD9033544
_publ_section_title
;
Structure prediction by ZEFSAII (Michael W. Deem and Ramdas Pophale) SiO2 
 PCOD9033544
Probable space group: P -1
;
_chemical_formula_sum "Si O2"
_cell_formula_units_Z 16
_cell_length_a 10.418138
_cell_length_b 10.874763
_cell_length_c 13.076916
_cell_angle_alpha 94.385486
_cell_angle_beta 97.443258
_cell_angle_gamma 27.530460
_cell_volume 676.641555
_symmetry_space_group_name_H-M "P -1"
_symmetry_group_IT_number 2
_symmetry_cell_setting 'triclinic'
loop_
_space_group_symop_operation_xyz
x,y,z
-x,-y,-z
loop_
_atom_site_type_symbol
_atom_site_label
_atom_site_fract_x
_atom_site_fract_y
_atom_site_fract_z
Si Si1 0.619607 0.250045 0.254159
Si Si2 0.850554 0.899798 0.790601
Si Si3 0.764008 0.233335 0.068763
Si Si4 0.213327 0.214658 0.618611
Si Si5 0.599086 0.732498 0.494651
Si Si6 0.809404 0.781944 0.988608
Si Si7 0.007040 0.274786 0.783812
Si Si8 0.652272 0.513012 0.317017
O O1 0.641185 0.238374 0.132926
O O2 0.626278 0.385603 0.301967
O O3 0.322259 0.437949 0.255183
O O4 0.891607 0.935723 0.277364
O O5 0.094782 0.780864 0.851489
O O6 0.032141 0.705415 0.696337
O O7 0.584877 0.213063 0.757471
O O8 0.804168 0.844967 0.877163
O O9 0.500000 0.500000 0.000000
O O10 0.000000 0.000000 0.000000
O O11 0.393634 0.176450 0.593547
O O12 0.189475 0.222120 0.738309
O O13 0.896620 0.495467 0.565353
O O14 0.356430 0.977775 0.561675
O O15 0.585386 0.612807 0.431790
O O16 0.930493 0.767372 0.091597
O O17 0.000000 0.500000 0.000000
O O18 0.500000 0.000000 0.000000
#
# Coordination Sequence:
#
# PCOD9033544 Si02
#       8
#     2   2   2   2   2   2   2   2
#     4  11  23  40  63  96 129 175 213 262 328 387
#     4  11  23  38  61  94 127 170 219 259 318 374
#     4  11  20  35  60  83 119 167 219 259 300 354
#     4  10  23  42  69  95 124 172 213 270 334 379
#     4  10  22  44  68  96 125 161 228 273 318 386
#     4  12  27  43  61  95 133 177 218 259 321 395
#     4  12  25  44  65  93 140 169 212 268 329 396
#     4  11  23  42  69  96 132 169 220 277 314 377
#
# _framework density 23.646198999999999
#
# number of rings (size 3 to 8) (size 9 to 14) (size 15 to 20)
#    0.000    1.000    0.000    8.250    3.500    0.000 
#    0.000    3.750    0.000    0.000    0.000    0.000 
#    0.000    0.000    0.000    0.000    0.000    0.000 
#
# Total GULP energy -89287.166237 kJ/mol
# GULP energy per Si atom -5580.447890 kJ/mol
# Density = 2.359238 g / cm^3
# Si number density = 23.646199 Si / 1000 Ang^3
#
#
#
# Elastic Constant Matrix: (Units=GPa)
#
#
# Indices 1 2 3 4 5 6 
#
# 1 48.8407 20.6697 14.5458 10.4294 2.0158 -1.1268
# 2 20.6697 138.2465 -0.4057 13.5736 -7.0655 -2.9367
# 3 14.5458 -0.4057 40.2148 18.0487 -7.6832 0.1178
# 4 10.4294 13.5736 18.0487 38.3141 -3.8993 -0.3813
# 5 2.0158 -7.0655 -7.6832 -3.8993 36.3422 16.1856
# 6 -1.1268 -2.9367 0.1178 -0.3813 16.1856 40.8916
#
#
#
# Elastic Compliance Matrix: (Units=1/GPa)
#
#
# Indices 1 2 3 4 5 6 
#
# 1 0.025654 -0.003940 -0.009692 -0.001564 -0.005585 0.002648
# 2 -0.003940 0.008262 0.003422 -0.003224 0.002433 -0.000518
# 3 -0.009692 0.003422 0.036928 -0.015081 0.009119 -0.003878
# 4 -0.001564 -0.003224 -0.015081 0.034768 -0.000048 0.000112
# 5 -0.005585 0.002433 0.009119 -0.000048 0.036693 -0.014529
# 6 0.002648 -0.000518 -0.003878 0.000112 -0.014529 0.030254
#
#
# Mechanical properties :
#
#
# Convention : Reuss Voigt Hill
#
# Bulk Modulus (GPa) = 19.83124 32.99131 26.41128
# Shear Modulus (GPa) = 23.83362 35.94238 29.88800
#
# Velocity S-wave (km/s) = 3.17823 3.90296 3.55909
# Velocity P-wave (km/s) = 4.67686 5.85603 5.29935
#
# Compressibility (1/GPa) = 0.05042549
#
# Stress axis : x y z
#
# Youngs Moduli (GPa) = 38.98022 121.02957 27.07944
#
# Poissons Ratio (x) = 0.47682 0.26245
# Poissons Ratio (y) = 0.15357 -0.09266
# Poissons Ratio (z) = 0.37779 -0.41413
#
# Static dielectric constant tensor:
#      x y z
#    x 1.934940 0.095650 -0.002860 
#    y 0.095650 2.026380 0.188470 
#    z -0.002860 0.188470 2.120460 
# 
# From -- ./inp_files/519714.got.cif
#   From: 2010.05.17/outbox.cif.g08.bks.cpg/sg2_260_cif.got.tgz:519714.got - 2010.06.03 11:33:40.
