data_PCOD9033380
_publ_section_title
;
Structure prediction by ZEFSAII (Michael W. Deem and Ramdas Pophale) SiO2 
 PCOD9033380
Probable space group: P -1
;
_chemical_formula_sum "Si O2"
_cell_formula_units_Z 12
_cell_length_a 7.796311
_cell_length_b 13.382872
_cell_length_c 9.318192
_cell_angle_alpha 100.146125
_cell_angle_beta 34.674609
_cell_angle_gamma 103.853582
_cell_volume 536.648718
_symmetry_space_group_name_H-M "P -1"
_symmetry_group_IT_number 2
_symmetry_cell_setting 'triclinic'
loop_
_space_group_symop_operation_xyz
x,y,z
-x,-y,-z
loop_
_atom_site_type_symbol
_atom_site_label
_atom_site_fract_x
_atom_site_fract_y
_atom_site_fract_z
Si Si1 0.320468 0.341177 0.700842
Si Si2 0.664124 0.441013 0.752829
Si Si3 0.643600 0.003670 0.246633
Si Si4 0.185336 0.707081 0.160776
Si Si5 0.308982 0.765217 0.798857
Si Si6 0.253936 0.933753 0.258946
O O1 0.471747 0.421897 0.733747
O O2 0.569570 0.287590 0.435137
O O3 0.108024 0.369664 0.722531
O O4 0.059657 0.262678 0.944408
O O5 0.698365 0.335795 0.785607
O O6 0.000000 0.500000 0.500000
O O7 0.500000 0.500000 0.000000
O O8 0.599718 0.113503 0.240716
O O9 0.500000 0.000000 0.500000
O O10 0.453189 0.916936 0.256887
O O11 0.000000 0.000000 0.000000
O O12 0.114024 0.822578 0.262371
O O13 0.411444 0.721857 0.870209
O O14 0.000000 0.000000 0.500000
O O15 0.500000 0.000000 0.000000
#
# Coordination Sequence:
#
# PCOD9033380 Si02
#       6
#     2   2   2   2   2   2
#     4  10  23  47  70  98 136 175 231 286 353 413
#     4  12  29  48  72 106 134 177 240 292 357 422
#     4  12  25  40  64 104 146 185 234 285 338 408
#     4  10  27  44  76  97 145 185 229 288 350 405
#     4  10  22  44  67  97 141 186 225 272 354 408
#     4  12  24  44  68 102 142 186 237 277 338 428
#
# _framework density 22.360996
#
# number of rings (size 3 to 8) (size 9 to 14) (size 15 to 20)
#    1.000    0.000    1.667    4.000    7.000    1.333 
#    0.000    0.000    0.000    0.000    0.000    0.000 
#    0.000    0.000    0.000    0.000    0.000    0.000 
#
# Total GULP energy -66981.277702 kJ/mol
# GULP energy per Si atom -5581.773142 kJ/mol
# Density = 2.231010 g / cm^3
# Si number density = 22.360996 Si / 1000 Ang^3
#
#
#
# Elastic Constant Matrix: (Units=GPa)
#
#
# Indices 1 2 3 4 5 6 
#
# 1 77.4406 7.9815 23.9578 0.5090 3.3312 27.7404
# 2 7.9815 55.0507 29.7053 1.6477 3.6777 11.0977
# 3 23.9578 29.7053 185.2321 6.3775 2.7104 6.9366
# 4 0.5090 1.6477 6.3775 39.0099 0.8519 7.8235
# 5 3.3312 3.6777 2.7104 0.8519 29.8288 1.7404
# 6 27.7404 11.0977 6.9366 7.8235 1.7404 48.3623
#
#
#
# Elastic Compliance Matrix: (Units=1/GPa)
#
#
# Indices 1 2 3 4 5 6 
#
# 1 0.017066 0.000626 -0.001989 0.002098 -0.001282 -0.009941
# 2 0.000626 0.020898 -0.003247 0.000631 -0.002094 -0.004715
# 3 -0.001989 -0.003247 0.006169 -0.001082 0.000024 0.001175
# 4 0.002098 0.000631 -0.001082 0.026878 -0.000660 -0.005517
# 5 -0.001282 -0.002094 0.000024 -0.000660 0.033937 0.000098
# 6 -0.009941 -0.004715 0.001175 -0.005517 0.000098 0.028182
#
#
# Mechanical properties :
#
#
# Convention : Reuss Voigt Hill
#
# Bulk Modulus (GPa) = 28.64216 49.00140 38.82178
# Shear Modulus (GPa) = 32.47002 40.51212 36.49107
#
# Velocity S-wave (km/s) = 3.81475 4.26106 4.04407
# Velocity P-wave (km/s) = 5.67802 6.79487 6.26140
#
# Compressibility (1/GPa) = 0.03491356
#
# Stress axis : x y z
#
# Youngs Moduli (GPa) = 58.59540 47.85166 162.08937
#
# Poissons Ratio (x) = -0.02994 0.32237
# Poissons Ratio (y) = -0.03666 0.52627
# Poissons Ratio (z) = 0.11654 0.15536
#
# Static dielectric constant tensor:
#      x y z
#    x 1.890700 0.012960 -0.009740 
#    y 0.012960 1.806650 -0.007810 
#    z -0.009740 -0.007810 1.762890 
# 
# From -- ./inp_files/218145.got.cif
#   From: 2010.05.17/outbox.cif.g08.bks.cpg/sg2_110_cif.got.tgz:218145.got - 2010.06.03 11:33:40.
