data_PCOD9033335
_publ_section_title
;
Structure prediction by ZEFSAII (Michael W. Deem and Ramdas Pophale) SiO2 
 PCOD9033335
Probable space group: P -1
;
_chemical_formula_sum "Si O2"
_cell_formula_units_Z 16
_cell_length_a 13.683483
_cell_length_b 24.906809
_cell_length_c 9.204582
_cell_angle_alpha 125.448098
_cell_angle_beta 134.173001
_cell_angle_gamma 19.889999
_cell_volume 728.132150
_symmetry_space_group_name_H-M "P -1"
_symmetry_group_IT_number 2
_symmetry_cell_setting 'triclinic'
loop_
_space_group_symop_operation_xyz
x,y,z
-x,-y,-z
loop_
_atom_site_type_symbol
_atom_site_label
_atom_site_fract_x
_atom_site_fract_y
_atom_site_fract_z
Si Si1 0.432749 0.834034 0.575850
Si Si2 0.324187 0.014093 0.414555
Si Si3 0.552784 0.564968 0.320443
Si Si4 0.353780 0.515765 0.030544
Si Si5 0.305754 0.782679 0.584518
Si Si6 0.301637 0.287147 0.661759
Si Si7 0.462787 0.679833 0.905302
Si Si8 0.396285 0.104505 0.158365
O O1 0.489500 0.749995 0.611935
O O2 0.640983 0.733947 0.486080
O O3 0.522501 0.863261 0.786907
O O4 0.032514 0.024635 0.421648
O O5 0.918745 0.180068 0.235312
O O6 0.500000 0.000000 0.500000
O O7 0.499939 0.866639 0.321633
O O8 0.399632 0.988199 0.624366
O O9 0.582846 0.475241 0.258555
O O10 0.262467 0.734738 0.371063
O O11 0.905450 0.446930 0.530310
O O12 0.509617 0.579266 0.123828
O O13 0.299436 0.483213 0.040378
O O14 0.004781 0.708955 0.930037
O O15 0.485016 0.681943 0.760037
O O16 0.449118 0.289140 0.882640
O O17 0.500000 0.000000 0.000000
#
# Coordination Sequence:
#
# PCOD9033335 Si02
#       8
#     2   2   2   2   2   2   2   2
#     4  10  22  44  67  95 133 185 227 272 335 412
#     4  11  24  46  70 103 138 178 227 282 335 407
#     4  11  24  45  70  97 136 182 228 275 336 416
#     4  11  25  44  71 101 134 182 228 277 344 410
#     4  11  24  42  67  98 139 174 224 285 342 393
#     4  11  23  46  71  97 137 185 231 271 338 410
#     4  12  26  43  70 104 139 176 227 289 342 394
#     4  11  23  46  72  98 134 181 229 276 340 413
#
# _framework density 21.974034
#
# number of rings (size 3 to 8) (size 9 to 14) (size 15 to 20)
#    0.000    1.000    5.000    2.625    3.500    3.000 
#    4.500    0.000    0.000    0.000    0.000    0.000 
#    0.000    0.000    0.000    0.000    0.000    0.000 
#
# Total GULP energy -89336.067355 kJ/mol
# GULP energy per Si atom -5583.504210 kJ/mol
# Density = 2.192402 g / cm^3
# Si number density = 21.974034 Si / 1000 Ang^3
#
#
#
# Elastic Constant Matrix: (Units=GPa)
#
#
# Indices 1 2 3 4 5 6 
#
# 1 123.7008 19.6173 49.1739 20.8954 13.8558 39.2467
# 2 19.6173 74.1111 47.2632 15.5014 3.7678 12.2286
# 3 49.1739 47.2632 116.7262 24.5987 25.0976 15.0624
# 4 20.8954 15.5014 24.5987 39.8113 -1.1884 10.4926
# 5 13.8558 3.7678 25.0976 -1.1884 34.9365 0.8206
# 6 39.2467 12.2286 15.0624 10.4926 0.8206 30.9539
#
#
#
# Elastic Compliance Matrix: (Units=1/GPa)
#
#
# Indices 1 2 3 4 5 6 
#
# 1 0.015800 0.001918 -0.004001 -0.001889 -0.003238 -0.018118
# 2 0.001918 0.019373 -0.008199 -0.001936 0.003104 -0.005522
# 3 -0.004001 -0.008199 0.016578 -0.005900 -0.009698 0.002502
# 4 -0.001889 -0.001936 -0.005900 0.032016 0.006403 -0.004991
# 5 -0.003238 0.003104 -0.009698 0.006403 0.036652 0.004456
# 6 -0.018118 -0.005522 0.002502 -0.004991 0.004456 0.057816
#
#
# Mechanical properties :
#
#
# Convention : Reuss Voigt Hill
#
# Bulk Modulus (GPa) = 32.06346 60.73856 46.40101
# Shear Modulus (GPa) = 23.90122 34.37260 29.13691
#
# Velocity S-wave (km/s) = 3.30161 3.95933 3.64534
# Velocity P-wave (km/s) = 5.39976 6.97157 6.23539
#
# Compressibility (1/GPa) = 0.03118815
#
# Stress axis : x y z
#
# Youngs Moduli (GPa) = 63.28937 51.61945 60.32122
#
# Poissons Ratio (x) = -0.09903 0.24133
# Poissons Ratio (y) = -0.12142 0.49458
# Poissons Ratio (z) = 0.25320 0.42323
#
# Static dielectric constant tensor:
#      x y z
#    x 1.830850 -0.027700 0.070070 
#    y -0.027700 1.849940 -0.067110 
#    z 0.070070 -0.067110 1.835620 
# 
# From -- ./inp_files/320724.got.cif
#   From: 2010.05.17/outbox.cif.g08.bks.cpg/sg2_161_cif.got.tgz:320724.got - 2010.06.03 11:33:40.
