data_PCOD9033291
_publ_section_title
;
Structure prediction by ZEFSAII (Michael W. Deem and Ramdas Pophale) SiO2 
 PCOD9033291
Probable space group: P -1
;
_chemical_formula_sum "Si O2"
_cell_formula_units_Z 13
_cell_length_a 7.765972
_cell_length_b 12.515610
_cell_length_c 8.897778
_cell_angle_alpha 125.851563
_cell_angle_beta 133.504028
_cell_angle_gamma 51.686304
_cell_volume 472.609517
_symmetry_space_group_name_H-M "P -1"
_symmetry_group_IT_number 2
_symmetry_cell_setting 'triclinic'
loop_
_space_group_symop_operation_xyz
x,y,z
-x,-y,-z
loop_
_atom_site_type_symbol
_atom_site_label
_atom_site_fract_x
_atom_site_fract_y
_atom_site_fract_z
Si Si1 0.500000 0.000000 0.000000
Si Si2 0.963680 0.808784 0.767858
Si Si3 0.984096 0.805500 0.290000
Si Si4 0.370366 0.738501 0.722752
Si Si5 0.699030 0.629742 0.316884
Si Si6 0.298683 0.507602 0.105410
Si Si7 0.792784 0.097605 0.754622
O O1 0.452031 0.859463 0.802632
O O2 0.311088 0.101668 0.832635
O O3 0.886536 0.674570 0.576057
O O4 0.244314 0.778821 0.844630
O O5 0.796143 0.949957 0.694944
O O6 0.981709 0.864506 0.992099
O O7 0.121846 0.751322 0.486131
O O8 0.077594 0.655672 0.133214
O O9 0.123547 0.897169 0.360884
O O10 0.600532 0.592075 0.770591
O O11 0.548724 0.541847 0.235554
O O12 0.472906 0.779737 0.277879
O O13 0.780799 0.560724 0.145235
#
# Coordination Sequence:
#
# PCOD9033291 Si02
#       7
#     1   2   2   2   2   2   2
#     4  12  28  48  72  98 146 190 238 298 342 418
#     4  11  23  41  74 104 141 184 236 292 355 417
#     4  11  26  48  72 102 145 187 237 290 354 419
#     4  12  26  47  72 105 144 188 238 289 357 423
#     4  10  22  44  73 102 147 182 230 300 352 413
#     4  10  24  48  70 110 144 183 240 289 354 433
#     4  10  22  44  67 111 138 177 243 292 348 428
#
# _framework density 27.506851000000001
#
# number of rings (size 3 to 8) (size 9 to 14) (size 15 to 20)
#    0.000    1.231    3.077    1.385    2.154    3.692 
#    2.769    0.000    0.000    0.000    0.000    0.000 
#    0.000    0.000    0.000    0.000    0.000    0.000 
#
# Total GULP energy -72531.002847 kJ/mol
# GULP energy per Si atom -5579.307911 kJ/mol
# Density = 2.744424 g / cm^3
# Si number density = 27.506851 Si / 1000 Ang^3
#
#
#
# Elastic Constant Matrix: (Units=GPa)
#
#
# Indices 1 2 3 4 5 6 
#
# 1 52.2756 19.8571 35.5458 -1.2213 0.3627 14.2964
# 2 19.8571 184.2005 34.3409 -14.2093 5.5397 17.7762
# 3 35.5458 34.3409 179.8697 0.8345 8.4161 23.2765
# 4 -1.2213 -14.2093 0.8345 50.3093 3.0524 1.4757
# 5 0.3627 5.5397 8.4161 3.0524 34.4184 -1.4146
# 6 14.2964 17.7762 23.2765 1.4757 -1.4146 27.2632
#
#
#
# Elastic Compliance Matrix: (Units=1/GPa)
#
#
# Indices 1 2 3 4 5 6 
#
# 1 0.024399 -0.001066 -0.003450 0.000598 0.000328 -0.009170
# 2 -0.001066 0.006122 -0.000504 0.001874 -0.001147 -0.003164
# 3 -0.003450 -0.000504 0.006917 -0.000123 -0.001721 -0.003851
# 4 0.000598 0.001874 -0.000123 0.020635 -0.002217 -0.002662
# 5 0.000328 -0.001147 -0.001721 -0.002217 0.030006 0.003722
# 6 -0.009170 -0.003164 -0.003851 -0.002662 0.003722 0.047175
#
#
# Mechanical properties :
#
#
# Convention : Reuss Voigt Hill
#
# Bulk Modulus (GPa) = 36.49739 66.20373 51.35056
# Shear Modulus (GPa) = 32.37766 44.17164 38.27465
#
# Velocity S-wave (km/s) = 3.43458 4.01164 3.73427
# Velocity P-wave (km/s) = 5.38755 6.75115 6.10753
#
# Compressibility (1/GPa) = 0.02739922
#
# Stress axis : x y z
#
# Youngs Moduli (GPa) = 40.98452 163.34356 144.57302
#
# Poissons Ratio (x) = 0.17413 0.49875
# Poissons Ratio (y) = 0.04369 0.07284
# Poissons Ratio (z) = 0.14139 0.08229
#
# Static dielectric constant tensor:
#      x y z
#    x 2.350960 -0.059000 0.160470 
#    y -0.059000 2.197790 0.009370 
#    z 0.160470 0.009370 2.310090 
# 
# From -- ./inp_files/204612.got.cif
#   From: 2010.05.17/outbox.cif.g08.bks.cpg/sg2_103_cif.got.tgz:204612.got - 2010.06.03 11:33:40.
