data_PCOD9033180
_publ_section_title
;
Structure prediction by ZEFSAII (Michael W. Deem and Ramdas Pophale) SiO2 
 PCOD9033180
Probable space group: P -1
;
_chemical_formula_sum "Si O2"
_cell_formula_units_Z 12
_cell_length_a 13.126731
_cell_length_b 13.659362
_cell_length_c 8.504940
_cell_angle_alpha 101.819822
_cell_angle_beta 65.531159
_cell_angle_gamma 156.515140
_cell_volume 484.444667
_symmetry_space_group_name_H-M "P -1"
_symmetry_group_IT_number 2
_symmetry_cell_setting 'triclinic'
loop_
_space_group_symop_operation_xyz
x,y,z
-x,-y,-z
loop_
_atom_site_type_symbol
_atom_site_label
_atom_site_fract_x
_atom_site_fract_y
_atom_site_fract_z
Si Si1 0.840493 0.243330 0.411171
Si Si2 0.642369 0.180444 0.824098
Si Si3 0.279356 0.028986 0.804242
Si Si4 0.239814 0.105984 0.368548
Si Si5 0.653911 0.487977 0.535356
Si Si6 0.631921 0.573447 0.105052
O O1 0.819196 0.254874 0.611797
O O2 0.846208 0.132990 0.323571
O O3 0.088235 0.510173 0.232337
O O4 0.500000 0.000000 0.500000
O O5 0.365643 0.014672 0.866343
O O6 0.500000 0.000000 0.000000
O O7 0.585261 0.346754 0.664281
O O8 0.003167 0.871853 0.976882
O O9 0.012561 0.822118 0.393225
O O10 0.468398 0.296759 0.436439
O O11 0.473738 0.333127 0.155345
O O12 0.000000 0.000000 0.500000
O O13 0.476470 0.438681 0.697430
O O14 0.500000 0.500000 0.000000
#
# Coordination Sequence:
#
# PCOD9033180 Si02
#       6
#     2   2   2   2   2   2
#     4   9  22  47  70  97 140 175 235 298 369 420
#     4  10  23  48  75 101 139 177 238 302 369 434
#     4  11  24  42  68 104 137 188 235 289 366 424
#     4  10  22  44  66  93 138 197 242 288 348 408
#     4  11  24  44  67  98 149 192 237 293 346 426
#     4  11  24  44  69 101 149 191 238 293 348 426
#
# _framework density 24.770629
#
# number of rings (size 3 to 8) (size 9 to 14) (size 15 to 20)
#    0.000    1.667    0.000    4.500    4.667    4.000 
#   12.000    1.667    0.000    0.000    0.000    0.000 
#    0.000    0.000    0.000    0.000    0.000    0.000 
#
# Total GULP energy -67102.458979 kJ/mol
# GULP energy per Si atom -5591.871582 kJ/mol
# Density = 2.471425 g / cm^3
# Si number density = 24.770629 Si / 1000 Ang^3
#
#
#
# Elastic Constant Matrix: (Units=GPa)
#
#
# Indices 1 2 3 4 5 6 
#
# 1 112.1639 37.6353 58.3682 -12.1034 35.4881 0.4569
# 2 37.6353 163.1733 58.1720 -28.4758 33.3750 -9.9305
# 3 58.3682 58.1720 116.8865 -33.4302 33.5262 -6.4688
# 4 -12.1034 -28.4758 -33.4302 34.6625 -14.8255 5.4425
# 5 35.4881 33.3750 33.5262 -14.8255 58.3094 -7.2851
# 6 0.4569 -9.9305 -6.4688 5.4425 -7.2851 47.3437
#
#
#
# Elastic Compliance Matrix: (Units=1/GPa)
#
#
# Indices 1 2 3 4 5 6 
#
# 1 0.013650 -0.000578 -0.006064 -0.003725 -0.005627 -0.001519
# 2 -0.000578 0.008082 -0.002125 0.003378 -0.002106 0.000698
# 3 -0.006064 -0.002125 0.016297 0.011123 -0.001596 0.000315
# 4 -0.003725 0.003378 0.011123 0.043383 0.004720 -0.001997
# 5 -0.005627 -0.002106 -0.001596 0.004720 0.024220 0.002579
# 6 -0.001519 0.000698 0.000315 -0.001997 0.002579 0.021953
#
#
# Mechanical properties :
#
#
# Convention : Reuss Voigt Hill
#
# Bulk Modulus (GPa) = 48.79085 77.84164 63.31625
# Shear Modulus (GPa) = 32.90549 43.93298 38.41924
#
# Velocity S-wave (km/s) = 3.64869 4.21597 3.94255
# Velocity P-wave (km/s) = 6.12294 7.42916 6.80745
#
# Compressibility (1/GPa) = 0.02049565
#
# Stress axis : x y z
#
# Youngs Moduli (GPa) = 73.26240 123.73063 61.36002
#
# Poissons Ratio (x) = 0.07152 0.37208
# Poissons Ratio (y) = 0.04235 0.13037
# Poissons Ratio (z) = 0.44426 0.26289
#
# Static dielectric constant tensor:
#      x y z
#    x 2.029810 0.103920 0.035090 
#    y 0.103920 2.277770 0.035410 
#    z 0.035090 0.035410 2.054920 
# 
# From -- ./inp_files/313538.got.cif
#   From: 2010.05.17/outbox.cif.g08.bks.cpg/sg2_157_cif.got.tgz:313538.got - 2010.06.03 11:33:40.
