data_PCOD9033861
_publ_section_title
;
Structure prediction by ZEFSAII (Michael W. Deem and Ramdas Pophale) SiO2 
 PCOD9033861
Probable space group: P -1
;
_chemical_formula_sum "Si O2"
_cell_formula_units_Z 16
_cell_length_a 10.294082
_cell_length_b 15.831586
_cell_length_c 5.500846
_cell_angle_alpha 74.426110
_cell_angle_beta 100.506157
_cell_angle_gamma 75.192620
_cell_volume 804.005145
_symmetry_space_group_name_H-M "P -1"
_symmetry_group_IT_number 2
_symmetry_cell_setting 'triclinic'
loop_
_space_group_symop_operation_xyz
x,y,z
-x,-y,-z
loop_
_atom_site_type_symbol
_atom_site_label
_atom_site_fract_x
_atom_site_fract_y
_atom_site_fract_z
Si Si1 0.787918 0.777139 0.923494
Si Si2 0.137471 0.004319 0.664570
Si Si3 0.416568 0.499266 0.720053
Si Si4 0.336425 0.843643 0.139746
Si Si5 0.732732 0.295872 0.415256
Si Si6 0.645802 0.987485 0.676192
Si Si7 0.456573 0.297874 0.007645
Si Si8 0.059190 0.213936 0.548496
O O1 0.703400 0.884107 0.875700
O O2 0.865979 0.774682 0.691057
O O3 0.670153 0.726844 0.890107
O O4 0.887922 0.744922 0.222251
O O5 0.247678 0.006412 0.497959
O O6 0.096638 0.103766 0.703908
O O7 0.000000 0.000000 0.500000
O O8 0.205538 0.907616 0.896038
O O9 0.500000 0.500000 0.500000
O O10 0.294246 0.597250 0.604718
O O11 0.391670 0.400579 0.795650
O O12 0.500000 0.500000 0.000000
O O13 0.283612 0.770933 0.324405
O O14 0.475096 0.782731 0.098955
O O15 0.372717 0.924670 0.230233
O O16 0.892378 0.255199 0.414142
O O17 0.598249 0.296478 0.202921
O O18 0.500000 0.000000 0.500000
#
# Coordination Sequence:
#
# PCOD9033861 Si02
#       8
#     2   2   2   2   2   2   2   2
#     4  11  26  44  64  96 141 180 220 271 335 399
#     4  11  24  39  57  91 134 176 225 266 325 391
#     4  10  22  44  70 104 132 164 221 291 340 390
#     4  12  22  37  70  94 130 169 234 272 330 388
#     4  11  25  43  70 100 130 174 230 282 339 398
#     4  11  24  39  57  91 134 176 225 266 325 391
#     4  11  25  43  70 100 130 174 230 282 339 398
#     4  11  26  44  64  96 141 180 220 271 335 399
#
# _framework density 19.900371
#
# number of rings (size 3 to 8) (size 9 to 14) (size 15 to 20)
#    0.000    1.000    2.500    3.750   10.500    2.000 
#    0.000    1.250    0.000    0.000    0.000    0.000 
#    0.000    0.000    0.000    0.000    0.000    0.000 
#
# Total GULP energy -89186.631286 kJ/mol
# GULP energy per Si atom -5574.164455 kJ/mol
# Density = 1.985508 g / cm^3
# Si number density = 19.900371 Si / 1000 Ang^3
#
#
#
# Elastic Constant Matrix: (Units=GPa)
#
#
# Indices 1 2 3 4 5 6 
#
# 1 141.3316 22.9259 54.3203 -16.4401 8.6260 -5.0477
# 2 22.9259 80.0220 47.0793 -40.2385 0.0151 -16.4587
# 3 54.3203 47.0793 83.7197 -20.2746 9.3290 1.4202
# 4 -16.4401 -40.2385 -20.2746 39.1212 4.0287 3.7913
# 5 8.6260 0.0151 9.3290 4.0287 39.2957 -6.4685
# 6 -5.0477 -16.4587 1.4202 3.7913 -6.4685 36.8437
#
#
#
# Elastic Compliance Matrix: (Units=1/GPa)
#
#
# Indices 1 2 3 4 5 6 
#
# 1 0.010163 0.005270 -0.008380 0.005025 -0.000179 0.003521
# 2 0.005270 0.044735 -0.020661 0.035414 0.003130 0.018408
# 3 -0.008380 -0.020661 0.027734 -0.008687 -0.005749 -0.011562
# 4 0.005025 0.035414 -0.008687 0.058963 -0.003425 0.010175
# 5 -0.000179 0.003130 -0.005749 -0.003425 0.028342 0.006924
# 6 0.003521 0.018408 -0.011562 0.010175 0.006924 0.036461
#
#
# Mechanical properties :
#
#
# Convention : Reuss Voigt Hill
#
# Bulk Modulus (GPa) = 28.49870 61.52493 45.01182
# Shear Modulus (GPa) = 18.82271 35.10196 26.96233
#
# Velocity S-wave (km/s) = 3.07880 4.20442 3.68484
# Velocity P-wave (km/s) = 5.19523 7.38601 6.38528
#
# Compressibility (1/GPa) = 0.03508932
#
# Stress axis : x y z
#
# Youngs Moduli (GPa) = 98.39704 22.35384 36.05739
#
# Poissons Ratio (x) = -0.11781 0.30217
# Poissons Ratio (y) = -0.51856 0.74497
# Poissons Ratio (z) = 0.82461 0.46185
#
# Static dielectric constant tensor:
#      x y z
#    x 1.668330 -0.007830 -0.014000 
#    y -0.007830 1.749190 0.035520 
#    z -0.014000 0.035520 1.792500 
# 
# From -- ./inp_files/37486.got.cif
#   From: 2010.05.17/outbox.cif.g08.bks.cpg/sg2_19_cif.got.tgz:37486.got - 2010.06.03 11:33:40.
