data_PCOD9033075
_publ_section_title
;
Structure prediction by ZEFSAII (Michael W. Deem and Ramdas Pophale) SiO2 
 PCOD9033075
Probable space group: P -1
;
_chemical_formula_sum "Si O2"
_cell_formula_units_Z 16
_cell_length_a 18.439551
_cell_length_b 9.137338
_cell_length_c 8.891720
_cell_angle_alpha 76.901707
_cell_angle_beta 35.841452
_cell_angle_gamma 65.575562
_cell_volume 781.990759
_symmetry_space_group_name_H-M "P -1"
_symmetry_group_IT_number 2
_symmetry_cell_setting 'triclinic'
loop_
_space_group_symop_operation_xyz
x,y,z
-x,-y,-z
loop_
_atom_site_type_symbol
_atom_site_label
_atom_site_fract_x
_atom_site_fract_y
_atom_site_fract_z
Si Si1 0.766358 0.641336 0.029679
Si Si2 0.217177 0.805879 0.355633
Si Si3 0.027324 0.118944 0.040054
Si Si4 0.491639 0.168270 0.401763
Si Si5 0.204804 0.011163 0.063147
Si Si6 0.963879 0.584857 0.202120
Si Si7 0.515858 0.154667 0.014044
Si Si8 0.720190 0.543811 0.796610
O O1 0.743885 0.578193 0.920842
O O2 0.900629 0.503579 0.907373
O O3 0.785718 0.814923 0.951131
O O4 0.631157 0.685449 0.347102
O O5 0.113364 0.789581 0.655159
O O6 0.145928 0.950070 0.319442
O O7 0.276012 0.633328 0.209015
O O8 0.333060 0.851216 0.227422
O O9 0.131142 0.039925 0.020335
O O10 0.072969 0.229450 0.827436
O O11 0.000000 0.000000 0.000000
O O12 0.466776 0.168011 0.266181
O O13 0.500000 0.000000 0.500000
O O14 0.647419 0.139034 0.166811
O O15 0.840650 0.564161 0.495929
O O16 0.000000 0.500000 0.000000
O O17 0.421163 0.316798 0.049063
O O18 0.500000 0.000000 0.000000
#
# Coordination Sequence:
#
# PCOD9033075 Si02
#       8
#     2   2   2   2   2   2   2   2
#     4  11  23  42  70  97 131 179 227 274 332 405
#     4  11  25  45  64 100 138 173 221 278 339 392
#     4  12  28  41  69  99 137 175 223 282 330 402
#     4   9  20  38  67  97 128 168 222 273 323 393
#     4  10  22  44  65  95 135 177 219 271 336 399
#     4  12  24  45  67  99 133 180 224 277 339 390
#     4  11  24  43  71  98 134 179 224 273 335 406
#     4  12  25  42  69  98 136 179 223 280 332 402
#
# _framework density 20.460602000000002
#
# number of rings (size 3 to 8) (size 9 to 14) (size 15 to 20)
#    0.000    1.000    2.500    4.125    7.000    1.000 
#    0.000    2.500    0.000    0.000    0.000    0.000 
#    0.000    0.000    0.000    0.000    0.000    0.000 
#
# Total GULP energy -89337.600874 kJ/mol
# GULP energy per Si atom -5583.600055 kJ/mol
# Density = 2.041403 g / cm^3
# Si number density = 20.460602 Si / 1000 Ang^3
#
#
#
# Elastic Constant Matrix: (Units=GPa)
#
#
# Indices 1 2 3 4 5 6 
#
# 1 165.9714 64.2443 33.2885 11.5964 -3.3609 -3.8762
# 2 64.2443 88.7447 11.7804 -2.7263 0.2994 1.7933
# 3 33.2885 11.7804 79.3472 -8.4721 -2.9040 0.9495
# 4 11.5964 -2.7263 -8.4721 28.8442 -0.9229 2.4886
# 5 -3.3609 0.2994 -2.9040 -0.9229 33.9062 7.4904
# 6 -3.8762 1.7933 0.9495 2.4886 7.4904 42.5041
#
#
#
# Elastic Compliance Matrix: (Units=1/GPa)
#
#
# Indices 1 2 3 4 5 6 
#
# 1 0.009892 -0.006874 -0.003767 -0.005863 0.000209 0.001583
# 2 -0.006874 0.016292 0.000978 0.004717 -0.000267 -0.001565
# 3 -0.003767 0.000978 0.014753 0.006096 0.001336 -0.001307
# 4 -0.005863 0.004717 0.006096 0.039620 0.001750 -0.003498
# 5 0.000209 -0.000267 0.001336 0.001750 0.030904 -0.005548
# 6 0.001583 -0.001565 -0.001307 -0.003498 -0.005548 0.024949
#
#
# Mechanical properties :
#
#
# Convention : Reuss Voigt Hill
#
# Bulk Modulus (GPa) = 46.27192 61.40997 53.84094
# Shear Modulus (GPa) = 30.68584 36.03425 33.36004
#
# Velocity S-wave (km/s) = 3.87687 4.20116 4.04227
# Velocity P-wave (km/s) = 6.53486 7.32202 6.93961
#
# Compressibility (1/GPa) = 0.02161138
#
# Stress axis : x y z
#
# Youngs Moduli (GPa) = 101.08892 61.37906 67.78118
#
# Poissons Ratio (x) = 0.42192 0.25532
# Poissons Ratio (y) = 0.69489 -0.06626
# Poissons Ratio (z) = 0.38078 -0.06000
#
# Static dielectric constant tensor:
#      x y z
#    x 1.688870 -0.010260 0.020050 
#    y -0.010260 1.665870 0.022030 
#    z 0.020050 0.022030 1.718440 
# 
# From -- ./inp_files/328809.got.cif
#   From: 2010.05.17/outbox.cif.g08.bks.cpg/sg2_165_cif.got.tgz:328809.got - 2010.06.03 11:33:40.
