data_PCOD9033449
_publ_section_title
;
Structure prediction by ZEFSAII (Michael W. Deem and Ramdas Pophale) SiO2 
 PCOD9033449
Probable space group: P -1
;
_chemical_formula_sum "Si O2"
_cell_formula_units_Z 15
_cell_length_a 7.271158
_cell_length_b 9.513936
_cell_length_c 9.491309
_cell_angle_alpha 119.715426
_cell_angle_beta 95.965308
_cell_angle_gamma 83.071619
_cell_volume 565.335296
_symmetry_space_group_name_H-M "P -1"
_symmetry_group_IT_number 2
_symmetry_cell_setting 'triclinic'
loop_
_space_group_symop_operation_xyz
x,y,z
-x,-y,-z
loop_
_atom_site_type_symbol
_atom_site_label
_atom_site_fract_x
_atom_site_fract_y
_atom_site_fract_z
Si Si1 0.019975 0.201154 0.972570
Si Si2 0.226947 0.090740 0.262073
Si Si3 0.196967 0.466826 0.424358
Si Si4 0.500000 0.500000 0.000000
Si Si5 0.634385 0.980662 0.157508
Si Si6 0.718849 0.996053 0.483808
Si Si7 0.696605 0.329923 0.209125
Si Si8 0.176296 0.664519 0.236374
O O1 0.986378 0.308999 0.880708
O O2 0.239437 0.153818 0.986680
O O3 0.928919 0.027182 0.857933
O O4 0.900700 0.291840 0.132812
O O5 0.249535 0.276417 0.319901
O O6 0.193466 0.113776 0.439908
O O7 0.418206 0.983901 0.182946
O O8 0.316776 0.557786 0.595803
O O9 0.176549 0.542032 0.304478
O O10 0.000000 0.500000 0.500000
O O11 0.573250 0.413064 0.116188
O O12 0.354679 0.620919 0.133588
O O13 0.738163 0.959078 0.304664
O O14 0.649835 0.153447 0.172133
O O15 0.798241 0.165755 0.603960
O O16 0.500000 0.000000 0.500000
#
# Coordination Sequence:
#
# PCOD9033449 Si02
#       8
#     2   2   2   1   2   2   2   2
#     4  10  24  46  72 101 148 191 246 298 374 433
#     4  10  24  41  69 110 137 185 253 302 354 443
#     4  12  26  44  74 109 152 188 251 303 370 445
#     4  10  24  42  70 100 144 190 242 292 374 450
#     4  11  21  40  74  98 137 190 242 301 358 423
#     4   9  20  37  64 104 127 174 243 290 348 422
#     4  11  24  45  71 104 144 200 235 304 372 446
#     4  10  22  44  68 101 144 195 234 301 373 432
#
# _framework density 26.532924999999999
#
# number of rings (size 3 to 8) (size 9 to 14) (size 15 to 20)
#    0.000    1.600    1.333    2.000    5.600    2.667 
#    0.000   10.667    0.000    0.000    0.000    0.000 
#    0.000    0.000    0.000    0.000    0.000    0.000 
#
# Total GULP energy -83695.477164 kJ/mol
# GULP energy per Si atom -5579.698478 kJ/mol
# Density = 2.647254 g / cm^3
# Si number density = 26.532925 Si / 1000 Ang^3
#
#
#
# Elastic Constant Matrix: (Units=GPa)
#
#
# Indices 1 2 3 4 5 6 
#
# 1 92.4773 31.0809 41.4715 -1.0512 -27.1745 -16.0324
# 2 31.0809 198.8154 72.2730 -21.8375 6.8289 -7.7939
# 3 41.4715 72.2730 179.6881 -25.5819 -15.3474 -8.7484
# 4 -1.0512 -21.8375 -25.5819 43.7804 -8.8791 -13.6164
# 5 -27.1745 6.8289 -15.3474 -8.8791 39.6406 4.1255
# 6 -16.0324 -7.7939 -8.7484 -13.6164 4.1255 35.9023
#
#
#
# Elastic Compliance Matrix: (Units=1/GPa)
#
#
# Indices 1 2 3 4 5 6 
#
# 1 0.016459 -0.001884 -0.001371 0.002899 0.011056 0.006436
# 2 -0.001884 0.006413 -0.002117 0.001625 -0.002955 0.000991
# 3 -0.001371 -0.002117 0.007820 0.004865 0.003303 0.002300
# 4 0.002899 0.001625 0.004865 0.032912 0.009482 0.014225
# 5 0.011056 -0.002955 0.003303 0.009482 0.036246 0.004532
# 6 0.006436 0.000991 0.002300 0.014225 0.004532 0.036377
#
#
# Mechanical properties :
#
#
# Convention : Reuss Voigt Hill
#
# Bulk Modulus (GPa) = 50.13040 84.51464 67.32252
# Shear Modulus (GPa) = 32.54796 45.60838 39.07817
#
# Velocity S-wave (km/s) = 3.50623 4.15050 3.84189
# Velocity P-wave (km/s) = 5.94358 7.40883 6.71628
#
# Compressibility (1/GPa) = 0.01994797
#
# Stress axis : x y z
#
# Youngs Moduli (GPa) = 60.75770 155.93752 127.87856
#
# Poissons Ratio (x) = 0.29377 0.17527
# Poissons Ratio (y) = 0.11446 0.27076
# Poissons Ratio (z) = 0.08327 0.33017
#
# Static dielectric constant tensor:
#      x y z
#    x 2.507430 -0.215150 0.127300 
#    y -0.215150 2.264260 -0.118660 
#    z 0.127300 -0.118660 2.099080 
# 
# From -- ./inp_files/160136.got.cif
#   From: 2010.05.17/outbox.cif.g08.bks.cpg/sg2_81_cif.got.tgz:160136.got - 2010.06.03 11:33:40.
