data_PCOD9033502
_publ_section_title
;
Structure prediction by ZEFSAII (Michael W. Deem and Ramdas Pophale) SiO2 
 PCOD9033502
Probable space group: P -1
;
_chemical_formula_sum "Si O2"
_cell_formula_units_Z 16
_cell_length_a 5.512310
_cell_length_b 12.454823
_cell_length_c 11.629415
_cell_angle_alpha 58.493722
_cell_angle_beta 88.026130
_cell_angle_gamma 103.778872
_cell_volume 648.837135
_symmetry_space_group_name_H-M "P -1"
_symmetry_group_IT_number 2
_symmetry_cell_setting 'triclinic'
loop_
_space_group_symop_operation_xyz
x,y,z
-x,-y,-z
loop_
_atom_site_type_symbol
_atom_site_label
_atom_site_fract_x
_atom_site_fract_y
_atom_site_fract_z
Si Si1 0.457219 0.182969 0.328992
Si Si2 0.377397 0.681477 0.115320
Si Si3 0.298492 0.581585 0.433440
Si Si4 0.876779 0.215104 0.118279
Si Si5 0.829854 0.250506 0.468643
Si Si6 0.943907 0.021692 0.686345
Si Si7 0.731318 0.960205 0.960343
Si Si8 0.784672 0.602141 0.802160
O O1 0.624974 0.210061 0.196519
O O2 0.618728 0.151819 0.447215
O O3 0.202007 0.071774 0.361997
O O4 0.403594 0.319343 0.281553
O O5 0.339526 0.636052 0.272849
O O6 0.350220 0.552598 0.110100
O O7 0.162475 0.740777 0.033661
O O8 0.634709 0.801634 0.035297
O O9 0.500000 0.500000 0.500000
O O10 0.316793 0.696827 0.460593
O O11 0.000000 0.500000 0.500000
O O12 0.889718 0.066409 0.216418
O O13 0.096855 0.324900 0.122298
O O14 0.989025 0.363323 0.315788
O O15 0.017244 0.171048 0.558044
O O16 0.767853 0.023520 0.798006
O O17 0.500000 0.000000 0.000000
O O18 0.000000 0.000000 0.000000
#
# Coordination Sequence:
#
# PCOD9033502 Si02
#       8
#     2   2   2   2   2   2   2   2
#     4  10  22  44  68 110 148 195 258 312 390 457
#     4  12  24  50  78 108 158 200 255 326 390 466
#     4  12  28  51  76 115 156 203 257 313 391 465
#     4  10  23  44  72 115 150 200 255 319 388 464
#     4  11  24  44  72 107 152 201 257 317 380 461
#     4  11  24  45  72 106 153 199 260 315 387 454
#     4  12  28  51  73 110 147 203 256 311 380 451
#     4  10  23  44  73 112 151 199 258 314 396 459
#
# _framework density 24.659499
#
# number of rings (size 3 to 8) (size 9 to 14) (size 15 to 20)
#    0.000    1.000    2.500    3.000    0.000    9.000 
#    9.000    0.000    0.000    0.000    0.000    0.000 
#    0.000    0.000    0.000    0.000    0.000    0.000 
#
# Total GULP energy -89499.570046 kJ/mol
# GULP energy per Si atom -5593.723128 kJ/mol
# Density = 2.460337 g / cm^3
# Si number density = 24.659499 Si / 1000 Ang^3
#
#
#
# Elastic Constant Matrix: (Units=GPa)
#
#
# Indices 1 2 3 4 5 6 
#
# 1 116.5732 46.8163 43.7284 -8.5055 21.0293 -10.0673
# 2 46.8163 116.5557 37.7661 -9.9902 16.5999 2.0841
# 3 43.7284 37.7661 134.9970 2.3198 30.5389 5.2034
# 4 -8.5055 -9.9902 2.3198 39.1903 -4.4338 0.8146
# 5 21.0293 16.5999 30.5389 -4.4338 38.9319 -4.2182
# 6 -10.0673 2.0841 5.2034 0.8146 -4.2182 46.9688
#
#
#
# Elastic Compliance Matrix: (Units=1/GPa)
#
#
# Indices 1 2 3 4 5 6 
#
# 1 0.011649 -0.003482 -0.002360 0.001442 -0.002503 0.002663
# 2 -0.003482 0.010885 -0.001582 0.001977 -0.001426 -0.001216
# 3 -0.002360 -0.001582 0.010215 -0.002217 -0.006545 -0.002117
# 4 0.001442 0.001977 -0.002217 0.026821 0.003203 0.000289
# 5 -0.002503 -0.001426 -0.006545 0.003203 0.033493 0.003204
# 6 0.002663 -0.001216 -0.002117 0.000289 0.003204 0.022433
#
#
# Mechanical properties :
#
#
# Convention : Reuss Voigt Hill
#
# Bulk Modulus (GPa) = 55.86223 69.41641 62.63932
# Shear Modulus (GPa) = 36.68134 41.00586 38.84360
#
# Velocity S-wave (km/s) = 3.86101 4.08227 3.97318
# Velocity P-wave (km/s) = 6.52527 7.10148 6.81946
#
# Compressibility (1/GPa) = 0.01790118
#
# Stress axis : x y z
#
# Youngs Moduli (GPa) = 85.84646 91.87080 97.89540
#
# Poissons Ratio (x) = 0.31986 0.23107
# Poissons Ratio (y) = 0.29888 0.15484
# Poissons Ratio (z) = 0.20263 0.14531
#
# Static dielectric constant tensor:
#      x y z
#    x 2.009560 0.018320 0.011160 
#    y 0.018320 2.017750 0.009410 
#    z 0.011160 0.009410 1.928950 
# 
# From -- ./inp_files/363894.got.cif
#   From: 2010.05.17/outbox.cif.g08.bks.cpg/sg2_182_cif.got.tgz:363894.got - 2010.06.03 11:33:40.
