data_PCOD9033909
_publ_section_title
;
Structure prediction by ZEFSAII (Michael W. Deem and Ramdas Pophale) SiO2 
 PCOD9033909
Probable space group: P -1
;
_chemical_formula_sum "Si O2"
_cell_formula_units_Z 15
_cell_length_a 11.959697
_cell_length_b 6.673632
_cell_length_c 14.160085
_cell_angle_alpha 106.726450
_cell_angle_beta 140.163492
_cell_angle_gamma 58.156642
_cell_volume 600.563155
_symmetry_space_group_name_H-M "P -1"
_symmetry_group_IT_number 2
_symmetry_cell_setting 'triclinic'
loop_
_space_group_symop_operation_xyz
x,y,z
-x,-y,-z
loop_
_atom_site_type_symbol
_atom_site_label
_atom_site_fract_x
_atom_site_fract_y
_atom_site_fract_z
Si Si1 0.229010 0.366486 0.728230
Si Si2 0.682407 0.052124 0.415540
Si Si3 0.350368 0.398886 0.371747
Si Si4 0.013408 0.727053 0.076803
Si Si5 0.210820 0.759195 0.023695
Si Si6 0.344250 0.699342 0.750778
Si Si7 0.894034 0.724035 0.672896
Si Si8 0.500000 0.000000 0.000000
O O1 0.276523 0.183002 0.648560
O O2 0.214412 0.607904 0.708155
O O3 0.019153 0.475114 0.662616
O O4 0.405306 0.240911 0.902591
O O5 0.812089 0.950890 0.580433
O O6 0.452468 0.216946 0.325041
O O7 0.720266 0.214036 0.387004
O O8 0.500000 0.500000 0.500000
O O9 0.135434 0.627275 0.237500
O O10 0.298229 0.268214 0.402024
O O11 0.146594 0.772618 0.093158
O O12 0.812856 0.985301 0.989312
O O13 0.000000 0.500000 0.000000
O O14 0.048761 0.727385 0.851114
O O15 0.431131 0.532366 0.132048
O O16 0.358913 0.912883 0.840839
#
# Coordination Sequence:
#
# PCOD9033909 Si02
#       8
#     2   2   2   2   2   2   2   1
#     4  11  26  46  77 108 150 197 247 312 371 452
#     4  11  27  48  73 105 151 195 247 308 373 450
#     4  12  27  49  77 109 148 201 252 312 386 450
#     4  11  24  45  72 112 146 193 250 314 376 440
#     4  11  24  42  74 108 148 191 248 311 371 445
#     4  11  24  45  75 108 150 198 245 299 387 441
#     4  12  26  49  73 111 149 195 254 313 372 451
#     4  10  22  44  70 114 146 190 246 310 366 444
#
# _framework density 24.976557
#
# number of rings (size 3 to 8) (size 9 to 14) (size 15 to 20)
#    0.000    0.800    4.000    2.000    3.733    1.600 
#    7.200    0.000    0.000    0.000    0.000    0.000 
#    0.000    0.000    0.000    0.000    0.000    0.000 
#
# Total GULP energy -83704.213290 kJ/mol
# GULP energy per Si atom -5580.280886 kJ/mol
# Density = 2.491971 g / cm^3
# Si number density = 24.976557 Si / 1000 Ang^3
#
#
#
# Elastic Constant Matrix: (Units=GPa)
#
#
# Indices 1 2 3 4 5 6 
#
# 1 108.2643 40.1724 22.4103 -5.7788 -6.0449 10.6366
# 2 40.1724 134.8178 21.3010 1.4100 -2.7435 7.5051
# 3 22.4103 21.3010 83.9128 -14.9772 -15.1827 25.3695
# 4 -5.7788 1.4100 -14.9772 49.3922 12.2906 -14.0774
# 5 -6.0449 -2.7435 -15.1827 12.2906 30.6216 -8.4701
# 6 10.6366 7.5051 25.3695 -14.0774 -8.4701 42.2587
#
#
#
# Elastic Compliance Matrix: (Units=1/GPa)
#
#
# Indices 1 2 3 4 5 6 
#
# 1 0.010807 -0.002894 -0.001684 0.000418 0.000613 -0.000933
# 2 -0.002894 0.008546 -0.001548 -0.001073 -0.000215 -0.000260
# 3 -0.001684 -0.001548 0.016183 0.001375 0.004906 -0.007575
# 4 0.000418 -0.001073 0.001375 0.024264 -0.007453 0.005849
# 5 0.000613 -0.000215 0.004906 -0.007453 0.038800 0.002233
# 6 -0.000933 -0.000260 -0.007575 0.005849 0.002233 0.030889
#
#
# Mechanical properties :
#
#
# Convention : Reuss Voigt Hill
#
# Bulk Modulus (GPa) = 42.94808 54.97359 48.96083
# Shear Modulus (GPa) = 33.44429 40.66190 37.05310
#
# Velocity S-wave (km/s) = 3.66324 4.03923 3.85582
# Velocity P-wave (km/s) = 5.92665 6.61904 6.28239
#
# Compressibility (1/GPa) = 0.02328393
#
# Stress axis : x y z
#
# Youngs Moduli (GPa) = 92.52947 117.01739 61.79324
#
# Poissons Ratio (x) = 0.33867 0.10405
# Poissons Ratio (y) = 0.26780 0.09565
# Poissons Ratio (z) = 0.15581 0.18114
#
# Static dielectric constant tensor:
#      x y z
#    x 1.926700 0.003890 -0.043560 
#    y 0.003890 2.019030 0.014870 
#    z -0.043560 0.014870 1.969660 
# 
# From -- ./inp_files/511113.got.cif
#   From: 2010.05.17/outbox.cif.g08.bks.cpg/sg2_256_cif.got.tgz:511113.got - 2010.06.03 11:33:40.
