data_PCOD9033553
_publ_section_title
;
Structure prediction by ZEFSAII (Michael W. Deem and Ramdas Pophale) SiO2 
 PCOD9033553
Probable space group: P -1
;
_chemical_formula_sum "Si O2"
_cell_formula_units_Z 15
_cell_length_a 9.610078
_cell_length_b 10.989744
_cell_length_c 7.202438
_cell_angle_alpha 114.999288
_cell_angle_beta 114.290500
_cell_angle_gamma 68.998112
_cell_volume 612.487605
_symmetry_space_group_name_H-M "P -1"
_symmetry_group_IT_number 2
_symmetry_cell_setting 'triclinic'
loop_
_space_group_symop_operation_xyz
x,y,z
-x,-y,-z
loop_
_atom_site_type_symbol
_atom_site_label
_atom_site_fract_x
_atom_site_fract_y
_atom_site_fract_z
Si Si1 0.471022 0.921668 0.621037
Si Si2 0.760943 0.446997 0.547285
Si Si3 0.000000 0.000000 0.500000
Si Si4 0.698047 0.796439 0.196701
Si Si5 0.783877 0.750824 0.828917
Si Si6 0.764249 0.246283 0.743909
Si Si7 0.419990 0.640024 0.939845
Si Si8 0.960922 0.758827 0.593543
O O1 0.630404 0.870639 0.785412
O O2 0.393180 0.798274 0.443350
O O3 0.500000 0.000000 0.500000
O O4 0.344904 0.037769 0.734161
O O5 0.741987 0.608584 0.654739
O O6 0.772747 0.380405 0.715010
O O7 0.632120 0.399403 0.317006
O O8 0.210046 0.241614 0.587503
O O9 0.099979 0.881609 0.330128
O O10 0.015759 0.880314 0.593642
O O11 0.814125 0.742158 0.058061
O O12 0.544987 0.735937 0.056885
O O13 0.925713 0.777153 0.802259
O O14 0.921038 0.381015 0.485577
O O15 0.725149 0.283188 0.961724
O O16 0.500000 0.500000 0.000000
#
# Coordination Sequence:
#
# PCOD9033553 Si02
#       8
#     2   2   1   2   2   2   2   2
#     4  12  21  43  69  97 140 179 226 292 341 394
#     4  11  27  45  67 104 141 182 228 281 348 404
#     4  10  22  44  68  96 136 184 216 278 348 398
#     4  12  25  42  73 104 132 183 234 275 350 405
#     4  12  25  43  70 102 139 181 229 287 337 415
#     4  11  22  43  69  95 143 179 229 282 342 406
#     4  12  25  43  71 105 138 184 229 283 345 410
#     4  11  24  47  70  98 142 179 226 283 339 416
#
# _framework density 24.490290000000002
#
# number of rings (size 3 to 8) (size 9 to 14) (size 15 to 20)
#    0.000    0.533    4.000    4.000    0.000    4.267 
#    0.000    2.000    0.000    0.000    0.000    0.000 
#    0.000    0.000    0.000    0.000    0.000    0.000 
#
# Total GULP energy -83791.002175 kJ/mol
# GULP energy per Si atom -5586.066812 kJ/mol
# Density = 2.443455 g / cm^3
# Si number density = 24.490290 Si / 1000 Ang^3
#
#
#
# Elastic Constant Matrix: (Units=GPa)
#
#
# Indices 1 2 3 4 5 6 
#
# 1 64.0557 6.6494 25.2913 2.9888 -9.4888 0.2610
# 2 6.6494 87.8866 15.8464 6.9237 -4.4632 1.3767
# 3 25.2913 15.8464 74.7667 7.6998 -36.4287 4.3840
# 4 2.9888 6.9237 7.6998 23.4761 2.0147 -6.8461
# 5 -9.4888 -4.4632 -36.4287 2.0147 51.1275 -9.0781
# 6 0.2610 1.3767 4.3840 -6.8461 -9.0781 38.8339
#
#
#
# Elastic Compliance Matrix: (Units=1/GPa)
#
#
# Indices 1 2 3 4 5 6 
#
# 1 0.018105 -0.000236 -0.006842 0.000239 -0.001482 0.000355
# 2 -0.000236 0.012050 -0.002537 -0.002865 -0.000836 -0.000840
# 3 -0.006842 -0.002537 0.025263 -0.008175 0.016790 -0.000232
# 4 0.000239 -0.002865 -0.008175 0.049026 -0.006517 0.008142
# 5 -0.001482 -0.000836 0.016790 -0.006517 0.032235 0.004531
# 6 0.000355 -0.000840 -0.000232 0.008142 0.004531 0.028299
#
#
# Mechanical properties :
#
#
# Convention : Reuss Voigt Hill
#
# Bulk Modulus (GPa) = 27.63289 35.80925 31.72107
# Shear Modulus (GPa) = 25.47506 34.61564 30.04535
#
# Velocity S-wave (km/s) = 3.22873 3.76366 3.50641
# Velocity P-wave (km/s) = 5.02069 5.79141 5.41976
#
# Compressibility (1/GPa) = 0.03618875
#
# Stress axis : x y z
#
# Youngs Moduli (GPa) = 55.23291 82.98759 39.58352
#
# Poissons Ratio (x) = 0.01957 0.27082
# Poissons Ratio (y) = 0.01303 0.10043
# Poissons Ratio (z) = 0.37789 0.21055
#
# Static dielectric constant tensor:
#      x y z
#    x 2.016670 -0.032160 -0.005230 
#    y -0.032160 1.845110 0.002260 
#    z -0.005230 0.002260 1.932550 
# 
# From -- ./inp_files/71932.got.cif
#   From: 2010.05.17/outbox.cif.g08.bks.cpg/sg2_36_cif.got.tgz:71932.got - 2010.06.03 11:33:40.
