data_PCOD9033742
_publ_section_title
;
Structure prediction by ZEFSAII (Michael W. Deem and Ramdas Pophale) SiO2 
 PCOD9033742
Probable space group: P -1
;
_chemical_formula_sum "Si O2"
_cell_formula_units_Z 16
_cell_length_a 12.976996
_cell_length_b 11.152059
_cell_length_c 14.263251
_cell_angle_alpha 71.150428
_cell_angle_beta 147.406080
_cell_angle_gamma 83.497758
_cell_volume 688.709175
_symmetry_space_group_name_H-M "P -1"
_symmetry_group_IT_number 2
_symmetry_cell_setting 'triclinic'
loop_
_space_group_symop_operation_xyz
x,y,z
-x,-y,-z
loop_
_atom_site_type_symbol
_atom_site_label
_atom_site_fract_x
_atom_site_fract_y
_atom_site_fract_z
Si Si1 0.342448 0.183017 0.271009
Si Si2 0.254003 0.639681 0.199229
Si Si3 0.810619 0.065767 0.984646
Si Si4 0.873633 0.625153 0.611188
Si Si5 0.193495 0.208062 0.944356
Si Si6 0.595851 0.582395 0.796450
Si Si7 0.769897 0.926373 0.354363
Si Si8 0.952025 0.062436 0.598604
O O1 0.378200 0.139795 0.198442
O O2 0.448545 0.272956 0.341864
O O3 0.500000 0.000000 0.500000
O O4 0.999167 0.336356 0.986432
O O5 0.500000 0.500000 0.500000
O O6 0.109893 0.851085 0.034950
O O7 0.390744 0.546533 0.225309
O O8 0.466171 0.215806 0.663548
O O9 0.951122 0.856342 0.133010
O O10 0.875864 0.061867 0.144468
O O11 0.898156 0.724394 0.528457
O O12 0.983790 0.431785 0.714074
O O13 0.088909 0.557163 0.877633
O O14 0.423303 0.088252 0.066162
O O15 0.346376 0.720367 0.649061
O O16 0.864329 0.933139 0.325451
O O17 0.882430 0.974901 0.503671
#
# Coordination Sequence:
#
# PCOD9033742 Si02
#       8
#     2   2   2   2   2   2   2   2
#     4  11  24  41  67  94 127 186 221 270 333 399
#     4  12  27  42  66 104 133 175 229 278 328 392
#     4  11  26  42  69  97 142 168 222 287 329 387
#     4  10  22  44  69  96 134 183 215 273 332 402
#     4  10  23  45  67  97 138 176 226 267 339 401
#     4  11  24  44  69  95 139 173 226 270 333 404
#     4  10  22  45  73  97 136 173 228 267 339 404
#     4  11  23  44  71 104 132 174 219 286 333 392
#
# _framework density 23.231869
#
# number of rings (size 3 to 8) (size 9 to 14) (size 15 to 20)
#    0.000    1.250    2.500    3.375    8.750    3.000 
#    2.250    1.250    0.000    0.000    0.000    0.000 
#    0.000    0.000    0.000    0.000    0.000    0.000 
#
# Total GULP energy -89530.958771 kJ/mol
# GULP energy per Si atom -5595.684923 kJ/mol
# Density = 2.317899 g / cm^3
# Si number density = 23.231869 Si / 1000 Ang^3
#
#
#
# Elastic Constant Matrix: (Units=GPa)
#
#
# Indices 1 2 3 4 5 6 
#
# 1 105.1591 25.1532 9.7116 -10.1766 3.3038 9.8149
# 2 25.1532 123.0255 15.9682 -14.4461 -6.6454 14.0768
# 3 9.7116 15.9682 86.6958 -7.2014 2.3817 -15.3654
# 4 -10.1766 -14.4461 -7.2014 33.9491 4.3683 -9.2763
# 5 3.3038 -6.6454 2.3817 4.3683 31.2854 -7.9682
# 6 9.8149 14.0768 -15.3654 -9.2763 -7.9682 36.1907
#
#
#
# Elastic Compliance Matrix: (Units=1/GPa)
#
#
# Indices 1 2 3 4 5 6 
#
# 1 0.010501 -0.001596 -0.001165 0.001759 -0.002313 -0.002780
# 2 -0.001596 0.009394 -0.001996 0.002045 0.001195 -0.003281
# 3 -0.001165 -0.001996 0.013762 0.003878 0.000137 0.007959
# 4 0.001759 0.002045 0.003878 0.034367 -0.002655 0.008598
# 5 -0.002313 0.001195 0.000137 -0.002655 0.034648 0.007169
# 6 -0.002780 -0.003281 0.007959 0.008598 0.007169 0.036823
#
#
# Mechanical properties :
#
#
# Convention : Reuss Voigt Hill
#
# Bulk Modulus (GPa) = 41.42127 46.28293 43.85210
# Shear Modulus (GPa) = 31.83554 37.88818 34.86186
#
# Velocity S-wave (km/s) = 3.70583 4.04279 3.87797
# Velocity P-wave (km/s) = 6.01490 6.46201 6.24246
#
# Compressibility (1/GPa) = 0.02414218
#
# Stress axis : x y z
#
# Youngs Moduli (GPa) = 95.22722 106.45210 72.66520
#
# Poissons Ratio (x) = 0.16990 0.08469
# Poissons Ratio (y) = 0.15198 0.14503
# Poissons Ratio (z) = 0.11098 0.21247
#
# Static dielectric constant tensor:
#      x y z
#    x 1.875810 -0.012280 0.043100 
#    y -0.012280 1.937840 0.010990 
#    z 0.043100 0.010990 1.871880 
# 
# From -- ./inp_files/428039.got.cif
#   From: 2010.05.17/outbox.cif.g08.bks.cpg/sg2_215_cif.got.tgz:428039.got - 2010.06.03 11:33:40.
