data_PCOD9033110
_publ_section_title
;
Structure prediction by ZEFSAII (Michael W. Deem and Ramdas Pophale) SiO2 
 PCOD9033110
Probable space group: P -1
;
_chemical_formula_sum "Si O2"
_cell_formula_units_Z 16
_cell_length_a 14.718666
_cell_length_b 9.136080
_cell_length_c 9.007424
_cell_angle_alpha 96.915659
_cell_angle_beta 124.868480
_cell_angle_gamma 123.955743
_cell_volume 629.130541
_symmetry_space_group_name_H-M "P -1"
_symmetry_group_IT_number 2
_symmetry_cell_setting 'triclinic'
loop_
_space_group_symop_operation_xyz
x,y,z
-x,-y,-z
loop_
_atom_site_type_symbol
_atom_site_label
_atom_site_fract_x
_atom_site_fract_y
_atom_site_fract_z
Si Si1 0.750961 0.728160 0.248830
Si Si2 0.339455 0.836809 0.645418
Si Si3 0.179603 0.669061 0.780490
Si Si4 0.661368 0.489244 0.422830
Si Si5 0.752352 0.923043 0.038011
Si Si6 0.522185 0.722213 0.235425
Si Si7 0.994042 0.372095 0.845906
Si Si8 0.207219 0.093679 0.262224
O O1 0.763204 0.624103 0.380145
O O2 0.648343 0.756746 0.244786
O O3 0.657195 0.535338 0.009633
O O4 0.860610 0.945632 0.268781
O O5 0.313261 0.771360 0.784976
O O6 0.346163 0.686298 0.554245
O O7 0.172134 0.749088 0.418332
O O8 0.479331 0.105645 0.775772
O O9 0.000000 0.500000 0.500000
O O10 0.144449 0.543062 0.884256
O O11 0.227077 0.882857 0.899142
O O12 0.761091 0.702590 0.649471
O O13 0.458052 0.320276 0.183170
O O14 0.812673 0.945304 0.934398
O O15 0.611087 0.787547 0.486577
O O16 0.944605 0.157939 0.831980
O O17 0.000000 0.500000 0.000000
#
# Coordination Sequence:
#
# PCOD9033110 Si02
#       8
#     2   2   2   2   2   2   2   2
#     4  10  17  32  55  81 114 152 198 220 281 350
#     4  10  21  37  59  89 119 146 191 248 304 330
#     4  10  21  36  63  86 110 151 209 240 273 342
#     4  11  22  36  57  92 125 148 180 251 308 341
#     4  12  19  35  62  89 115 155 200 232 289 361
#     4   9  16  33  51  81 113 151 186 231 274 353
#     4  10  20  41  64  82 109 158 207 236 273 349
#     4  10  21  35  61  85 117 156 198 233 286 353
#
# _framework density 25.431923000000001
#
# number of rings (size 3 to 8) (size 9 to 14) (size 15 to 20)
#    0.000    1.750    6.250    0.375    1.750    2.000 
#    0.000    5.000    0.000    0.000    0.000    0.000 
#    0.000    0.000    0.000    0.000    0.000    0.000 
#
# Total GULP energy -89242.671108 kJ/mol
# GULP energy per Si atom -5577.666944 kJ/mol
# Density = 2.537404 g / cm^3
# Si number density = 25.431923 Si / 1000 Ang^3
#
#
#
# Elastic Constant Matrix: (Units=GPa)
#
#
# Indices 1 2 3 4 5 6 
#
# 1 43.0222 46.9787 18.3741 17.0060 -6.5005 -2.0389
# 2 46.9787 142.5027 21.9079 29.7509 -22.4518 -14.8362
# 3 18.3741 21.9079 64.1475 11.6657 -18.5505 3.3738
# 4 17.0060 29.7509 11.6657 60.6041 -6.1559 -9.5440
# 5 -6.5005 -22.4518 -18.5505 -6.1559 41.5587 11.4227
# 6 -2.0389 -14.8362 3.3738 -9.5440 11.4227 54.7934
#
#
#
# Elastic Compliance Matrix: (Units=1/GPa)
#
#
# Indices 1 2 3 4 5 6 
#
# 1 0.040970 -0.012084 -0.007844 -0.004654 -0.003967 -0.001248
# 2 -0.012084 0.012138 0.000861 -0.002054 0.004329 0.001524
# 3 -0.007844 0.000861 0.020724 -0.001839 0.009198 -0.003573
# 4 -0.004654 -0.002054 -0.001839 0.019570 -0.000559 0.002909
# 5 -0.003967 0.004329 0.009198 -0.000559 0.031510 -0.006208
# 6 -0.001248 0.001524 -0.003573 0.002909 -0.006208 0.020637
#
#
# Mechanical properties :
#
#
# Convention : Reuss Voigt Hill
#
# Bulk Modulus (GPa) = 28.01186 47.13263 37.57225
# Shear Modulus (GPa) = 25.56456 42.21868 33.89162
#
# Velocity S-wave (km/s) = 3.17395 4.07881 3.65450
# Velocity P-wave (km/s) = 4.94675 6.38399 5.71077
#
# Compressibility (1/GPa) = 0.03569917
#
# Stress axis : x y z
#
# Youngs Moduli (GPa) = 24.40793 82.38409 48.25294
#
# Poissons Ratio (x) = 0.99554 0.37848
# Poissons Ratio (y) = 0.29495 -0.04155
# Poissons Ratio (z) = 0.19145 -0.07093
#
# Static dielectric constant tensor:
#      x y z
#    x 0.738030 0.732410 0.136440 
#    y 0.732410 1.729700 -0.005100 
#    z 0.136440 -0.005100 2.037550 
# 
# From -- ./inp_files/284754.got.cif
#   From: 2010.05.17/outbox.cif.g08.bks.cpg/sg2_143_cif.got.tgz:284754.got - 2010.06.03 11:33:40.
