data_PCOD9033974
_publ_section_title
;
Structure prediction by ZEFSAII (Michael W. Deem and Ramdas Pophale) SiO2 
 PCOD9033974
Probable space group: P -1
;
_chemical_formula_sum "Si O2"
_cell_formula_units_Z 14
_cell_length_a 8.168182
_cell_length_b 5.713115
_cell_length_c 12.034246
_cell_angle_alpha 76.038267
_cell_angle_beta 86.653524
_cell_angle_gamma 86.368505
_cell_volume 543.363404
_symmetry_space_group_name_H-M "P -1"
_symmetry_group_IT_number 2
_symmetry_cell_setting 'triclinic'
loop_
_space_group_symop_operation_xyz
x,y,z
-x,-y,-z
loop_
_atom_site_type_symbol
_atom_site_label
_atom_site_fract_x
_atom_site_fract_y
_atom_site_fract_z
Si Si1 0.077046 0.526187 0.148855
Si Si2 0.418785 0.301772 0.368897
Si Si3 0.260210 0.891221 0.981249
Si Si4 0.159219 0.708572 0.341810
Si Si5 0.080811 0.926876 0.781167
Si Si6 0.411008 0.221427 0.126286
Si Si7 0.243285 0.878702 0.542231
O O1 0.056256 0.546728 0.281027
O O2 0.256994 0.410180 0.125137
O O3 0.941575 0.344241 0.142749
O O4 0.103621 0.775136 0.058029
O O5 0.338201 0.574119 0.334471
O O6 0.446810 0.177435 0.261187
O O7 0.590593 0.285515 0.427182
O O8 0.296004 0.131240 0.458103
O O9 0.190053 0.042947 0.859297
O O10 0.410701 0.729511 0.938071
O O11 0.343928 0.029894 0.063119
O O12 0.135360 0.749442 0.468468
O O13 0.100734 0.962328 0.257743
O O14 0.168041 0.925700 0.659662
#
# Coordination Sequence:
#
# PCOD9033974 Si02
#       7
#     2   2   2   2   2   2   2
#     4  11  24  42  66  95 139 179 221 274 338 396
#     4  10  22  44  71  98 132 174 227 280 333 396
#     4  11  23  43  69  98 134 179 227 276 333 397
#     4  11  24  43  66  98 136 178 218 276 339 394
#     4  12  26  42  66 104 140 174 221 277 339 403
#     4  10  22  44  70  98 129 176 229 282 328 396
#     4  11  23  43  69  99 133 177 226 275 331 404
#
# _framework density 25.765443000000001
#
# number of rings (size 3 to 8) (size 9 to 14) (size 15 to 20)
#    0.000    1.143    1.429    5.143    0.000    5.714 
#    0.000    2.143    0.000    0.000    0.000    0.000 
#    0.000    0.000    0.000    0.000    0.000    0.000 
#
# Total GULP energy -78049.962361 kJ/mol
# GULP energy per Si atom -5574.997312 kJ/mol
# Density = 2.570680 g / cm^3
# Si number density = 25.765443 Si / 1000 Ang^3
#
#
#
# Elastic Constant Matrix: (Units=GPa)
#
#
# Indices 1 2 3 4 5 6 
#
# 1 76.3727 27.8557 61.8834 3.3239 -2.0773 -10.9244
# 2 27.8557 57.2376 36.4282 0.4902 -3.3328 -20.6094
# 3 61.8834 36.4282 195.1391 34.6806 -6.5180 6.6086
# 4 3.3239 0.4902 34.6806 33.2027 -0.7972 3.5605
# 5 -2.0773 -3.3328 -6.5180 -0.7972 55.5794 0.7306
# 6 -10.9244 -20.6094 6.6086 3.5605 0.7306 38.2026
#
#
#
# Elastic Compliance Matrix: (Units=1/GPa)
#
#
# Indices 1 2 3 4 5 6 
#
# 1 0.020428 -0.004219 -0.006643 0.004488 -0.000261 0.004301
# 2 -0.004219 0.027868 -0.004980 0.003695 0.000794 0.014330
# 3 -0.006643 -0.004980 0.009980 -0.009084 0.000565 -0.005476
# 4 0.004488 0.003695 -0.009084 0.038969 -0.000133 0.001219
# 5 -0.000261 0.000794 0.000565 -0.000133 0.018096 -0.000078
# 6 0.004301 0.014330 -0.005476 0.001219 -0.000078 0.035972
#
#
# Mechanical properties :
#
#
# Convention : Reuss Voigt Hill
#
# Bulk Modulus (GPa) = 37.60444 64.56491 51.08467
# Shear Modulus (GPa) = 26.06098 38.90242 32.48170
#
# Velocity S-wave (km/s) = 3.18381 3.88992 3.55444
# Velocity P-wave (km/s) = 5.30492 6.72967 6.05931
#
# Compressibility (1/GPa) = 0.02659261
#
# Stress axis : x y z
#
# Youngs Moduli (GPa) = 48.95346 35.88386 100.20514
#
# Poissons Ratio (x) = 0.15138 0.66562
# Poissons Ratio (y) = 0.20652 0.49901
# Poissons Ratio (z) = 0.32518 0.17870
#
# Static dielectric constant tensor:
#      x y z
#    x 1.957790 -0.036590 0.007770 
#    y -0.036590 2.242380 -0.046460 
#    z 0.007770 -0.046460 2.011260 
# 
# From -- ./inp_files/372948.got.cif
#   From: 2010.05.17/outbox.cif.g08.bks.cpg/sg2_187_cif.got.tgz:372948.got - 2010.06.03 11:33:40.
