data_PCOD9033586
_publ_section_title
;
Structure prediction by ZEFSAII (Michael W. Deem and Ramdas Pophale) SiO2 
 PCOD9033586
Probable space group: P -1
;
_chemical_formula_sum "Si O2"
_cell_formula_units_Z 14
_cell_length_a 5.125721
_cell_length_b 22.970054
_cell_length_c 4.996224
_cell_angle_alpha 62.188031
_cell_angle_beta 95.879099
_cell_angle_gamma 82.153237
_cell_volume 506.073097
_symmetry_space_group_name_H-M "P -1"
_symmetry_group_IT_number 2
_symmetry_cell_setting 'triclinic'
loop_
_space_group_symop_operation_xyz
x,y,z
-x,-y,-z
loop_
_atom_site_type_symbol
_atom_site_label
_atom_site_fract_x
_atom_site_fract_y
_atom_site_fract_z
Si Si1 0.914879 0.720191 0.578898
Si Si2 0.558373 0.067836 0.230564
Si Si3 0.699288 0.556273 0.662872
Si Si4 0.512290 0.807237 0.693161
Si Si5 0.959513 0.418921 0.853966
Si Si6 0.811922 0.068699 0.737327
Si Si7 0.386697 0.694133 0.284495
O O1 0.778047 0.784087 0.599562
O O2 0.648640 0.701399 0.466552
O O3 0.119651 0.723906 0.355637
O O4 0.052013 0.657566 0.915366
O O5 0.418782 0.139700 0.189804
O O6 0.838373 0.066199 0.421747
O O7 0.500000 0.000000 0.500000
O O8 0.558817 0.065042 0.920381
O O9 0.919256 0.572946 0.440560
O O10 0.435453 0.612815 0.449205
O O11 0.707389 0.477727 0.782201
O O12 0.812943 0.564955 0.950025
O O13 0.252881 0.850249 0.414748
O O14 0.425094 0.741589 0.939707
O O15 0.000000 0.000000 0.000000
#
# Coordination Sequence:
#
# PCOD9033586 Si02
#       7
#     2   2   2   2   2   2   2
#     4  11  24  46  69 103 148 190 242 295 360 428
#     4  10  22  44  68  98 135 175 231 291 353 430
#     4   9  18  37  67 100 141 189 241 296 352 417
#     4  10  24  44  69 102 146 184 242 288 373 422
#     4   9  18  37  67 100 141 189 241 296 352 417
#     4  10  22  44  68  98 135 175 231 291 353 430
#     4  11  24  46  69 103 148 190 242 295 360 428
#
# _framework density 27.663986000000001
#
# number of rings (size 3 to 8) (size 9 to 14) (size 15 to 20)
#    0.857    1.143    1.429    1.714    0.000    1.714 
#   10.286    0.000    0.000    8.571    0.000    0.000 
#    0.000    0.000    0.000    0.000    0.000    0.000 
#
# Total GULP energy -78031.158894 kJ/mol
# GULP energy per Si atom -5573.654207 kJ/mol
# Density = 2.760102 g / cm^3
# Si number density = 27.663986 Si / 1000 Ang^3
#
#
#
# Elastic Constant Matrix: (Units=GPa)
#
#
# Indices 1 2 3 4 5 6 
#
# 1 98.2686 52.0146 26.0457 -5.8952 -18.3606 -26.0791
# 2 52.0146 193.6205 29.8245 -30.3699 -10.5512 -39.2017
# 3 26.0457 29.8245 124.7083 -24.7391 3.6807 -13.7442
# 4 -5.8952 -30.3699 -24.7391 52.4876 -16.6189 8.8498
# 5 -18.3606 -10.5512 3.6807 -16.6189 49.8403 -7.1473
# 6 -26.0791 -39.2017 -13.7442 8.8498 -7.1473 49.8695
#
#
#
# Elastic Compliance Matrix: (Units=1/GPa)
#
#
# Indices 1 2 3 4 5 6 
#
# 1 0.014592 -0.001908 -0.001973 0.000490 0.006196 0.006388
# 2 -0.001908 0.007419 -0.000140 0.004181 0.002913 0.004471
# 3 -0.001973 -0.000140 0.009332 0.003968 -0.000019 0.000724
# 4 0.000490 0.004181 0.003968 0.026243 0.009720 0.001372
# 5 0.006196 0.002913 -0.000019 0.009720 0.027312 0.007715
# 6 0.006388 0.004471 0.000724 0.001372 0.007715 0.027969
#
#
# Mechanical properties :
#
#
# Convention : Reuss Voigt Hill
#
# Bulk Modulus (GPa) = 42.91708 70.26300 56.59004
# Shear Modulus (GPa) = 38.85806 51.02033 44.93920
#
# Velocity S-wave (km/s) = 3.75192 4.29918 4.03484
# Velocity P-wave (km/s) = 5.85804 7.07798 6.49671
#
# Compressibility (1/GPa) = 0.02330074
#
# Stress axis : x y z
#
# Youngs Moduli (GPa) = 68.53298 134.79656 107.16300
#
# Poissons Ratio (x) = 0.25721 0.21141
# Poissons Ratio (y) = 0.13077 0.01495
# Poissons Ratio (z) = 0.13520 0.01880
#
# Static dielectric constant tensor:
#      x y z
#    x 1.991620 0.022600 0.058480 
#    y 0.022600 2.250280 -0.014950 
#    z 0.058480 -0.014950 2.162610 
# 
# From -- ./inp_files/12202.got.cif
#   From: 2010.05.17/outbox.cif.g08.bks.cpg/sg2_7_cif.got.tgz:12202.got - 2010.06.03 11:33:40.
