data_PCOD9033220
_publ_section_title
;
Structure prediction by ZEFSAII (Michael W. Deem and Ramdas Pophale) SiO2 
 PCOD9033220
Probable space group: P -1
;
_chemical_formula_sum "Si O2"
_cell_formula_units_Z 16
_cell_length_a 6.810569
_cell_length_b 16.421984
_cell_length_c 8.089441
_cell_angle_alpha 121.041094
_cell_angle_beta 58.203853
_cell_angle_gamma 102.260332
_cell_volume 656.660955
_symmetry_space_group_name_H-M "P -1"
_symmetry_group_IT_number 2
_symmetry_cell_setting 'triclinic'
loop_
_space_group_symop_operation_xyz
x,y,z
-x,-y,-z
loop_
_atom_site_type_symbol
_atom_site_label
_atom_site_fract_x
_atom_site_fract_y
_atom_site_fract_z
Si Si1 0.158737 0.554756 0.699541
Si Si2 0.410538 0.377855 0.580244
Si Si3 0.929896 0.098828 0.040728
Si Si4 0.981600 0.183446 0.411420
Si Si5 0.266620 0.712008 0.087787
Si Si6 0.357081 0.409665 0.006384
Si Si7 0.216243 0.000645 0.561280
Si Si8 0.499279 0.826227 0.845967
O O1 0.230785 0.452942 0.645338
O O2 0.346235 0.573738 0.497057
O O3 0.185034 0.637201 0.912385
O O4 0.892833 0.563076 0.778119
O O5 0.337901 0.364802 0.786227
O O6 0.451772 0.277151 0.367659
O O7 0.927843 0.194991 0.252540
O O8 0.667175 0.099334 0.101046
O O9 0.000000 0.000000 0.000000
O O10 0.105368 0.093702 0.804756
O O11 0.919040 0.263937 0.658423
O O12 0.829120 0.100713 0.450293
O O13 0.245694 0.141318 0.234312
O O14 0.492987 0.661134 0.018087
O O15 0.358481 0.803468 0.049591
O O16 0.500000 0.500000 0.000000
O O17 0.500000 0.000000 0.500000
O O18 0.000000 0.000000 0.500000
#
# Coordination Sequence:
#
# PCOD9033220 Si02
#       8
#     2   2   2   2   2   2   2   2
#     4  10  23  44  64  96 142 191 242 303 362 438
#     4  10  22  44  66  97 140 190 243 302 369 430
#     4  10  25  46  73 106 144 186 238 299 377 455
#     4  11  26  44  76 106 146 189 245 305 375 448
#     4  11  25  44  66 106 141 195 244 302 368 436
#     4  12  24  38  67  96 135 187 247 300 365 433
#     4  11  27  49  82 116 151 197 246 310 384 470
#     4  11  25  45  71 102 146 190 243 312 369 450
#
# _framework density 24.365697000000001
#
# number of rings (size 3 to 8) (size 9 to 14) (size 15 to 20)
#    0.000    1.250    1.250    2.625    8.750    4.500 
#    0.000    0.000    0.000    0.000    0.000    0.000 
#    0.000    0.000    0.000    0.000    0.000    0.000 
#
# Total GULP energy -89080.012542 kJ/mol
# GULP energy per Si atom -5567.500784 kJ/mol
# Density = 2.431024 g / cm^3
# Si number density = 24.365697 Si / 1000 Ang^3
#
#
#
# Elastic Constant Matrix: (Units=GPa)
#
#
# Indices 1 2 3 4 5 6 
#
# 1 130.5933 34.0919 36.1189 -4.6836 -36.9484 -7.1456
# 2 34.0919 58.2027 -0.6593 4.3444 -6.8239 2.9182
# 3 36.1189 -0.6593 124.5837 5.1188 0.8558 -2.5085
# 4 -4.6836 4.3444 5.1188 17.3711 3.6740 0.8551
# 5 -36.9484 -6.8239 0.8558 3.6740 45.9572 4.7841
# 6 -7.1456 2.9182 -2.5085 0.8551 4.7841 24.4772
#
#
#
# Elastic Compliance Matrix: (Units=1/GPa)
#
#
# Indices 1 2 3 4 5 6 
#
# 1 0.013734 -0.007469 -0.004230 0.004712 0.009378 0.002469
# 2 -0.007469 0.022158 0.002533 -0.007741 -0.001731 -0.003954
# 3 -0.004230 0.002533 0.009451 -0.003953 -0.002899 0.000137
# 4 0.004712 -0.007741 -0.003953 0.062415 -0.002294 0.000161
# 5 0.009378 -0.001731 -0.002899 -0.002294 0.029598 -0.003058
# 6 0.002469 -0.003954 0.000137 0.000161 -0.003058 0.042652
#
#
# Mechanical properties :
#
#
# Convention : Reuss Voigt Hill
#
# Bulk Modulus (GPa) = 37.01966 50.27583 43.64775
# Shear Modulus (GPa) = 24.11450 33.81633 28.96541
#
# Velocity S-wave (km/s) = 3.14935 3.72945 3.45161
# Velocity P-wave (km/s) = 5.33393 6.26288 5.81698
#
# Compressibility (1/GPa) = 0.02701267
#
# Stress axis : x y z
#
# Youngs Moduli (GPa) = 72.81038 45.13080 105.80385
#
# Poissons Ratio (x) = 0.33707 0.44751
# Poissons Ratio (y) = 0.54380 -0.26799
# Poissons Ratio (z) = 0.30796 -0.11431
#
# Static dielectric constant tensor:
#      x y z
#    x 2.173300 0.029300 0.136030 
#    y 0.029300 1.707470 0.195200 
#    z 0.136030 0.195200 1.799460 
# 
# From -- ./inp_files/139311.got.cif
#   From: 2010.05.17/outbox.cif.g08.bks.cpg/sg2_70_cif.got.tgz:139311.got - 2010.06.03 11:33:40.
