data_PCOD9033222
_publ_section_title
;
Structure prediction by ZEFSAII (Michael W. Deem and Ramdas Pophale) SiO2 
 PCOD9033222
Probable space group: P -1
;
_chemical_formula_sum "Si O2"
_cell_formula_units_Z 15
_cell_length_a 15.590570
_cell_length_b 7.808651
_cell_length_c 5.062319
_cell_angle_alpha 85.288644
_cell_angle_beta 103.687755
_cell_angle_gamma 113.892433
_cell_volume 547.413457
_symmetry_space_group_name_H-M "P -1"
_symmetry_group_IT_number 2
_symmetry_cell_setting 'triclinic'
loop_
_space_group_symop_operation_xyz
x,y,z
-x,-y,-z
loop_
_atom_site_type_symbol
_atom_site_label
_atom_site_fract_x
_atom_site_fract_y
_atom_site_fract_z
Si Si1 0.691870 0.406389 0.078282
Si Si2 0.924163 0.042938 0.258751
Si Si3 0.222044 0.719189 0.342641
Si Si4 0.355929 0.141387 0.299153
Si Si5 0.910907 0.713137 0.915207
Si Si6 0.000000 0.500000 0.000000
Si Si7 0.476811 0.175705 0.881179
Si Si8 0.763915 0.753401 0.421900
O O1 0.726806 0.302017 0.345583
O O2 0.734753 0.622804 0.163529
O O3 0.730253 0.362873 0.839379
O O4 0.577892 0.345663 0.980248
O O5 0.824093 0.968628 0.346432
O O6 0.910020 0.896139 0.030694
O O7 0.000000 0.000000 0.500000
O O8 0.983531 0.251743 0.162324
O O9 0.266572 0.939974 0.270371
O O10 0.106431 0.618029 0.247285
O O11 0.441133 0.147271 0.557621
O O12 0.317910 0.273521 0.422822
O O13 0.396930 0.182458 0.028594
O O14 0.927994 0.568324 0.135718
O O15 0.838844 0.688352 0.632173
O O16 0.500000 0.000000 0.000000
#
# Coordination Sequence:
#
# PCOD9033222 Si02
#       8
#     2   2   2   2   2   1   2   2
#     4  12  26  49  76 101 156 189 240 314 377 422
#     4   9  21  41  65  92 139 196 238 294 362 423
#     4  12  26  46  71 110 144 201 238 302 367 446
#     4  12  27  45  79 109 143 195 251 304 371 449
#     4  10  22  44  66  97 146 196 240 303 351 440
#     4  12  26  42  72 108 148 188 254 286 366 438
#     4  12  24  49  78 110 143 190 251 312 371 443
#     4  11  26  44  68 107 149 188 245 306 372 437
#
# _framework density 27.401591
#
# number of rings (size 3 to 8) (size 9 to 14) (size 15 to 20)
#    0.000    0.800    4.000    2.000    7.467    2.667 
#    2.400    0.000    0.000    0.000    0.000    0.000 
#    0.000    0.000    0.000    0.000    0.000    0.000 
#
# Total GULP energy -83731.774282 kJ/mol
# GULP energy per Si atom -5582.118285 kJ/mol
# Density = 2.733922 g / cm^3
# Si number density = 27.401591 Si / 1000 Ang^3
#
#
#
# Elastic Constant Matrix: (Units=GPa)
#
#
# Indices 1 2 3 4 5 6 
#
# 1 113.5758 30.2328 15.4014 3.2106 -0.0378 4.0635
# 2 30.2328 70.0697 27.7816 11.8713 10.1783 28.0767
# 3 15.4014 27.7816 130.2475 4.7130 -3.4225 9.9106
# 4 3.2106 11.8713 4.7130 45.1317 1.5854 7.5940
# 5 -0.0378 10.1783 -3.4225 1.5854 56.7353 -0.6397
# 6 4.0635 28.0767 9.9106 7.5940 -0.6397 57.7493
#
#
#
# Elastic Compliance Matrix: (Units=1/GPa)
#
#
# Indices 1 2 3 4 5 6 
#
# 1 0.010148 -0.005219 -0.000213 0.000333 0.000942 0.001827
# 2 -0.005219 0.023108 -0.003550 -0.003526 -0.004376 -0.009843
# 3 -0.000213 -0.003550 0.008468 -0.000027 0.001152 0.000304
# 4 0.000333 -0.003526 -0.000027 0.023296 -0.000035 -0.001368
# 5 0.000942 -0.004376 0.001152 -0.000035 0.018505 0.002073
# 6 0.001827 -0.009843 0.000304 -0.001368 0.002073 0.022124
#
#
# Mechanical properties :
#
#
# Convention : Reuss Voigt Hill
#
# Bulk Modulus (GPa) = 42.08800 51.19162 46.63981
# Shear Modulus (GPa) = 38.01279 47.95506 42.98393
#
# Velocity S-wave (km/s) = 3.72862 4.18794 3.96493
# Velocity P-wave (km/s) = 5.82493 6.48904 6.16593
#
# Compressibility (1/GPa) = 0.02375974
#
# Stress axis : x y z
#
# Youngs Moduli (GPa) = 98.53690 43.27462 118.08838
#
# Poissons Ratio (x) = 0.22587 0.02516
# Poissons Ratio (y) = 0.51430 0.41924
# Poissons Ratio (z) = 0.02099 0.15363
#
# Static dielectric constant tensor:
#      x y z
#    x 2.267280 0.041500 0.023990 
#    y 0.041500 2.759900 -0.089370 
#    z 0.023990 -0.089370 2.194100 
# 
# From -- ./inp_files/89116.got.cif
#   From: 2010.05.17/outbox.cif.g08.bks.cpg/sg2_45_cif.got.tgz:89116.got - 2010.06.03 11:33:40.
