data_PCOD9033712
_publ_section_title
;
Structure prediction by ZEFSAII (Michael W. Deem and Ramdas Pophale) SiO2 
 PCOD9033712
Probable space group: P -1
;
_chemical_formula_sum "Si O2"
_cell_formula_units_Z 16
_cell_length_a 14.276445
_cell_length_b 11.278814
_cell_length_c 14.990646
_cell_angle_alpha 28.682155
_cell_angle_beta 107.669471
_cell_angle_gamma 126.851647
_cell_volume 755.383038
_symmetry_space_group_name_H-M "P -1"
_symmetry_group_IT_number 2
_symmetry_cell_setting 'triclinic'
loop_
_space_group_symop_operation_xyz
x,y,z
-x,-y,-z
loop_
_atom_site_type_symbol
_atom_site_label
_atom_site_fract_x
_atom_site_fract_y
_atom_site_fract_z
Si Si1 0.984277 0.808296 0.033322
Si Si2 0.437121 0.162696 0.509007
Si Si3 0.439081 0.109802 0.238302
Si Si4 0.736120 0.983328 0.081229
Si Si5 0.029525 0.796907 0.373849
Si Si6 0.669238 0.813509 0.364752
Si Si7 0.732298 0.355822 0.678196
Si Si8 0.745423 0.062983 0.549823
O O1 0.951432 0.934006 0.861150
O O2 0.857192 0.394348 0.297028
O O3 0.125807 0.913582 0.980363
O O4 0.000000 0.000000 0.000000
O O5 0.598020 0.551409 0.319808
O O6 0.329548 0.046167 0.633536
O O7 0.449282 0.888215 0.693736
O O8 0.392830 0.211014 0.371939
O O9 0.382485 0.932092 0.241401
O O10 0.304189 0.860629 0.431644
O O11 0.500000 0.500000 0.000000
O O12 0.747730 0.072567 0.130372
O O13 0.710184 0.165355 0.888484
O O14 0.171035 0.009723 0.333516
O O15 0.000000 0.500000 0.500000
O O16 0.889048 0.576454 0.539257
O O17 0.500000 0.500000 0.500000
O O18 0.720645 0.626312 0.511608
#
# Coordination Sequence:
#
# PCOD9033712 Si02
#       8
#     2   2   2   2   2   2   2   2
#     4  12  22  39  69  94 130 178 218 269 330 398
#     4  11  25  47  64  98 141 175 222 276 339 386
#     4  12  25  42  67 101 143 172 214 283 339 396
#     4  11  22  42  71  97 129 178 225 275 324 388
#     4  12  22  39  65  97 132 171 223 268 327 405
#     4  10  22  44  69  93 133 178 230 275 316 396
#     4  12  21  42  70 102 130 172 233 270 326 398
#     4  12  26  42  65 100 136 172 213 276 343 396
#
# _framework density 21.181305999999999
#
# number of rings (size 3 to 8) (size 9 to 14) (size 15 to 20)
#    0.000    0.500    7.500    1.875    1.750    2.000 
#    2.250    1.250    0.000    0.000    0.000    0.000 
#    0.000    0.000    0.000    0.000    0.000    0.000 
#
# Total GULP energy -89444.715943 kJ/mol
# GULP energy per Si atom -5590.294746 kJ/mol
# Density = 2.113310 g / cm^3
# Si number density = 21.181306 Si / 1000 Ang^3
#
#
#
# Elastic Constant Matrix: (Units=GPa)
#
#
# Indices 1 2 3 4 5 6 
#
# 1 130.0820 32.5560 32.2764 15.3100 -6.8685 7.6266
# 2 32.5560 83.0734 29.2202 31.4506 14.3157 14.8415
# 3 32.2764 29.2202 99.4461 37.5668 -2.3778 1.3086
# 4 15.3100 31.4506 37.5668 39.8475 7.5508 1.2535
# 5 -6.8685 14.3157 -2.3778 7.5508 29.2410 15.6283
# 6 7.6266 14.8415 1.3086 1.2535 15.6283 27.6927
#
#
#
# Elastic Compliance Matrix: (Units=1/GPa)
#
#
# Indices 1 2 3 4 5 6 
#
# 1 0.009560 -0.003241 -0.001780 -0.000452 0.006053 -0.004207
# 2 -0.003241 0.020596 0.000660 -0.014874 -0.002679 -0.007992
# 3 -0.001780 0.000660 0.017203 -0.017305 0.007259 -0.003990
# 4 -0.000452 -0.014874 -0.017305 0.056105 -0.017363 0.016173
# 5 0.006053 -0.002679 0.007259 -0.017363 0.059986 -0.033641
# 6 -0.004207 -0.007992 -0.003990 0.016173 -0.033641 0.059994
#
#
# Mechanical properties :
#
#
# Convention : Reuss Voigt Hill
#
# Bulk Modulus (GPa) = 25.88163 55.63407 40.75785
# Shear Modulus (GPa) = 20.40463 33.92618 27.16540
#
# Velocity S-wave (km/s) = 3.10713 4.00647 3.58511
# Velocity P-wave (km/s) = 5.01178 6.90833 6.03502
#
# Compressibility (1/GPa) = 0.03863744
#
# Stress axis : x y z
#
# Youngs Moduli (GPa) = 104.60786 48.55352 58.13062
#
# Poissons Ratio (x) = 0.15734 0.10345
# Poissons Ratio (y) = 0.33900 -0.03837
# Poissons Ratio (z) = 0.18616 -0.03205
#
# Static dielectric constant tensor:
#      x y z
#    x 1.720170 0.024100 -0.000410 
#    y 0.024100 1.811800 -0.022420 
#    z -0.000410 -0.022420 1.753160 
# 
# From -- ./inp_files/461263.got.cif
#   From: 2010.05.17/outbox.cif.g08.bks.cpg/sg2_231_cif.got.tgz:461263.got - 2010.06.03 11:33:40.
