data_PCOD9033613
_publ_section_title
;
Structure prediction by ZEFSAII (Michael W. Deem and Ramdas Pophale) SiO2 
 PCOD9033613
Probable space group: P -1
;
_chemical_formula_sum "Si O2"
_cell_formula_units_Z 14
_cell_length_a 8.506677
_cell_length_b 18.884136
_cell_length_c 11.860784
_cell_angle_alpha 28.497855
_cell_angle_beta 114.302861
_cell_angle_gamma 131.147886
_cell_volume 606.389292
_symmetry_space_group_name_H-M "P -1"
_symmetry_group_IT_number 2
_symmetry_cell_setting 'triclinic'
loop_
_space_group_symop_operation_xyz
x,y,z
-x,-y,-z
loop_
_atom_site_type_symbol
_atom_site_label
_atom_site_fract_x
_atom_site_fract_y
_atom_site_fract_z
Si Si1 0.092146 0.546574 0.622532
Si Si2 0.812757 0.450375 0.105700
Si Si3 0.989445 0.245299 0.857364
Si Si4 0.924982 0.852965 0.581868
Si Si5 0.557198 0.861536 0.737453
Si Si6 0.623099 0.782525 0.400073
Si Si7 0.499195 0.564694 0.282901
O O1 0.138099 0.603281 0.687389
O O2 0.981377 0.620258 0.422888
O O3 0.352144 0.670601 0.473416
O O4 0.946964 0.316456 0.859358
O O5 0.562718 0.289619 0.194028
O O6 0.000000 0.500000 0.000000
O O7 0.854211 0.644664 0.880493
O O8 0.232734 0.302573 0.865225
O O9 0.785944 0.013100 0.087406
O O10 0.710827 0.801776 0.524519
O O11 0.160742 0.978342 0.400523
O O12 0.000000 0.000000 0.500000
O O13 0.500000 0.000000 0.500000
O O14 0.453203 0.708625 0.029179
O O15 0.655903 0.645922 0.536471
O O16 0.500000 0.500000 0.500000
#
# Coordination Sequence:
#
# PCOD9033613 Si02
#       7
#     2   2   2   2   2   2   2
#     4  10  24  41  68 101 137 180 231 293 347 427
#     4  12  26  44  68 102 143 183 233 291 358 419
#     4  10  22  44  68  99 136 178 235 288 355 419
#     4  12  25  42  73 101 136 184 233 291 353 427
#     4  12  26  47  68 103 144 183 236 291 357 428
#     4  11  22  43  67  99 134 178 236 285 355 419
#     4  11  26  43  69 100 138 183 237 292 350 428
#
# _framework density 23.087478000000001
#
# number of rings (size 3 to 8) (size 9 to 14) (size 15 to 20)
#    0.000    0.857    4.286    2.143    4.000    2.857 
#    0.000    0.000    0.000    0.000    0.000    0.000 
#    0.000    0.000    0.000    0.000    0.000    0.000 
#
# Total GULP energy -78198.939159 kJ/mol
# GULP energy per Si atom -5585.638511 kJ/mol
# Density = 2.303493 g / cm^3
# Si number density = 23.087478 Si / 1000 Ang^3
#
#
#
# Elastic Constant Matrix: (Units=GPa)
#
#
# Indices 1 2 3 4 5 6 
#
# 1 33.5652 -10.1489 20.0761 -1.5956 16.9481 7.7196
# 2 -10.1489 121.8293 35.0702 3.7919 14.0591 -4.3176
# 3 20.0761 35.0702 120.8367 -10.5932 33.0513 -8.9135
# 4 -1.5956 3.7919 -10.5932 51.1864 6.1104 -1.9354
# 5 16.9481 14.0591 33.0513 6.1104 33.9142 -1.3521
# 6 7.7196 -4.3176 -8.9135 -1.9354 -1.3521 38.8991
#
#
#
# Elastic Compliance Matrix: (Units=1/GPa)
#
#
# Indices 1 2 3 4 5 6 
#
# 1 0.049888 0.007804 -0.004313 0.002647 -0.024869 -0.010755
# 2 0.007804 0.010295 -0.003015 -0.000575 -0.005178 -0.001305
# 3 -0.004313 -0.003015 0.013255 0.004170 -0.010128 0.003414
# 4 0.002647 -0.000575 0.004170 0.021642 -0.009003 0.001130
# 5 -0.024869 -0.005178 -0.010128 -0.009003 0.055693 0.003528
# 6 -0.010755 -0.001305 0.003414 0.001130 0.003528 0.028658
#
#
# Mechanical properties :
#
#
# Convention : Reuss Voigt Hill
#
# Bulk Modulus (GPa) = 13.44261 40.69178 27.06720
# Shear Modulus (GPa) = 24.59713 40.21553 32.40633
#
# Velocity S-wave (km/s) = 3.26757 4.17811 3.75057
# Velocity P-wave (km/s) = 4.48008 6.39834 5.52313
#
# Compressibility (1/GPa) = 0.07439032
#
# Stress axis : x y z
#
# Youngs Moduli (GPa) = 20.04488 97.13142 75.44523
#
# Poissons Ratio (x) = -0.75798 0.32537
# Poissons Ratio (y) = -0.15642 0.22746
# Poissons Ratio (z) = 0.08645 0.29284
#
# Static dielectric constant tensor:
#      x y z
#    x 1.949580 -0.023790 -0.022460 
#    y -0.023790 1.842710 0.024880 
#    z -0.022460 0.024880 1.925120 
# 
# From -- ./inp_files/402680.got.cif
#   From: 2010.05.17/outbox.cif.g08.bks.cpg/sg2_202_cif.got.tgz:402680.got - 2010.06.03 11:33:40.
