data_PCOD9033054
_publ_section_title
;
Structure prediction by ZEFSAII (Michael W. Deem and Ramdas Pophale) SiO2 
 PCOD9033054
Probable space group: P -1
;
_chemical_formula_sum "Si O2"
_cell_formula_units_Z 16
_cell_length_a 12.199592
_cell_length_b 12.776258
_cell_length_c 6.733277
_cell_angle_alpha 119.755458
_cell_angle_beta 119.427397
_cell_angle_gamma 67.649093
_cell_volume 780.532924
_symmetry_space_group_name_H-M "P -1"
_symmetry_group_IT_number 2
_symmetry_cell_setting 'triclinic'
loop_
_space_group_symop_operation_xyz
x,y,z
-x,-y,-z
loop_
_atom_site_type_symbol
_atom_site_label
_atom_site_fract_x
_atom_site_fract_y
_atom_site_fract_z
Si Si1 0.734904 0.140794 0.354098
Si Si2 0.279365 0.357980 0.929862
Si Si3 0.508051 0.149327 0.878064
Si Si4 0.202717 0.600775 0.345879
Si Si5 0.858465 0.547725 0.500526
Si Si6 0.320140 0.971159 0.405245
Si Si7 0.077106 0.274359 0.937563
Si Si8 0.104344 0.027026 0.961535
O O1 0.725852 0.285526 0.501232
O O2 0.753399 0.078274 0.525901
O O3 0.605392 0.112992 0.111901
O O4 0.847218 0.086463 0.249540
O O5 0.419707 0.278190 0.968239
O O6 0.231605 0.399262 0.708118
O O7 0.181736 0.275359 0.858618
O O8 0.264288 0.481110 0.163732
O O9 0.595530 0.139933 0.748837
O O10 0.413703 0.054639 0.659176
O O11 0.191004 0.559006 0.522676
O O12 0.058391 0.649591 0.183977
O O13 0.000000 0.500000 0.500000
O O14 0.871996 0.651539 0.769306
O O15 0.224663 0.042899 0.223796
O O16 0.064514 0.143714 0.893806
O O17 0.000000 0.000000 0.000000
#
# Coordination Sequence:
#
# PCOD9033054 Si02
#       8
#     2   2   2   2   2   2   2   2
#     4  11  25  43  61  88 130 165 199 260 307 360
#     4  11  22  40  64  93 119 164 209 254 302 366
#     4  10  23  41  67  88 118 163 219 254 298 360
#     4  11  24  38  60  93 128 163 201 250 315 368
#     4  11  20  38  64  88 122 161 200 251 304 363
#     4  10  22  44  65  92 121 164 208 257 305 360
#     4  11  22  38  61  94 124 157 205 252 308 374
#     4  11  25  39  63  98 126 158 201 250 316 374
#
# _framework density 20.498815
#
# number of rings (size 3 to 8) (size 9 to 14) (size 15 to 20)
#    0.000    1.250    2.500    3.375    1.750    9.500 
#    0.000    1.250    0.000    0.000    0.000    0.000 
#    0.000    0.000    0.000    0.000    0.000    0.000 
#
# Total GULP energy -89426.395698 kJ/mol
# GULP energy per Si atom -5589.149731 kJ/mol
# Density = 2.045216 g / cm^3
# Si number density = 20.498815 Si / 1000 Ang^3
#
#
#
# Elastic Constant Matrix: (Units=GPa)
#
#
# Indices 1 2 3 4 5 6 
#
# 1 71.3602 34.6861 24.8867 -3.2817 -20.8289 -7.4551
# 2 34.6861 99.3433 25.9694 -10.1960 -22.3870 -0.2618
# 3 24.8867 25.9694 71.0582 -12.2272 -19.5530 5.9571
# 4 -3.2817 -10.1960 -12.2272 32.1012 9.7330 -4.0174
# 5 -20.8289 -22.3870 -19.5530 9.7330 25.0363 2.7696
# 6 -7.4551 -0.2618 5.9571 -4.0174 2.7696 41.4111
#
#
#
# Elastic Compliance Matrix: (Units=1/GPa)
#
#
# Indices 1 2 3 4 5 6 
#
# 1 0.020864 -0.004020 -0.003365 -0.003765 0.012263 0.003029
# 2 -0.004020 0.013596 -0.001235 0.001043 0.007539 -0.000863
# 3 -0.003365 -0.001235 0.019438 0.002995 0.010536 -0.003824
# 4 -0.003765 0.001043 0.002995 0.037125 -0.014678 0.003481
# 5 0.012263 0.007539 0.010536 -0.014678 0.071424 -0.005461
# 6 0.003029 -0.000863 -0.003824 0.003481 -0.005461 0.025941
#
#
# Mechanical properties :
#
#
# Convention : Reuss Voigt Hill
#
# Bulk Modulus (GPa) = 27.27929 45.87179 36.57554
# Shear Modulus (GPa) = 22.95199 30.12436 26.53817
#
# Velocity S-wave (km/s) = 3.34978 3.83765 3.60199
# Velocity P-wave (km/s) = 5.31959 6.48561 5.93132
#
# Compressibility (1/GPa) = 0.03665784
#
# Stress axis : x y z
#
# Youngs Moduli (GPa) = 47.93005 73.55085 51.44604
#
# Poissons Ratio (x) = 0.29566 0.17313
# Poissons Ratio (y) = 0.19267 0.06352
# Poissons Ratio (z) = 0.16130 0.09082
#
# Static dielectric constant tensor:
#      x y z
#    x 1.747860 -0.012380 0.013270 
#    y -0.012380 1.738390 -0.009370 
#    z 0.013270 -0.009370 1.738780 
# 
# From -- ./inp_files/68517.got.cif
#   From: 2010.05.17/outbox.cif.g08.bks.cpg/sg2_35_cif.got.tgz:68517.got - 2010.06.03 11:33:40.
