data_PCOD9033002
_publ_section_title
;
Structure prediction by ZEFSAII (Michael W. Deem and Ramdas Pophale) SiO2 
 PCOD9033002
Probable space group: P -1
;
_chemical_formula_sum "Si O2"
_cell_formula_units_Z 16
_cell_length_a 14.351811
_cell_length_b 11.179321
_cell_length_c 7.098012
_cell_angle_alpha 53.621458
_cell_angle_beta 120.021608
_cell_angle_gamma 136.842772
_cell_volume 622.403991
_symmetry_space_group_name_H-M "P -1"
_symmetry_group_IT_number 2
_symmetry_cell_setting 'triclinic'
loop_
_space_group_symop_operation_xyz
x,y,z
-x,-y,-z
loop_
_atom_site_type_symbol
_atom_site_label
_atom_site_fract_x
_atom_site_fract_y
_atom_site_fract_z
Si Si1 0.029740 0.107016 0.732833
Si Si2 0.535504 0.602019 0.705502
Si Si3 0.583186 0.158302 0.203250
Si Si4 0.577990 0.782435 0.200497
Si Si5 0.108556 0.889487 0.771072
Si Si6 0.087861 0.653393 0.275940
Si Si7 0.265637 0.544664 0.605284
Si Si8 0.672286 0.966862 0.671747
O O1 0.154141 0.322087 0.707229
O O2 0.071728 0.009271 0.729064
O O3 0.930145 0.119493 0.479797
O O4 0.000000 0.000000 0.000000
O O5 0.593380 0.686674 0.480821
O O6 0.486239 0.390604 0.856125
O O7 0.403047 0.591188 0.618336
O O8 0.651491 0.775276 0.792617
O O9 0.696377 0.349192 0.254188
O O10 0.441006 0.066984 0.262125
O O11 0.630535 0.030107 0.388239
O O12 0.541370 0.196193 0.930177
O O13 0.727851 0.981734 0.150097
O O14 0.034622 0.691745 0.998072
O O15 0.195836 0.619828 0.352613
O O16 0.000000 0.500000 0.500000
O O17 0.177578 0.857711 0.278491
#
# Coordination Sequence:
#
# PCOD9033002 Si02
#       8
#     2   2   2   2   2   2   2   2
#     4  11  25  47  72  94 137 188 232 284 353 400
#     4  10  23  38  62  97 132 176 218 277 353 394
#     4   9  19  37  65  90 128 170 210 280 335 397
#     4  11  22  40  63 100 136 170 227 280 338 411
#     4  11  25  45  68 102 140 178 235 295 329 414
#     4  11  23  43  71 100 138 182 232 280 338 412
#     4  10  22  44  64  97 134 177 225 276 344 411
#     4   9  19  39  62  92 131 170 218 270 342 399
#
# _framework density 25.706776000000001
#
# number of rings (size 3 to 8) (size 9 to 14) (size 15 to 20)
#    0.000    1.750    2.500    1.500    0.000    8.000 
#    4.500    0.000    0.000    0.000    0.000    0.000 
#    0.000    0.000    0.000    0.000    0.000    0.000 
#
# Total GULP energy -89311.746384 kJ/mol
# GULP energy per Si atom -5581.984149 kJ/mol
# Density = 2.564827 g / cm^3
# Si number density = 25.706776 Si / 1000 Ang^3
#
#
#
# Elastic Constant Matrix: (Units=GPa)
#
#
# Indices 1 2 3 4 5 6 
#
# 1 49.0321 18.4355 20.5117 -0.4960 12.6798 -1.8309
# 2 18.4355 141.0454 57.6763 -15.6469 -15.3710 11.9699
# 3 20.5117 57.6763 171.1260 7.0193 -0.6429 9.8845
# 4 -0.4960 -15.6469 7.0193 37.3288 7.6150 4.9200
# 5 12.6798 -15.3710 -0.6429 7.6150 41.7512 2.6903
# 6 -1.8309 11.9699 9.8845 4.9200 2.6903 32.1589
#
#
#
# Elastic Compliance Matrix: (Units=1/GPa)
#
#
# Indices 1 2 3 4 5 6 
#
# 1 0.025294 -0.003801 -0.002050 0.000508 -0.009476 0.004200
# 2 -0.003801 0.010056 -0.002860 0.004370 0.004280 -0.004107
# 3 -0.002050 -0.002860 0.007209 -0.002502 0.000195 -0.000901
# 4 0.000508 0.004370 -0.002502 0.030562 -0.003824 -0.005184
# 5 -0.009476 0.004280 0.000195 -0.003824 0.029367 -0.004064
# 6 0.004200 -0.004107 -0.000901 -0.005184 -0.004064 0.034274
#
#
# Mechanical properties :
#
#
# Convention : Reuss Voigt Hill
#
# Bulk Modulus (GPa) = 39.78032 61.60560 50.69296
# Shear Modulus (GPa) = 30.75792 39.88645 35.32219
#
# Velocity S-wave (km/s) = 3.46279 3.94330 3.71083
# Velocity P-wave (km/s) = 5.61214 6.68951 6.17437
#
# Compressibility (1/GPa) = 0.02513806
#
# Stress axis : x y z
#
# Youngs Moduli (GPa) = 39.53562 99.44489 138.72305
#
# Poissons Ratio (x) = 0.37794 0.28436
# Poissons Ratio (y) = 0.15026 0.39670
# Poissons Ratio (z) = 0.08104 0.28438
#
# Static dielectric constant tensor:
#      x y z
#    x 2.062580 -0.005970 -0.059210 
#    y -0.005970 2.043580 0.050560 
#    z -0.059210 0.050560 2.245770 
# 
# From -- ./inp_files/302388.got.cif
#   From: 2010.05.17/outbox.cif.g08.bks.cpg/sg2_152_cif.got.tgz:302388.got - 2010.06.03 11:33:40.
