data_PCOD9033806
_publ_section_title
;
Structure prediction by ZEFSAII (Michael W. Deem and Ramdas Pophale) SiO2 
 PCOD9033806
Probable space group: P -1
;
_chemical_formula_sum "Si O2"
_cell_formula_units_Z 14
_cell_length_a 14.361572
_cell_length_b 8.344010
_cell_length_c 11.972816
_cell_angle_alpha 115.013799
_cell_angle_beta 27.288910
_cell_angle_gamma 124.141505
_cell_volume 533.413833
_symmetry_space_group_name_H-M "P -1"
_symmetry_group_IT_number 2
_symmetry_cell_setting 'triclinic'
loop_
_space_group_symop_operation_xyz
x,y,z
-x,-y,-z
loop_
_atom_site_type_symbol
_atom_site_label
_atom_site_fract_x
_atom_site_fract_y
_atom_site_fract_z
Si Si1 0.614075 0.354693 0.918460
Si Si2 0.154325 0.141724 0.471767
Si Si3 0.743586 0.248104 0.396058
Si Si4 0.144833 0.646862 0.131301
Si Si5 0.391012 0.139186 0.426226
Si Si6 0.972371 0.108939 0.949666
Si Si7 0.621183 0.738905 0.084803
O O1 0.377018 0.294563 0.216309
O O2 0.715806 0.591583 0.891134
O O3 0.759300 0.289793 0.826672
O O4 0.542818 0.265735 0.845271
O O5 0.252919 0.049481 0.432275
O O6 0.013341 0.251492 0.701705
O O7 0.000000 0.000000 0.500000
O O8 0.821042 0.215479 0.181476
O O9 0.548253 0.318251 0.644283
O O10 0.980352 0.414190 0.239844
O O11 0.641999 0.038237 0.507585
O O12 0.357745 0.717857 0.841614
O O13 0.234045 0.235526 0.672109
O O14 0.826928 0.940322 0.965470
O O15 0.000000 0.000000 0.000000
#
# Coordination Sequence:
#
# PCOD9033806 Si02
#       7
#     2   2   2   2   2   2   2
#     4  10  23  41  69 102 145 181 226 291 343 421
#     4  11  24  42  65 102 148 181 228 290 345 418
#     4  11  24  45  75 100 140 189 236 286 343 414
#     4  11  25  46  69 107 143 181 233 283 354 417
#     4  10  25  43  70 101 139 185 230 288 347 409
#     4  10  22  44  70 100 138 184 235 291 340 409
#     4  11  22  42  70 108 137 183 238 283 352 410
#
# _framework density 26.246036
#
# number of rings (size 3 to 8) (size 9 to 14) (size 15 to 20)
#    0.000    1.429    1.429    3.000    6.000    3.429 
#    0.000    2.143    0.000    0.000    0.000    0.000 
#    0.000    0.000    0.000    0.000    0.000    0.000 
#
# Total GULP energy -78226.603791 kJ/mol
# GULP energy per Si atom -5587.614556 kJ/mol
# Density = 2.618630 g / cm^3
# Si number density = 26.246036 Si / 1000 Ang^3
#
#
#
# Elastic Constant Matrix: (Units=GPa)
#
#
# Indices 1 2 3 4 5 6 
#
# 1 93.4389 16.1595 -16.4186 -5.5566 -15.2114 6.2596
# 2 16.1595 48.0950 31.1190 -5.5616 -8.2409 16.4167
# 3 -16.4186 31.1190 149.0118 -8.9301 -6.5596 11.1934
# 4 -5.5566 -5.5616 -8.9301 45.3223 8.2103 -2.9550
# 5 -15.2114 -8.2409 -6.5596 8.2103 29.1292 0.4370
# 6 6.2596 16.4167 11.1934 -2.9550 0.4370 34.3503
#
#
#
# Elastic Compliance Matrix: (Units=1/GPa)
#
#
# Indices 1 2 3 4 5 6 
#
# 1 0.013098 -0.004778 0.002810 0.000414 0.006020 -0.001060
# 2 -0.004778 0.031296 -0.005899 0.000372 0.005109 -0.012197
# 3 0.002810 -0.005899 0.008402 0.000996 0.001415 -0.000363
# 4 0.000414 0.000372 0.000996 0.023565 -0.006120 0.001527
# 5 0.006020 0.005109 0.001415 -0.006120 0.041038 -0.005048
# 6 -0.001060 -0.012197 -0.000363 0.001527 -0.005048 0.035448
#
#
# Mechanical properties :
#
#
# Convention : Reuss Voigt Hill
#
# Bulk Modulus (GPa) = 26.98117 39.14062 33.06090
# Shear Modulus (GPa) = 27.63436 39.07272 33.35354
#
# Velocity S-wave (km/s) = 3.24836 3.86257 3.56870
# Velocity P-wave (km/s) = 4.93675 5.90236 5.44102
#
# Compressibility (1/GPa) = 0.03706289
#
# Stress axis : x y z
#
# Youngs Moduli (GPa) = 76.34744 31.95303 119.02352
#
# Poissons Ratio (x) = 0.15267 -0.33451
# Poissons Ratio (y) = 0.36479 0.70210
# Poissons Ratio (z) = -0.21457 0.18848
#
# Static dielectric constant tensor:
#      x y z
#    x 2.288970 0.119850 -0.082920 
#    y 0.119850 2.297770 -0.041860 
#    z -0.082920 -0.041860 2.152920 
# 
# From -- ./inp_files/447981.got.cif
#   From: 2010.05.17/outbox.cif.g08.bks.cpg/sg2_224_cif.got.tgz:447981.got - 2010.06.03 11:33:40.
