data_PCOD9033111
_publ_section_title
;
Structure prediction by ZEFSAII (Michael W. Deem and Ramdas Pophale) SiO2 
 PCOD9033111
Probable space group: P -1
;
_chemical_formula_sum "Si O2"
_cell_formula_units_Z 15
_cell_length_a 9.689007
_cell_length_b 12.623278
_cell_length_c 10.258637
_cell_angle_alpha 86.703047
_cell_angle_beta 69.102531
_cell_angle_gamma 34.660454
_cell_volume 597.323404
_symmetry_space_group_name_H-M "P -1"
_symmetry_group_IT_number 2
_symmetry_cell_setting 'triclinic'
loop_
_space_group_symop_operation_xyz
x,y,z
-x,-y,-z
loop_
_atom_site_type_symbol
_atom_site_label
_atom_site_fract_x
_atom_site_fract_y
_atom_site_fract_z
Si Si1 0.777059 0.733935 0.069591
Si Si2 0.900679 0.245850 0.034549
Si Si3 0.436979 0.813333 0.997047
Si Si4 0.395327 0.676767 0.245100
Si Si5 0.738444 0.695036 0.661983
Si Si6 0.254153 0.075064 0.377794
Si Si7 0.862208 0.917431 0.312710
Si Si8 0.000000 0.000000 0.500000
O O1 0.599908 0.846045 0.256468
O O2 0.526716 0.862325 0.042103
O O3 0.000000 0.500000 0.000000
O O4 0.942148 0.740185 0.988301
O O5 0.578986 0.456827 0.185694
O O6 0.919805 0.230557 0.871585
O O7 0.111092 0.026853 0.038548
O O8 0.657990 0.671496 0.813014
O O9 0.482863 0.691430 0.091629
O O10 0.032447 0.904843 0.339510
O O11 0.366768 0.746410 0.389436
O O12 0.797155 0.779732 0.682332
O O13 0.000000 0.500000 0.500000
O O14 0.443634 0.875146 0.663555
O O15 0.176568 0.140313 0.552614
O O16 0.083553 0.074687 0.394889
#
# Coordination Sequence:
#
# PCOD9033111 Si02
#       8
#     2   2   2   2   2   2   2   1
#     4  12  22  38  68  95 127 177 221 282 337 398
#     4  11  23  41  65 100 127 179 222 280 346 392
#     4  11  24  42  68  98 137 169 233 281 331 414
#     4  11  23  44  67  94 138 176 229 276 343 409
#     4  11  26  42  67 105 136 180 222 282 349 395
#     4  11  22  42  68  94 139 167 236 278 335 413
#     4  10  24  42  67  94 132 181 226 280 332 408
#     4  10  22  44  66 100 126 182 220 282 338 406
#
# _framework density 25.112024999999999
#
# number of rings (size 3 to 8) (size 9 to 14) (size 15 to 20)
#    0.000    1.067    5.333    1.200    3.733    2.133 
#    4.800    0.667    0.000    0.000    0.000    0.000 
#    0.000    0.000    0.000    0.000    0.000    0.000 
#
# Total GULP energy -83513.414406 kJ/mol
# GULP energy per Si atom -5567.560960 kJ/mol
# Density = 2.505487 g / cm^3
# Si number density = 25.112025 Si / 1000 Ang^3
#
#
#
# Elastic Constant Matrix: (Units=GPa)
#
#
# Indices 1 2 3 4 5 6 
#
# 1 104.4447 13.5816 -7.7394 13.9743 -6.1220 -3.4720
# 2 13.5816 54.7642 44.7470 19.0287 -0.9163 0.8341
# 3 -7.7394 44.7470 169.8978 34.4932 15.3823 2.9456
# 4 13.9743 19.0287 34.4932 41.1739 9.0259 7.5575
# 5 -6.1220 -0.9163 15.3823 9.0259 40.9499 -0.4812
# 6 -3.4720 0.8341 2.9456 7.5575 -0.4812 24.7256
#
#
#
# Elastic Compliance Matrix: (Units=1/GPa)
#
#
# Indices 1 2 3 4 5 6 
#
# 1 0.010970 -0.002552 0.001995 -0.005212 0.002018 0.003021
# 2 -0.002552 0.026436 -0.005938 -0.007629 0.004144 0.001870
# 3 0.001995 -0.005938 0.008713 -0.004962 -0.002003 0.000920
# 4 -0.005212 -0.007629 -0.004962 0.037488 -0.007484 -0.011487
# 5 0.002018 0.004144 -0.002003 -0.007484 0.027254 0.003200
# 6 0.003021 0.001870 0.000920 -0.011487 0.003200 0.044269
#
#
# Mechanical properties :
#
#
# Convention : Reuss Voigt Hill
#
# Bulk Modulus (GPa) = 30.18363 47.80945 38.99654
# Shear Modulus (GPa) = 27.90745 39.93772 33.92258
#
# Velocity S-wave (km/s) = 3.33726 3.99229 3.67938
# Velocity P-wave (km/s) = 5.18608 6.35066 5.79769
#
# Compressibility (1/GPa) = 0.03313054
#
# Stress axis : x y z
#
# Youngs Moduli (GPa) = 91.15631 37.82702 114.76447
#
# Poissons Ratio (x) = 0.09653 -0.22895
# Poissons Ratio (y) = 0.23262 0.68143
# Poissons Ratio (z) = -0.18185 0.22460
#
# Static dielectric constant tensor:
#      x y z
#    x 2.129740 -0.006720 0.034130 
#    y -0.006720 2.000070 0.037490 
#    z 0.034130 0.037490 2.092700 
# 
# From -- ./inp_files/433938.got.cif
#   From: 2010.05.17/outbox.cif.g08.bks.cpg/sg2_217_cif.got.tgz:433938.got - 2010.06.03 11:33:40.
