data_PCOD9033535
_publ_section_title
;
Structure prediction by ZEFSAII (Michael W. Deem and Ramdas Pophale) SiO2 
 PCOD9033535
Probable space group: P -1
;
_chemical_formula_sum "Si O2"
_cell_formula_units_Z 13
_cell_length_a 9.952745
_cell_length_b 9.660423
_cell_length_c 7.838600
_cell_angle_alpha 133.691958
_cell_angle_beta 120.034374
_cell_angle_gamma 56.399492
_cell_volume 445.061267
_symmetry_space_group_name_H-M "P -1"
_symmetry_group_IT_number 2
_symmetry_cell_setting 'triclinic'
loop_
_space_group_symop_operation_xyz
x,y,z
-x,-y,-z
loop_
_atom_site_type_symbol
_atom_site_label
_atom_site_fract_x
_atom_site_fract_y
_atom_site_fract_z
Si Si1 0.664157 0.064672 0.332391
Si Si2 0.098426 0.136428 0.397248
Si Si3 0.286423 0.640793 0.627962
Si Si4 0.197862 0.292841 0.118233
Si Si5 0.500000 0.500000 0.000000
Si Si6 0.406076 0.879711 0.173324
Si Si7 0.153685 0.517009 0.916085
O O1 0.824146 0.994053 0.495226
O O2 0.526660 0.986894 0.263590
O O3 0.642443 0.285442 0.433160
O O4 0.701628 0.931489 0.067159
O O5 0.126500 0.348704 0.632326
O O6 0.900248 0.206670 0.324345
O O7 0.225394 0.021671 0.231735
O O8 0.270007 0.421569 0.400883
O O9 0.399743 0.677804 0.885397
O O10 0.015281 0.299345 0.053428
O O11 0.174940 0.423968 0.040121
O O12 0.492989 0.266813 0.739257
O O13 0.310743 0.568037 0.013261
#
# Coordination Sequence:
#
# PCOD9033535 Si02
#       7
#     2   2   2   2   1   2   2
#     4  11  23  43  69  99 125 178 217 265 323 386
#     4  10  22  44  68  95 128 172 221 262 323 395
#     4  11  25  43  69  97 133 172 210 278 329 371
#     4   9  20  42  63  95 129 161 226 257 314 394
#     4  12  24  40  64  94 132 180 208 264 336 374
#     4  12  26  43  62 101 135 166 220 267 330 390
#     4   9  20  39  65  93 123 172 217 263 309 387
#
# _framework density 29.209461999999998
#
# number of rings (size 3 to 8) (size 9 to 14) (size 15 to 20)
#    0.000    1.538    3.077    2.769    4.308    0.615 
#    2.769    1.538    0.000    0.000    0.000    0.000 
#    0.000    0.000    0.000    0.000    0.000    0.000 
#
# Total GULP energy -72755.042202 kJ/mol
# GULP energy per Si atom -5596.541708 kJ/mol
# Density = 2.914298 g / cm^3
# Si number density = 29.209462 Si / 1000 Ang^3
#
#
#
# Elastic Constant Matrix: (Units=GPa)
#
#
# Indices 1 2 3 4 5 6 
#
# 1 224.9511 53.3903 46.5143 -1.3174 28.6365 -18.0143
# 2 53.3903 106.0713 31.7465 8.5942 18.7732 -18.2762
# 3 46.5143 31.7465 179.5009 -9.3476 10.6378 -19.9001
# 4 -1.3174 8.5942 -9.3476 38.1200 -13.9604 -7.1625
# 5 28.6365 18.7732 10.6378 -13.9604 32.1531 0.5970
# 6 -18.0143 -18.2762 -19.9001 -7.1625 0.5970 44.0652
#
#
#
# Elastic Compliance Matrix: (Units=1/GPa)
#
#
# Indices 1 2 3 4 5 6 
#
# 1 0.005619 -0.001528 -0.000855 -0.001025 -0.004297 0.001169
# 2 -0.001528 0.013154 -0.001356 -0.005811 -0.008457 0.003389
# 3 -0.000855 -0.001356 0.006396 0.002459 0.000461 0.002370
# 4 -0.001025 -0.005811 0.002459 0.035773 0.018954 0.003839
# 5 -0.004297 -0.008457 0.000461 0.018954 0.047991 -0.002625
# 6 0.001169 0.003389 0.002370 0.003839 -0.002625 0.026307
#
#
# Mechanical properties :
#
#
# Convention : Reuss Voigt Hill
#
# Bulk Modulus (GPa) = 56.52531 85.98060 71.25296
# Shear Modulus (GPa) = 33.64381 48.12582 40.88482
#
# Velocity S-wave (km/s) = 3.39752 4.06348 3.74533
# Velocity P-wave (km/s) = 5.89784 7.17744 6.56887
#
# Compressibility (1/GPa) = 0.01769119
#
# Stress axis : x y z
#
# Youngs Moduli (GPa) = 177.95535 76.02254 156.35022
#
# Poissons Ratio (x) = 0.11613 0.13370
# Poissons Ratio (y) = 0.27185 0.21206
# Poissons Ratio (z) = 0.15217 0.10311
#
# Static dielectric constant tensor:
#      x y z
#    x 2.323970 0.325650 -0.252290 
#    y 0.325650 3.411670 -0.364580 
#    z -0.252290 -0.364580 2.412280 
# 
# From -- ./inp_files/191175.got.cif
#   From: 2010.05.17/outbox.cif.g08.bks.cpg/sg2_96_cif.got.tgz:191175.got - 2010.06.03 11:33:40.
