data_PCOD9033083
_publ_section_title
;
Structure prediction by ZEFSAII (Michael W. Deem and Ramdas Pophale) SiO2 
 PCOD9033083
Probable space group: P -1
;
_chemical_formula_sum "Si O2"
_cell_formula_units_Z 14
_cell_length_a 13.968258
_cell_length_b 7.703585
_cell_length_c 9.172426
_cell_angle_alpha 135.338058
_cell_angle_beta 74.866796
_cell_angle_gamma 119.922754
_cell_volume 594.144593
_symmetry_space_group_name_H-M "P -1"
_symmetry_group_IT_number 2
_symmetry_cell_setting 'triclinic'
loop_
_space_group_symop_operation_xyz
x,y,z
-x,-y,-z
loop_
_atom_site_type_symbol
_atom_site_label
_atom_site_fract_x
_atom_site_fract_y
_atom_site_fract_z
Si Si1 0.252308 0.763461 0.766585
Si Si2 0.405393 0.840258 0.148242
Si Si3 0.657654 0.310839 0.600447
Si Si4 0.944929 0.134279 0.995221
Si Si5 0.877265 0.894968 0.556071
Si Si6 0.565927 0.742623 0.832972
Si Si7 0.174844 0.636098 0.212597
O O1 0.322075 0.839984 0.634590
O O2 0.200572 0.434413 0.617671
O O3 0.147444 0.825869 0.852407
O O4 0.338393 0.966763 0.969722
O O5 0.415700 0.849428 0.325216
O O6 0.271153 0.668370 0.081738
O O7 0.453500 0.153559 0.253972
O O8 0.463266 0.682896 0.945923
O O9 0.613352 0.523823 0.692449
O O10 0.781992 0.450865 0.710487
O O11 0.895104 0.981869 0.771615
O O12 0.050703 0.429604 0.092569
O O13 0.000000 0.000000 0.000000
O O14 0.819889 0.062070 0.599339
O O15 0.000000 0.000000 0.500000
#
# Coordination Sequence:
#
# PCOD9033083 Si02
#       7
#     2   2   2   2   2   2   2
#     4  12  25  42  68  96 137 179 219 280 334 393
#     4   9  23  42  74  98 133 177 222 276 340 397
#     4  10  24  44  69  99 138 171 226 278 329 406
#     4  12  26  42  66  97 134 178 223 274 339 394
#     4  12  26  42  66  96 138 176 226 275 323 408
#     4  11  22  48  70 100 134 175 225 280 335 397
#     4  10  22  44  65  96 134 174 224 267 338 392
#
# _framework density 23.563286999999999
#
# number of rings (size 3 to 8) (size 9 to 14) (size 15 to 20)
#    0.857    0.286    1.429    5.143    4.000    1.714 
#    2.571    6.429    0.000    0.000    0.000    0.000 
#    0.000    0.000    0.000    0.000    0.000    0.000 
#
# Total GULP energy -78250.374784 kJ/mol
# GULP energy per Si atom -5589.312485 kJ/mol
# Density = 2.350966 g / cm^3
# Si number density = 23.563287 Si / 1000 Ang^3
#
#
#
# Elastic Constant Matrix: (Units=GPa)
#
#
# Indices 1 2 3 4 5 6 
#
# 1 85.6557 26.5227 43.6352 2.3923 -32.4926 -6.1700
# 2 26.5227 100.4366 61.3567 -11.7942 -10.2388 -18.1802
# 3 43.6352 61.3567 124.0909 -15.5126 -25.2554 -12.4466
# 4 2.3923 -11.7942 -15.5126 43.2235 0.1054 -6.9711
# 5 -32.4926 -10.2388 -25.2554 0.1054 48.6285 1.7162
# 6 -6.1700 -18.1802 -12.4466 -6.9711 1.7162 42.6620
#
#
#
# Elastic Compliance Matrix: (Units=1/GPa)
#
#
# Indices 1 2 3 4 5 6 
#
# 1 0.017889 -0.001766 -0.003841 -0.002897 0.009598 -0.000145
# 2 -0.001766 0.015452 -0.006472 0.002795 -0.001469 0.004957
# 3 -0.003841 -0.006472 0.013828 0.003592 0.003203 0.001179
# 4 -0.002897 0.002795 0.003592 0.026333 0.000245 0.006113
# 5 0.009598 -0.001469 0.003203 0.000245 0.028310 0.000598
# 6 -0.000145 0.004957 0.001179 0.006113 0.000598 0.026850
#
#
# Mechanical properties :
#
#
# Convention : Reuss Voigt Hill
#
# Bulk Modulus (GPa) = 43.45308 63.69023 53.57166
# Shear Modulus (GPa) = 31.15435 38.81405 34.98420
#
# Velocity S-wave (km/s) = 3.64009 4.06301 3.85735
# Velocity P-wave (km/s) = 6.01233 7.00705 6.52866
#
# Compressibility (1/GPa) = 0.02301333
#
# Stress axis : x y z
#
# Youngs Moduli (GPa) = 55.89874 64.71592 72.31507
#
# Poissons Ratio (x) = 0.11428 0.27775
# Poissons Ratio (y) = 0.09871 0.46800
# Poissons Ratio (z) = 0.21470 0.41882
#
# Static dielectric constant tensor:
#      x y z
#    x 1.944160 0.028410 0.023460 
#    y 0.028410 1.951460 -0.014260 
#    z 0.023460 -0.014260 1.871790 
# 
# From -- ./inp_files/325369.got.cif
#   From: 2010.05.17/outbox.cif.g08.bks.cpg/sg2_163_cif.got.tgz:325369.got - 2010.06.03 11:33:40.
