data_PCOD9033312
_publ_section_title
;
Structure prediction by ZEFSAII (Michael W. Deem and Ramdas Pophale) SiO2 
 PCOD9033312
Probable space group: P -1
;
_chemical_formula_sum "Si O2"
_cell_formula_units_Z 12
_cell_length_a 7.672288
_cell_length_b 5.023126
_cell_length_c 13.994854
_cell_angle_alpha 97.000276
_cell_angle_beta 78.152526
_cell_angle_gamma 61.873590
_cell_volume 450.335719
_symmetry_space_group_name_H-M "P -1"
_symmetry_group_IT_number 2
_symmetry_cell_setting 'triclinic'
loop_
_space_group_symop_operation_xyz
x,y,z
-x,-y,-z
loop_
_atom_site_type_symbol
_atom_site_label
_atom_site_fract_x
_atom_site_fract_y
_atom_site_fract_z
Si Si1 0.662951 0.195203 0.060962
Si Si2 0.663571 0.323104 0.389663
Si Si3 0.172272 0.370582 0.856457
Si Si4 0.550964 0.146330 0.686391
Si Si5 0.729888 0.865202 0.848549
Si Si6 0.185337 0.268283 0.536505
O O1 0.728606 0.438250 0.098752
O O2 0.443007 0.233487 0.118941
O O3 0.830276 0.862758 0.075793
O O4 0.677317 0.138282 0.943492
O O5 0.500000 0.500000 0.500000
O O6 0.522054 0.496142 0.319141
O O7 0.791648 0.497364 0.387350
O O8 0.814665 0.984153 0.403275
O O9 0.347674 0.155421 0.750534
O O10 0.955301 0.588275 0.840311
O O11 0.709463 0.995968 0.749586
O O12 0.636311 0.935672 0.572314
O O13 0.000000 0.500000 0.500000
#
# Coordination Sequence:
#
# PCOD9033312 Si02
#       6
#     2   2   2   2   2   2
#     4  10  24  44  67 100 141 184 229 281 341 412
#     4  10  22  44  67  92 138 172 218 285 340 400
#     4  11  24  43  69  99 143 181 230 285 343 403
#     4  10  24  42  67 104 136 173 234 284 335 408
#     4  10  23  43  70 101 139 185 230 280 345 411
#     4  11  24  44  71  96 132 184 222 276 351 409
#
# _framework density 26.646788999999998
#
# number of rings (size 3 to 8) (size 9 to 14) (size 15 to 20)
#    0.000    1.667    0.000    3.500    2.333   16.667 
#    0.000    0.000    0.000    0.000    0.000    0.000 
#    0.000    0.000    0.000    0.000    0.000    0.000 
#
# Total GULP energy -67104.208950 kJ/mol
# GULP energy per Si atom -5592.017413 kJ/mol
# Density = 2.658614 g / cm^3
# Si number density = 26.646789 Si / 1000 Ang^3
#
#
#
# Elastic Constant Matrix: (Units=GPa)
#
#
# Indices 1 2 3 4 5 6 
#
# 1 78.8580 62.9377 24.5647 -3.4133 19.1295 -35.6461
# 2 62.9377 216.4464 47.0462 -46.0922 19.9242 -8.1709
# 3 24.5647 47.0462 144.8383 -30.9722 17.8722 -10.5737
# 4 -3.4133 -46.0922 -30.9722 57.5400 -16.9842 5.9351
# 5 19.1295 19.9242 17.8722 -16.9842 41.0398 -4.1608
# 6 -35.6461 -8.1709 -10.5737 5.9351 -4.1608 59.7201
#
#
#
# Elastic Compliance Matrix: (Units=1/GPa)
#
#
# Indices 1 2 3 4 5 6 
#
# 1 0.031104 -0.009414 -0.002047 -0.012223 -0.012344 0.017270
# 2 -0.009414 0.008565 -0.000309 0.007533 0.002971 -0.005044
# 3 -0.002047 -0.000309 0.008269 0.003831 -0.000936 -0.000246
# 4 -0.012223 0.007533 0.003831 0.028958 0.011580 -0.007658
# 5 -0.012344 0.002971 -0.000936 0.011580 0.033274 -0.005960
# 6 0.017270 -0.005044 -0.000246 -0.007658 -0.005960 0.026665
#
#
# Mechanical properties :
#
#
# Convention : Reuss Voigt Hill
#
# Bulk Modulus (GPa) = 40.98962 78.80443 59.89702
# Shear Modulus (GPa) = 29.67218 52.03291 40.85255
#
# Velocity S-wave (km/s) = 3.34059 4.42372 3.91975
# Velocity P-wave (km/s) = 5.50412 7.46527 6.55842
#
# Compressibility (1/GPa) = 0.02439642
#
# Stress axis : x y z
#
# Youngs Moduli (GPa) = 32.15027 116.75410 120.93912
#
# Poissons Ratio (x) = 1.09912 0.24759
# Poissons Ratio (y) = 0.30266 0.03741
# Poissons Ratio (z) = 0.06582 0.03612
#
# Static dielectric constant tensor:
#      x y z
#    x 2.233630 0.018260 0.042500 
#    y 0.018260 2.207500 0.075650 
#    z 0.042500 0.075650 2.280600 
# 
# From -- ./inp_files/487085.got.cif
#   From: 2010.05.17/outbox.cif.g08.bks.cpg/sg2_244_cif.got.tgz:487085.got - 2010.06.03 11:33:40.
