data_PCOD9033275
_publ_section_title
;
Structure prediction by ZEFSAII (Michael W. Deem and Ramdas Pophale) SiO2 
 PCOD9033275
Probable space group: P -1
;
_chemical_formula_sum "Si O2"
_cell_formula_units_Z 13
_cell_length_a 9.683767
_cell_length_b 9.742913
_cell_length_c 15.983764
_cell_angle_alpha 38.976793
_cell_angle_beta 142.933042
_cell_angle_gamma 119.224586
_cell_volume 535.929095
_symmetry_space_group_name_H-M "P -1"
_symmetry_group_IT_number 2
_symmetry_cell_setting 'triclinic'
loop_
_space_group_symop_operation_xyz
x,y,z
-x,-y,-z
loop_
_atom_site_type_symbol
_atom_site_label
_atom_site_fract_x
_atom_site_fract_y
_atom_site_fract_z
Si Si1 0.000000 0.000000 0.500000
Si Si2 0.195677 0.679051 0.959270
Si Si3 0.837424 0.833458 0.336597
Si Si4 0.996980 0.749057 0.138516
Si Si5 0.472827 0.309155 0.141141
Si Si6 0.752402 0.575297 0.728218
Si Si7 0.230007 0.624316 0.485779
O O1 0.725323 0.102534 0.359856
O O2 0.093377 0.152918 0.540594
O O3 0.940064 0.712442 0.771032
O O4 0.275781 0.897700 0.874378
O O5 0.382804 0.443713 0.120689
O O6 0.163331 0.629622 0.063382
O O7 0.691045 0.657009 0.338023
O O8 0.079085 0.728850 0.445888
O O9 0.198511 0.545194 0.280811
O O10 0.043615 0.701042 0.281635
O O11 0.743355 0.753341 0.975542
O O12 0.000000 0.000000 0.000000
O O13 0.500000 0.500000 0.000000
O O14 0.464540 0.697538 0.546708
#
# Coordination Sequence:
#
# PCOD9033275 Si02
#       7
#     1   2   2   2   2   2   2
#     4  12  24  42  72 102 132 188 226 288 350 406
#     4  10  22  44  67 102 139 185 232 290 350 408
#     4  11  25  42  70 100 138 183 233 291 349 405
#     4  11  25  43  66  98 140 186 223 288 357 413
#     4  11  23  43  68 103 137 176 240 289 336 420
#     4  10  23  41  68  96 141 184 230 286 342 427
#     4  11  25  45  65 107 141 177 239 289 348 424
#
# _framework density 24.25694
#
# number of rings (size 3 to 8) (size 9 to 14) (size 15 to 20)
#    0.000    1.231    1.538    3.231    4.308    3.692 
#    0.000    0.000    0.000    0.000    0.000    0.000 
#    0.000    0.000    0.000    0.000    0.000    0.000 
#
# Total GULP energy -72522.529551 kJ/mol
# GULP energy per Si atom -5578.656119 kJ/mol
# Density = 2.420173 g / cm^3
# Si number density = 24.256940 Si / 1000 Ang^3
#
#
#
# Elastic Constant Matrix: (Units=GPa)
#
#
# Indices 1 2 3 4 5 6 
#
# 1 88.8177 41.2514 24.7785 -11.3972 14.5510 -15.5546
# 2 41.2514 104.5705 26.8697 -14.3608 -4.4339 -15.0698
# 3 24.7785 26.8697 73.9411 -2.3460 12.9703 -0.8138
# 4 -11.3972 -14.3608 -2.3460 10.3711 4.0967 -5.1398
# 5 14.5510 -4.4339 12.9703 4.0967 46.3547 0.9592
# 6 -15.5546 -15.0698 -0.8138 -5.1398 0.9592 40.4885
#
#
#
# Elastic Compliance Matrix: (Units=1/GPa)
#
#
# Indices 1 2 3 4 5 6 
#
# 1 0.019634 -0.002162 -0.003473 0.025949 -0.007901 0.010150
# 2 -0.002162 0.015674 -0.004441 0.021563 0.001357 0.007619
# 3 -0.003473 -0.004441 0.016642 -0.006572 -0.003340 -0.003408
# 4 0.025949 0.021563 -0.006572 0.182256 -0.021210 0.041501
# 5 -0.007901 0.001357 -0.003340 -0.021210 0.027115 -0.005932
# 6 0.010150 0.007619 -0.003408 0.041501 -0.005932 0.036774
#
#
# Mechanical properties :
#
#
# Convention : Reuss Voigt Hill
#
# Bulk Modulus (GPa) = 31.44905 50.34761 40.89833
# Shear Modulus (GPa) = 15.20477 31.07152 23.13814
#
# Velocity S-wave (km/s) = 2.50636 3.58290 3.09184
# Velocity P-wave (km/s) = 4.62265 6.15769 5.44454
#
# Compressibility (1/GPa) = 0.03179746
#
# Stress axis : x y z
#
# Youngs Moduli (GPa) = 50.93321 63.80098 60.08922
#
# Poissons Ratio (x) = 0.13791 0.20868
# Poissons Ratio (y) = 0.11010 0.26688
# Poissons Ratio (z) = 0.17689 0.28337
#
# Static dielectric constant tensor:
#      x y z
#    x 1.943390 0.020650 -0.006330 
#    y 0.020650 1.907770 -0.022160 
#    z -0.006330 -0.022160 1.976060 
# 
# From -- ./inp_files/492187.got.cif
#   From: 2010.05.17/outbox.cif.g08.bks.cpg/sg2_247_cif.got.tgz:492187.got - 2010.06.03 11:33:40.
