data_PCOD9033089
_publ_section_title
;
Structure prediction by ZEFSAII (Michael W. Deem and Ramdas Pophale) SiO2 
 PCOD9033089
Probable space group: P -1
;
_chemical_formula_sum "Si O2"
_cell_formula_units_Z 16
_cell_length_a 12.153142
_cell_length_b 7.308636
_cell_length_c 13.214694
_cell_angle_alpha 126.259012
_cell_angle_beta 61.370789
_cell_angle_gamma 132.211340
_cell_volume 694.420969
_symmetry_space_group_name_H-M "P -1"
_symmetry_group_IT_number 2
_symmetry_cell_setting 'triclinic'
loop_
_space_group_symop_operation_xyz
x,y,z
-x,-y,-z
loop_
_atom_site_type_symbol
_atom_site_label
_atom_site_fract_x
_atom_site_fract_y
_atom_site_fract_z
Si Si1 0.287254 0.700290 0.544733
Si Si2 0.573932 0.791236 0.796638
Si Si3 0.382097 0.681047 0.027114
Si Si4 0.843636 0.716554 0.366620
Si Si5 0.855210 0.879241 0.951524
Si Si6 0.167170 0.637009 0.928358
Si Si7 0.861162 0.799016 0.689548
Si Si8 0.595685 0.763546 0.430191
O O1 0.172557 0.493990 0.611062
O O2 0.228932 0.514962 0.408249
O O3 0.454213 0.778442 0.528307
O O4 0.305134 0.982335 0.605674
O O5 0.745292 0.887393 0.749053
O O6 0.479464 0.523934 0.685212
O O7 0.557387 0.035559 0.850334
O O8 0.513290 0.703391 0.909444
O O9 0.281690 0.412579 0.046872
O O10 0.273764 0.679391 0.987855
O O11 0.825147 0.558864 0.218877
O O12 0.710299 0.766374 0.459565
O O13 0.995424 0.007235 0.379357
O O14 0.897633 0.845777 0.807610
O O15 0.801994 0.087421 0.043225
O O16 0.000000 0.000000 0.000000
O O17 0.000000 0.500000 0.000000
#
# Coordination Sequence:
#
# PCOD9033089 Si02
#       8
#     2   2   2   2   2   2   2   2
#     4  10  25  47  70  97 135 181 229 284 334 395
#     4  10  22  44  65  96 144 174 224 285 332 403
#     4  11  22  42  66  96 137 185 218 274 346 405
#     4  12  23  42  74  97 135 184 221 278 348 394
#     4  12  25  41  69 103 137 180 220 277 349 400
#     4  12  22  42  65 106 139 166 224 276 332 416
#     4  11  24  46  65 101 142 169 232 288 322 413
#     4  10  23  47  67 101 134 175 237 280 327 408
#
# _framework density 23.040778
#
# number of rings (size 3 to 8) (size 9 to 14) (size 15 to 20)
#    0.000    1.000    5.000    0.750    1.750    1.000 
#   11.250    0.000    0.000    0.000    0.000    0.000 
#    0.000    0.000    0.000    0.000    0.000    0.000 
#
# Total GULP energy -89482.432629 kJ/mol
# GULP energy per Si atom -5592.652039 kJ/mol
# Density = 2.298834 g / cm^3
# Si number density = 23.040778 Si / 1000 Ang^3
#
#
#
# Elastic Constant Matrix: (Units=GPa)
#
#
# Indices 1 2 3 4 5 6 
#
# 1 72.8484 20.5780 9.8545 -5.9806 -1.3878 4.0551
# 2 20.5780 164.5798 9.4935 -6.2027 -1.5053 -16.0192
# 3 9.8545 9.4935 41.1158 2.2257 0.2657 8.9831
# 4 -5.9806 -6.2027 2.2257 30.0418 -7.4733 -0.5046
# 5 -1.3878 -1.5053 0.2657 -7.4733 16.1520 4.6571
# 6 4.0551 -16.0192 8.9831 -0.5046 4.6571 35.1451
#
#
#
# Elastic Compliance Matrix: (Units=1/GPa)
#
#
# Indices 1 2 3 4 5 6 
#
# 1 0.015120 -0.001763 -0.002958 0.003708 0.003535 -0.002207
# 2 -0.001763 0.006841 -0.002072 0.001279 -0.000004 0.003870
# 3 -0.002958 -0.002072 0.027348 -0.003218 -0.000191 -0.007614
# 4 0.003708 0.001279 -0.003218 0.039216 0.018914 -0.000966
# 5 0.003535 -0.000004 -0.000191 0.018914 0.073815 -0.009871
# 6 -0.002207 0.003870 -0.007614 -0.000966 -0.009871 0.033712
#
#
# Mechanical properties :
#
#
# Convention : Reuss Voigt Hill
#
# Bulk Modulus (GPa) = 27.99291 39.82176 33.90734
# Shear Modulus (GPa) = 22.56875 32.17567 27.37221
#
# Velocity S-wave (km/s) = 3.13311 3.74099 3.45046
# Velocity P-wave (km/s) = 5.02635 5.99839 5.53375
#
# Compressibility (1/GPa) = 0.03572333
#
# Stress axis : x y z
#
# Youngs Moduli (GPa) = 66.13847 146.18163 36.56584
#
# Poissons Ratio (x) = 0.25766 0.10817
# Poissons Ratio (y) = 0.11658 0.07576
# Poissons Ratio (z) = 0.19565 0.30285
#
# Static dielectric constant tensor:
#      x y z
#    x 1.880490 0.025420 0.007340 
#    y 0.025420 1.876830 -0.003100 
#    z 0.007340 -0.003100 1.897630 
# 
# From -- ./inp_files/526872.got.cif
#   From: 2010.05.17/outbox.cif.g08.bks.cpg/sg2_264_cif.got.tgz:526872.got - 2010.06.03 11:33:40.
