data_PCOD9033792
_publ_section_title
;
Structure prediction by ZEFSAII (Michael W. Deem and Ramdas Pophale) SiO2 
 PCOD9033792
Probable space group: P -1
;
_chemical_formula_sum "Si O2"
_cell_formula_units_Z 16
_cell_length_a 10.801006
_cell_length_b 9.553594
_cell_length_c 7.456744
_cell_angle_alpha 49.842981
_cell_angle_beta 80.495161
_cell_angle_gamma 79.158017
_cell_volume 576.592350
_symmetry_space_group_name_H-M "P -1"
_symmetry_group_IT_number 2
_symmetry_cell_setting 'triclinic'
loop_
_space_group_symop_operation_xyz
x,y,z
-x,-y,-z
loop_
_atom_site_type_symbol
_atom_site_label
_atom_site_fract_x
_atom_site_fract_y
_atom_site_fract_z
Si Si1 0.664511 0.505272 0.359526
Si Si2 0.876679 0.018918 0.366388
Si Si3 0.840230 0.199071 0.617875
Si Si4 0.717556 0.976641 0.103717
Si Si5 0.903586 0.577578 0.802523
Si Si6 0.019919 0.244575 0.861716
Si Si7 0.465472 0.250754 0.522254
Si Si8 0.386294 0.376445 0.087350
O O1 0.806147 0.414652 0.409084
O O2 0.597991 0.330245 0.442007
O O3 0.619062 0.573865 0.508269
O O4 0.622833 0.658418 0.093198
O O5 0.762361 0.044373 0.230311
O O6 0.899345 0.796410 0.583173
O O7 0.145015 0.897198 0.499332
O O8 0.974949 0.139360 0.138282
O O9 0.950365 0.174540 0.761555
O O10 0.730096 0.123009 0.826041
O O11 0.580891 0.913546 0.218167
O O12 0.830021 0.812185 0.157657
O O13 0.953931 0.450034 0.732444
O O14 0.758290 0.542925 0.904120
O O15 0.000000 0.500000 0.000000
O O16 0.421445 0.220626 0.354907
O O17 0.500000 0.500000 0.000000
#
# Coordination Sequence:
#
# PCOD9033792 Si02
#       8
#     2   2   2   2   2   2   2   2
#     4  10  23  41  74  99 134 184 238 298 348 423
#     4  11  25  48  68 104 149 186 236 301 359 432
#     4  11  24  44  71 102 138 186 235 291 364 426
#     4  11  25  43  69  96 145 187 229 292 363 424
#     4  12  26  43  78 112 137 190 252 296 355 432
#     4  11  27  48  69 104 149 193 230 295 369 433
#     4  10  22  45  68 101 137 183 239 289 352 432
#     4  10  22  44  69  99 141 187 231 291 361 423
#
# _framework density 27.749241000000001
#
# number of rings (size 3 to 8) (size 9 to 14) (size 15 to 20)
#    0.000    1.250    1.250    3.750    3.500    8.500 
#    0.000    0.625    5.500    0.000    0.000    0.000 
#    0.000    0.000    0.000    0.000    0.000    0.000 
#
# Total GULP energy -89394.696580 kJ/mol
# GULP energy per Si atom -5587.168536 kJ/mol
# Density = 2.768608 g / cm^3
# Si number density = 27.749241 Si / 1000 Ang^3
#
#
#
# Elastic Constant Matrix: (Units=GPa)
#
#
# Indices 1 2 3 4 5 6 
#
# 1 96.3501 10.3949 56.7005 9.6298 -11.2596 5.6798
# 2 10.3949 126.8153 53.0467 13.7307 28.0683 12.7492
# 3 56.7005 53.0467 167.0508 40.7796 12.8019 9.5369
# 4 9.6298 13.7307 40.7796 46.3755 4.3600 10.5064
# 5 -11.2596 28.0683 12.8019 4.3600 65.2185 -0.0466
# 6 5.6798 12.7492 9.5369 10.5064 -0.0466 23.0878
#
#
#
# Elastic Compliance Matrix: (Units=1/GPa)
#
#
# Indices 1 2 3 4 5 6 
#
# 1 0.013830 0.000467 -0.005438 0.002004 0.003118 -0.002320
# 2 0.000467 0.010408 -0.003147 0.001100 -0.003858 -0.005071
# 3 -0.005438 -0.003147 0.010679 -0.007712 -0.001164 0.002172
# 4 0.002004 0.001100 -0.007712 0.030317 -0.000649 -0.011713
# 5 0.003118 -0.003858 -0.001164 -0.000649 0.017805 0.002175
# 6 -0.002320 -0.005071 0.002172 -0.011713 0.002175 0.051121
#
#
# Mechanical properties :
#
#
# Convention : Reuss Voigt Hill
#
# Bulk Modulus (GPa) = 53.53103 70.05562 61.79332
# Shear Modulus (GPa) = 31.92361 44.94130 38.43245
#
# Velocity S-wave (km/s) = 3.39548 4.02873 3.72558
# Velocity P-wave (km/s) = 5.89112 6.85140 6.38932
#
# Compressibility (1/GPa) = 0.01868076
#
# Stress axis : x y z
#
# Youngs Moduli (GPa) = 72.30887 96.07780 93.63925
#
# Poissons Ratio (x) = -0.04489 0.50923
# Poissons Ratio (y) = -0.03378 0.29469
# Poissons Ratio (z) = 0.39323 0.30237
#
# Static dielectric constant tensor:
#      x y z
#    x 2.245360 -0.024470 -0.080330 
#    y -0.024470 2.174120 -0.042750 
#    z -0.080330 -0.042750 2.194170 
# 
# From -- ./inp_files/170573.got.cif
#   From: 2010.05.17/outbox.cif.g08.bks.cpg/sg2_86_cif.got.tgz:170573.got - 2010.06.03 11:33:40.
