data_PCOD9033319
_publ_section_title
;
Structure prediction by ZEFSAII (Michael W. Deem and Ramdas Pophale) SiO2 
 PCOD9033319
Probable space group: P -1
;
_chemical_formula_sum "Si O2"
_cell_formula_units_Z 15
_cell_length_a 15.686228
_cell_length_b 8.240886
_cell_length_c 8.446003
_cell_angle_alpha 41.231492
_cell_angle_beta 63.379233
_cell_angle_gamma 85.906840
_cell_volume 574.260313
_symmetry_space_group_name_H-M "P -1"
_symmetry_group_IT_number 2
_symmetry_cell_setting 'triclinic'
loop_
_space_group_symop_operation_xyz
x,y,z
-x,-y,-z
loop_
_atom_site_type_symbol
_atom_site_label
_atom_site_fract_x
_atom_site_fract_y
_atom_site_fract_z
Si Si1 0.044127 0.720856 0.940074
Si Si2 0.653184 0.261680 0.939185
Si Si3 0.845663 0.781721 0.085808
Si Si4 0.388014 0.716245 0.714615
Si Si5 0.500000 0.500000 0.000000
Si Si6 0.334901 0.828601 0.346967
Si Si7 0.811070 0.858828 0.716372
Si Si8 0.876923 0.344990 0.773057
O O1 0.116078 0.016386 0.587261
O O2 0.942656 0.726622 0.103162
O O3 0.110783 0.627738 0.069127
O O4 0.000000 0.500000 0.000000
O O5 0.600797 0.468304 0.852744
O O6 0.617529 0.095096 0.925962
O O7 0.782457 0.398127 0.738500
O O8 0.614562 0.110458 0.254855
O O9 0.875273 0.897629 0.796563
O O10 0.836472 0.019918 0.014053
O O11 0.737168 0.501220 0.368796
O O12 0.460185 0.569701 0.811205
O O13 0.402324 0.878464 0.418187
O O14 0.272427 0.456912 0.992950
O O15 0.256657 0.967397 0.336897
O O16 0.000000 0.500000 0.500000
#
# Coordination Sequence:
#
# PCOD9033319 Si02
#       8
#     2   2   2   2   1   2   2   2
#     4  12  24  38  62  92 132 178 219 268 326 386
#     4  10  22  44  67  93 138 165 219 279 319 394
#     4  11  24  40  59  94 131 174 219 264 325 390
#     4   9  23  42  68  96 131 168 218 276 325 387
#     4   8  22  44  68 100 128 170 224 274 326 386
#     4  11  21  42  68  94 130 171 216 270 334 390
#     4  11  22  40  64  95 127 173 219 273 324 387
#     4  12  25  39  64  97 131 173 221 267 324 404
#
# _framework density 26.120557000000002
#
# number of rings (size 3 to 8) (size 9 to 14) (size 15 to 20)
#    0.800    0.533    2.667    3.200    5.600    0.533 
#    0.000    1.333    2.933    0.000    0.000    0.000 
#    0.000    0.000    0.000    0.000    0.000    0.000 
#
# Total GULP energy -83643.872460 kJ/mol
# GULP energy per Si atom -5576.258164 kJ/mol
# Density = 2.606111 g / cm^3
# Si number density = 26.120557 Si / 1000 Ang^3
#
#
#
# Elastic Constant Matrix: (Units=GPa)
#
#
# Indices 1 2 3 4 5 6 
#
# 1 192.9672 54.1328 39.6340 26.2324 38.0276 -18.1825
# 2 54.1328 99.9392 10.9714 16.1518 9.4956 -2.9467
# 3 39.6340 10.9714 77.0796 15.6125 2.3963 12.1448
# 4 26.2324 16.1518 15.6125 45.6363 13.3261 9.1136
# 5 38.0276 9.4956 2.3963 13.3261 40.9621 17.0728
# 6 -18.1825 -2.9467 12.1448 9.1136 17.0728 58.0695
#
#
#
# Elastic Compliance Matrix: (Units=1/GPa)
#
#
# Indices 1 2 3 4 5 6 
#
# 1 0.010450 -0.003565 -0.005519 -0.001068 -0.011446 0.007778
# 2 -0.003565 0.012137 0.000741 -0.002848 0.001671 -0.000699
# 3 -0.005519 0.000741 0.017384 -0.004013 0.008203 -0.007108
# 4 -0.001068 -0.002848 -0.004013 0.027095 -0.006048 -0.002114
# 5 -0.011446 0.001671 0.008203 -0.006048 0.043213 -0.016971
# 6 0.007778 -0.000699 -0.007108 -0.002114 -0.016971 0.026429
#
#
# Mechanical properties :
#
#
# Convention : Reuss Voigt Hill
#
# Bulk Modulus (GPa) = 42.94920 64.38471 53.66696
# Shear Modulus (GPa) = 31.02619 46.61676 38.82147
#
# Velocity S-wave (km/s) = 3.45020 4.22913 3.85936
# Velocity P-wave (km/s) = 5.68772 6.96778 6.36004
#
# Compressibility (1/GPa) = 0.02328332
#
# Stress axis : x y z
#
# Youngs Moduli (GPa) = 95.69726 82.39561 57.52461
#
# Poissons Ratio (x) = 0.29372 0.31749
# Poissons Ratio (y) = 0.34114 -0.04260
# Poissons Ratio (z) = 0.52817 -0.06102
#
# Static dielectric constant tensor:
#      x y z
#    x 2.072590 0.046210 -0.013790 
#    y 0.046210 2.086660 0.034160 
#    z -0.013790 0.034160 2.203680 
# 
# From -- ./inp_files/56003.got.cif
#   From: 2010.05.17/outbox.cif.g08.bks.cpg/sg2_29_cif.got.tgz:56003.got - 2010.06.03 11:33:40.
