data_PCOD9033179
_publ_section_title
;
Structure prediction by ZEFSAII (Michael W. Deem and Ramdas Pophale) SiO2 
 PCOD9033179
Probable space group: P -1
;
_chemical_formula_sum "Si O2"
_cell_formula_units_Z 10
_cell_length_a 9.567704
_cell_length_b 13.596605
_cell_length_c 6.921030
_cell_angle_alpha 57.161301
_cell_angle_beta 51.664435
_cell_angle_gamma 31.357223
_cell_volume 367.323501
_symmetry_space_group_name_H-M "P -1"
_symmetry_group_IT_number 2
_symmetry_cell_setting 'triclinic'
loop_
_space_group_symop_operation_xyz
x,y,z
-x,-y,-z
loop_
_atom_site_type_symbol
_atom_site_label
_atom_site_fract_x
_atom_site_fract_y
_atom_site_fract_z
Si Si1 0.738733 0.809916 0.730782
Si Si2 0.931424 0.071867 0.208563
Si Si3 0.716240 0.324221 0.643638
Si Si4 0.161592 0.216357 0.880238
Si Si5 0.364957 0.374204 0.207851
O O1 0.651336 0.734894 0.787233
O O2 0.017161 0.728112 0.491583
O O3 0.472018 0.036712 0.712056
O O4 0.803225 0.756844 0.959416
O O5 0.584027 0.244183 0.336570
O O6 0.128419 0.873962 0.357502
O O7 0.033029 0.151288 0.070815
O O8 0.000000 0.000000 0.000000
O O9 0.500000 0.500000 0.500000
O O10 0.530858 0.385411 0.923024
O O11 0.955113 0.410351 0.737313
#
# Coordination Sequence:
#
# PCOD9033179 Si02
#       5
#     2   2   2   2   2
#     4  11  24  41  67  99 132 166 223 265 317 387
#     4  10  22  44  66  93 136 172 209 270 327 379
#     4  11  23  42  68  96 131 172 215 269 321 383
#     4  11  22  42  70  94 132 175 212 265 329 379
#     4  11  23  47  67  94 136 172 209 271 328 379
#
# _framework density 27.223960000000002
#
# number of rings (size 3 to 8) (size 9 to 14) (size 15 to 20)
#    0.000    1.200    6.000    1.200    0.000    1.600 
#    3.600    1.000    0.000    0.000    0.000    0.000 
#    0.000    0.000    0.000    0.000    0.000    0.000 
#
# Total GULP energy -56162.194202 kJ/mol
# GULP energy per Si atom -5616.219420 kJ/mol
# Density = 2.716200 g / cm^3
# Si number density = 27.223960 Si / 1000 Ang^3
#
#
#
# Elastic Constant Matrix: (Units=GPa)
#
#
# Indices 1 2 3 4 5 6 
#
# 1 159.9970 62.9950 52.6945 -6.6904 -14.4665 -10.6468
# 2 62.9950 234.6894 46.0858 -41.6289 -2.8055 -28.7709
# 3 52.6945 46.0858 109.7747 -13.9632 -12.9392 -4.2245
# 4 -6.6904 -41.6289 -13.9632 58.1282 -1.9919 -4.1541
# 5 -14.4665 -2.8055 -12.9392 -1.9919 35.8851 14.0276
# 6 -10.6468 -28.7709 -4.2245 -4.1541 14.0276 39.0371
#
#
#
# Elastic Compliance Matrix: (Units=1/GPa)
#
#
# Indices 1 2 3 4 5 6 
#
# 1 0.008067 -0.001758 -0.003028 -0.001007 0.002075 -0.000276
# 2 -0.001758 0.006426 -0.001395 0.004369 -0.002622 0.005513
# 3 -0.003028 -0.001395 0.011698 0.001463 0.003651 -0.001745
# 4 -0.001007 0.004369 0.001463 0.020944 -0.000534 0.005524
# 5 0.002075 -0.002622 0.003651 -0.000534 0.035120 -0.013648
# 6 -0.000276 0.005513 -0.001745 0.005524 -0.013648 0.034908
#
#
# Mechanical properties :
#
#
# Convention : Reuss Voigt Hill
#
# Bulk Modulus (GPa) = 72.31621 92.00129 82.15875
# Shear Modulus (GPa) = 37.27558 49.45581 43.36570
#
# Velocity S-wave (km/s) = 3.70431 4.26682 3.99547
# Velocity P-wave (km/s) = 6.70202 7.62508 7.17840
#
# Compressibility (1/GPa) = 0.01382816
#
# Stress axis : x y z
#
# Youngs Moduli (GPa) = 123.96396 155.61135 85.48316
#
# Poissons Ratio (x) = 0.27361 0.25887
# Poissons Ratio (y) = 0.21796 0.11925
# Poissons Ratio (z) = 0.37540 0.21709
#
# Static dielectric constant tensor:
#      x y z
#    x 2.107610 -0.029730 0.095580 
#    y -0.029730 2.169020 0.009320 
#    z 0.095580 0.009320 2.185670 
# 
# From -- ./inp_files/156283.got.cif
#   From: 2010.05.17/outbox.cif.g08.bks.cpg/sg2_79_cif.got.tgz:156283.got - 2010.06.03 11:33:40.
