data_PCOD9033464
_publ_section_title
;
Structure prediction by ZEFSAII (Michael W. Deem and Ramdas Pophale) SiO2 
 PCOD9033464
Probable space group: P -1
;
_chemical_formula_sum "Si O2"
_cell_formula_units_Z 14
_cell_length_a 11.759523
_cell_length_b 5.910475
_cell_length_c 11.628147
_cell_angle_alpha 50.959612
_cell_angle_beta 60.461397
_cell_angle_gamma 84.085571
_cell_volume 519.763068
_symmetry_space_group_name_H-M "P -1"
_symmetry_group_IT_number 2
_symmetry_cell_setting 'triclinic'
loop_
_space_group_symop_operation_xyz
x,y,z
-x,-y,-z
loop_
_atom_site_type_symbol
_atom_site_label
_atom_site_fract_x
_atom_site_fract_y
_atom_site_fract_z
Si Si1 0.520662 0.838329 0.745431
Si Si2 0.353120 0.277057 0.677429
Si Si3 0.005196 0.530135 0.139975
Si Si4 0.821382 0.736600 0.015028
Si Si5 0.383395 0.117967 0.075529
Si Si6 0.938464 0.644229 0.591234
Si Si7 0.241475 0.111611 0.546106
O O1 0.450545 0.481226 0.912005
O O2 0.612744 0.913037 0.561541
O O3 0.395202 0.973454 0.772094
O O4 0.623955 0.965761 0.760020
O O5 0.500000 0.500000 0.500000
O O6 0.294022 0.365576 0.795750
O O7 0.256507 0.241980 0.625913
O O8 0.955249 0.778327 0.015633
O O9 0.045810 0.558743 0.243073
O O10 0.877666 0.213192 0.294302
O O11 0.136672 0.480264 0.028172
O O12 0.760695 0.952869 0.896038
O O13 0.500000 0.000000 0.000000
O O14 0.797318 0.666059 0.598514
O O15 0.000000 0.500000 0.500000
O O16 0.000000 0.000000 0.500000
#
# Coordination Sequence:
#
# PCOD9033464 Si02
#       7
#     2   2   2   2   2   2   2
#     4  11  24  42  68 102 137 187 240 303 374 438
#     4  12  24  41  71 107 146 195 247 307 377 448
#     4  10  23  43  69 104 148 191 245 301 378 446
#     4  11  22  42  69  99 144 191 240 303 371 448
#     4  11  23  45  67  99 137 185 242 298 366 438
#     4  10  22  44  68 102 143 190 244 299 366 443
#     4  11  23  42  66 104 143 189 242 307 376 447
#
# _framework density 26.93535
#
# number of rings (size 3 to 8) (size 9 to 14) (size 15 to 20)
#    0.000    1.143    1.429    4.714    0.000    1.714 
#    5.143    4.286    0.000    0.000    0.000    0.000 
#    0.000    0.000    0.000    0.000    0.000    0.000 
#
# Total GULP energy -78286.214558 kJ/mol
# GULP energy per Si atom -5591.872468 kJ/mol
# Density = 2.687404 g / cm^3
# Si number density = 26.935350 Si / 1000 Ang^3
#
#
#
# Elastic Constant Matrix: (Units=GPa)
#
#
# Indices 1 2 3 4 5 6 
#
# 1 203.3846 62.4318 43.7573 10.3201 41.6975 -2.0517
# 2 62.4318 106.2971 46.5514 18.9297 1.6405 -10.4167
# 3 43.7573 46.5514 100.0105 37.6292 4.1090 8.7371
# 4 10.3201 18.9297 37.6292 63.8155 2.5709 4.8626
# 5 41.6975 1.6405 4.1090 2.5709 70.7566 5.4217
# 6 -2.0517 -10.4167 8.7371 4.8626 5.4217 73.3918
#
#
#
# Elastic Compliance Matrix: (Units=1/GPa)
#
#
# Indices 1 2 3 4 5 6 
#
# 1 0.007169 -0.003572 -0.001719 0.001069 -0.004091 0.000129
# 2 -0.003572 0.014024 -0.004893 -0.000957 0.001915 0.002395
# 3 -0.001719 -0.004893 0.016051 -0.007594 0.000639 -0.002197
# 4 0.001069 -0.000957 -0.007594 0.020331 -0.000868 -0.000485
# 5 -0.004091 0.001915 0.000639 -0.000868 0.016577 -0.001086
# 6 0.000129 0.002395 -0.002197 -0.000485 -0.001086 0.014343
#
#
# Mechanical properties :
#
#
# Convention : Reuss Voigt Hill
#
# Bulk Modulus (GPa) = 59.25542 79.46370 69.35956
# Shear Modulus (GPa) = 43.67251 58.72290 51.19770
#
# Velocity S-wave (km/s) = 4.03101 4.67426 4.36450
# Velocity P-wave (km/s) = 6.61152 7.66142 7.15575
#
# Compressibility (1/GPa) = 0.01687609
#
# Stress axis : x y z
#
# Youngs Moduli (GPa) = 139.48953 71.30727 62.29973
#
# Poissons Ratio (x) = 0.25472 0.10712
# Poissons Ratio (y) = 0.49828 0.30480
# Poissons Ratio (z) = 0.23984 0.34887
#
# Static dielectric constant tensor:
#      x y z
#    x 2.122400 0.001770 0.043270 
#    y 0.001770 2.272480 -0.161560 
#    z 0.043270 -0.161560 2.157340 
# 
# From -- ./inp_files/409794.got.cif
#   From: 2010.05.17/outbox.cif.g08.bks.cpg/sg2_205_cif.got.tgz:409794.got - 2010.06.03 11:33:40.
