data_PCOD9033518
_publ_section_title
;
Structure prediction by ZEFSAII (Michael W. Deem and Ramdas Pophale) SiO2 
 PCOD9033518
Probable space group: P -1
;
_chemical_formula_sum "Si O2"
_cell_formula_units_Z 14
_cell_length_a 24.055275
_cell_length_b 17.674165
_cell_length_c 8.485783
_cell_angle_alpha 146.463539
_cell_angle_beta 145.886395
_cell_angle_gamma 20.075984
_cell_volume 664.617166
_symmetry_space_group_name_H-M "P -1"
_symmetry_group_IT_number 2
_symmetry_cell_setting 'triclinic'
loop_
_space_group_symop_operation_xyz
x,y,z
-x,-y,-z
loop_
_atom_site_type_symbol
_atom_site_label
_atom_site_fract_x
_atom_site_fract_y
_atom_site_fract_z
Si Si1 0.961862 0.452057 0.173888
Si Si2 0.151183 0.730145 0.936318
Si Si3 0.510906 0.938292 0.177565
Si Si4 0.988222 0.894370 0.161528
Si Si5 0.788308 0.649285 0.596449
Si Si6 0.668497 0.371663 0.100030
Si Si7 0.619124 0.706433 0.731533
O O1 0.065764 0.409456 0.207541
O O2 0.000000 0.500000 0.500000
O O3 0.014980 0.242537 0.989162
O O4 0.771088 0.642898 0.007408
O O5 0.134094 0.741653 0.106226
O O6 0.142885 0.579455 0.599894
O O7 0.309502 0.614827 0.010234
O O8 0.000000 0.000000 0.000000
O O9 0.335624 0.141763 0.208436
O O10 0.507215 0.084890 0.325918
O O11 0.664090 0.764088 0.354815
O O12 0.530293 0.797204 0.849732
O O13 0.816695 0.104737 0.029571
O O14 0.000000 0.000000 0.500000
O O15 0.690951 0.488792 0.451052
O O16 0.500000 0.500000 0.000000
#
# Coordination Sequence:
#
# PCOD9033518 Si02
#       7
#     2   2   2   2   2   2   2
#     4  12  23  40  71 100 129 173 223 273 331 396
#     4  10  22  44  68  92 133 175 218 275 328 387
#     4  10  23  38  65  92 139 165 208 278 331 380
#     4  11  23  43  68  94 134 178 219 271 327 390
#     4  11  22  42  67  99 133 174 216 271 336 394
#     4  11  25  43  67  92 132 177 224 269 331 394
#     4  11  22  43  61  98 132 170 221 271 327 393
#
# _framework density 21.064758000000001
#
# number of rings (size 3 to 8) (size 9 to 14) (size 15 to 20)
#    0.000    1.143    5.714    0.000    2.000    0.571 
#    2.571    0.714    0.000    0.000    0.000    0.000 
#    0.000    0.000    0.000    0.000    0.000    0.000 
#
# Total GULP energy -78090.129522 kJ/mol
# GULP energy per Si atom -5577.866394 kJ/mol
# Density = 2.101681 g / cm^3
# Si number density = 21.064758 Si / 1000 Ang^3
#
#
#
# Elastic Constant Matrix: (Units=GPa)
#
#
# Indices 1 2 3 4 5 6 
#
# 1 145.8495 42.6267 38.9863 7.0993 11.9295 -34.7375
# 2 42.6267 93.5576 23.2915 16.6435 15.1515 -4.3552
# 3 38.9863 23.2915 72.4376 10.9977 11.7009 -12.4021
# 4 7.0993 16.6435 10.9977 27.6131 -0.1678 5.5334
# 5 11.9295 15.1515 11.7009 -0.1678 36.5788 9.0655
# 6 -34.7375 -4.3552 -12.4021 5.5334 9.0655 48.9268
#
#
#
# Elastic Compliance Matrix: (Units=1/GPa)
#
#
# Indices 1 2 3 4 5 6 
#
# 1 0.010512 -0.003052 -0.002762 -0.001225 -0.003071 0.007199
# 2 -0.003052 0.014522 -0.000937 -0.007761 -0.004924 0.000679
# 3 -0.002762 -0.000937 0.018332 -0.006952 -0.005709 0.004446
# 4 -0.001225 -0.007761 -0.006952 0.046055 0.008556 -0.010117
# 5 -0.003071 -0.004924 -0.005709 0.008556 0.035104 -0.011538
# 6 0.007199 0.000679 0.004446 -0.010117 -0.011538 0.030019
#
#
# Mechanical properties :
#
#
# Convention : Reuss Voigt Hill
#
# Bulk Modulus (GPa) = 33.48475 57.96153 45.72314
# Shear Modulus (GPa) = 28.08980 36.41975 32.25477
#
# Velocity S-wave (km/s) = 3.65567 4.16257 3.91733
# Velocity P-wave (km/s) = 5.80940 7.11886 6.49721
#
# Compressibility (1/GPa) = 0.02986434
#
# Stress axis : x y z
#
# Youngs Moduli (GPa) = 95.13013 68.86123 54.55028
#
# Poissons Ratio (x) = 0.21014 0.15066
# Poissons Ratio (y) = 0.29030 0.05112
# Poissons Ratio (z) = 0.26274 0.06453
#
# Static dielectric constant tensor:
#      x y z
#    x 1.824000 0.004860 -0.059210 
#    y 0.004860 1.786460 -0.000010 
#    z -0.059210 -0.000010 1.729410 
# 
# From -- ./inp_files/159595.got.cif
#   From: 2010.05.17/outbox.cif.g08.bks.cpg/sg2_80_cif.got.tgz:159595.got - 2010.06.03 11:33:40.
