data_PCOD9033303
_publ_section_title
;
Structure prediction by ZEFSAII (Michael W. Deem and Ramdas Pophale) SiO2 
 PCOD9033303
Probable space group: P -1
;
_chemical_formula_sum "Si O2"
_cell_formula_units_Z 12
_cell_length_a 8.559747
_cell_length_b 8.515068
_cell_length_c 9.361598
_cell_angle_alpha 54.151671
_cell_angle_beta 76.580016
_cell_angle_gamma 88.472586
_cell_volume 532.789089
_symmetry_space_group_name_H-M "P -1"
_symmetry_group_IT_number 2
_symmetry_cell_setting 'triclinic'
loop_
_space_group_symop_operation_xyz
x,y,z
-x,-y,-z
loop_
_atom_site_type_symbol
_atom_site_label
_atom_site_fract_x
_atom_site_fract_y
_atom_site_fract_z
Si Si1 0.418761 0.050014 0.638149
Si Si2 0.834596 0.656339 0.522583
Si Si3 0.382598 0.749296 0.246601
Si Si4 0.884055 0.827870 0.699893
Si Si5 0.478808 0.279137 0.068809
Si Si6 0.077846 0.947951 0.157621
O O1 0.383085 0.839978 0.834960
O O2 0.500000 0.000000 0.500000
O O3 0.275709 0.169577 0.563448
O O4 0.529819 0.179385 0.662833
O O5 0.725814 0.460400 0.601772
O O6 0.886406 0.650068 0.682221
O O7 0.985420 0.742733 0.348301
O O8 0.262612 0.902859 0.141463
O O9 0.505494 0.726793 0.102245
O O10 0.000000 0.000000 0.000000
O O11 0.691175 0.821739 0.773518
O O12 0.000000 0.000000 0.500000
O O13 0.943202 0.873773 0.824175
O O14 0.500000 0.500000 0.000000
#
# Coordination Sequence:
#
# PCOD9033303 Si02
#       6
#     2   2   2   2   2   2
#     4  12  23  42  66 102 134 175 219 277 334 398
#     4  11  23  43  67  98 135 176 222 270 337 401
#     4  12  24  42  69 100 134 175 225 278 332 395
#     4  10  22  44  67  90 139 180 216 273 336 395
#     4  12  23  42  69  98 134 172 225 280 332 392
#     4  11  24  43  66  94 135 179 224 273 334 395
#
# _framework density 22.522986
#
# number of rings (size 3 to 8) (size 9 to 14) (size 15 to 20)
#    0.000    0.667    5.000    2.500    2.333    0.000 
#    0.000    0.833    0.000    0.000    0.000    0.000 
#    0.000    0.000    0.000    0.000    0.000    0.000 
#
# Total GULP energy -66905.996758 kJ/mol
# GULP energy per Si atom -5575.499730 kJ/mol
# Density = 2.247172 g / cm^3
# Si number density = 22.522986 Si / 1000 Ang^3
#
#
#
# Elastic Constant Matrix: (Units=GPa)
#
#
# Indices 1 2 3 4 5 6 
#
# 1 96.8831 50.6526 39.8263 12.9707 -3.4226 13.0833
# 2 50.6526 136.9334 54.3251 15.4692 -1.3198 31.3033
# 3 39.8263 54.3251 80.9192 19.4313 -2.6517 15.0550
# 4 12.9707 15.4692 19.4313 57.7971 6.2442 5.1809
# 5 -3.4226 -1.3198 -2.6517 6.2442 40.7836 12.1196
# 6 13.0833 31.3033 15.0550 5.1809 12.1196 46.6402
#
#
#
# Elastic Compliance Matrix: (Units=1/GPa)
#
#
# Indices 1 2 3 4 5 6 
#
# 1 0.014042 -0.003211 -0.004407 -0.000878 0.001084 -0.000545
# 2 -0.003211 0.011942 -0.005219 -0.000370 0.001556 -0.005793
# 3 -0.004407 -0.005219 0.019380 -0.004189 0.001815 -0.001523
# 4 -0.000878 -0.000370 -0.004189 0.019330 -0.003498 0.000609
# 5 0.001084 0.001556 0.001815 -0.003498 0.027931 -0.008803
# 6 -0.000545 -0.005793 -0.001523 0.000609 -0.008803 0.028193
#
#
# Mechanical properties :
#
#
# Convention : Reuss Voigt Hill
#
# Bulk Modulus (GPa) = 50.79209 67.14931 58.97070
# Shear Modulus (GPa) = 32.66761 40.37298 36.52029
#
# Velocity S-wave (km/s) = 3.81256 4.23841 4.03111
# Velocity P-wave (km/s) = 6.47927 7.33693 6.92140
#
# Compressibility (1/GPa) = 0.01968810
#
# Stress axis : x y z
#
# Youngs Moduli (GPa) = 71.21526 83.73464 51.59990
#
# Poissons Ratio (x) = 0.26891 0.22741
# Poissons Ratio (y) = 0.22870 0.26932
# Poissons Ratio (z) = 0.31386 0.43705
#
# Static dielectric constant tensor:
#      x y z
#    x 1.862160 -0.007160 -0.013190 
#    y -0.007160 1.892690 0.023960 
#    z -0.013190 0.023960 1.855820 
# 
# From -- ./inp_files/346793.got.cif
#   From: 2010.05.17/outbox.cif.g08.bks.cpg/sg2_174_cif.got.tgz:346793.got - 2010.06.03 11:33:40.
