data_PCOD9033481
_publ_section_title
;
Structure prediction by ZEFSAII (Michael W. Deem and Ramdas Pophale) SiO2 
 PCOD9033481
Probable space group: P -1
;
_chemical_formula_sum "Si O2"
_cell_formula_units_Z 16
_cell_length_a 12.396261
_cell_length_b 9.495832
_cell_length_c 21.478762
_cell_angle_alpha 36.784828
_cell_angle_beta 154.165464
_cell_angle_gamma 133.296722
_cell_volume 653.772006
_symmetry_space_group_name_H-M "P -1"
_symmetry_group_IT_number 2
_symmetry_cell_setting 'triclinic'
loop_
_space_group_symop_operation_xyz
x,y,z
-x,-y,-z
loop_
_atom_site_type_symbol
_atom_site_label
_atom_site_fract_x
_atom_site_fract_y
_atom_site_fract_z
Si Si1 0.437999 0.772543 0.188176
Si Si2 0.722933 0.268449 0.070493
Si Si3 0.267874 0.405219 0.145444
Si Si4 0.014091 0.361891 0.294364
Si Si5 0.771056 0.197452 0.798757
Si Si6 0.017300 0.327807 0.453637
Si Si7 0.174767 0.137347 0.827407
Si Si8 0.606388 0.035327 0.398840
O O1 0.447785 0.559249 0.220336
O O2 0.333540 0.702877 0.224702
O O3 0.725921 0.808428 0.335944
O O4 0.240833 0.980912 0.980359
O O5 0.755785 0.332582 0.136879
O O6 0.870243 0.045451 0.186688
O O7 0.763841 0.510733 0.971799
O O8 0.442330 0.225675 0.926047
O O9 0.405286 0.139615 0.308758
O O10 0.000000 0.500000 0.000000
O O11 0.125862 0.607118 0.259902
O O12 0.013046 0.284603 0.392465
O O13 0.193430 0.189272 0.402740
O O14 0.554044 0.070684 0.700328
O O15 0.000000 0.000000 0.000000
O O16 0.007534 0.614608 0.353897
O O17 0.779418 0.229714 0.396251
#
# Coordination Sequence:
#
# PCOD9033481 Si02
#       8
#     2   2   2   2   2   2   2   2
#     4  11  25  45  73 107 145 183 245 297 355 432
#     4  10  22  44  68 104 140 181 240 291 353 430
#     4  11  24  47  71 101 141 191 240 293 357 430
#     4  12  26  45  72 104 147 185 240 297 360 428
#     4  12  26  48  71  99 143 196 240 293 358 430
#     4  12  26  45  74 112 144 190 235 300 366 425
#     4  10  23  43  71 104 145 184 234 299 358 417
#     4  12  26  45  70 107 145 182 243 296 359 429
#
# _framework density 24.473365000000001
#
# number of rings (size 3 to 8) (size 9 to 14) (size 15 to 20)
#    0.000    0.750    2.500    4.500    3.500    2.000 
#    0.000    1.250    0.000    0.000    0.000    0.000 
#    0.000    0.000    0.000    0.000    0.000    0.000 
#
# Total GULP energy -89359.540201 kJ/mol
# GULP energy per Si atom -5584.971263 kJ/mol
# Density = 2.441766 g / cm^3
# Si number density = 24.473365 Si / 1000 Ang^3
#
#
#
# Elastic Constant Matrix: (Units=GPa)
#
#
# Indices 1 2 3 4 5 6 
#
# 1 60.7433 13.5365 7.3094 10.1784 3.4536 -5.0178
# 2 13.5365 85.7516 29.9958 10.0814 -9.7191 -5.2479
# 3 7.3094 29.9958 47.3501 2.6099 7.5581 -0.1650
# 4 10.1784 10.0814 2.6099 51.3847 -9.8727 -4.0598
# 5 3.4536 -9.7191 7.5581 -9.8727 31.4763 -0.8550
# 6 -5.0178 -5.2479 -0.1650 -4.0598 -0.8550 32.0797
#
#
#
# Elastic Compliance Matrix: (Units=1/GPa)
#
#
# Indices 1 2 3 4 5 6 
#
# 1 0.018064 -0.002639 -0.000301 -0.003633 -0.003815 0.001831
# 2 -0.002639 0.017427 -0.011949 -0.000462 0.008464 0.002544
# 3 -0.000301 -0.011949 0.030661 -0.001562 -0.011573 -0.002350
# 4 -0.003633 -0.000462 -0.001562 0.021994 0.007593 0.002334
# 5 -0.003815 0.008464 -0.011573 0.007593 0.040037 0.002756
# 6 0.001831 0.002544 -0.002350 0.002334 0.002756 0.032232
#
#
# Mechanical properties :
#
#
# Convention : Reuss Voigt Hill
#
# Bulk Modulus (GPa) = 27.49310 32.83647 30.16479
# Shear Modulus (GPa) = 24.71343 32.52168 28.61756
#
# Velocity S-wave (km/s) = 3.18120 3.64931 3.42326
# Velocity P-wave (km/s) = 4.97510 5.58596 5.28936
#
# Compressibility (1/GPa) = 0.03637276
#
# Stress axis : x y z
#
# Youngs Moduli (GPa) = 55.35856 57.38070 32.61493
#
# Poissons Ratio (x) = 0.15145 0.00982
# Poissons Ratio (y) = 0.14611 0.38973
# Poissons Ratio (z) = 0.01666 0.68567
#
# Static dielectric constant tensor:
#      x y z
#    x 1.990270 -0.006880 0.013390 
#    y -0.006880 2.146940 0.145690 
#    z 0.013390 0.145690 2.202980 
# 
# From -- ./inp_files/594005.got.cif
#   From: 2010.05.17/outbox.cif.g08.bks.cpg/sg2_298_cif.got.tgz:594005.got - 2010.06.03 11:33:40.
