data_PCOD9033386
_publ_section_title
;
Structure prediction by ZEFSAII (Michael W. Deem and Ramdas Pophale) SiO2 
 PCOD9033386
Probable space group: P -1
;
_chemical_formula_sum "Si O2"
_cell_formula_units_Z 14
_cell_length_a 11.154623
_cell_length_b 11.201998
_cell_length_c 17.805401
_cell_angle_alpha 148.653330
_cell_angle_beta 32.472128
_cell_angle_gamma 141.208170
_cell_volume 607.414281
_symmetry_space_group_name_H-M "P -1"
_symmetry_group_IT_number 2
_symmetry_cell_setting 'triclinic'
loop_
_space_group_symop_operation_xyz
x,y,z
-x,-y,-z
loop_
_atom_site_type_symbol
_atom_site_label
_atom_site_fract_x
_atom_site_fract_y
_atom_site_fract_z
Si Si1 0.949842 0.509801 0.919400
Si Si2 0.810505 0.883142 0.478063
Si Si3 0.323341 0.869288 0.734896
Si Si4 0.805526 0.312191 0.603314
Si Si5 0.657863 0.251649 0.072865
Si Si6 0.686205 0.410377 0.556723
Si Si7 0.807213 0.641572 0.916257
O O1 0.132829 0.742270 0.975444
O O2 0.779374 0.537042 0.957553
O O3 0.110033 0.340164 0.715255
O O4 0.796581 0.377682 0.996045
O O5 0.801765 0.065112 0.512585
O O6 0.560953 0.825321 0.616941
O O7 0.000000 0.000000 0.500000
O O8 0.333930 0.803495 0.605906
O O9 0.084209 0.715356 0.805411
O O10 0.301402 0.131706 0.905884
O O11 0.666345 0.319300 0.603985
O O12 0.737707 0.472548 0.791946
O O13 0.064633 0.427128 0.503305
O O14 0.492322 0.425230 0.276860
O O15 0.500000 0.000000 0.000000
#
# Coordination Sequence:
#
# PCOD9033386 Si02
#       7
#     2   2   2   2   2   2   2
#     4  11  25  44  68 104 140 176 238 283 349 419
#     4  12  24  42  66 103 134 182 227 289 349 412
#     4  10  24  42  70  97 138 180 228 287 351 408
#     4  10  23  40  69  99 137 172 235 279 345 422
#     4  11  25  44  70 100 139 184 229 288 349 412
#     4  10  22  44  67  98 133 184 225 284 349 411
#     4  10  23  45  66 102 135 179 230 287 346 417
#
# _framework density 23.048518999999999
#
# number of rings (size 3 to 8) (size 9 to 14) (size 15 to 20)
#    0.000    1.429    2.857    0.857    2.000   12.000 
#    0.000    0.000    0.000    0.000    0.000    0.000 
#    0.000    0.000    0.000    0.000    0.000    0.000 
#
# Total GULP energy -78280.181239 kJ/mol
# GULP energy per Si atom -5591.441517 kJ/mol
# Density = 2.299606 g / cm^3
# Si number density = 23.048519 Si / 1000 Ang^3
#
#
#
# Elastic Constant Matrix: (Units=GPa)
#
#
# Indices 1 2 3 4 5 6 
#
# 1 78.1000 22.0122 6.7005 -17.0672 14.1393 10.0259
# 2 22.0122 78.4513 1.8932 -11.3478 -0.6056 18.3898
# 3 6.7005 1.8932 58.1360 -14.3725 2.7061 11.4686
# 4 -17.0672 -11.3478 -14.3725 30.4890 7.9211 -10.4402
# 5 14.1393 -0.6056 2.7061 7.9211 31.6817 -6.5597
# 6 10.0259 18.3898 11.4686 -10.4402 -6.5597 37.6369
#
#
#
# Elastic Compliance Matrix: (Units=1/GPa)
#
#
# Indices 1 2 3 4 5 6 
#
# 1 0.018848 -0.002911 0.002230 0.012757 -0.012450 -0.002909
# 2 -0.002911 0.015503 0.001905 0.002926 -0.000683 -0.006687
# 3 0.002230 0.001905 0.021288 0.011757 -0.006951 -0.005962
# 4 0.012757 0.002926 0.011757 0.052520 -0.019190 0.002814
# 5 -0.012450 -0.000683 -0.006951 -0.019190 0.044185 0.008146
# 6 -0.002909 -0.006687 -0.005962 0.002814 0.008146 0.034629
#
#
# Mechanical properties :
#
#
# Convention : Reuss Voigt Hill
#
# Bulk Modulus (GPa) = 17.21564 30.65545 23.93554
# Shear Modulus (GPa) = 24.52304 32.23361 28.37833
#
# Velocity S-wave (km/s) = 3.26540 3.74372 3.51271
# Velocity P-wave (km/s) = 4.65861 5.65832 5.18263
#
# Compressibility (1/GPa) = 0.05808672
#
# Stress axis : x y z
#
# Youngs Moduli (GPa) = 53.05470 64.50248 46.97435
#
# Poissons Ratio (x) = 0.18779 -0.10473
# Poissons Ratio (y) = 0.15446 -0.08949
# Poissons Ratio (z) = -0.11829 -0.12289
#
# Static dielectric constant tensor:
#      x y z
#    x 1.965050 0.027070 0.026000 
#    y 0.027070 1.897560 -0.039280 
#    z 0.026000 -0.039280 1.825720 
# 
# From -- ./inp_files/569228.got.cif
#   From: 2010.05.17/outbox.cif.g08.bks.cpg/sg2_285_cif.got.tgz:569228.got - 2010.06.03 11:33:40.
