data_PCOD9033524
_publ_section_title
;
Structure prediction by ZEFSAII (Michael W. Deem and Ramdas Pophale) SiO2 
 PCOD9033524
Probable space group: P -1
;
_chemical_formula_sum "Si O2"
_cell_formula_units_Z 14
_cell_length_a 7.577071
_cell_length_b 5.274381
_cell_length_c 17.301690
_cell_angle_alpha 102.973392
_cell_angle_beta 53.439211
_cell_angle_gamma 90.995701
_cell_volume 535.201373
_symmetry_space_group_name_H-M "P -1"
_symmetry_group_IT_number 2
_symmetry_cell_setting 'triclinic'
loop_
_space_group_symop_operation_xyz
x,y,z
-x,-y,-z
loop_
_atom_site_type_symbol
_atom_site_label
_atom_site_fract_x
_atom_site_fract_y
_atom_site_fract_z
Si Si1 0.848381 0.920652 0.428718
Si Si2 0.354813 0.733917 0.244151
Si Si3 0.646891 0.500506 0.538314
Si Si4 0.544273 0.815384 0.048597
Si Si5 0.252905 0.754221 0.906477
Si Si6 0.058896 0.567908 0.102285
Si Si7 0.352472 0.211697 0.690071
O O1 0.757053 0.760497 0.512483
O O2 0.695515 0.907899 0.390057
O O3 0.098588 0.774097 0.339135
O O4 0.823106 0.230932 0.475462
O O5 0.348929 0.825814 0.162436
O O6 0.513729 0.447361 0.174411
O O7 0.490921 0.880688 0.282612
O O8 0.500000 0.500000 0.500000
O O9 0.474848 0.461739 0.649013
O O10 0.705090 0.951243 0.074347
O O11 0.695158 0.568272 0.953004
O O12 0.500000 0.000000 0.000000
O O13 0.093753 0.665324 0.877540
O O14 0.121953 0.691999 0.013874
O O15 0.894644 0.762862 0.209332
#
# Coordination Sequence:
#
# PCOD9033524 Si02
#       7
#     2   2   2   2   2   2   2
#     4  11  25  46  73 100 142 176 228 284 347 402
#     4  10  25  43  63 100 131 177 231 275 338 413
#     4  10  23  47  71 104 137 178 226 287 343 407
#     4  11  24  37  61  94 134 173 217 282 334 401
#     4   9  20  41  59  88 130 164 220 273 327 406
#     4   9  20  39  61  89 123 172 215 270 335 398
#     4  10  22  44  68  93 133 178 226 282 341 407
#
# _framework density 26.158380000000001
#
# number of rings (size 3 to 8) (size 9 to 14) (size 15 to 20)
#    0.000    2.000    0.000    3.000    6.000    3.429 
#   18.000    0.000    0.000    0.000    0.000    0.000 
#    0.000    0.000    0.000    0.000    0.000    0.000 
#
# Total GULP energy -77965.899163 kJ/mol
# GULP energy per Si atom -5568.992797 kJ/mol
# Density = 2.609884 g / cm^3
# Si number density = 26.158380 Si / 1000 Ang^3
#
#
#
# Elastic Constant Matrix: (Units=GPa)
#
#
# Indices 1 2 3 4 5 6 
#
# 1 122.3176 9.1372 50.5014 -2.7520 -10.1207 -5.9181
# 2 9.1372 41.6079 40.6147 5.7629 -2.3534 -14.6968
# 3 50.5014 40.6147 213.4498 -4.3452 -12.9727 -20.5431
# 4 -2.7520 5.7629 -4.3452 32.7266 -7.2894 4.2376
# 5 -10.1207 -2.3534 -12.9727 -7.2894 52.9258 3.2471
# 6 -5.9181 -14.6968 -20.5431 4.2376 3.2471 39.6540
#
#
#
# Elastic Compliance Matrix: (Units=1/GPa)
#
#
# Indices 1 2 3 4 5 6 
#
# 1 0.009160 0.000005 -0.002060 0.000782 0.001348 0.000108
# 2 0.000005 0.034683 -0.005834 -0.008684 -0.001752 0.010904
# 3 -0.002060 -0.005834 0.006446 0.001892 0.001152 0.000573
# 4 0.000782 -0.008684 0.001892 0.034401 0.005348 -0.006235
# 5 0.001348 -0.001752 0.001152 0.005348 0.020221 -0.002078
# 6 0.000108 0.010904 0.000573 -0.006235 -0.002078 0.030409
#
#
# Mechanical properties :
#
#
# Convention : Reuss Voigt Hill
#
# Bulk Modulus (GPa) = 28.97631 64.20911 46.59271
# Shear Modulus (GPa) = 30.74994 43.53607 37.14301
#
# Velocity S-wave (km/s) = 3.43232 4.08404 3.77228
# Velocity P-wave (km/s) = 5.17775 6.84389 6.06827
#
# Compressibility (1/GPa) = 0.03451095
#
# Stress axis : x y z
#
# Youngs Moduli (GPa) = 109.17153 28.83243 155.13009
#
# Poissons Ratio (x) = -0.00015 0.31956
# Poissons Ratio (y) = -0.00058 0.90510
# Poissons Ratio (z) = 0.22489 0.16822
#
# Static dielectric constant tensor:
#      x y z
#    x 2.217180 0.010280 0.021430 
#    y 0.010280 2.269020 -0.020850 
#    z 0.021430 -0.020850 2.079880 
# 
# From -- ./inp_files/39349.got.cif
#   From: 2010.05.17/outbox.cif.g08.bks.cpg/sg2_20_cif.got.tgz:39349.got - 2010.06.03 11:33:40.
