data_PCOD9033520
_publ_section_title
;
Structure prediction by ZEFSAII (Michael W. Deem and Ramdas Pophale) SiO2 
 PCOD9033520
Probable space group: P -1
;
_chemical_formula_sum "Si O2"
_cell_formula_units_Z 16
_cell_length_a 9.356503
_cell_length_b 12.018881
_cell_length_c 15.631160
_cell_angle_alpha 152.075809
_cell_angle_beta 106.019780
_cell_angle_gamma 84.273477
_cell_volume 749.598858
_symmetry_space_group_name_H-M "P -1"
_symmetry_group_IT_number 2
_symmetry_cell_setting 'triclinic'
loop_
_space_group_symop_operation_xyz
x,y,z
-x,-y,-z
loop_
_atom_site_type_symbol
_atom_site_label
_atom_site_fract_x
_atom_site_fract_y
_atom_site_fract_z
Si Si1 0.937622 0.092984 0.965485
Si Si2 0.674699 0.365595 0.112159
Si Si3 0.646973 0.239448 0.660888
Si Si4 0.391952 0.319976 0.930466
Si Si5 0.817501 0.900677 0.407467
Si Si6 0.249997 0.470552 0.290081
Si Si7 0.541056 0.292465 0.221667
Si Si8 0.153239 0.462331 0.456471
O O1 0.866378 0.829561 0.727571
O O2 0.802891 0.221548 0.042243
O O3 0.099863 0.286773 0.088772
O O4 0.000000 0.000000 0.000000
O O5 0.513177 0.217869 0.934568
O O6 0.752632 0.628537 0.255790
O O7 0.615311 0.420286 0.231780
O O8 0.659009 0.486710 0.885462
O O9 0.655213 0.317282 0.615572
O O10 0.500000 0.000000 0.500000
O O11 0.780710 0.111664 0.602339
O O12 0.500000 0.500000 0.000000
O O13 0.258077 0.132079 0.723089
O O14 0.000000 0.000000 0.500000
O O15 0.380235 0.343842 0.253411
O O16 0.169570 0.526310 0.401157
O O17 0.681109 0.376178 0.368465
O O18 0.500000 0.000000 0.000000
O O19 0.000000 0.500000 0.500000
#
# Coordination Sequence:
#
# PCOD9033520 Si02
#       8
#     2   2   2   2   2   2   2   2
#     4  10  22  44  68  92 140 178 227 294 343 417
#     4  11  22  45  66  99 136 187 229 284 361 408
#     4  12  22  45  71 103 144 186 236 293 349 423
#     4  10  22  44  70  99 139 182 239 287 350 419
#     4  11  25  45  72 104 144 182 237 297 350 423
#     4  11  23  42  67 100 133 182 231 285 358 409
#     4  12  23  40  65  98 136 174 234 287 340 421
#     4  11  24  44  64 100 135 183 231 290 352 419
#
# _framework density 21.344750999999999
#
# number of rings (size 3 to 8) (size 9 to 14) (size 15 to 20)
#    0.000    1.000    3.750    4.875    0.000    2.500 
#    9.000    0.000    0.000    0.000    0.000    0.000 
#    0.000    0.000    0.000    0.000    0.000    0.000 
#
# Total GULP energy -89239.183109 kJ/mol
# GULP energy per Si atom -5577.448944 kJ/mol
# Density = 2.129617 g / cm^3
# Si number density = 21.344751 Si / 1000 Ang^3
#
#
#
# Elastic Constant Matrix: (Units=GPa)
#
#
# Indices 1 2 3 4 5 6 
#
# 1 174.3503 34.2802 51.6163 5.6838 -13.7023 -11.4862
# 2 34.2802 84.0563 27.2390 3.5836 -4.6498 8.2181
# 3 51.6163 27.2390 107.7998 -7.0889 8.2571 -9.4126
# 4 5.6838 3.5836 -7.0889 24.0936 -5.5315 -4.2062
# 5 -13.7023 -4.6498 8.2571 -5.5315 47.0515 1.6437
# 6 -11.4862 8.2181 -9.4126 -4.2062 1.6437 46.0771
#
#
#
# Elastic Compliance Matrix: (Units=1/GPa)
#
#
# Indices 1 2 3 4 5 6 
#
# 1 0.007382 -0.001893 -0.003229 -0.001660 0.002289 0.001285
# 2 -0.001893 0.014359 -0.003375 -0.003105 0.001236 -0.004050
# 3 -0.003229 -0.003375 0.012469 0.004746 -0.003005 0.002885
# 4 -0.001660 -0.003105 0.004746 0.045464 0.003542 0.005133
# 5 0.002289 0.001236 -0.003005 0.003542 0.023013 -0.000761
# 6 0.001285 -0.004050 0.002885 0.005133 -0.000761 0.023830
#
#
# Mechanical properties :
#
#
# Convention : Reuss Voigt Hill
#
# Bulk Modulus (GPa) = 58.07691 65.83081 61.95386
# Shear Modulus (GPa) = 33.50105 40.31584 36.90844
#
# Velocity S-wave (km/s) = 3.96602 4.35074 4.16283
# Velocity P-wave (km/s) = 6.94553 7.49315 7.22453
#
# Compressibility (1/GPa) = 0.01721855
#
# Stress axis : x y z
#
# Youngs Moduli (GPa) = 135.45910 69.64333 80.19697
#
# Poissons Ratio (x) = 0.13180 0.25895
# Poissons Ratio (y) = 0.25637 0.27063
# Poissons Ratio (z) = 0.43738 0.23501
#
# Static dielectric constant tensor:
#      x y z
#    x 1.761720 -0.030650 0.028500 
#    y -0.030650 1.760970 0.006970 
#    z 0.028500 0.006970 1.838760 
# 
# From -- ./inp_files/501281.got.cif
#   From: 2010.05.17/outbox.cif.g08.bks.cpg/sg2_251_cif.got.tgz:501281.got - 2010.06.03 11:33:40.
