data_PCOD9033025
_publ_section_title
;
Structure prediction by ZEFSAII (Michael W. Deem and Ramdas Pophale) SiO2 
 PCOD9033025
Probable space group: P -1
;
_chemical_formula_sum "Si O2"
_cell_formula_units_Z 12
_cell_length_a 9.584082
_cell_length_b 11.348915
_cell_length_c 9.659812
_cell_angle_alpha 111.275747
_cell_angle_beta 44.785529
_cell_angle_gamma 135.494491
_cell_volume 496.502823
_symmetry_space_group_name_H-M "P -1"
_symmetry_group_IT_number 2
_symmetry_cell_setting 'triclinic'
loop_
_space_group_symop_operation_xyz
x,y,z
-x,-y,-z
loop_
_atom_site_type_symbol
_atom_site_label
_atom_site_fract_x
_atom_site_fract_y
_atom_site_fract_z
Si Si1 0.724608 0.991658 0.310511
Si Si2 0.554422 0.707924 0.514422
Si Si3 0.827243 0.536852 0.570138
Si Si4 0.491755 0.788693 0.882266
Si Si5 0.345565 0.263919 0.971247
Si Si6 0.064692 0.798616 0.298761
O O1 0.500000 0.000000 0.500000
O O2 0.713769 0.894709 0.409075
O O3 0.658739 0.870250 0.173881
O O4 0.034742 0.177887 0.147924
O O5 0.315468 0.573073 0.517435
O O6 0.438893 0.689974 0.737794
O O7 0.783103 0.702529 0.375487
O O8 0.574817 0.449612 0.813252
O O9 0.000000 0.500000 0.500000
O O10 0.005196 0.731975 0.471127
O O11 0.748747 0.994359 0.755535
O O12 0.566500 0.736196 0.937768
O O13 0.238544 0.764597 0.092398
#
# Coordination Sequence:
#
# PCOD9033025 Si02
#       6
#     2   2   2   2   2   2
#     4  10  23  39  69 100 135 177 232 282 337 404
#     4  11  25  42  70 102 133 180 234 277 337 414
#     4  11  24  47  69  96 146 186 220 282 353 397
#     4  11  24  41  75 101 133 177 238 277 337 407
#     4  10  22  44  65 100 136 179 228 282 338 408
#     4  11  24  44  71  99 142 180 219 288 343 398
#
# _framework density 24.169046000000002
#
# number of rings (size 3 to 8) (size 9 to 14) (size 15 to 20)
#    0.000    1.333    3.333    1.000    4.667    0.667 
#    0.000    4.167    0.000    0.000    0.000    0.000 
#    0.000    0.000    0.000    0.000    0.000    0.000 
#
# Total GULP energy -67265.633923 kJ/mol
# GULP energy per Si atom -5605.469494 kJ/mol
# Density = 2.411404 g / cm^3
# Si number density = 24.169046 Si / 1000 Ang^3
#
#
#
# Elastic Constant Matrix: (Units=GPa)
#
#
# Indices 1 2 3 4 5 6 
#
# 1 191.8009 53.5781 85.4249 1.7864 3.3810 -9.2375
# 2 53.5781 74.4795 58.5455 -11.3976 5.6394 -2.6421
# 3 85.4249 58.5455 172.8429 0.8306 13.3046 -6.4366
# 4 1.7864 -11.3976 0.8306 48.5474 -5.1833 15.9756
# 5 3.3810 5.6394 13.3046 -5.1833 63.3747 2.1403
# 6 -9.2375 -2.6421 -6.4366 15.9756 2.1403 31.2315
#
#
#
# Elastic Compliance Matrix: (Units=1/GPa)
#
#
# Indices 1 2 3 4 5 6 
#
# 1 0.007415 -0.003724 -0.002322 -0.001855 0.000193 0.002335
# 2 -0.003724 0.021332 -0.005567 0.006497 0.000128 -0.003776
# 3 -0.002322 -0.005567 0.009017 -0.002167 -0.001516 0.001913
# 4 -0.001855 0.006497 -0.002167 0.027325 0.002704 -0.014608
# 5 0.000193 0.000128 -0.001516 0.002704 0.016390 -0.002751
# 6 0.002335 -0.003776 0.001913 -0.014608 -0.002751 0.040446
#
#
# Mechanical properties :
#
#
# Convention : Reuss Voigt Hill
#
# Bulk Modulus (GPa) = 68.78617 92.69113 80.73865
# Shear Modulus (GPa) = 33.33433 44.73569 39.03501
#
# Velocity S-wave (km/s) = 3.71781 4.30693 4.02317
# Velocity P-wave (km/s) = 6.85213 7.94779 7.42021
#
# Compressibility (1/GPa) = 0.01453781
#
# Stress axis : x y z
#
# Youngs Moduli (GPa) = 134.86838 46.87829 110.90087
#
# Poissons Ratio (x) = 0.17459 0.25752
# Poissons Ratio (y) = 0.50228 0.61734
# Poissons Ratio (z) = 0.31317 0.26095
#
# Static dielectric constant tensor:
#      x y z
#    x 1.842770 0.003700 -0.004870 
#    y 0.003700 2.074110 -0.003650 
#    z -0.004870 -0.003650 1.933590 
# 
# From -- ./inp_files/156400.got.cif
#   From: 2010.05.17/outbox.cif.g08.bks.cpg/sg2_79_cif.got.tgz:156400.got - 2010.06.03 11:33:40.
