data_PCOD9033968
_publ_section_title
;
Structure prediction by ZEFSAII (Michael W. Deem and Ramdas Pophale) SiO2 
 PCOD9033968
Probable space group: P -1
;
_chemical_formula_sum "Si O2"
_cell_formula_units_Z 15
_cell_length_a 14.390817
_cell_length_b 7.726266
_cell_length_c 8.761749
_cell_angle_alpha 129.387937
_cell_angle_beta 50.698202
_cell_angle_gamma 112.335935
_cell_volume 582.236592
_symmetry_space_group_name_H-M "P -1"
_symmetry_group_IT_number 2
_symmetry_cell_setting 'triclinic'
loop_
_space_group_symop_operation_xyz
x,y,z
-x,-y,-z
loop_
_atom_site_type_symbol
_atom_site_label
_atom_site_fract_x
_atom_site_fract_y
_atom_site_fract_z
Si Si1 0.557661 0.594078 0.146642
Si Si2 0.763456 0.233567 0.768185
Si Si3 0.335725 0.534132 0.512115
Si Si4 0.126625 0.544865 0.969099
Si Si5 0.154099 0.455151 0.407039
Si Si6 0.500000 0.000000 0.500000
Si Si7 0.420892 0.086728 0.275480
Si Si8 0.938749 0.766936 0.899820
O O1 0.436033 0.694966 0.424517
O O2 0.617900 0.829306 0.226175
O O3 0.500000 0.500000 0.000000
O O4 0.644826 0.400028 0.013969
O O5 0.813339 0.340971 0.624376
O O6 0.713025 0.993462 0.662958
O O7 0.859995 0.255933 0.811966
O O8 0.228319 0.603765 0.773473
O O9 0.269119 0.421292 0.375534
O O10 0.416094 0.352276 0.416166
O O11 0.000000 0.500000 0.000000
O O12 0.147626 0.320037 0.925151
O O13 0.041074 0.563844 0.674600
O O14 0.118931 0.254690 0.220489
O O15 0.543322 0.997378 0.642720
O O16 0.500000 0.000000 0.000000
O O17 0.000000 0.000000 0.000000
#
# Coordination Sequence:
#
# PCOD9033968 Si02
#       8
#     2   2   2   2   2   1   2   2
#     4  12  23  47  70 106 145 188 238 303 359 442
#     4  11  24  46  69 102 149 182 238 303 357 434
#     4  12  24  44  70 103 144 183 239 297 366 422
#     4  11  25  45  67 101 140 185 238 299 361 425
#     4  10  22  44  70  97 138 187 229 301 357 418
#     4  12  26  44  76 102 146 196 248 280 376 444
#     4  12  26  45  71 110 147 196 243 297 369 442
#     4  10  23  45  70  95 135 186 244 287 356 428
#
# _framework density 25.762723000000001
#
# number of rings (size 3 to 8) (size 9 to 14) (size 15 to 20)
#    0.000    0.800    5.333    0.800    3.733    2.133 
#    4.800    1.333    0.000    0.000    0.000    0.000 
#    0.000    0.000    0.000    0.000    0.000    0.000 
#
# Total GULP energy -83584.668888 kJ/mol
# GULP energy per Si atom -5572.311259 kJ/mol
# Density = 2.570409 g / cm^3
# Si number density = 25.762723 Si / 1000 Ang^3
#
#
#
# Elastic Constant Matrix: (Units=GPa)
#
#
# Indices 1 2 3 4 5 6 
#
# 1 140.9970 39.2301 31.9853 -5.2556 30.2461 11.3159
# 2 39.2301 98.0499 39.8674 -11.0011 22.5303 17.0643
# 3 31.9853 39.8674 103.4244 -13.0532 15.8425 10.3862
# 4 -5.2556 -11.0011 -13.0532 51.5755 4.3715 4.6423
# 5 30.2461 22.5303 15.8425 4.3715 51.6068 3.1210
# 6 11.3159 17.0643 10.3862 4.6423 3.1210 47.7731
#
#
#
# Elastic Compliance Matrix: (Units=1/GPa)
#
#
# Indices 1 2 3 4 5 6 
#
# 1 0.008850 -0.001895 -0.001225 0.000611 -0.003978 -0.000953
# 2 -0.001895 0.014313 -0.003592 0.002641 -0.004025 -0.003877
# 3 -0.001225 -0.003592 0.012095 0.002409 -0.001559 -0.001188
# 4 0.000611 0.002641 0.002409 0.021258 -0.003844 -0.003426
# 5 -0.003978 -0.004025 -0.001559 -0.003844 0.024179 0.001513
# 6 -0.000953 -0.003877 -0.001188 -0.003426 0.001513 0.023035
#
#
# Mechanical properties :
#
#
# Convention : Reuss Voigt Hill
#
# Bulk Modulus (GPa) = 45.79833 62.73744 54.26789
# Shear Modulus (GPa) = 40.18281 45.61699 42.89990
#
# Velocity S-wave (km/s) = 3.95362 4.21248 4.08510
# Velocity P-wave (km/s) = 6.21748 6.93289 6.58491
#
# Compressibility (1/GPa) = 0.02183486
#
# Stress axis : x y z
#
# Youngs Moduli (GPa) = 112.99686 69.86440 82.68172
#
# Poissons Ratio (x) = 0.13236 0.10125
# Poissons Ratio (y) = 0.21408 0.29702
# Poissons Ratio (z) = 0.13837 0.25098
#
# Static dielectric constant tensor:
#      x y z
#    x 2.019240 -0.049450 -0.040110 
#    y -0.049450 2.920300 -0.043090 
#    z -0.040110 -0.043090 2.229250 
# 
# From -- ./inp_files/296612.got.cif
#   From: 2010.05.17/outbox.cif.g08.bks.cpg/sg2_149_cif.got.tgz:296612.got - 2010.06.03 11:33:40.
