data_PCOD9033431
_publ_section_title
;
Structure prediction by ZEFSAII (Michael W. Deem and Ramdas Pophale) SiO2 
 PCOD9033431
Probable space group: P -1
;
_chemical_formula_sum "Si O2"
_cell_formula_units_Z 12
_cell_length_a 13.334479
_cell_length_b 5.124825
_cell_length_c 16.494163
_cell_angle_alpha 103.336283
_cell_angle_beta 27.489060
_cell_angle_gamma 110.007426
_cell_volume 481.929026
_symmetry_space_group_name_H-M "P -1"
_symmetry_group_IT_number 2
_symmetry_cell_setting 'triclinic'
loop_
_space_group_symop_operation_xyz
x,y,z
-x,-y,-z
loop_
_atom_site_type_symbol
_atom_site_label
_atom_site_fract_x
_atom_site_fract_y
_atom_site_fract_z
Si Si1 0.360668 0.626900 0.933846
Si Si2 0.740359 0.850275 0.906492
Si Si3 0.484510 0.183260 0.602163
Si Si4 0.267744 0.637107 0.814751
Si Si5 0.266895 0.855629 0.273544
Si Si6 0.884611 0.366589 0.455849
O O1 0.265389 0.324537 0.019600
O O2 0.359547 0.631947 0.839172
O O3 0.209232 0.820845 0.087101
O O4 0.619193 0.807998 0.786688
O O5 0.467847 0.765297 0.076463
O O6 0.921765 0.781410 0.713800
O O7 0.379429 0.430220 0.672580
O O8 0.716394 0.314063 0.496528
O O9 0.500000 0.000000 0.500000
O O10 0.328922 0.949157 0.758029
O O11 0.000000 0.500000 0.000000
O O12 0.243193 0.760139 0.377902
O O13 0.971586 0.308401 0.607042
#
# Coordination Sequence:
#
# PCOD9033431 Si02
#       6
#     2   2   2   2   2   2
#     4  10  22  44  68 100 141 175 244 276 347 426
#     4  10  23  42  68 102 140 187 230 283 349 423
#     4  12  28  47  70 110 139 179 243 292 354 419
#     4  12  26  48  75  99 139 192 232 293 358 420
#     4   9  22  45  68 104 139 191 227 283 355 423
#     4  11  22  45  72 102 145 182 231 299 344 416
#
# _framework density 24.899933999999998
#
# number of rings (size 3 to 8) (size 9 to 14) (size 15 to 20)
#    1.000    0.333    1.667    3.500    4.667    2.000 
#    6.000    2.500    0.000    0.000    0.000    0.000 
#    0.000    0.000    0.000    0.000    0.000    0.000 
#
# Total GULP energy -67159.401759 kJ/mol
# GULP energy per Si atom -5596.616813 kJ/mol
# Density = 2.484326 g / cm^3
# Si number density = 24.899934 Si / 1000 Ang^3
#
#
#
# Elastic Constant Matrix: (Units=GPa)
#
#
# Indices 1 2 3 4 5 6 
#
# 1 94.0276 15.1935 29.8626 -10.8180 2.5305 25.2909
# 2 15.1935 49.2196 16.1245 4.3610 -6.8474 -6.9425
# 3 29.8626 16.1245 139.1739 13.6990 -2.9637 9.8849
# 4 -10.8180 4.3610 13.6990 41.2411 -1.4017 4.3841
# 5 2.5305 -6.8474 -2.9637 -1.4017 43.8135 -12.9564
# 6 25.2909 -6.9425 9.8849 4.3841 -12.9564 43.5989
#
#
#
# Elastic Compliance Matrix: (Units=1/GPa)
#
#
# Indices 1 2 3 4 5 6 
#
# 1 0.017372 -0.007849 -0.002744 0.007502 -0.006100 -0.013272
# 2 -0.007849 0.026508 -0.001545 -0.005357 0.007869 0.012002
# 3 -0.002744 -0.001545 0.008291 -0.003288 0.000343 -0.000102
# 4 0.007502 -0.005357 -0.003288 0.028647 -0.003012 -0.008235
# 5 -0.006100 0.007869 0.000343 -0.003012 0.028304 0.013428
# 6 -0.013272 0.012002 -0.000102 -0.008235 0.013428 0.037388
#
#
# Mechanical properties :
#
#
# Convention : Reuss Voigt Hill
#
# Bulk Modulus (GPa) = 35.84665 44.97578 40.41122
# Shear Modulus (GPa) = 27.76477 40.48007 34.12242
#
# Velocity S-wave (km/s) = 3.34286 4.03638 3.70588
# Velocity P-wave (km/s) = 5.41546 6.31071 5.88014
#
# Compressibility (1/GPa) = 0.02789661
#
# Stress axis : x y z
#
# Youngs Moduli (GPa) = 57.56384 37.72394 120.61129
#
# Poissons Ratio (x) = 0.29610 0.33093
# Poissons Ratio (y) = 0.45182 0.18629
# Poissons Ratio (z) = 0.15794 0.05827
#
# Static dielectric constant tensor:
#      x y z
#    x 1.992460 -0.001450 -0.009770 
#    y -0.001450 1.983450 0.059730 
#    z -0.009770 0.059730 2.003900 
# 
# From -- ./inp_files/613359.got.cif
#   From: 2010.05.17/outbox.cif.g08.bks.cpg/sg2_307_cif.got.tgz:613359.got - 2010.06.03 11:33:40.
