data_PCOD9033768
_publ_section_title
;
Structure prediction by ZEFSAII (Michael W. Deem and Ramdas Pophale) SiO2 
 PCOD9033768
Probable space group: P -1
;
_chemical_formula_sum "Si O2"
_cell_formula_units_Z 14
_cell_length_a 7.250172
_cell_length_b 18.987840
_cell_length_c 10.828521
_cell_angle_alpha 35.088993
_cell_angle_beta 63.585493
_cell_angle_gamma 88.049990
_cell_volume 589.090934
_symmetry_space_group_name_H-M "P -1"
_symmetry_group_IT_number 2
_symmetry_cell_setting 'triclinic'
loop_
_space_group_symop_operation_xyz
x,y,z
-x,-y,-z
loop_
_atom_site_type_symbol
_atom_site_label
_atom_site_fract_x
_atom_site_fract_y
_atom_site_fract_z
Si Si1 0.182252 0.369199 0.809440
Si Si2 0.666834 0.668362 0.829918
Si Si3 0.053142 0.903878 0.540287
Si Si4 0.007020 0.198901 0.845529
Si Si5 0.543523 0.352851 0.345431
Si Si6 0.503920 0.941411 0.221713
Si Si7 0.077334 0.490802 0.351775
O O1 0.500000 0.500000 0.500000
O O2 0.067575 0.458550 0.751930
O O3 0.014401 0.245269 0.921195
O O4 0.117522 0.260381 0.098973
O O5 0.904155 0.850591 0.531346
O O6 0.606339 0.670575 0.703312
O O7 0.721773 0.545178 0.019806
O O8 0.394356 0.604481 0.073265
O O9 0.346511 0.970393 0.323068
O O10 0.000000 0.000000 0.500000
O O11 0.975805 0.315750 0.613141
O O12 0.309962 0.267898 0.639036
O O13 0.788411 0.033853 0.076627
O O14 0.634936 0.246622 0.470088
O O15 0.500000 0.000000 0.000000
O O16 0.000000 0.500000 0.500000
#
# Coordination Sequence:
#
# PCOD9033768 Si02
#       7
#     2   2   2   2   2   2   2
#     4  11  24  42  71 101 138 186 230 289 351 424
#     4  10  22  44  69  98 133 184 237 300 341 415
#     4  12  29  42  66 109 146 182 235 294 355 419
#     4  10  23  40  70  98 135 185 226 289 348 419
#     4  10  22  44  72  94 133 186 246 286 347 419
#     4  12  28  44  68 103 146 193 232 288 357 425
#     4   9  19  38  65  94 129 176 230 276 346 413
#
# _framework density 23.765431
#
# number of rings (size 3 to 8) (size 9 to 14) (size 15 to 20)
#    0.000    1.429    0.000    4.714   10.000    2.286 
#    0.000    0.000    0.000    0.000    0.000    0.000 
#    0.000    0.000    0.000    0.000    0.000    0.000 
#
# Total GULP energy -78075.822512 kJ/mol
# GULP energy per Si atom -5576.844465 kJ/mol
# Density = 2.371134 g / cm^3
# Si number density = 23.765431 Si / 1000 Ang^3
#
#
#
# Elastic Constant Matrix: (Units=GPa)
#
#
# Indices 1 2 3 4 5 6 
#
# 1 72.1998 26.4191 18.9817 -20.5236 10.5246 -8.2990
# 2 26.4191 104.1934 8.4448 -11.5895 4.2388 -6.4656
# 3 18.9817 8.4448 45.4997 0.2666 -1.0680 -6.9294
# 4 -20.5236 -11.5895 0.2666 33.2519 -0.9903 -0.6083
# 5 10.5246 4.2388 -1.0680 -0.9903 33.8205 -4.3874
# 6 -8.2990 -6.4656 -6.9294 -0.6083 -4.3874 53.1226
#
#
#
# Elastic Compliance Matrix: (Units=1/GPa)
#
#
# Indices 1 2 3 4 5 6 
#
# 1 0.021778 -0.003126 -0.008484 0.012268 -0.006093 0.001552
# 2 -0.003126 0.010694 -0.000585 0.001809 -0.000237 0.000738
# 3 -0.008484 -0.000585 0.026086 -0.005499 0.003667 0.002246
# 4 0.012268 0.001809 -0.005499 0.038263 -0.002887 0.001619
# 5 -0.006093 -0.000237 0.003667 -0.002887 0.031796 0.002091
# 6 0.001552 0.000738 0.002246 0.001619 0.002091 0.019641
#
#
# Mechanical properties :
#
#
# Convention : Reuss Voigt Hill
#
# Bulk Modulus (GPa) = 29.26501 36.62046 32.94273
# Shear Modulus (GPa) = 27.16827 35.24216 31.20521
#
# Velocity S-wave (km/s) = 3.38477 3.85504 3.62754
# Velocity P-wave (km/s) = 5.25513 5.93782 5.60688
#
# Compressibility (1/GPa) = 0.03417050
#
# Stress axis : x y z
#
# Youngs Moduli (GPa) = 45.91689 93.50880 38.33416
#
# Poissons Ratio (x) = 0.29229 0.32522
# Poissons Ratio (y) = 0.14353 0.02241
# Poissons Ratio (z) = 0.38955 0.05467
#
# Static dielectric constant tensor:
#      x y z
#    x 2.023210 -0.133200 -0.078490 
#    y -0.133200 1.843380 -0.072300 
#    z -0.078490 -0.072300 1.982490 
# 
# From -- ./inp_files/401780.got.cif
#   From: 2010.05.17/outbox.cif.g08.bks.cpg/sg2_201_cif.got.tgz:401780.got - 2010.06.03 11:33:40.
