data_PCOD9033684
_publ_section_title
;
Structure prediction by ZEFSAII (Michael W. Deem and Ramdas Pophale) SiO2 
 PCOD9033684
Probable space group: P -1
;
_chemical_formula_sum "Si O2"
_cell_formula_units_Z 13
_cell_length_a 5.797036
_cell_length_b 14.525800
_cell_length_c 9.018889
_cell_angle_alpha 134.103093
_cell_angle_beta 63.545066
_cell_angle_gamma 114.104909
_cell_volume 482.496865
_symmetry_space_group_name_H-M "P -1"
_symmetry_group_IT_number 2
_symmetry_cell_setting 'triclinic'
loop_
_space_group_symop_operation_xyz
x,y,z
-x,-y,-z
loop_
_atom_site_type_symbol
_atom_site_label
_atom_site_fract_x
_atom_site_fract_y
_atom_site_fract_z
Si Si1 0.199546 0.274884 0.621187
Si Si2 0.343509 0.731134 0.088697
Si Si3 0.644233 0.505463 0.762820
Si Si4 0.726181 0.962612 0.221144
Si Si5 0.985220 0.793735 0.721515
Si Si6 0.000000 0.000000 0.500000
Si Si7 0.195915 0.605503 0.687722
O O1 0.435972 0.382305 0.726379
O O2 0.924959 0.310240 0.796931
O O3 0.184916 0.264783 0.435367
O O4 0.185883 0.132249 0.531833
O O5 0.434935 0.886403 0.255411
O O6 0.547619 0.640073 0.979286
O O7 0.315106 0.698043 0.886844
O O8 0.659875 0.487226 0.559258
O O9 0.943432 0.520269 0.741121
O O10 0.907253 0.958474 0.307168
O O11 0.775458 0.108724 0.311192
O O12 0.823328 0.877788 0.966122
O O13 0.096126 0.696528 0.691918
#
# Coordination Sequence:
#
# PCOD9033684 Si02
#       7
#     2   2   2   2   2   1   2
#     4  11  26  43  72 102 147 180 234 284 351 410
#     4  12  25  45  70 105 143 185 225 295 340 421
#     4  11  26  45  69 104 143 184 233 286 341 424
#     4  10  22  44  75  97 145 173 238 288 342 413
#     4  10  22  44  69 106 131 187 229 284 344 409
#     4  10  24  48  70 106 134 188 230 290 350 408
#     4  11  25  44  74 101 140 187 234 282 350 402
#
# _framework density 26.943180999999999
#
# number of rings (size 3 to 8) (size 9 to 14) (size 15 to 20)
#    0.000    1.231    1.538    2.769    4.308    6.154 
#    0.000    0.000    0.000    0.000    0.000    0.000 
#    0.000    0.000    0.000    0.000    0.000    0.000 
#
# Total GULP energy -72637.389170 kJ/mol
# GULP energy per Si atom -5587.491475 kJ/mol
# Density = 2.688186 g / cm^3
# Si number density = 26.943181 Si / 1000 Ang^3
#
#
#
# Elastic Constant Matrix: (Units=GPa)
#
#
# Indices 1 2 3 4 5 6 
#
# 1 31.9310 56.3244 19.5235 -10.4839 21.7893 8.2341
# 2 56.3244 193.5430 21.4657 4.7596 22.6016 24.7085
# 3 19.5235 21.4657 102.3132 -17.0695 8.9065 -10.2618
# 4 -10.4839 4.7596 -17.0695 54.2101 0.3113 7.7223
# 5 21.7893 22.6016 8.9065 0.3113 48.4360 -9.0539
# 6 8.2341 24.7085 -10.2618 7.7223 -9.0539 62.1141
#
#
#
# Elastic Compliance Matrix: (Units=1/GPa)
#
#
# Indices 1 2 3 4 5 6 
#
# 1 0.156998 -0.035723 -0.014361 0.032298 -0.055464 -0.021074
# 2 -0.035723 0.014220 0.001871 -0.007871 0.009468 0.001747
# 3 -0.014361 0.001871 0.012201 0.000347 0.004037 0.003720
# 4 0.032298 -0.007871 0.000347 0.026442 -0.012243 -0.006165
# 5 -0.055464 0.009468 0.004037 -0.012243 0.042759 0.012008
# 6 -0.021074 0.001747 0.003720 -0.006165 0.012008 0.021330
#
#
# Mechanical properties :
#
#
# Convention : Reuss Voigt Hill
#
# Bulk Modulus (GPa) = 11.49505 58.04604 34.77054
# Shear Modulus (GPa) = 12.51956 48.31694 30.41825
#
# Velocity S-wave (km/s) = 2.15795 4.23932 3.36367
# Velocity P-wave (km/s) = 3.23800 6.74930 5.29329
#
# Compressibility (1/GPa) = 0.08699397
#
# Stress axis : x y z
#
# Youngs Moduli (GPa) = 6.36949 70.32161 81.95817
#
# Poissons Ratio (x) = 2.51213 1.17697
# Poissons Ratio (y) = 0.22754 -0.15335
# Poissons Ratio (z) = 0.09147 -0.13158
#
# Static dielectric constant tensor:
#      x y z
#    x 2.266140 0.094690 -0.161690 
#    y 0.094690 2.032640 0.011810 
#    z -0.161690 0.011810 2.092310 
# 
# From -- ./inp_files/135903.got.cif
#   From: 2010.05.17/outbox.cif.g08.bks.cpg/sg2_68_cif.got.tgz:135903.got - 2010.06.03 11:33:40.
