data_PCOD9033247
_publ_section_title
;
Structure prediction by ZEFSAII (Michael W. Deem and Ramdas Pophale) SiO2 
 PCOD9033247
Probable space group: P -1
;
_chemical_formula_sum "Si O2"
_cell_formula_units_Z 16
_cell_length_a 20.664232
_cell_length_b 7.542858
_cell_length_c 16.855542
_cell_angle_alpha 142.747650
_cell_angle_beta 26.801634
_cell_angle_gamma 128.270192
_cell_volume 675.966845
_symmetry_space_group_name_H-M "P -1"
_symmetry_group_IT_number 2
_symmetry_cell_setting 'triclinic'
loop_
_space_group_symop_operation_xyz
x,y,z
-x,-y,-z
loop_
_atom_site_type_symbol
_atom_site_label
_atom_site_fract_x
_atom_site_fract_y
_atom_site_fract_z
Si Si1 0.855160 0.092590 0.505857
Si Si2 0.848390 0.840500 0.244104
Si Si3 0.430321 0.596960 0.276586
Si Si4 0.355549 0.187097 0.785395
Si Si5 0.325944 0.283669 0.133743
Si Si6 0.874379 0.122794 0.750753
Si Si7 0.186932 0.705615 0.824255
Si Si8 0.609443 0.817791 0.694585
O O1 0.787797 0.464447 0.708410
O O2 0.857523 0.964404 0.368135
O O3 0.726240 0.989470 0.653789
O O4 0.018722 0.950115 0.314585
O O5 0.811574 0.521577 0.183204
O O6 0.720207 0.108951 0.435377
O O7 0.014627 0.794975 0.013172
O O8 0.566284 0.722014 0.190703
O O9 0.396118 0.474900 0.186160
O O10 0.455751 0.308464 0.204649
O O11 0.500000 0.000000 0.500000
O O12 0.253189 0.985059 0.855420
O O13 0.237472 0.517704 0.000579
O O14 0.227229 0.099917 0.217590
O O15 0.481655 0.018840 0.845026
O O16 0.000000 0.000000 0.500000
O O17 0.294495 0.483508 0.564051
#
# Coordination Sequence:
#
# PCOD9033247 Si02
#       8
#     2   2   2   2   2   2   2   2
#     4  10  24  42  69  98 136 178 228 286 347 408
#     4   9  23  44  67 102 134 183 228 279 354 409
#     4  11  23  41  70  98 136 181 231 285 341 416
#     4  12  26  45  69 106 140 182 232 288 348 402
#     4  11  23  45  67  97 139 179 231 282 347 415
#     4  12  27  45  71 103 137 181 232 288 345 408
#     4  10  22  44  66  99 142 177 232 281 345 415
#     4  11  21  41  67 101 134 179 228 285 342 412
#
# _framework density 23.669799999999999
#
# number of rings (size 3 to 8) (size 9 to 14) (size 15 to 20)
#    0.000    1.250    2.500    1.875    7.000    4.000 
#    0.000    0.000    0.000    0.000    0.000    0.000 
#    0.000    0.000    0.000    0.000    0.000    0.000 
#
# Total GULP energy -89382.350108 kJ/mol
# GULP energy per Si atom -5586.396882 kJ/mol
# Density = 2.361593 g / cm^3
# Si number density = 23.669800 Si / 1000 Ang^3
#
#
#
# Elastic Constant Matrix: (Units=GPa)
#
#
# Indices 1 2 3 4 5 6 
#
# 1 74.9359 37.1010 53.8968 6.2890 -27.9993 2.5094
# 2 37.1010 186.0115 63.7596 5.5469 -18.2084 7.9390
# 3 53.8968 63.7596 153.7507 18.0051 -34.3283 -2.0203
# 4 6.2890 5.5469 18.0051 31.6843 -6.3077 -14.6469
# 5 -27.9993 -18.2084 -34.3283 -6.3077 47.9624 -0.1649
# 6 2.5094 7.9390 -2.0203 -14.6469 -0.1649 17.8197
#
#
#
# Elastic Compliance Matrix: (Units=1/GPa)
#
#
# Indices 1 2 3 4 5 6 
#
# 1 0.020720 -0.001526 -0.004757 -0.001314 0.007926 -0.003784
# 2 -0.001526 0.006626 -0.002095 -0.001718 -0.000116 -0.004388
# 3 -0.004757 -0.002095 0.010234 -0.004154 0.003204 -0.000621
# 4 -0.001314 -0.001718 -0.004154 0.057046 0.003273 0.047399
# 5 0.007926 -0.000116 0.003204 0.003273 0.028164 0.002250
# 6 -0.003784 -0.004388 -0.000621 0.047399 0.002250 0.097515
#
#
# Mechanical properties :
#
#
# Convention : Reuss Voigt Hill
#
# Bulk Modulus (GPa) = 48.02066 80.46812 64.24439
# Shear Modulus (GPa) = 20.49163 36.82266 28.65714
#
# Velocity S-wave (km/s) = 2.94552 3.94849 3.48329
# Velocity P-wave (km/s) = 5.64800 7.40658 6.58625
#
# Compressibility (1/GPa) = 0.02082437
#
# Stress axis : x y z
#
# Youngs Moduli (GPa) = 48.26283 150.92932 97.71313
#
# Poissons Ratio (x) = 0.23026 0.46480
# Poissons Ratio (y) = 0.07363 0.20472
# Poissons Ratio (z) = 0.22958 0.31622
#
# Static dielectric constant tensor:
#      x y z
#    x 1.961970 -0.013320 0.020830 
#    y -0.013320 1.918330 -0.001090 
#    z 0.020830 -0.001090 1.978550 
# 
# From -- ./inp_files/601957.got.cif
#   From: 2010.05.17/outbox.cif.g08.bks.cpg/sg2_301_cif.got.tgz:601957.got - 2010.06.03 11:33:40.
