data_PCOD9033210
_publ_section_title
;
Structure prediction by ZEFSAII (Michael W. Deem and Ramdas Pophale) SiO2 
 PCOD9033210
Probable space group: P -1
;
_chemical_formula_sum "Si O2"
_cell_formula_units_Z 14
_cell_length_a 7.019160
_cell_length_b 5.942339
_cell_length_c 21.881262
_cell_angle_alpha 114.857652
_cell_angle_beta 38.811934
_cell_angle_gamma 110.749123
_cell_volume 518.462795
_symmetry_space_group_name_H-M "P -1"
_symmetry_group_IT_number 2
_symmetry_cell_setting 'triclinic'
loop_
_space_group_symop_operation_xyz
x,y,z
-x,-y,-z
loop_
_atom_site_type_symbol
_atom_site_label
_atom_site_fract_x
_atom_site_fract_y
_atom_site_fract_z
Si Si1 0.746765 0.281493 0.184727
Si Si2 0.392164 0.239612 0.963043
Si Si3 0.932024 0.938066 0.827307
Si Si4 0.252625 0.361892 0.882391
Si Si5 0.240740 0.284203 0.549904
Si Si6 0.769155 0.534164 0.619388
Si Si7 0.655369 0.895706 0.362056
O O1 0.624969 0.447481 0.177570
O O2 0.409687 0.215236 0.292861
O O3 0.895558 0.858736 0.147556
O O4 0.037651 0.185377 0.060767
O O5 0.447325 0.262983 0.878878
O O6 0.591143 0.019980 0.914112
O O7 0.500000 0.500000 0.000000
O O8 0.970594 0.311018 0.192840
O O9 0.089405 0.968805 0.726426
O O10 0.000000 0.500000 0.000000
O O11 0.500000 0.500000 0.500000
O O12 0.238595 0.165997 0.603773
O O13 0.947308 0.413781 0.615947
O O14 0.359087 0.060642 0.454336
O O15 0.468104 0.361167 0.663924
O O16 0.000000 0.500000 0.500000
#
# Coordination Sequence:
#
# PCOD9033210 Si02
#       7
#     2   2   2   2   2   2   2
#     4  11  25  44  67 103 137 181 233 285 347 417
#     4  11  22  46  71  98 140 184 227 290 347 410
#     4  12  24  44  71 101 141 183 234 284 350 422
#     4  10  22  44  66  96 138 175 234 278 345 402
#     4  11  25  46  71 102 141 182 242 294 353 426
#     4  12  23  46  73  97 143 187 231 295 354 416
#     4  11  25  45  71 105 139 184 239 291 358 421
#
# _framework density 27.002901999999999
#
# number of rings (size 3 to 8) (size 9 to 14) (size 15 to 20)
#    0.000    0.857    5.714    1.714    2.000    2.286 
#    5.143    0.000    0.000    0.000    0.000    0.000 
#    0.000    0.000    0.000    0.000    0.000    0.000 
#
# Total GULP energy -78048.534155 kJ/mol
# GULP energy per Si atom -5574.895297 kJ/mol
# Density = 2.694144 g / cm^3
# Si number density = 27.002902 Si / 1000 Ang^3
#
#
#
# Elastic Constant Matrix: (Units=GPa)
#
#
# Indices 1 2 3 4 5 6 
#
# 1 120.8325 45.8392 77.0328 16.3696 -24.7273 -53.3099
# 2 45.8392 77.1518 51.5999 -5.4747 -8.1426 -33.0235
# 3 77.0328 51.5999 189.5469 -12.4160 -23.8646 -50.3375
# 4 16.3696 -5.4747 -12.4160 57.7643 -18.7894 6.7055
# 5 -24.7273 -8.1426 -23.8646 -18.7894 50.5685 16.1347
# 6 -53.3099 -33.0235 -50.3375 6.7055 16.1347 61.7686
#
#
#
# Elastic Compliance Matrix: (Units=1/GPa)
#
#
# Indices 1 2 3 4 5 6 
#
# 1 0.018291 -0.003984 -0.003835 -0.007703 0.000004 0.011367
# 2 -0.003984 0.018958 -0.002246 0.001558 -0.000955 0.004947
# 3 -0.003835 -0.002246 0.008312 0.003340 0.002531 0.001240
# 4 -0.007703 0.001558 0.003340 0.024523 0.009828 -0.008323
# 5 0.000004 -0.000955 0.002531 0.009828 0.026524 -0.006440
# 6 0.011367 0.004947 0.001240 -0.008323 -0.006440 0.032241
#
#
# Mechanical properties :
#
#
# Convention : Reuss Voigt Hill
#
# Bulk Modulus (GPa) = 39.32014 81.83055 60.57534
# Shear Modulus (GPa) = 31.75482 48.22422 39.98952
#
# Velocity S-wave (km/s) = 3.43297 4.23056 3.85247
# Velocity P-wave (km/s) = 5.50516 7.36435 6.50156
#
# Compressibility (1/GPa) = 0.02543226
#
# Stress axis : x y z
#
# Youngs Moduli (GPa) = 54.67123 52.74810 120.30238
#
# Poissons Ratio (x) = 0.21014 0.46131
# Poissons Ratio (y) = 0.21780 0.27023
# Poissons Ratio (z) = 0.20964 0.11849
#
# Static dielectric constant tensor:
#      x y z
#    x 2.098550 0.012040 0.066730 
#    y 0.012040 1.829080 -0.324620 
#    z 0.066730 -0.324620 1.864940 
# 
# From -- ./inp_files/585302.got.cif
#   From: 2010.05.17/outbox.cif.g08.bks.cpg/sg2_293_cif.got.tgz:585302.got - 2010.06.03 11:33:40.
