data_PCOD9033099
_publ_section_title
;
Structure prediction by ZEFSAII (Michael W. Deem and Ramdas Pophale) SiO2 
 PCOD9033099
Probable space group: P -1
;
_chemical_formula_sum "Si O2"
_cell_formula_units_Z 14
_cell_length_a 15.702760
_cell_length_b 7.628174
_cell_length_c 11.001496
_cell_angle_alpha 91.502199
_cell_angle_beta 51.540826
_cell_angle_gamma 51.320819
_cell_volume 591.584932
_symmetry_space_group_name_H-M "P -1"
_symmetry_group_IT_number 2
_symmetry_cell_setting 'triclinic'
loop_
_space_group_symop_operation_xyz
x,y,z
-x,-y,-z
loop_
_atom_site_type_symbol
_atom_site_label
_atom_site_fract_x
_atom_site_fract_y
_atom_site_fract_z
Si Si1 0.299852 0.892522 0.058062
Si Si2 0.701930 0.590711 0.101444
Si Si3 0.915479 0.358079 0.277558
Si Si4 0.400486 0.818785 0.231381
Si Si5 0.258417 0.702044 0.726652
Si Si6 0.497302 0.175699 0.330910
Si Si7 0.109908 0.205448 0.721444
O O1 0.297087 0.974608 0.197320
O O2 0.466106 0.528629 0.901444
O O3 0.367662 0.937951 0.896959
O O4 0.092984 0.099512 0.203895
O O5 0.554554 0.763313 0.126246
O O6 0.704600 0.406744 0.171689
O O7 0.607025 0.861702 0.279040
O O8 0.908779 0.379379 0.876454
O O9 0.896058 0.234414 0.189597
O O10 0.710851 0.606601 0.528056
O O11 0.919494 0.549696 0.224660
O O12 0.251236 0.002110 0.477458
O O13 0.441877 0.401343 0.478393
O O14 0.195230 0.978866 0.751645
#
# Coordination Sequence:
#
# PCOD9033099 Si02
#       7
#     2   2   2   2   2   2   2
#     4  11  23  46  70  90 134 175 216 279 326 380
#     4  12  24  44  64 100 135 171 216 272 327 390
#     4  10  23  44  66  99 132 170 220 266 326 391
#     4  11  25  43  68  99 125 177 227 260 333 395
#     4  10  24  45  66  97 140 167 218 274 320 394
#     4  10  22  44  65  98 133 171 217 272 326 384
#     4  12  23  43  66 102 132 172 221 264 334 386
#
# _framework density 23.665241000000002
#
# number of rings (size 3 to 8) (size 9 to 14) (size 15 to 20)
#    0.857    0.286    4.286    1.714    0.000    3.429 
#    5.143    3.571    0.000    0.000    0.000    0.000 
#    0.000    0.000    0.000    0.000    0.000    0.000 
#
# Total GULP energy -78289.040840 kJ/mol
# GULP energy per Si atom -5592.074346 kJ/mol
# Density = 2.361138 g / cm^3
# Si number density = 23.665241 Si / 1000 Ang^3
#
#
#
# Elastic Constant Matrix: (Units=GPa)
#
#
# Indices 1 2 3 4 5 6 
#
# 1 98.2054 36.4044 35.4179 5.2846 -15.2860 -26.0705
# 2 36.4044 60.3023 21.3016 22.4994 5.8419 -3.1779
# 3 35.4179 21.3016 135.5282 13.4745 -29.7475 -20.0933
# 4 5.2846 22.4994 13.4745 30.3867 3.1477 -1.7727
# 5 -15.2860 5.8419 -29.7475 3.1477 39.5430 18.2079
# 6 -26.0705 -3.1779 -20.0933 -1.7727 18.2079 43.8039
#
#
#
# Elastic Compliance Matrix: (Units=1/GPa)
#
#
# Indices 1 2 3 4 5 6 
#
# 1 0.017620 -0.012709 -0.001387 0.007049 0.003514 0.007753
# 2 -0.012709 0.033445 -0.002178 -0.020950 -0.008173 -0.003588
# 3 -0.001387 -0.002178 0.010123 -0.003386 0.007480 0.000414
# 4 0.007049 -0.020950 -0.003386 0.049207 -0.002569 0.004182
# 5 0.003514 -0.008173 0.007480 -0.002569 0.038912 -0.011349
# 6 0.007753 -0.003588 0.000414 0.004182 -0.011349 0.032259
#
#
# Mechanical properties :
#
#
# Convention : Reuss Voigt Hill
#
# Bulk Modulus (GPa) = 34.91808 53.36484 44.14146
# Shear Modulus (GPa) = 22.35517 36.14085 29.24801
#
# Velocity S-wave (km/s) = 3.07684 3.91214 3.51936
# Velocity P-wave (km/s) = 5.23542 6.55784 5.93359
#
# Compressibility (1/GPa) = 0.02863846
#
# Stress axis : x y z
#
# Youngs Moduli (GPa) = 56.75293 29.90025 98.78341
#
# Poissons Ratio (x) = 0.38001 0.13703
# Poissons Ratio (y) = 0.72130 0.21517
# Poissons Ratio (z) = 0.07873 0.06513
#
# Static dielectric constant tensor:
#      x y z
#    x 1.961320 0.061510 -0.000680 
#    y 0.061510 1.911330 0.037030 
#    z -0.000680 0.037030 1.901150 
# 
# From -- ./inp_files/462105.got.cif
#   From: 2010.05.17/outbox.cif.g08.bks.cpg/sg2_232_cif.got.tgz:462105.got - 2010.06.03 11:33:40.
