data_PCOD9033595
_publ_section_title
;
Structure prediction by ZEFSAII (Michael W. Deem and Ramdas Pophale) SiO2 
 PCOD9033595
Probable space group: P -1
;
_chemical_formula_sum "Si O2"
_cell_formula_units_Z 16
_cell_length_a 9.371375
_cell_length_b 11.470599
_cell_length_c 18.779920
_cell_angle_alpha 37.467459
_cell_angle_beta 129.995824
_cell_angle_gamma 101.160708
_cell_volume 690.392918
_symmetry_space_group_name_H-M "P -1"
_symmetry_group_IT_number 2
_symmetry_cell_setting 'triclinic'
loop_
_space_group_symop_operation_xyz
x,y,z
-x,-y,-z
loop_
_atom_site_type_symbol
_atom_site_label
_atom_site_fract_x
_atom_site_fract_y
_atom_site_fract_z
Si Si1 0.847146 0.463074 0.918801
Si Si2 0.889874 0.090981 0.704102
Si Si3 0.419627 0.349350 0.519363
Si Si4 0.047590 0.530001 0.419480
Si Si5 0.471186 0.748951 0.880322
Si Si6 0.008785 0.516109 0.197707
Si Si7 0.093926 0.759642 0.513084
Si Si8 0.667100 0.090952 0.401059
O O1 0.944145 0.401842 0.899417
O O2 0.561784 0.736188 0.700863
O O3 0.000000 0.500000 0.000000
O O4 0.889048 0.220197 0.079926
O O5 0.792140 0.238830 0.524922
O O6 0.657803 0.142447 0.644431
O O7 0.985590 0.216719 0.714482
O O8 0.500000 0.500000 0.500000
O O9 0.328519 0.305843 0.583206
O O10 0.162701 0.514997 0.309981
O O11 0.876789 0.487940 0.346565
O O12 0.000000 0.500000 0.500000
O O13 0.446439 0.845251 0.744969
O O14 0.203853 0.984965 0.715814
O O15 0.500000 0.500000 0.000000
O O16 0.713286 0.673017 0.032610
O O17 0.149400 0.214031 0.379524
O O18 0.185491 0.814227 0.583708
#
# Coordination Sequence:
#
# PCOD9033595 Si02
#       8
#     2   2   2   2   2   2   2   2
#     4  12  23  41  67 102 142 181 236 288 343 417
#     4  10  22  44  68  98 138 181 238 290 337 412
#     4  10  22  44  73  95 135 182 232 284 340 413
#     4   9  21  41  72  98 129 180 225 285 352 403
#     4  12  25  41  64 105 145 178 235 286 346 424
#     4  12  25  42  70 104 139 190 226 285 363 407
#     4  11  22  41  70  98 141 188 229 287 353 409
#     4  12  24  42  66  99 142 184 229 290 348 417
#
# _framework density 23.175208999999999
#
# number of rings (size 3 to 8) (size 9 to 14) (size 15 to 20)
#    0.000    1.000    2.500    4.500    3.500    0.000 
#    0.000    3.125   13.750    0.000    0.000    0.000 
#    0.000    0.000    0.000    0.000    0.000    0.000 
#
# Total GULP energy -89350.046913 kJ/mol
# GULP energy per Si atom -5584.377932 kJ/mol
# Density = 2.312246 g / cm^3
# Si number density = 23.175209 Si / 1000 Ang^3
#
#
#
# Elastic Constant Matrix: (Units=GPa)
#
#
# Indices 1 2 3 4 5 6 
#
# 1 126.1582 22.4574 20.4327 5.4543 2.6178 -4.9717
# 2 22.4574 136.5270 35.7619 17.9497 2.9975 30.1239
# 3 20.4327 35.7619 80.8868 13.9610 13.9632 13.0094
# 4 5.4543 17.9497 13.9610 33.6215 9.0337 1.0627
# 5 2.6178 2.9975 13.9632 9.0337 39.4744 -3.7355
# 6 -4.9717 30.1239 13.0094 1.0627 -3.7355 44.0162
#
#
#
# Elastic Compliance Matrix: (Units=1/GPa)
#
#
# Indices 1 2 3 4 5 6 
#
# 1 0.008611 -0.001476 -0.002035 0.000018 0.000506 0.002627
# 2 -0.001476 0.010114 -0.002493 -0.004079 0.000558 -0.006206
# 3 -0.002035 -0.002493 0.016010 -0.003568 -0.004862 -0.003582
# 4 0.000018 -0.004079 -0.003568 0.034987 -0.006202 0.002477
# 5 0.000506 0.000558 -0.004862 -0.006202 0.028746 0.003702
# 6 0.002627 -0.006206 -0.003582 0.002477 0.003702 0.028576
#
#
# Mechanical properties :
#
#
# Convention : Reuss Voigt Hill
#
# Bulk Modulus (GPa) = 44.00195 55.65291 49.82743
# Shear Modulus (GPa) = 34.09965 41.08373 37.59169
#
# Velocity S-wave (km/s) = 3.84002 4.21497 4.03186
# Velocity P-wave (km/s) = 6.22004 6.91043 6.57430
#
# Compressibility (1/GPa) = 0.02272627
#
# Stress axis : x y z
#
# Youngs Moduli (GPa) = 116.12635 98.87670 62.45937
#
# Poissons Ratio (x) = 0.14598 0.12713
# Poissons Ratio (y) = 0.17145 0.15570
# Poissons Ratio (z) = 0.23636 0.24647
#
# Static dielectric constant tensor:
#      x y z
#    x 1.945970 -0.000040 -0.001310 
#    y -0.000040 1.946520 -0.032690 
#    z -0.001310 -0.032690 1.908540 
# 
# From -- ./inp_files/559695.got.cif
#   From: 2010.05.17/outbox.cif.g08.bks.cpg/sg2_280_cif.got.tgz:559695.got - 2010.06.03 11:33:40.
