data_PCOD9033320
_publ_section_title
;
Structure prediction by ZEFSAII (Michael W. Deem and Ramdas Pophale) SiO2 
 PCOD9033320
Probable space group: P -1
;
_chemical_formula_sum "Si O2"
_cell_formula_units_Z 14
_cell_length_a 6.916977
_cell_length_b 11.542683
_cell_length_c 10.849245
_cell_angle_alpha 122.795507
_cell_angle_beta 80.613881
_cell_angle_gamma 134.249695
_cell_volume 487.235924
_symmetry_space_group_name_H-M "P -1"
_symmetry_group_IT_number 2
_symmetry_cell_setting 'triclinic'
loop_
_space_group_symop_operation_xyz
x,y,z
-x,-y,-z
loop_
_atom_site_type_symbol
_atom_site_label
_atom_site_fract_x
_atom_site_fract_y
_atom_site_fract_z
Si Si1 0.315462 0.131833 0.656011
Si Si2 0.876226 0.311598 0.826557
Si Si3 0.873922 0.273526 0.332824
Si Si4 0.445596 0.509776 0.796071
Si Si5 0.703448 0.894960 0.028045
Si Si6 0.248386 0.572003 0.690174
Si Si7 0.739971 0.949743 0.668935
O O1 0.570071 0.187604 0.730853
O O2 0.402911 0.335368 0.739779
O O3 0.003169 0.979298 0.668228
O O4 0.287722 0.051987 0.477468
O O5 0.852803 0.158578 0.817068
O O6 0.117489 0.410880 0.752086
O O7 0.000000 0.500000 0.000000
O O8 0.004192 0.426700 0.295393
O O9 0.050409 0.376502 0.497270
O O10 0.760036 0.067723 0.187430
O O11 0.584931 0.234832 0.349173
O O12 0.519700 0.586948 0.694277
O O13 0.593029 0.690410 0.980666
O O14 0.455959 0.781927 0.886887
O O15 0.000000 0.000000 0.000000
#
# Coordination Sequence:
#
# PCOD9033320 Si02
#       7
#     2   2   2   2   2   2   2
#     4  10  22  44  67  93 138 168 218 278 326 387
#     4  11  22  41  65  95 133 169 220 273 329 396
#     4  11  21  44  70  94 136 176 222 274 326 402
#     4   9  22  42  62  97 132 176 213 276 337 382
#     4  10  23  43  62  98 133 172 223 273 327 391
#     4   9  23  42  66  98 130 179 218 270 339 381
#     4  10  23  40  66 102 122 178 222 264 331 393
#
# _framework density 28.733512999999999
#
# number of rings (size 3 to 8) (size 9 to 14) (size 15 to 20)
#    0.857    1.143    0.000    2.571    0.000    8.571 
#   10.286    0.000    0.000    0.000    0.000    0.000 
#    0.000    0.000    0.000    0.000    0.000    0.000 
#
# Total GULP energy -77966.461727 kJ/mol
# GULP energy per Si atom -5569.032980 kJ/mol
# Density = 2.866811 g / cm^3
# Si number density = 28.733513 Si / 1000 Ang^3
#
#
#
# Elastic Constant Matrix: (Units=GPa)
#
#
# Indices 1 2 3 4 5 6 
#
# 1 124.8383 47.2170 54.0820 4.2954 8.0225 5.8591
# 2 47.2170 125.0864 47.4563 12.4731 -19.1083 19.7155
# 3 54.0820 47.4563 217.2865 31.8349 -9.6059 -7.0095
# 4 4.2954 12.4731 31.8349 42.7990 -10.2360 -3.7193
# 5 8.0225 -19.1083 -9.6059 -10.2360 57.1763 6.3023
# 6 5.8591 19.7155 -7.0095 -3.7193 6.3023 67.7539
#
#
#
# Elastic Compliance Matrix: (Units=1/GPa)
#
#
# Indices 1 2 3 4 5 6 
#
# 1 0.010457 -0.003762 -0.002030 0.000880 -0.002941 0.000302
# 2 -0.003762 0.011219 -0.001258 -0.001252 0.004231 -0.003532
# 3 -0.002030 -0.001258 0.005968 -0.003766 0.000089 0.000944
# 4 0.000880 -0.001252 -0.003766 0.027399 0.003613 0.001067
# 5 -0.002941 0.004231 0.000089 0.003613 0.020271 -0.002655
# 6 0.000302 -0.003532 0.000944 0.001067 -0.002655 0.016164
#
#
# Mechanical properties :
#
#
# Convention : Reuss Voigt Hill
#
# Bulk Modulus (GPa) = 73.82444 84.96908 79.39676
# Shear Modulus (GPa) = 45.41568 54.77624 50.09596
#
# Velocity S-wave (km/s) = 3.97997 4.37092 4.18002
# Velocity P-wave (km/s) = 6.84608 7.42353 7.14064
#
# Compressibility (1/GPa) = 0.01354565
#
# Stress axis : x y z
#
# Youngs Moduli (GPa) = 95.62682 89.13143 167.55033
#
# Poissons Ratio (x) = 0.33529 0.34020
# Poissons Ratio (y) = 0.35972 0.21070
# Poissons Ratio (z) = 0.19416 0.11209
#
# Static dielectric constant tensor:
#      x y z
#    x 2.522980 -0.082730 -0.068330 
#    y -0.082730 2.615270 -0.073000 
#    z -0.068330 -0.073000 2.192790 
# 
# From -- ./inp_files/483980.got.cif
#   From: 2010.05.17/outbox.cif.g08.bks.cpg/sg2_242_cif.got.tgz:483980.got - 2010.06.03 11:33:40.
