data_PCOD9033363
_publ_section_title
;
Structure prediction by ZEFSAII (Michael W. Deem and Ramdas Pophale) SiO2 
 PCOD9033363
Probable space group: P -1
;
_chemical_formula_sum "Si O2"
_cell_formula_units_Z 14
_cell_length_a 5.620799
_cell_length_b 7.300363
_cell_length_c 21.918490
_cell_angle_alpha 136.277645
_cell_angle_beta 105.816228
_cell_angle_gamma 61.210492
_cell_volume 540.548835
_symmetry_space_group_name_H-M "P -1"
_symmetry_group_IT_number 2
_symmetry_cell_setting 'triclinic'
loop_
_space_group_symop_operation_xyz
x,y,z
-x,-y,-z
loop_
_atom_site_type_symbol
_atom_site_label
_atom_site_fract_x
_atom_site_fract_y
_atom_site_fract_z
Si Si1 0.171959 0.476578 0.925597
Si Si2 0.251473 0.304411 0.576618
Si Si3 0.097577 0.030020 0.893965
Si Si4 0.640327 0.633705 0.260041
Si Si5 0.391186 0.469381 0.418728
Si Si6 0.666477 0.940817 0.782065
Si Si7 0.846519 0.452845 0.785675
O O1 0.208608 0.257630 0.932967
O O2 0.914841 0.544428 0.878743
O O3 0.437509 0.267697 0.856475
O O4 0.118936 0.789517 0.025536
O O5 0.278983 0.354222 0.661549
O O6 0.363876 0.510493 0.599394
O O7 0.944263 0.328253 0.551190
O O8 0.500000 0.000000 0.500000
O O9 0.287080 0.695637 0.842275
O O10 0.942713 0.981393 0.813297
O O11 0.317208 0.742778 0.266949
O O12 0.856017 0.725796 0.265340
O O13 0.500000 0.500000 0.500000
O O14 0.370026 0.200650 0.316551
O O15 0.701067 0.716001 0.787983
#
# Coordination Sequence:
#
# PCOD9033363 Si02
#       7
#     2   2   2   2   2   2   2
#     4  11  24  40  69 107 129 191 229 286 332 426
#     4  12  24  46  73 101 139 179 237 289 354 416
#     4  10  22  44  67  96 145 175 237 277 351 401
#     4  11  22  46  67  96 138 188 211 297 340 407
#     4  12  26  47  72 103 140 187 229 292 357 415
#     4  11  23  46  68  94 149 177 229 287 349 404
#     4  11  24  42  71  95 140 177 234 269 351 398
#
# _framework density 25.899605000000001
#
# number of rings (size 3 to 8) (size 9 to 14) (size 15 to 20)
#    0.000    0.857    5.714    1.286    2.000    5.143 
#    0.000    0.000    0.000    0.000    0.000    0.000 
#    0.000    0.000    0.000    0.000    0.000    0.000 
#
# Total GULP energy -77950.459552 kJ/mol
# GULP energy per Si atom -5567.889968 kJ/mol
# Density = 2.584066 g / cm^3
# Si number density = 25.899605 Si / 1000 Ang^3
#
#
#
# Elastic Constant Matrix: (Units=GPa)
#
#
# Indices 1 2 3 4 5 6 
#
# 1 148.4744 38.7093 23.6025 -11.8335 -1.9221 -19.5876
# 2 38.7093 98.3749 34.4888 -3.2356 3.6054 -12.5698
# 3 23.6025 34.4888 148.6771 -13.9610 -5.1029 -19.7158
# 4 -11.8335 -3.2356 -13.9610 39.7163 -20.6376 5.5831
# 5 -1.9221 3.6054 -5.1029 -20.6376 41.7363 -0.7376
# 6 -19.5876 -12.5698 -19.7158 5.5831 -0.7376 46.3389
#
#
#
# Elastic Compliance Matrix: (Units=1/GPa)
#
#
# Indices 1 2 3 4 5 6 
#
# 1 0.008044 -0.002866 0.000046 0.002959 0.002128 0.002320
# 2 -0.002866 0.012372 -0.002548 -0.002284 -0.002619 0.001294
# 3 0.000046 -0.002548 0.008108 0.004009 0.003237 0.002347
# 4 0.002959 -0.002284 0.004009 0.037628 0.019396 -0.001888
# 5 0.002128 -0.002619 0.003237 0.019396 0.034267 -0.000225
# 6 0.002320 0.001294 0.002347 -0.001888 -0.000225 0.024134
#
#
# Mechanical properties :
#
#
# Convention : Reuss Voigt Hill
#
# Bulk Modulus (GPa) = 56.20994 65.45860 60.83427
# Shear Modulus (GPa) = 35.40600 45.47334 40.43967
#
# Velocity S-wave (km/s) = 3.70137 4.19472 3.95574
# Velocity P-wave (km/s) = 6.32590 6.98496 6.66358
#
# Compressibility (1/GPa) = 0.01779045
#
# Stress axis : x y z
#
# Youngs Moduli (GPa) = 124.30925 80.82557 123.32877
#
# Poissons Ratio (x) = 0.23163 -0.00571
# Poissons Ratio (y) = 0.35625 0.31422
# Poissons Ratio (z) = -0.00576 0.20593
#
# Static dielectric constant tensor:
#      x y z
#    x 1.901010 -0.041880 -0.138430 
#    y -0.041880 2.280600 -0.011730 
#    z -0.138430 -0.011730 2.011360 
# 
# From -- ./inp_files/322727.got.cif
#   From: 2010.05.17/outbox.cif.g08.bks.cpg/sg2_162_cif.got.tgz:322727.got - 2010.06.03 11:33:40.
