data_PCOD9033415
_publ_section_title
;
Structure prediction by ZEFSAII (Michael W. Deem and Ramdas Pophale) SiO2 
 PCOD9033415
Probable space group: P -1
;
_chemical_formula_sum "Si O2"
_cell_formula_units_Z 16
_cell_length_a 12.347095
_cell_length_b 7.564091
_cell_length_c 8.997713
_cell_angle_alpha 68.534092
_cell_angle_beta 73.177477
_cell_angle_gamma 49.431636
_cell_volume 592.494262
_symmetry_space_group_name_H-M "P -1"
_symmetry_group_IT_number 2
_symmetry_cell_setting 'triclinic'
loop_
_space_group_symop_operation_xyz
x,y,z
-x,-y,-z
loop_
_atom_site_type_symbol
_atom_site_label
_atom_site_fract_x
_atom_site_fract_y
_atom_site_fract_z
Si Si1 0.902660 0.812128 0.544642
Si Si2 0.647178 0.242914 0.621072
Si Si3 0.187009 0.509461 0.377247
Si Si4 0.937155 0.370014 0.993494
Si Si5 0.701025 0.238771 0.902778
Si Si6 0.848534 0.060760 0.186561
Si Si7 0.394397 0.305660 0.602813
Si Si8 0.333940 0.166029 0.967700
O O1 0.876985 0.614552 0.630475
O O2 0.666428 0.689827 0.533592
O O3 0.069844 0.677682 0.500128
O O4 0.832280 0.957563 0.373368
O O5 0.587509 0.362472 0.771005
O O6 0.812470 0.014433 0.640475
O O7 0.562325 0.151720 0.617515
O O8 0.641422 0.432147 0.460774
O O9 0.207939 0.672813 0.216927
O O10 0.957741 0.822757 0.114926
O O11 0.916567 0.197960 0.152070
O O12 0.772223 0.602425 0.960716
O O13 0.000000 0.500000 0.000000
O O14 0.712972 0.240815 0.076726
O O15 0.720978 0.991735 0.960630
O O16 0.325979 0.256104 0.776399
O O17 0.500000 0.000000 0.000000
#
# Coordination Sequence:
#
# PCOD9033415 Si02
#       8
#     2   2   2   2   2   2   2   2
#     4  11  24  45  70 107 141 189 243 300 364 441
#     4  10  23  43  74  97 141 189 238 293 364 438
#     4  10  24  41  66  98 145 183 232 305 357 432
#     4  11  24  42  75 108 147 188 238 310 369 425
#     4  11  23  44  70 105 148 186 243 305 362 441
#     4  11  24  46  76 114 143 188 252 305 366 437
#     4  10  22  44  67  99 140 188 241 291 361 438
#     4  12  24  43  72 109 141 194 247 301 363 441
#
# _framework density 27.004481999999999
#
# number of rings (size 3 to 8) (size 9 to 14) (size 15 to 20)
#    0.000    1.250    2.500    3.000    0.000    6.500 
#    0.000    0.625    0.000    0.000    0.000    0.000 
#    0.000    0.000    0.000    0.000    0.000    0.000 
#
# Total GULP energy -89253.848326 kJ/mol
# GULP energy per Si atom -5578.365520 kJ/mol
# Density = 2.694302 g / cm^3
# Si number density = 27.004482 Si / 1000 Ang^3
#
#
#
# Elastic Constant Matrix: (Units=GPa)
#
#
# Indices 1 2 3 4 5 6 
#
# 1 128.2300 59.0726 37.1448 -7.3387 -4.9436 21.8203
# 2 59.0726 126.0650 29.7843 -2.1406 -26.9344 14.7848
# 3 37.1448 29.7843 186.7217 -33.9166 -24.4536 15.3189
# 4 -7.3387 -2.1406 -33.9166 30.7098 5.0209 -7.5562
# 5 -4.9436 -26.9344 -24.4536 5.0209 55.2259 -22.8075
# 6 21.8203 14.7848 15.3189 -7.5562 -22.8075 44.0132
#
#
#
# Elastic Compliance Matrix: (Units=1/GPa)
#
#
# Indices 1 2 3 4 5 6 
#
# 1 0.011521 -0.005343 -0.001580 -0.000026 -0.004662 -0.005787
# 2 -0.005343 0.011554 -0.000427 -0.001481 0.005788 0.001662
# 3 -0.001580 -0.000427 0.007374 0.007556 0.002655 0.001034
# 4 -0.000026 -0.001481 0.007556 0.042010 0.001152 0.005690
# 5 -0.004662 0.005788 0.002655 0.001152 0.027272 0.013773
# 6 -0.005787 0.001662 0.001034 0.005690 0.013773 0.032785
#
#
# Mechanical properties :
#
#
# Convention : Reuss Voigt Hill
#
# Bulk Modulus (GPa) = 63.50282 77.00223 70.25253
# Shear Modulus (GPa) = 32.79404 46.99079 39.89242
#
# Velocity S-wave (km/s) = 3.48859 4.17599 3.84767
# Velocity P-wave (km/s) = 6.30823 7.19919 6.76839
#
# Compressibility (1/GPa) = 0.01574733
#
# Stress axis : x y z
#
# Youngs Moduli (GPa) = 86.79606 86.55166 135.62051
#
# Poissons Ratio (x) = 0.46246 0.21430
# Poissons Ratio (y) = 0.46377 0.05795
# Poissons Ratio (z) = 0.13715 0.03698
#
# Static dielectric constant tensor:
#      x y z
#    x 2.211020 -0.086010 0.107220 
#    y -0.086010 2.128340 0.051680 
#    z 0.107220 0.051680 2.170610 
# 
# From -- ./inp_files/242514.got.cif
#   From: 2010.05.17/outbox.cif.g08.bks.cpg/sg2_122_cif.got.tgz:242514.got - 2010.06.03 11:33:40.
