data_PCOD9033029
_publ_section_title
;
Structure prediction by ZEFSAII (Michael W. Deem and Ramdas Pophale) SiO2 
 PCOD9033029
Probable space group: P -1
;
_chemical_formula_sum "Si O2"
_cell_formula_units_Z 12
_cell_length_a 12.552271
_cell_length_b 9.350016
_cell_length_c 12.026363
_cell_angle_alpha 141.284255
_cell_angle_beta 39.000412
_cell_angle_gamma 121.598237
_cell_volume 543.260804
_symmetry_space_group_name_H-M "P -1"
_symmetry_group_IT_number 2
_symmetry_cell_setting 'triclinic'
loop_
_space_group_symop_operation_xyz
x,y,z
-x,-y,-z
loop_
_atom_site_type_symbol
_atom_site_label
_atom_site_fract_x
_atom_site_fract_y
_atom_site_fract_z
Si Si1 0.163955 0.018235 0.804266
Si Si2 0.599572 0.749684 0.634459
Si Si3 0.077323 0.698748 0.495631
Si Si4 0.227986 0.507798 0.028005
Si Si5 0.775510 0.051942 0.831922
Si Si6 0.540793 0.298643 0.511139
O O1 0.146965 0.282121 0.938685
O O2 0.175266 0.833957 0.584117
O O3 0.332889 0.934820 0.692961
O O4 0.000000 0.000000 0.000000
O O5 0.641914 0.486566 0.489928
O O6 0.589250 0.743854 0.506599
O O7 0.721577 0.903350 0.683047
O O8 0.402206 0.856103 0.899847
O O9 0.000000 0.500000 0.500000
O O10 0.193614 0.587891 0.230729
O O11 0.916968 0.888108 0.691710
O O12 0.428550 0.423859 0.780500
O O13 0.159707 0.727316 0.136683
#
# Coordination Sequence:
#
# PCOD9033029 Si02
#       6
#     2   2   2   2   2   2
#     4  12  25  44  67  97 135 174 215 272 333 387
#     4   9  20  40  73  90 132 178 211 274 326 381
#     4  12  25  44  67  97 135 174 215 272 333 387
#     4  11  26  44  65 102 128 178 221 268 328 379
#     4  10  22  44  65 101 130 170 227 263 325 394
#     4  10  22  44  65 101 130 170 227 263 325 394
#
# _framework density 22.088837999999999
#
# number of rings (size 3 to 8) (size 9 to 14) (size 15 to 20)
#    0.000    1.333    1.667    3.000    2.333    1.333 
#    0.000    0.000    0.000    0.000    0.000    0.000 
#    0.000    0.000    0.000    0.000    0.000    0.000 
#
# Total GULP energy -67159.076594 kJ/mol
# GULP energy per Si atom -5596.589716 kJ/mol
# Density = 2.203856 g / cm^3
# Si number density = 22.088838 Si / 1000 Ang^3
#
#
#
# Elastic Constant Matrix: (Units=GPa)
#
#
# Indices 1 2 3 4 5 6 
#
# 1 61.6660 43.7432 13.1975 11.5391 5.0976 -13.7443
# 2 43.7432 147.2506 27.3191 28.4887 -4.9544 -16.5693
# 3 13.1975 27.3191 53.5689 -3.2274 8.8977 -19.4135
# 4 11.5391 28.4887 -3.2274 40.4239 -1.9958 8.7887
# 5 5.0976 -4.9544 8.8977 -1.9958 35.5895 5.9142
# 6 -13.7443 -16.5693 -19.4135 8.7887 5.9142 25.8019
#
#
#
# Elastic Compliance Matrix: (Units=1/GPa)
#
#
# Indices 1 2 3 4 5 6 
#
# 1 0.024923 -0.004958 0.003614 -0.007513 -0.008462 0.017311
# 2 -0.004958 0.010809 -0.003910 -0.007113 0.002251 0.003265
# 3 0.003614 -0.003910 0.031776 -0.002339 -0.013666 0.027253
# 4 -0.007513 -0.007113 -0.002339 0.037406 0.006864 -0.024645
# 5 -0.008462 0.002251 -0.013666 0.006864 0.037458 -0.024268
# 6 0.017311 0.003265 0.027253 -0.024645 -0.024268 0.084537
#
#
# Mechanical properties :
#
#
# Convention : Reuss Voigt Hill
#
# Bulk Modulus (GPa) = 17.54323 47.88946 32.71634
# Shear Modulus (GPa) = 19.49957 32.24477 25.87217
#
# Velocity S-wave (km/s) = 2.97438 3.82485 3.42611
# Velocity P-wave (km/s) = 4.44469 6.42132 5.52217
#
# Compressibility (1/GPa) = 0.05700206
#
# Stress axis : x y z
#
# Youngs Moduli (GPa) = 40.12321 92.51869 31.46988
#
# Poissons Ratio (x) = 0.45867 -0.11374
# Poissons Ratio (y) = 0.19892 0.12304
# Poissons Ratio (z) = -0.14502 0.36173
#
# Static dielectric constant tensor:
#      x y z
#    x 1.763080 -0.002660 0.027150 
#    y -0.002660 1.815010 0.002640 
#    z 0.027150 0.002640 1.810350 
# 
# From -- ./inp_files/173846.got.cif
#   From: 2010.05.17/outbox.cif.g08.bks.cpg/sg2_87_cif.got.tgz:173846.got - 2010.06.03 11:33:40.
