data_PCOD9033508
_publ_section_title
;
Structure prediction by ZEFSAII (Michael W. Deem and Ramdas Pophale) SiO2 
 PCOD9033508
Probable space group: P -1
;
_chemical_formula_sum "Si O2"
_cell_formula_units_Z 16
_cell_length_a 14.724289
_cell_length_b 11.741644
_cell_length_c 9.585814
_cell_angle_alpha 97.316064
_cell_angle_beta 46.189149
_cell_angle_gamma 131.664692
_cell_volume 702.768998
_symmetry_space_group_name_H-M "P -1"
_symmetry_group_IT_number 2
_symmetry_cell_setting 'triclinic'
loop_
_space_group_symop_operation_xyz
x,y,z
-x,-y,-z
loop_
_atom_site_type_symbol
_atom_site_label
_atom_site_fract_x
_atom_site_fract_y
_atom_site_fract_z
Si Si1 0.375747 0.080732 0.616395
Si Si2 0.831476 0.433720 0.269847
Si Si3 0.902533 0.448630 0.744921
Si Si4 0.981045 0.781695 0.159717
Si Si5 0.748189 0.577007 0.933723
Si Si6 0.984130 0.126680 0.541771
Si Si7 0.432621 0.147955 0.237899
Si Si8 0.705459 0.713059 0.251931
O O1 0.602795 0.210646 0.455284
O O2 0.376570 0.078065 0.446932
O O3 0.342716 0.190608 0.704274
O O4 0.184928 0.885753 0.874864
O O5 0.943459 0.504770 0.309687
O O6 0.813629 0.556135 0.281435
O O7 0.000000 0.500000 0.000000
O O8 0.903851 0.584723 0.805024
O O9 0.000000 0.500000 0.500000
O O10 0.649219 0.236115 0.986002
O O11 0.021035 0.836996 0.287098
O O12 0.888275 0.825100 0.188829
O O13 0.817188 0.673020 0.723782
O O14 0.521465 0.345055 0.154711
O O15 0.766052 0.691625 0.042660
O O16 0.770842 0.011332 0.669633
O O17 0.000000 0.000000 0.500000
O O18 0.500000 0.500000 0.500000
#
# Coordination Sequence:
#
# PCOD9033508 Si02
#       8
#     2   2   2   2   2   2   2   2
#     4  12  24  43  73 101 137 176 228 286 340 402
#     4  12  24  47  69 100 133 176 238 285 333 394
#     4  10  22  44  68  90 134 180 225 273 324 409
#     4  12  27  41  68 109 134 174 232 280 345 403
#     4  10  23  45  69  94 132 181 221 273 342 397
#     4  12  26  43  66 104 144 173 219 279 336 419
#     4  10  23  44  65  95 133 182 222 263 344 393
#     4  12  20  44  72  98 136 178 218 285 345 403
#
# _framework density 22.767083
#
# number of rings (size 3 to 8) (size 9 to 14) (size 15 to 20)
#    0.750    0.000    3.750    4.125    1.750    1.000 
#    2.250    1.250    0.000    0.000    0.000    0.000 
#    0.000    0.000    0.000    0.000    0.000    0.000 
#
# Total GULP energy -89445.716314 kJ/mol
# GULP energy per Si atom -5590.357270 kJ/mol
# Density = 2.271526 g / cm^3
# Si number density = 22.767083 Si / 1000 Ang^3
#
#
#
# Elastic Constant Matrix: (Units=GPa)
#
#
# Indices 1 2 3 4 5 6 
#
# 1 74.6031 10.1383 39.7001 6.3690 -4.1487 22.0830
# 2 10.1383 56.4973 36.1138 4.8858 3.8538 19.0974
# 3 39.7001 36.1138 154.0317 10.7139 14.2152 39.4019
# 4 6.3690 4.8858 10.7139 39.7308 2.1283 -0.7768
# 5 -4.1487 3.8538 14.2152 2.1283 43.9176 2.8160
# 6 22.0830 19.0974 39.4019 -0.7768 2.8160 48.0301
#
#
#
# Elastic Compliance Matrix: (Units=1/GPa)
#
#
# Indices 1 2 3 4 5 6 
#
# 1 0.017089 0.000966 -0.003283 -0.002250 0.003071 -0.005764
# 2 0.000966 0.022188 -0.003697 -0.002000 -0.000161 -0.006257
# 3 -0.003283 -0.003697 0.009842 -0.001621 -0.002775 -0.004958
# 4 -0.002250 -0.002000 -0.001621 0.026339 -0.001022 0.003646
# 5 0.003071 -0.000161 -0.002775 -0.001022 0.024054 -0.000498
# 6 -0.005764 -0.006257 -0.004958 0.003646 -0.000498 0.030114
#
#
# Mechanical properties :
#
#
# Convention : Reuss Voigt Hill
#
# Bulk Modulus (GPa) = 26.96042 50.78183 38.87113
# Shear Modulus (GPa) = 32.46328 39.61438 36.03883
#
# Velocity S-wave (km/s) = 3.78019 4.17584 3.98293
# Velocity P-wave (km/s) = 5.56063 6.75304 6.18564
#
# Compressibility (1/GPa) = 0.03709141
#
# Stress axis : x y z
#
# Youngs Moduli (GPa) = 58.51584 45.06839 101.60114
#
# Poissons Ratio (x) = -0.04352 0.33361
# Poissons Ratio (y) = -0.05651 0.37558
# Poissons Ratio (z) = 0.19214 0.16660
#
# Static dielectric constant tensor:
#      x y z
#    x 1.800630 -0.028830 -0.028750 
#    y -0.028830 1.852660 -0.052750 
#    z -0.028750 -0.052750 1.848750 
# 
# From -- ./inp_files/313273.got.cif
#   From: 2010.05.17/outbox.cif.g08.bks.cpg/sg2_157_cif.got.tgz:313273.got - 2010.06.03 11:33:40.
