data_PCOD9033644
_publ_section_title
;
Structure prediction by ZEFSAII (Michael W. Deem and Ramdas Pophale) SiO2 
 PCOD9033644
Probable space group: P -1
;
_chemical_formula_sum "Si O2"
_cell_formula_units_Z 14
_cell_length_a 10.835455
_cell_length_b 17.095728
_cell_length_c 8.751108
_cell_angle_alpha 30.963345
_cell_angle_beta 137.723690
_cell_angle_gamma 128.140420
_cell_volume 560.380527
_symmetry_space_group_name_H-M "P -1"
_symmetry_group_IT_number 2
_symmetry_cell_setting 'triclinic'
loop_
_space_group_symop_operation_xyz
x,y,z
-x,-y,-z
loop_
_atom_site_type_symbol
_atom_site_label
_atom_site_fract_x
_atom_site_fract_y
_atom_site_fract_z
Si Si1 0.706027 0.404173 0.023387
Si Si2 0.884198 0.101126 0.595451
Si Si3 0.557718 0.834028 0.269863
Si Si4 0.380462 0.541473 0.672199
Si Si5 0.961456 0.634099 0.395505
Si Si6 0.788070 0.708221 0.429170
Si Si7 0.884115 0.889907 0.681092
O O1 0.734875 0.225403 0.314412
O O2 0.852391 0.427274 0.253674
O O3 0.500196 0.450907 0.803459
O O4 0.766548 0.530744 0.746030
O O5 0.032367 0.212830 0.471366
O O6 0.802673 0.998201 0.561469
O O7 0.000000 0.000000 0.000000
O O8 0.402681 0.717448 0.359781
O O9 0.624370 0.802293 0.210059
O O10 0.736594 0.802265 0.594579
O O11 0.500000 0.000000 0.000000
O O12 0.175637 0.488774 0.582914
O O13 0.500000 0.500000 0.000000
O O14 0.838266 0.712656 0.289336
O O15 0.000771 0.763752 0.093566
O O16 0.000000 0.000000 0.500000
#
# Coordination Sequence:
#
# PCOD9033644 Si02
#       7
#     2   2   2   2   2   2   2
#     4  10  24  43  72 104 135 185 230 284 347 411
#     4  11  20  39  69 100 134 180 231 281 336 411
#     4  11  26  44  64 103 144 178 226 297 347 402
#     4  11  25  46  67 102 145 176 238 286 342 423
#     4  11  23  46  74 100 136 189 234 281 352 416
#     4  10  22  44  69 101 140 178 237 279 342 431
#     4  12  24  42  69 101 139 180 230 282 357 410
#
# _framework density 24.983022999999999
#
# number of rings (size 3 to 8) (size 9 to 14) (size 15 to 20)
#    0.000    1.143    5.714    1.714    0.000    8.571 
#    0.000    1.429    0.000    0.000    0.000    0.000 
#    0.000    0.000    0.000    0.000    0.000    0.000 
#
# Total GULP energy -78257.608054 kJ/mol
# GULP energy per Si atom -5589.829147 kJ/mol
# Density = 2.492616 g / cm^3
# Si number density = 24.983023 Si / 1000 Ang^3
#
#
#
# Elastic Constant Matrix: (Units=GPa)
#
#
# Indices 1 2 3 4 5 6 
#
# 1 89.8558 29.3413 51.6871 -15.0878 -3.2666 -6.8459
# 2 29.3413 118.0054 31.9873 -5.3883 9.4474 -0.2032
# 3 51.6871 31.9873 120.4791 -22.3228 -5.2596 -6.3883
# 4 -15.0878 -5.3883 -22.3228 52.7321 -9.6610 11.9264
# 5 -3.2666 9.4474 -5.2596 -9.6610 35.6847 -6.1385
# 6 -6.8459 -0.2032 -6.3883 11.9264 -6.1385 57.5527
#
#
#
# Elastic Compliance Matrix: (Units=1/GPa)
#
#
# Indices 1 2 3 4 5 6 
#
# 1 0.015594 -0.002444 -0.005530 0.002001 0.001978 0.001029
# 2 -0.002444 0.009840 -0.001938 -0.001011 -0.003497 -0.000634
# 3 -0.005530 -0.001938 0.012022 0.003786 0.002836 0.000188
# 4 0.002001 -0.001011 0.003786 0.023026 0.006657 -0.003407
# 5 0.001978 -0.003497 0.002836 0.006657 0.031789 0.002549
# 6 0.001029 -0.000634 0.000188 -0.003407 0.002549 0.018494
#
#
# Mechanical properties :
#
#
# Convention : Reuss Voigt Hill
#
# Bulk Modulus (GPa) = 56.70891 61.59688 59.15289
# Shear Modulus (GPa) = 36.63947 43.54886 40.09416
#
# Velocity S-wave (km/s) = 3.83374 4.17962 4.01041
# Velocity P-wave (km/s) = 6.50731 6.92830 6.72110
#
# Compressibility (1/GPa) = 0.01763391
#
# Stress axis : x y z
#
# Youngs Moduli (GPa) = 64.12772 101.62827 83.17925
#
# Poissons Ratio (x) = 0.24835 0.45994
# Poissons Ratio (y) = 0.15671 0.16118
# Poissons Ratio (z) = 0.35459 0.19693
#
# Static dielectric constant tensor:
#      x y z
#    x 2.034050 -0.099100 0.027630 
#    y -0.099100 2.050080 0.013630 
#    z 0.027630 0.013630 1.993610 
# 
# From -- ./inp_files/278722.got.cif
#   From: 2010.05.17/outbox.cif.g08.bks.cpg/sg2_140_cif.got.tgz:278722.got - 2010.06.03 11:33:40.
