data_PCOD9033498
_publ_section_title
;
Structure prediction by ZEFSAII (Michael W. Deem and Ramdas Pophale) SiO2 
 PCOD9033498
Probable space group: P -1
;
_chemical_formula_sum "Si O2"
_cell_formula_units_Z 16
_cell_length_a 14.566272
_cell_length_b 9.999991
_cell_length_c 14.811157
_cell_angle_alpha 106.920932
_cell_angle_beta 28.338960
_cell_angle_gamma 125.931041
_cell_volume 671.639431
_symmetry_space_group_name_H-M "P -1"
_symmetry_group_IT_number 2
_symmetry_cell_setting 'triclinic'
loop_
_space_group_symop_operation_xyz
x,y,z
-x,-y,-z
loop_
_atom_site_type_symbol
_atom_site_label
_atom_site_fract_x
_atom_site_fract_y
_atom_site_fract_z
Si Si1 0.686738 0.058333 0.969138
Si Si2 0.130634 0.186344 0.488010
Si Si3 0.411542 0.688377 0.589819
Si Si4 0.327084 0.398041 0.998612
Si Si5 0.710935 0.394188 0.777363
Si Si6 0.060145 0.734727 0.844640
Si Si7 0.553916 0.252933 0.230448
Si Si8 0.046248 0.219001 0.863166
O O1 0.917223 0.183716 0.715323
O O2 0.828034 0.076950 0.943889
O O3 0.566465 0.141932 0.122204
O O4 0.447387 0.827863 0.097581
O O5 0.397979 0.395288 0.249727
O O6 0.256831 0.172424 0.462142
O O7 0.000000 0.000000 0.500000
O O8 0.416339 0.773752 0.697353
O O9 0.190354 0.443282 0.748955
O O10 0.703265 0.761393 0.338497
O O11 0.313705 0.755684 0.617004
O O12 0.471529 0.345127 0.914205
O O13 0.228203 0.462121 0.168845
O O14 0.065587 0.243392 0.125600
O O15 0.000000 0.500000 0.500000
O O16 0.801559 0.492554 0.043634
O O17 0.087346 0.836819 0.932803
#
# Coordination Sequence:
#
# PCOD9033498 Si02
#       8
#     2   2   2   2   2   2   2   2
#     4  12  22  39  67  98 126 164 216 261 316 376
#     4  11  23  39  63  99 128 156 210 279 317 362
#     4  10  17  32  55  92 136 167 191 246 329 378
#     4  10  25  46  63  91 129 170 211 262 323 378
#     4  11  27  48  67  83 125 182 216 255 321 387
#     4  10  19  36  60  93 132 160 203 259 317 374
#     4  10  20  32  57  94 132 163 199 253 317 379
#     4  10  19  32  60  97 131 168 199 251 323 383
#
# _framework density 23.822303999999999
#
# number of rings (size 3 to 8) (size 9 to 14) (size 15 to 20)
#    0.000    1.500    5.000    0.750    3.500    3.500 
#    0.000    0.625    0.000    1.500    0.000    0.000 
#    0.000    0.000    0.000    0.000    0.000    0.000 
#
# Total GULP energy -89398.863548 kJ/mol
# GULP energy per Si atom -5587.428972 kJ/mol
# Density = 2.376808 g / cm^3
# Si number density = 23.822304 Si / 1000 Ang^3
#
#
#
# Elastic Constant Matrix: (Units=GPa)
#
#
# Indices 1 2 3 4 5 6 
#
# 1 84.9231 14.5102 24.5874 9.1911 -17.7403 24.4333
# 2 14.5102 72.1861 29.6465 20.3626 5.6238 7.3802
# 3 24.5874 29.6465 105.4547 39.2726 -6.5455 -8.1744
# 4 9.1911 20.3626 39.2726 35.4600 0.7699 1.7697
# 5 -17.7403 5.6238 -6.5455 0.7699 29.0074 -0.5831
# 6 24.4333 7.3802 -8.1744 1.7697 -0.5831 6.0108
#
#
#
# Elastic Compliance Matrix: (Units=1/GPa)
#
#
# Indices 1 2 3 4 5 6 
#
# 1 -0.008602 -0.007397 0.013850 -0.012205 0.000961 0.066569
# 2 -0.007397 0.016751 0.001109 -0.009432 -0.007007 0.013106
# 3 0.013850 0.001109 0.006476 -0.009338 0.009055 -0.045227
# 4 -0.012205 -0.009432 -0.009338 0.045592 -0.008264 0.034269
# 5 0.000961 -0.007007 0.009055 -0.008264 0.039150 0.023244
# 6 0.066569 0.013106 -0.045227 0.034269 0.023244 -0.189659
#
#
# Mechanical properties :
#
#
# Convention : Reuss Voigt Hill
#
# Bulk Modulus (GPa) = 33.61405 44.45024 39.03215
# Shear Modulus (GPa) = -52.35634 27.01695 -12.66969
#
# Velocity S-wave (km/s) = -4.69314 3.37130 -2.30867
# Velocity P-wave (km/s) = 3.90211 5.81840 3.05183
#
# Compressibility (1/GPa) = 0.02974946
#
# Stress axis : x y z
#
# Youngs Moduli (GPa) = -116.25786 59.69749 154.42417
#
# Poissons Ratio (x) = 0.44159 -2.13879
# Poissons Ratio (y) = -0.85997 -0.17126
# Poissons Ratio (z) = 1.61019 -0.06621
#
# Static dielectric constant tensor:
#      x y z
#    x 2.111910 -0.095650 0.032360 
#    y -0.095650 1.931680 -0.045720 
#    z 0.032360 -0.045720 1.926130 
# 
# From -- ./inp_files/531877.got.cif
#   From: 2010.05.17/outbox.cif.g08.bks.cpg/sg2_266_cif.got.tgz:531877.got - 2010.06.03 11:33:40.
