data_PCOD9033290
_publ_section_title
;
Structure prediction by ZEFSAII (Michael W. Deem and Ramdas Pophale) SiO2 
 PCOD9033290
Probable space group: P -1
;
_chemical_formula_sum "Si O2"
_cell_formula_units_Z 16
_cell_length_a 5.037256
_cell_length_b 13.005207
_cell_length_c 22.546236
_cell_angle_alpha 154.681684
_cell_angle_beta 85.541004
_cell_angle_gamma 93.068837
_cell_volume 629.243907
_symmetry_space_group_name_H-M "P -1"
_symmetry_group_IT_number 2
_symmetry_cell_setting 'triclinic'
loop_
_space_group_symop_operation_xyz
x,y,z
-x,-y,-z
loop_
_atom_site_type_symbol
_atom_site_label
_atom_site_fract_x
_atom_site_fract_y
_atom_site_fract_z
Si Si1 0.591583 0.244087 0.922854
Si Si2 0.745409 0.162922 0.284204
Si Si3 0.591242 0.400839 0.523218
Si Si4 0.370290 0.454905 0.272834
Si Si5 0.332678 0.255145 0.761642
Si Si6 0.146259 0.008590 0.101922
Si Si7 0.913134 0.477586 0.209039
Si Si8 0.182038 0.996063 0.324028
O O1 0.668628 0.130711 0.926136
O O2 0.757891 0.136944 0.809167
O O3 0.309674 0.119443 0.853133
O O4 0.632523 0.523904 0.077390
O O5 0.793151 0.282538 0.409561
O O6 0.489169 0.328024 0.354369
O O7 0.946478 0.169354 0.229937
O O8 0.680836 0.412161 0.594945
O O9 0.319246 0.252382 0.448967
O O10 0.676321 0.460996 0.252099
O O11 0.176549 0.561382 0.280689
O O12 0.294952 0.180987 0.144999
O O13 0.215493 0.366166 0.760732
O O14 0.624578 0.128290 0.693391
O O15 0.115224 0.068635 0.688206
O O16 0.014238 0.790338 0.956455
#
# Coordination Sequence:
#
# PCOD9033290 Si02
#       8
#     2   2   2   2   2   2   2   2
#     4  10  23  39  69 106 140 173 222 291 364 420
#     4  10  22  44  67 109 142 186 213 292 361 423
#     4  10  24  45  69 100 149 183 237 271 347 432
#     4  12  24  46  67 104 138 195 226 285 342 418
#     4  11  25  45  69  97 138 180 242 291 337 397
#     4  11  24  39  73 105 146 173 225 290 366 420
#     4  11  27  44  72  98 141 183 245 288 341 398
#     4  11  25  44  68 101 136 188 229 284 343 413
#
# _framework density 25.427341999999999
#
# number of rings (size 3 to 8) (size 9 to 14) (size 15 to 20)
#    0.000    1.250    1.250    3.000   10.500    2.500 
#    2.250    3.750    0.000    0.000    0.000    0.000 
#    0.000    0.000    0.000    0.000    0.000    0.000 
#
# Total GULP energy -89546.023873 kJ/mol
# GULP energy per Si atom -5596.626492 kJ/mol
# Density = 2.536947 g / cm^3
# Si number density = 25.427342 Si / 1000 Ang^3
#
#
#
# Elastic Constant Matrix: (Units=GPa)
#
#
# Indices 1 2 3 4 5 6 
#
# 1 92.2039 6.1735 28.3224 -7.3117 10.4698 -5.1395
# 2 6.1735 92.5692 33.1827 1.9150 5.3473 -5.7813
# 3 28.3224 33.1827 105.2366 -4.3023 17.3268 -1.8221
# 4 -7.3117 1.9150 -4.3023 45.7665 -2.4608 3.7567
# 5 10.4698 5.3473 17.3268 -2.4608 31.3677 -11.9705
# 6 -5.1395 -5.7813 -1.8221 3.7567 -11.9705 44.8531
#
#
#
# Elastic Compliance Matrix: (Units=1/GPa)
#
#
# Indices 1 2 3 4 5 6 
#
# 1 0.012123 0.000385 -0.002964 0.001476 -0.002119 0.000629
# 2 0.000385 0.012339 -0.004105 -0.000948 0.000614 0.001711
# 3 -0.002964 -0.004105 0.012571 0.000724 -0.005966 -0.002011
# 4 0.001476 -0.000948 0.000724 0.022353 0.000375 -0.001696
# 5 -0.002119 0.000614 -0.005966 0.000375 0.039682 0.010153
# 6 0.000629 0.001711 -0.002011 -0.001696 0.010153 0.025358
#
#
# Mechanical properties :
#
#
# Convention : Reuss Voigt Hill
#
# Bulk Modulus (GPa) = 42.25342 47.26300 44.75821
# Shear Modulus (GPa) = 34.32129 39.21952 36.77040
#
# Velocity S-wave (km/s) = 3.67792 3.93162 3.80688
# Velocity P-wave (km/s) = 5.88978 6.26402 6.07978
#
# Compressibility (1/GPa) = 0.02366673
#
# Stress axis : x y z
#
# Youngs Moduli (GPa) = 82.48825 81.04091 79.54575
#
# Poissons Ratio (x) = -0.03121 0.23577
# Poissons Ratio (y) = -0.03177 0.32651
# Poissons Ratio (z) = 0.24449 0.33265
#
# Static dielectric constant tensor:
#      x y z
#    x 2.041100 -0.042280 0.019840 
#    y -0.042280 2.014940 0.027140 
#    z 0.019840 0.027140 2.009570 
# 
# From -- ./inp_files/367603.got.cif
#   From: 2010.05.17/outbox.cif.g08.bks.cpg/sg2_184_cif.got.tgz:367603.got - 2010.06.03 11:33:40.
