data_PCOD9033400
_publ_section_title
;
Structure prediction by ZEFSAII (Michael W. Deem and Ramdas Pophale) SiO2 
 PCOD9033400
Probable space group: P -1
;
_chemical_formula_sum "Si O2"
_cell_formula_units_Z 14
_cell_length_a 14.223573
_cell_length_b 16.738546
_cell_length_c 18.377115
_cell_angle_alpha 18.962192
_cell_angle_beta 152.433411
_cell_angle_gamma 140.190151
_cell_volume 581.862709
_symmetry_space_group_name_H-M "P -1"
_symmetry_group_IT_number 2
_symmetry_cell_setting 'triclinic'
loop_
_space_group_symop_operation_xyz
x,y,z
-x,-y,-z
loop_
_atom_site_type_symbol
_atom_site_label
_atom_site_fract_x
_atom_site_fract_y
_atom_site_fract_z
Si Si1 0.462201 0.748307 0.661409
Si Si2 0.860983 0.368241 0.357554
Si Si3 0.497152 0.044375 0.181520
Si Si4 0.194795 0.094639 0.058811
Si Si5 0.479061 0.505571 0.394886
Si Si6 0.996977 0.810321 0.731919
Si Si7 0.662813 0.815110 0.204477
O O1 0.246858 0.745857 0.556877
O O2 0.500000 0.000000 0.500000
O O3 0.406254 0.822264 0.475090
O O4 0.683320 0.476143 0.075452
O O5 0.113677 0.160202 0.682895
O O6 0.872549 0.637217 0.167498
O O7 0.512051 0.756043 0.413687
O O8 0.736588 0.995241 0.422510
O O9 0.285739 0.171492 0.981680
O O10 0.460278 0.181397 0.959064
O O11 0.000000 0.000000 0.000000
O O12 0.500000 0.500000 0.500000
O O13 0.712043 0.516079 0.523888
O O14 0.224995 0.744432 0.990759
O O15 0.000000 0.000000 0.500000
O O16 0.000000 0.500000 0.000000
O O17 0.500000 0.000000 0.000000
#
# Coordination Sequence:
#
# PCOD9033400 Si02
#       7
#     2   2   2   2   2   2   2
#     4   9  21  46  68  98 133 179 233 288 360 430
#     4  10  23  44  70  99 136 182 230 290 364 431
#     4  11  24  42  65 100 135 183 234 294 362 434
#     4  11  23  42  69 102 138 177 233 299 361 430
#     4  11  23  43  66  94 138 187 237 291 361 432
#     4  10  22  44  67  98 144 186 239 302 363 436
#     4  12  24  42  67  99 137 178 236 291 359 435
#
# _framework density 24.060656999999999
#
# number of rings (size 3 to 8) (size 9 to 14) (size 15 to 20)
#    0.000    1.429    2.857    1.714    0.000    5.714 
#   10.286    0.000    0.000    0.000    0.000    0.000 
#    0.000    0.000    0.000    0.000    0.000    0.000 
#
# Total GULP energy -77972.708631 kJ/mol
# GULP energy per Si atom -5569.479188 kJ/mol
# Density = 2.400589 g / cm^3
# Si number density = 24.060657 Si / 1000 Ang^3
#
#
#
# Elastic Constant Matrix: (Units=GPa)
#
#
# Indices 1 2 3 4 5 6 
#
# 1 126.0093 53.5958 47.4706 12.2649 8.4219 4.7865
# 2 53.5958 126.3620 22.7341 2.8022 11.5763 19.6177
# 3 47.4706 22.7341 66.2130 16.9957 -2.1457 -3.5611
# 4 12.2649 2.8022 16.9957 43.0554 3.8090 -0.8910
# 5 8.4219 11.5763 -2.1457 3.8090 34.4574 1.9469
# 6 4.7865 19.6177 -3.5611 -0.8910 1.9469 46.5381
#
#
#
# Elastic Compliance Matrix: (Units=1/GPa)
#
#
# Indices 1 2 3 4 5 6 
#
# 1 0.012641 -0.003694 -0.007869 -0.000054 -0.002319 -0.000249
# 2 -0.003694 0.010621 -0.001598 0.001142 -0.002660 -0.004086
# 3 -0.007869 -0.001598 0.023462 -0.007258 0.004557 0.002949
# 4 -0.000054 0.001142 -0.007258 0.026353 -0.003715 -0.000371
# 5 -0.002319 -0.002660 0.004557 -0.003715 0.031157 0.000334
# 6 -0.000249 -0.004086 0.002949 -0.000371 0.000334 0.023440
#
#
# Mechanical properties :
#
#
# Convention : Reuss Voigt Hill
#
# Bulk Modulus (GPa) = 49.01259 62.90948 55.96104
# Shear Modulus (GPa) = 31.09503 37.79576 34.44540
#
# Velocity S-wave (km/s) = 3.59884 3.96770 3.78776
# Velocity P-wave (km/s) = 6.13869 6.86973 6.51447
#
# Compressibility (1/GPa) = 0.02040292
#
# Stress axis : x y z
#
# Youngs Moduli (GPa) = 79.10620 94.15681 42.62123
#
# Poissons Ratio (x) = 0.34777 0.33540
# Poissons Ratio (y) = 0.29218 0.06810
# Poissons Ratio (z) = 0.62252 0.15044
#
# Static dielectric constant tensor:
#      x y z
#    x 1.848990 0.006550 -0.042950 
#    y 0.006550 1.972780 -0.039640 
#    z -0.042950 -0.039640 2.062060 
# 
# From -- ./inp_files/570307.got.cif
#   From: 2010.05.17/outbox.cif.g08.bks.cpg/sg2_286_cif.got.tgz:570307.got - 2010.06.03 11:33:40.
