data_PCOD9033703
_publ_section_title
;
Structure prediction by ZEFSAII (Michael W. Deem and Ramdas Pophale) SiO2 
 PCOD9033703
Probable space group: P -1
;
_chemical_formula_sum "Si O2"
_cell_formula_units_Z 16
_cell_length_a 6.696411
_cell_length_b 11.128906
_cell_length_c 12.137242
_cell_angle_alpha 105.674350
_cell_angle_beta 57.858938
_cell_angle_gamma 112.813682
_cell_volume 703.603411
_symmetry_space_group_name_H-M "P -1"
_symmetry_group_IT_number 2
_symmetry_cell_setting 'triclinic'
loop_
_space_group_symop_operation_xyz
x,y,z
-x,-y,-z
loop_
_atom_site_type_symbol
_atom_site_label
_atom_site_fract_x
_atom_site_fract_y
_atom_site_fract_z
Si Si1 0.091372 0.519034 0.292670
Si Si2 0.772649 0.115729 0.316442
Si Si3 0.385784 0.846185 0.023809
Si Si4 0.596962 0.698446 0.098378
Si Si5 0.920856 0.681605 0.568237
Si Si6 0.102284 0.688469 0.866779
Si Si7 0.753903 0.878335 0.540263
Si Si8 0.134257 0.151083 0.736701
O O1 0.332723 0.596209 0.173673
O O2 0.168400 0.423150 0.334007
O O3 0.890205 0.431475 0.244030
O O4 0.985415 0.611364 0.424221
O O5 0.479662 0.068372 0.374397
O O6 0.836467 0.215852 0.424698
O O7 0.881128 0.193677 0.194031
O O8 0.885805 0.000578 0.279633
O O9 0.565180 0.794768 0.035180
O O10 0.132551 0.831363 0.161478
O O11 0.298982 0.751200 0.919681
O O12 0.500000 0.000000 0.000000
O O13 0.680710 0.775261 0.205829
O O14 0.826905 0.646159 0.988230
O O15 0.749940 0.771280 0.607721
O O16 0.761674 0.808950 0.404456
O O17 0.000000 0.000000 0.500000
#
# Coordination Sequence:
#
# PCOD9033703 Si02
#       8
#     2   2   2   2   2   2   2   2
#     4  10  22  44  69  89 137 177 217 268 317 387
#     4  11  23  41  63  96 138 166 212 272 328 391
#     4  11  24  41  67  97 132 171 218 273 328 382
#     4  11  23  42  67  93 132 175 220 269 321 381
#     4  10  23  44  65  97 131 174 216 266 330 384
#     4  10  24  42  63  97 124 175 226 262 325 380
#     4  12  25  38  67 100 128 169 216 267 333 388
#     4  11  24  39  64 100 132 170 215 264 332 394
#
# _framework density 22.740084
#
# number of rings (size 3 to 8) (size 9 to 14) (size 15 to 20)
#    0.000    1.250    1.250    3.750    5.250    4.500 
#    0.000   17.500    0.000    0.000    0.000    0.000 
#    0.000    0.000    0.000    0.000    0.000    0.000 
#
# Total GULP energy -89492.567664 kJ/mol
# GULP energy per Si atom -5593.285479 kJ/mol
# Density = 2.268833 g / cm^3
# Si number density = 22.740084 Si / 1000 Ang^3
#
#
#
# Elastic Constant Matrix: (Units=GPa)
#
#
# Indices 1 2 3 4 5 6 
#
# 1 74.7447 5.7882 21.6205 15.1125 13.7669 9.3612
# 2 5.7882 62.5215 14.5239 12.5318 9.2710 14.3654
# 3 21.6205 14.5239 80.8658 11.7478 7.7689 13.1416
# 4 15.1125 12.5318 11.7478 35.4561 8.2057 3.0203
# 5 13.7669 9.2710 7.7689 8.2057 29.5719 -0.6919
# 6 9.3612 14.3654 13.1416 3.0203 -0.6919 30.2154
#
#
#
# Elastic Compliance Matrix: (Units=1/GPa)
#
#
# Indices 1 2 3 4 5 6 
#
# 1 0.016821 0.002140 -0.002759 -0.005118 -0.006466 -0.004666
# 2 0.002140 0.020176 -0.001351 -0.005499 -0.005657 -0.009248
# 3 -0.002759 -0.001351 0.014605 -0.002428 -0.001564 -0.004648
# 4 -0.005118 -0.005499 -0.002428 0.034065 -0.004667 0.001744
# 5 -0.006466 -0.005657 -0.001564 -0.004667 0.040464 0.006766
# 6 -0.004666 -0.009248 -0.004648 0.001744 0.006766 0.040940
#
#
# Mechanical properties :
#
#
# Convention : Reuss Voigt Hill
#
# Bulk Modulus (GPa) = 20.98032 33.55525 27.26778
# Shear Modulus (GPa) = 26.75260 30.79530 28.77395
#
# Velocity S-wave (km/s) = 3.43366 3.68398 3.56102
# Velocity P-wave (km/s) = 4.99662 5.73442 5.37819
#
# Compressibility (1/GPa) = 0.04766371
#
# Stress axis : x y z
#
# Youngs Moduli (GPa) = 59.44845 49.56367 68.47090
#
# Poissons Ratio (x) = -0.10608 0.18890
# Poissons Ratio (y) = -0.12724 0.09248
# Poissons Ratio (z) = 0.16401 0.06695
#
# Static dielectric constant tensor:
#      x y z
#    x 1.818170 0.020680 0.015630 
#    y 0.020680 1.852760 0.018840 
#    z 0.015630 0.018840 1.848730 
# 
# From -- ./inp_files/101147.got.cif
#   From: 2010.05.17/outbox.cif.g08.bks.cpg/sg2_51_cif.got.tgz:101147.got - 2010.06.03 11:33:40.
