data_PCOD9033741
_publ_section_title
;
Structure prediction by ZEFSAII (Michael W. Deem and Ramdas Pophale) SiO2 
 PCOD9033741
Probable space group: P -1
;
_chemical_formula_sum "Si O2"
_cell_formula_units_Z 16
_cell_length_a 20.870620
_cell_length_b 8.264731
_cell_length_c 11.995672
_cell_angle_alpha 140.803744
_cell_angle_beta 31.235447
_cell_angle_gamma 127.397639
_cell_volume 668.364129
_symmetry_space_group_name_H-M "P -1"
_symmetry_group_IT_number 2
_symmetry_cell_setting 'triclinic'
loop_
_space_group_symop_operation_xyz
x,y,z
-x,-y,-z
loop_
_atom_site_type_symbol
_atom_site_label
_atom_site_fract_x
_atom_site_fract_y
_atom_site_fract_z
Si Si1 0.771627 0.234525 0.558072
Si Si2 0.591569 0.447603 0.443008
Si Si3 0.986483 0.820733 0.316993
Si Si4 0.757833 0.575791 0.558099
Si Si5 0.496389 0.754018 0.953462
Si Si6 0.166888 0.344143 0.872646
Si Si7 0.857977 0.527436 0.769262
Si Si8 0.217948 0.918039 0.904659
O O1 0.798803 0.464791 0.560013
O O2 0.806847 0.293788 0.662298
O O3 0.843423 0.955810 0.265089
O O4 0.624353 0.232221 0.782701
O O5 0.500000 0.500000 0.500000
O O6 0.512334 0.524171 0.714271
O O7 0.698193 0.629006 0.364489
O O8 0.684476 0.174904 0.188686
O O9 0.845824 0.771842 0.487296
O O10 0.060276 0.523610 0.058291
O O11 0.071817 0.937290 0.164191
O O12 0.000000 0.000000 0.500000
O O13 0.616206 0.716823 0.835089
O O14 0.761083 0.315354 0.340304
O O15 0.500000 0.000000 0.000000
O O16 0.152636 0.472726 0.083462
O O17 0.000000 0.500000 0.500000
O O18 0.773934 0.799957 0.002809
#
# Coordination Sequence:
#
# PCOD9033741 Si02
#       8
#     2   2   2   2   2   2   2   2
#     4  12  25  45  69 100 141 181 224 279 343 407
#     4  10  22  44  69  96 134 180 228 286 337 404
#     4  11  24  44  68 101 134 178 230 280 340 403
#     4  11  24  44  70  95 140 180 221 285 339 408
#     4  11  24  43  68 101 129 180 235 272 339 405
#     4  11  24  45  68 102 139 178 224 281 346 400
#     4  12  26  43  70 104 138 180 228 281 341 416
#     4  10  23  43  65 103 134 177 232 275 345 405
#
# _framework density 23.939045
#
# number of rings (size 3 to 8) (size 9 to 14) (size 15 to 20)
#    0.000    1.000    2.500    3.750    1.750    6.000 
#    2.250    1.875    0.000    0.000    0.000    0.000 
#    0.000    0.000    0.000    0.000    0.000    0.000 
#
# Total GULP energy -89487.699867 kJ/mol
# GULP energy per Si atom -5592.981242 kJ/mol
# Density = 2.388456 g / cm^3
# Si number density = 23.939045 Si / 1000 Ang^3
#
#
#
# Elastic Constant Matrix: (Units=GPa)
#
#
# Indices 1 2 3 4 5 6 
#
# 1 73.8950 16.9686 9.9011 16.9910 -5.9602 4.3244
# 2 16.9686 47.9935 7.8720 8.5997 -22.9762 -14.1006
# 3 9.9011 7.8720 75.7622 -3.3297 -6.2939 10.5386
# 4 16.9910 8.5997 -3.3297 29.8910 -0.8841 -2.2887
# 5 -5.9602 -22.9762 -6.2939 -0.8841 43.7076 -2.7800
# 6 4.3244 -14.1006 10.5386 -2.2887 -2.7800 41.4304
#
#
#
# Elastic Compliance Matrix: (Units=1/GPa)
#
#
# Indices 1 2 3 4 5 6 
#
# 1 0.017262 -0.006317 -0.001533 -0.008531 -0.001624 -0.004142
# 2 -0.006317 0.039170 -0.004087 -0.006314 0.020032 0.016026
# 3 -0.001533 -0.004087 0.014595 0.003291 -0.000494 -0.004795
# 4 -0.008531 -0.006314 0.003291 0.040386 -0.003197 -0.000079
# 5 -0.001624 0.020032 -0.000494 -0.003197 0.033637 0.009194
# 6 -0.004142 0.016026 -0.004795 -0.000079 0.009194 0.031856
#
#
# Mechanical properties :
#
#
# Convention : Reuss Voigt Hill
#
# Bulk Modulus (GPa) = 21.20806 29.68156 25.44481
# Shear Modulus (GPa) = 23.09492 33.86640 28.48066
#
# Velocity S-wave (km/s) = 3.10939 3.76532 3.45297
# Velocity P-wave (km/s) = 4.66578 5.59725 5.15261
#
# Compressibility (1/GPa) = 0.04715188
#
# Stress axis : x y z
#
# Youngs Moduli (GPa) = 57.93169 25.52974 68.51785
#
# Poissons Ratio (x) = 0.16128 0.10505
# Poissons Ratio (y) = 0.36597 0.28002
# Poissons Ratio (z) = 0.08882 0.10434
#
# Static dielectric constant tensor:
#      x y z
#    x 1.958150 0.005650 0.030010 
#    y 0.005650 1.903700 0.006200 
#    z 0.030010 0.006200 1.861910 
# 
# From -- ./inp_files/456914.got.cif
#   From: 2010.05.17/outbox.cif.g08.bks.cpg/sg2_229_cif.got.tgz:456914.got - 2010.06.03 11:33:40.
