data_PCOD9033000
_publ_section_title
;
Structure prediction by ZEFSAII (Michael W. Deem and Ramdas Pophale) SiO2 
 PCOD9033000
Probable space group: P -1
;
_chemical_formula_sum "Si O2"
_cell_formula_units_Z 16
_cell_length_a 9.536787
_cell_length_b 11.071667
_cell_length_c 14.443140
_cell_angle_alpha 112.249409
_cell_angle_beta 151.469437
_cell_angle_gamma 71.937652
_cell_volume 673.278394
_symmetry_space_group_name_H-M "P -1"
_symmetry_group_IT_number 2
_symmetry_cell_setting 'triclinic'
loop_
_space_group_symop_operation_xyz
x,y,z
-x,-y,-z
loop_
_atom_site_type_symbol
_atom_site_label
_atom_site_fract_x
_atom_site_fract_y
_atom_site_fract_z
Si Si1 0.795617 0.948070 0.699687
Si Si2 0.473878 0.011665 0.704781
Si Si3 0.843378 0.482872 0.685243
Si Si4 0.702305 0.302814 0.917524
Si Si5 0.382725 0.133140 0.078062
Si Si6 0.910372 0.593006 0.392479
Si Si7 0.965764 0.146264 0.350939
Si Si8 0.980125 0.352992 0.909218
O O1 0.885165 0.825879 0.654575
O O2 0.500000 0.000000 0.500000
O O3 0.706902 0.942879 0.753389
O O4 0.074090 0.048667 0.871407
O O5 0.614092 0.155697 0.855522
O O6 0.166708 0.036698 0.481920
O O7 0.444780 0.922991 0.751512
O O8 0.500000 0.500000 0.500000
O O9 0.910208 0.368692 0.765287
O O10 0.947257 0.444269 0.632456
O O11 0.013134 0.619520 0.853740
O O12 0.441187 0.397994 0.815758
O O13 0.748322 0.287090 0.828376
O O14 0.617223 0.124547 0.129940
O O15 0.279046 0.279195 0.071713
O O16 0.000000 0.500000 0.500000
O O17 0.004757 0.735591 0.526473
O O18 0.000000 0.500000 0.000000
#
# Coordination Sequence:
#
# PCOD9033000 Si02
#       8
#     2   2   2   2   2   2   2   2
#     4  10  22  44  64  97 132 178 225 273 331 396
#     4  10  22  45  70 102 134 178 228 276 341 399
#     4  11  25  45  69 101 134 184 229 278 345 406
#     4  10  22  45  70 100 139 176 227 285 331 408
#     4  12  23  44  70  98 139 178 220 287 336 402
#     4  11  25  45  70  99 138 178 227 285 341 399
#     4  10  25  44  66 102 137 177 225 278 339 402
#     4  10  24  44  70  98 138 173 229 278 344 404
#
# _framework density 23.764316000000001
#
# number of rings (size 3 to 8) (size 9 to 14) (size 15 to 20)
#    0.000    1.500    1.250    2.250    7.000    1.000 
#   18.000    0.000    0.000    0.000    0.000    0.000 
#    0.000    0.000    0.000    0.000    0.000    0.000 
#
# Total GULP energy -89411.465155 kJ/mol
# GULP energy per Si atom -5588.216572 kJ/mol
# Density = 2.371023 g / cm^3
# Si number density = 23.764316 Si / 1000 Ang^3
#
#
#
# Elastic Constant Matrix: (Units=GPa)
#
#
# Indices 1 2 3 4 5 6 
#
# 1 182.2439 53.9716 33.0062 -23.6981 10.4216 -30.7978
# 2 53.9716 99.4282 32.4173 -25.1101 0.7410 -2.5582
# 3 33.0062 32.4173 103.3804 -5.9297 28.6666 -14.0952
# 4 -23.6981 -25.1101 -5.9297 40.4250 -5.6579 -3.0361
# 5 10.4216 0.7410 28.6666 -5.6579 43.9458 -9.2044
# 6 -30.7978 -2.5582 -14.0952 -3.0361 -9.2044 35.9938
#
#
#
# Elastic Compliance Matrix: (Units=1/GPa)
#
#
# Indices 1 2 3 4 5 6 
#
# 1 0.008099 -0.003230 -0.000550 0.003223 0.000341 0.006844
# 2 -0.003230 0.015080 -0.004674 0.007222 0.004100 -0.001865
# 3 -0.000550 -0.004674 0.013896 -0.002234 -0.008676 0.002232
# 4 0.003223 0.007222 -0.002234 0.032140 0.006106 0.006669
# 5 0.000341 0.004100 -0.008676 0.006106 0.030186 0.005420
# 6 0.006844 -0.001865 0.002232 0.006669 0.005420 0.036329
#
#
# Mechanical properties :
#
#
# Convention : Reuss Voigt Hill
#
# Bulk Modulus (GPa) = 49.58347 69.31585 59.44966
# Shear Modulus (GPa) = 31.37527 41.78341 36.57934
#
# Velocity S-wave (km/s) = 3.63749 4.19769 3.92759
# Velocity P-wave (km/s) = 6.20901 7.26123 6.75564
#
# Compressibility (1/GPa) = 0.02016801
#
# Stress axis : x y z
#
# Youngs Moduli (GPa) = 123.46454 66.31265 71.96232
#
# Poissons Ratio (x) = 0.21418 0.03954
# Poissons Ratio (y) = 0.39878 0.33638
# Poissons Ratio (z) = 0.06785 0.30998
#
# Static dielectric constant tensor:
#      x y z
#    x 1.923840 -0.010170 -0.004040 
#    y -0.010170 1.954070 0.020900 
#    z -0.004040 0.020900 2.020430 
# 
# From -- ./inp_files/500634.got.cif
#   From: 2010.05.17/outbox.cif.g08.bks.cpg/sg2_251_cif.got.tgz:500634.got - 2010.06.03 11:33:40.
