data_PCOD9033331
_publ_section_title
;
Structure prediction by ZEFSAII (Michael W. Deem and Ramdas Pophale) SiO2 
 PCOD9033331
Probable space group: P -1
;
_chemical_formula_sum "Si O2"
_cell_formula_units_Z 16
_cell_length_a 10.337320
_cell_length_b 26.834743
_cell_length_c 25.225583
_cell_angle_alpha 10.609768
_cell_angle_beta 29.703662
_cell_angle_gamma 30.370980
_cell_volume 635.284582
_symmetry_space_group_name_H-M "P -1"
_symmetry_group_IT_number 2
_symmetry_cell_setting 'triclinic'
loop_
_space_group_symop_operation_xyz
x,y,z
-x,-y,-z
loop_
_atom_site_type_symbol
_atom_site_label
_atom_site_fract_x
_atom_site_fract_y
_atom_site_fract_z
Si Si1 0.653491 0.720982 0.508624
Si Si2 0.365323 0.837315 0.381204
Si Si3 0.145149 0.709663 0.765623
Si Si4 0.067905 0.782047 0.028689
Si Si5 0.845612 0.080145 0.916268
Si Si6 0.987433 0.629397 0.024400
Si Si7 0.057301 0.332887 0.409066
Si Si8 0.546558 0.625050 0.411244
O O1 0.489806 0.838486 0.394091
O O2 0.443219 0.713649 0.637307
O O3 0.763610 0.404815 0.792994
O O4 0.911932 0.885592 0.246343
O O5 0.249579 0.550787 0.717107
O O6 0.607730 0.887978 0.203291
O O7 0.136741 0.087709 0.200960
O O8 0.000000 0.000000 0.500000
O O9 0.000000 0.500000 0.000000
O O10 0.125963 0.663048 0.883958
O O11 0.062215 0.558912 0.216359
O O12 0.767359 0.828652 0.107627
O O13 0.174974 0.039861 0.693661
O O14 0.684845 0.376358 0.657212
O O15 0.000000 0.000000 0.000000
O O16 0.151725 0.454627 0.193525
O O17 0.749403 0.287355 0.556819
O O18 0.500000 0.500000 0.500000
#
# Coordination Sequence:
#
# PCOD9033331 Si02
#       8
#     2   2   2   2   2   2   2   2
#     4  10  22  44  67  94 138 166 222 267 334 392
#     4  11  22  41  66  98 132 166 210 271 334 391
#     4  12  24  44  69  96 126 171 224 269 324 390
#     4  10  23  39  61  93 127 174 210 269 321 386
#     4   9  19  38  62  98 134 173 204 274 340 391
#     4  12  23  40  68  97 127 167 223 270 317 381
#     4  11  22  39  62  91 131 168 222 259 317 388
#     4   9  18  35  59  88 125 171 221 253 314 391
#
# _framework density 25.185563999999999
#
# number of rings (size 3 to 8) (size 9 to 14) (size 15 to 20)
#    0.000    1.500    3.750    1.125    1.750    2.000 
#    2.250    8.125    0.000    0.000    0.000    0.000 
#    0.000    0.000    0.000    0.000    0.000    0.000 
#
# Total GULP energy -89476.822298 kJ/mol
# GULP energy per Si atom -5592.301394 kJ/mol
# Density = 2.512824 g / cm^3
# Si number density = 25.185564 Si / 1000 Ang^3
#
#
#
# Elastic Constant Matrix: (Units=GPa)
#
#
# Indices 1 2 3 4 5 6 
#
# 1 54.0240 0.6009 34.6561 10.1566 7.1435 -1.5035
# 2 0.6009 130.6845 54.9351 33.8822 -0.7683 10.8365
# 3 34.6561 54.9351 159.9165 4.9767 21.4906 8.2645
# 4 10.1566 33.8822 4.9767 53.7356 7.2453 14.5351
# 5 7.1435 -0.7683 21.4906 7.2453 55.4148 11.8808
# 6 -1.5035 10.8365 8.2645 14.5351 11.8808 38.6520
#
#
#
# Elastic Compliance Matrix: (Units=1/GPa)
#
#
# Indices 1 2 3 4 5 6 
#
# 1 0.024422 0.004404 -0.006731 -0.007863 -0.000353 0.004220
# 2 0.004404 0.011956 -0.005170 -0.008313 0.002638 0.000240
# 3 -0.006731 -0.005170 0.009871 0.004494 -0.003275 -0.001606
# 4 -0.007863 -0.008313 0.004494 0.027574 -0.002628 -0.008498
# 5 -0.000353 0.002638 -0.003275 -0.002628 0.020920 -0.005495
# 6 0.004220 0.000240 -0.001606 -0.008498 -0.005495 0.031197
#
#
# Mechanical properties :
#
#
# Convention : Reuss Voigt Hill
#
# Bulk Modulus (GPa) = 31.99502 58.33436 45.16469
# Shear Modulus (GPa) = 33.03546 46.52267 39.77907
#
# Velocity S-wave (km/s) = 3.62564 4.30256 3.97853
# Velocity P-wave (km/s) = 5.50076 6.92061 6.25113
#
# Compressibility (1/GPa) = 0.03125486
#
# Stress axis : x y z
#
# Youngs Moduli (GPa) = 40.94672 83.64123 101.30366
#
# Poissons Ratio (x) = -0.36836 0.68191
# Poissons Ratio (y) = -0.18033 0.52372
# Poissons Ratio (z) = 0.27563 0.43241
#
# Static dielectric constant tensor:
#      x y z
#    x 1.977560 0.027990 0.068570 
#    y 0.027990 2.001540 0.018440 
#    z 0.068570 0.018440 1.940650 
# 
# From -- ./inp_files/126674.got.cif
#   From: 2010.05.17/outbox.cif.g08.bks.cpg/sg2_64_cif.got.tgz:126674.got - 2010.06.03 11:33:40.
