data_PCOD9033801
_publ_section_title
;
Structure prediction by ZEFSAII (Michael W. Deem and Ramdas Pophale) SiO2 
 PCOD9033801
Probable space group: P -1
;
_chemical_formula_sum "Si O2"
_cell_formula_units_Z 15
_cell_length_a 8.659483
_cell_length_b 11.479616
_cell_length_c 13.660649
_cell_angle_alpha 32.024662
_cell_angle_beta 103.198190
_cell_angle_gamma 110.118244
_cell_volume 670.687917
_symmetry_space_group_name_H-M "P -1"
_symmetry_group_IT_number 2
_symmetry_cell_setting 'triclinic'
loop_
_space_group_symop_operation_xyz
x,y,z
-x,-y,-z
loop_
_atom_site_type_symbol
_atom_site_label
_atom_site_fract_x
_atom_site_fract_y
_atom_site_fract_z
Si Si1 0.158271 0.082897 0.392341
Si Si2 0.390511 0.554789 0.034236
Si Si3 0.500000 0.000000 0.000000
Si Si4 0.309880 0.256637 0.923752
Si Si5 0.606302 0.948488 0.386246
Si Si6 0.075854 0.937454 0.265955
Si Si7 0.732595 0.392564 0.479204
Si Si8 0.697235 0.776327 0.333071
O O1 0.313221 0.039929 0.503825
O O2 0.111153 0.955230 0.373950
O O3 0.225962 0.351595 0.180316
O O4 0.000000 0.000000 0.500000
O O5 0.356442 0.793906 0.832694
O O6 0.500000 0.500000 0.000000
O O7 0.511498 0.591890 0.118960
O O8 0.357214 0.069223 0.996934
O O9 0.428589 0.103844 0.819389
O O10 0.226813 0.412878 0.736569
O O11 0.196435 0.148120 0.075461
O O12 0.412829 0.818467 0.437022
O O13 0.685269 0.797147 0.433387
O O14 0.123605 0.714641 0.395509
O O15 0.885821 0.914369 0.236049
O O16 0.672367 0.521921 0.467832
#
# Coordination Sequence:
#
# PCOD9033801 Si02
#       8
#     2   2   1   2   2   2   2   2
#     4  12  27  46  70 108 145 187 239 296 358 428
#     4  12  24  44  73 100 143 192 238 295 356 423
#     4  10  22  44  70 100 136 186 242 286 354 434
#     4  11  23  43  70 105 137 190 240 293 355 424
#     4  12  24  45  73 103 142 188 241 293 352 434
#     4  12  25  47  69 106 150 181 242 302 360 424
#     4  11  24  42  72 103 138 192 242 289 358 432
#     4  11  24  45  71 104 144 188 234 302 360 425
#
# _framework density 22.365098
#
# number of rings (size 3 to 8) (size 9 to 14) (size 15 to 20)
#    0.000    0.533    6.667    0.800    1.867    4.800 
#    2.400    4.000    0.000    0.000    0.000    0.000 
#    0.000    0.000    0.000    0.000    0.000    0.000 
#
# Total GULP energy -83625.166223 kJ/mol
# GULP energy per Si atom -5575.011082 kJ/mol
# Density = 2.231419 g / cm^3
# Si number density = 22.365098 Si / 1000 Ang^3
#
#
#
# Elastic Constant Matrix: (Units=GPa)
#
#
# Indices 1 2 3 4 5 6 
#
# 1 66.4629 1.7790 39.5321 -5.0557 -18.9528 -1.5853
# 2 1.7790 81.0135 25.3480 3.6869 -8.4255 2.7471
# 3 39.5321 25.3480 104.6771 -5.9400 -3.6947 -5.0554
# 4 -5.0557 3.6869 -5.9400 30.1323 1.2779 -6.7828
# 5 -18.9528 -8.4255 -3.6947 1.2779 41.4426 5.4220
# 6 -1.5853 2.7471 -5.0554 -6.7828 5.4220 33.7663
#
#
#
# Elastic Compliance Matrix: (Units=1/GPa)
#
#
# Indices 1 2 3 4 5 6 
#
# 1 0.023769 0.003656 -0.009542 0.000687 0.011035 -0.002244
# 2 0.003656 0.014586 -0.005074 -0.003079 0.004692 -0.003146
# 3 -0.009542 -0.005074 0.014551 0.002865 -0.004640 0.003464
# 4 0.000687 -0.003079 0.002865 0.036220 -0.002266 0.008351
# 5 0.011035 0.004692 -0.004640 -0.002266 0.030561 -0.005921
# 6 -0.002244 -0.003146 0.003464 0.008351 -0.005921 0.032913
#
#
# Mechanical properties :
#
#
# Convention : Reuss Voigt Hill
#
# Bulk Modulus (GPa) = 32.27140 42.83019 37.55079
# Shear Modulus (GPa) = 27.04927 33.43453 30.24190
#
# Velocity S-wave (km/s) = 3.48147 3.87064 3.68121
# Velocity P-wave (km/s) = 5.53368 6.25842 5.90718
#
# Compressibility (1/GPa) = 0.03098719
#
# Stress axis : x y z
#
# Youngs Moduli (GPa) = 42.07123 68.56082 68.72151
#
# Poissons Ratio (x) = -0.25067 0.65573
# Poissons Ratio (y) = -0.15382 0.34868
# Poissons Ratio (z) = 0.40144 0.34786
#
# Static dielectric constant tensor:
#      x y z
#    x 1.827080 0.002560 -0.033440 
#    y 0.002560 1.880230 -0.014630 
#    z -0.033440 -0.014630 1.832160 
# 
# From -- ./inp_files/283421.got.cif
#   From: 2010.05.17/outbox.cif.g08.bks.cpg/sg2_142_cif.got.tgz:283421.got - 2010.06.03 11:33:40.
