data_PCOD9033506
_publ_section_title
;
Structure prediction by ZEFSAII (Michael W. Deem and Ramdas Pophale) SiO2 
 PCOD9033506
Probable space group: P -1
;
_chemical_formula_sum "Si O2"
_cell_formula_units_Z 15
_cell_length_a 7.215189
_cell_length_b 9.682790
_cell_length_c 14.310599
_cell_angle_alpha 69.391423
_cell_angle_beta 100.212023
_cell_angle_gamma 132.244606
_cell_volume 690.213117
_symmetry_space_group_name_H-M "P -1"
_symmetry_group_IT_number 2
_symmetry_cell_setting 'triclinic'
loop_
_space_group_symop_operation_xyz
x,y,z
-x,-y,-z
loop_
_atom_site_type_symbol
_atom_site_label
_atom_site_fract_x
_atom_site_fract_y
_atom_site_fract_z
Si Si1 0.500000 0.000000 0.500000
Si Si2 0.832033 0.295932 0.925671
Si Si3 0.278554 0.582398 0.518812
Si Si4 0.447832 0.921255 0.860880
Si Si5 0.327515 0.269958 0.644463
Si Si6 0.573668 0.418599 0.103109
Si Si7 0.867105 0.120568 0.333277
Si Si8 0.637611 0.487463 0.787463
O O1 0.420715 0.780416 0.544045
O O2 0.273499 0.918171 0.574438
O O3 0.745880 0.421164 0.883132
O O4 0.126401 0.439630 0.902488
O O5 0.683642 0.135829 0.868085
O O6 0.745033 0.184430 0.043488
O O7 0.261306 0.407369 0.597290
O O8 0.438244 0.647354 0.422075
O O9 0.000000 0.500000 0.500000
O O10 0.530488 0.796854 0.877344
O O11 0.311003 0.912606 0.759194
O O12 0.422233 0.299844 0.751204
O O13 0.114931 0.045510 0.646329
O O14 0.470710 0.430054 0.187265
O O15 0.500000 0.500000 0.000000
O O16 0.134040 0.338395 0.297767
#
# Coordination Sequence:
#
# PCOD9033506 Si02
#       8
#     1   2   2   2   2   2   2   2
#     4  10  24  42  70 100 126 176 230 272 342 394
#     4  11  24  45  69  96 143 176 224 281 333 402
#     4  10  22  44  68  90 130 168 220 281 332 391
#     4  11  23  44  70  97 136 185 222 279 340 396
#     4  10  24  42  63  97 127 172 222 269 337 401
#     4  12  25  41  66 101 134 176 228 274 337 402
#     4  11  23  44  69  97 138 178 229 280 338 399
#     4  12  24  42  68 100 137 178 222 278 336 407
#
# _framework density 21.732417000000002
#
# number of rings (size 3 to 8) (size 9 to 14) (size 15 to 20)
#    0.000    1.067    4.000    2.000    1.867    3.733 
#    2.400    4.000    0.000    0.000    0.000    0.000 
#    0.000    0.000    0.000    0.000    0.000    0.000 
#
# Total GULP energy -83638.864039 kJ/mol
# GULP energy per Si atom -5575.924269 kJ/mol
# Density = 2.168295 g / cm^3
# Si number density = 21.732417 Si / 1000 Ang^3
#
#
#
# Elastic Constant Matrix: (Units=GPa)
#
#
# Indices 1 2 3 4 5 6 
#
# 1 102.4065 27.8488 9.4886 4.6103 3.0475 -21.8566
# 2 27.8488 109.8655 -4.8055 0.0057 -2.1264 -34.4155
# 3 9.4886 -4.8055 26.6830 -5.1242 -5.3336 -2.6150
# 4 4.6103 0.0057 -5.1242 26.8908 -7.2467 0.7164
# 5 3.0475 -2.1264 -5.3336 -7.2467 25.6742 -5.2525
# 6 -21.8566 -34.4155 -2.6150 0.7164 -5.2525 42.2778
#
#
#
# Elastic Compliance Matrix: (Units=1/GPa)
#
#
# Indices 1 2 3 4 5 6 
#
# 1 0.011960 -0.002171 -0.005697 -0.004090 -0.003173 0.003739
# 2 -0.002171 0.013397 0.005871 0.002698 0.005556 0.010791
# 3 -0.005697 0.005871 0.047185 0.014187 0.016307 0.006538
# 4 -0.004090 0.002698 0.014187 0.045070 0.016846 0.002288
# 5 -0.003173 0.005556 0.016307 0.016846 0.049936 0.009810
# 6 0.003739 0.010791 0.006538 0.002288 0.009810 0.035954
#
#
# Mechanical properties :
#
#
# Convention : Reuss Voigt Hill
#
# Bulk Modulus (GPa) = 14.58851 33.77988 24.18420
# Shear Modulus (GPa) = 21.70661 32.73010 27.21836
#
# Velocity S-wave (km/s) = 3.16383 3.88500 3.54281
# Velocity P-wave (km/s) = 4.48038 5.97508 5.28088
#
# Compressibility (1/GPa) = 0.06854709
#
# Stress axis : x y z
#
# Youngs Moduli (GPa) = 83.61427 74.64517 21.19318
#
# Poissons Ratio (x) = 0.16204 0.12074
# Poissons Ratio (y) = 0.18151 -0.12442
# Poissons Ratio (z) = 0.47636 -0.43823
#
# Static dielectric constant tensor:
#      x y z
#    x 1.757210 -0.021160 0.036420 
#    y -0.021160 1.816460 0.002160 
#    z 0.036420 0.002160 1.806780 
# 
# From -- ./inp_files/56357.got.cif
#   From: 2010.05.17/outbox.cif.g08.bks.cpg/sg2_29_cif.got.tgz:56357.got - 2010.06.03 11:33:40.
