data_PCOD9033926
_publ_section_title
;
Structure prediction by ZEFSAII (Michael W. Deem and Ramdas Pophale) SiO2 
 PCOD9033926
Probable space group: P -1
;
_chemical_formula_sum "Si O2"
_cell_formula_units_Z 15
_cell_length_a 14.500636
_cell_length_b 7.476578
_cell_length_c 14.407250
_cell_angle_alpha 96.267275
_cell_angle_beta 28.203787
_cell_angle_gamma 81.642972
_cell_volume 629.362396
_symmetry_space_group_name_H-M "P -1"
_symmetry_group_IT_number 2
_symmetry_cell_setting 'triclinic'
loop_
_space_group_symop_operation_xyz
x,y,z
-x,-y,-z
loop_
_atom_site_type_symbol
_atom_site_label
_atom_site_fract_x
_atom_site_fract_y
_atom_site_fract_z
Si Si1 0.787742 0.998792 0.231149
Si Si2 0.000000 0.000000 0.500000
Si Si3 0.513039 0.707813 0.989128
Si Si4 0.697289 0.647876 0.340319
Si Si5 0.889749 0.395259 0.339739
Si Si6 0.477637 0.682595 0.361435
Si Si7 0.364452 0.137481 0.923759
Si Si8 0.203517 0.260200 0.425885
O O1 0.816188 0.771359 0.202585
O O2 0.551259 0.156932 0.395690
O O3 0.718959 0.108438 0.399956
O O4 0.000000 0.000000 0.000000
O O5 0.938457 0.842329 0.488902
O O6 0.252491 0.894472 0.217792
O O7 0.687898 0.682678 0.753063
O O8 0.500000 0.500000 0.000000
O O9 0.592565 0.771594 0.015241
O O10 0.632491 0.553201 0.304425
O O11 0.169092 0.513774 0.706707
O O12 0.660695 0.403312 0.574572
O O13 0.933957 0.543126 0.374602
O O14 0.115566 0.170244 0.138320
O O15 0.618846 0.734235 0.169448
O O16 0.578587 0.905578 0.717065
#
# Coordination Sequence:
#
# PCOD9033926 Si02
#       8
#     2   1   2   2   2   2   2   2
#     4   9  20  39  67  92 127 182 221 276 333 388
#     4  10  22  44  70  94 136 178 214 276 346 392
#     4  11  24  45  71 100 135 172 227 279 344 410
#     4   9  22  41  62  95 136 173 228 273 324 404
#     4  12  25  42  69 100 137 178 225 280 339 390
#     4  10  23  39  64  96 136 177 227 274 328 402
#     4  11  25  42  65  99 135 175 224 280 331 407
#     4  11  26  44  70 102 136 176 229 280 337 414
#
# _framework density 23.833645000000001
#
# number of rings (size 3 to 8) (size 9 to 14) (size 15 to 20)
#    0.800    0.800    0.000    4.400    1.867    9.067 
#    0.000    1.333    0.000    0.000    0.000    0.000 
#    0.000    0.000    0.000    0.000    0.000    0.000 
#
# Total GULP energy -83599.282644 kJ/mol
# GULP energy per Si atom -5573.285510 kJ/mol
# Density = 2.377940 g / cm^3
# Si number density = 23.833645 Si / 1000 Ang^3
#
#
#
# Elastic Constant Matrix: (Units=GPa)
#
#
# Indices 1 2 3 4 5 6 
#
# 1 71.1639 6.8490 44.5868 -15.8566 -0.7915 6.2476
# 2 6.8490 42.4489 -1.1018 -12.7981 -16.1152 15.7726
# 3 44.5868 -1.1018 97.4707 -16.4730 -21.6977 -1.7114
# 4 -15.8566 -12.7981 -16.4730 30.2714 3.4978 -4.8442
# 5 -0.7915 -16.1152 -21.6977 3.4978 37.3148 -4.7328
# 6 6.2476 15.7726 -1.7114 -4.8442 -4.7328 36.4334
#
#
#
# Elastic Compliance Matrix: (Units=1/GPa)
#
#
# Indices 1 2 3 4 5 6 
#
# 1 0.023295 -0.005552 -0.012303 0.003822 -0.009788 -0.002932
# 2 -0.005552 0.041873 0.010156 0.016013 0.020866 -0.011859
# 3 -0.012303 0.010156 0.020830 0.007646 0.015743 0.001753
# 4 0.003822 0.016013 0.007646 0.045089 0.007178 -0.000301
# 5 -0.009788 0.020866 0.015743 0.007178 0.044093 0.000067
# 6 -0.002932 -0.011859 0.001753 -0.000301 0.000067 0.033135
#
#
# Mechanical properties :
#
#
# Convention : Reuss Voigt Hill
#
# Bulk Modulus (GPa) = 14.16450 34.63905 24.40177
# Shear Modulus (GPa) = 20.22281 31.52055 25.87168
#
# Velocity S-wave (km/s) = 2.91606 3.64060 3.29828
# Velocity P-wave (km/s) = 4.15859 5.67778 4.97649
#
# Compressibility (1/GPa) = 0.07059903
#
# Stress axis : x y z
#
# Youngs Moduli (GPa) = 42.92785 23.88184 48.00855
#
# Poissons Ratio (x) = 0.13259 0.59066
# Poissons Ratio (y) = 0.23833 -0.48758
# Poissons Ratio (z) = 0.52815 -0.24254
#
# Static dielectric constant tensor:
#      x y z
#    x 1.901550 -0.009330 -0.023280 
#    y -0.009330 1.949410 0.002860 
#    z -0.023280 0.002860 1.900230 
# 
# From -- ./inp_files/575430.got.cif
#   From: 2010.05.17/outbox.cif.g08.bks.cpg/sg2_288_cif.got.tgz:575430.got - 2010.06.03 11:33:40.
