data_PCOD9033746
_publ_section_title
;
Structure prediction by ZEFSAII (Michael W. Deem and Ramdas Pophale) SiO2 
 PCOD9033746
Probable space group: P -1
;
_chemical_formula_sum "Si O2"
_cell_formula_units_Z 15
_cell_length_a 17.618987
_cell_length_b 9.356755
_cell_length_c 21.107496
_cell_angle_alpha 38.244347
_cell_angle_beta 160.662598
_cell_angle_gamma 139.919272
_cell_volume 708.320362
_symmetry_space_group_name_H-M "P -1"
_symmetry_group_IT_number 2
_symmetry_cell_setting 'triclinic'
loop_
_space_group_symop_operation_xyz
x,y,z
-x,-y,-z
loop_
_atom_site_type_symbol
_atom_site_label
_atom_site_fract_x
_atom_site_fract_y
_atom_site_fract_z
Si Si1 0.500000 0.500000 0.500000
Si Si2 0.785214 0.066781 0.267468
Si Si3 0.043169 0.798204 0.342913
Si Si4 0.738435 0.129985 0.062751
Si Si5 0.965759 0.894130 0.107262
Si Si6 0.440016 0.982169 0.684371
Si Si7 0.006626 0.369385 0.907541
Si Si8 0.278943 0.634434 0.782971
O O1 0.750903 0.418314 0.708050
O O2 0.559920 0.743277 0.419663
O O3 0.819344 0.071381 0.217854
O O4 0.755738 0.316186 0.187753
O O5 0.000000 0.000000 0.500000
O O6 0.538823 0.916442 0.139022
O O7 0.077325 0.844849 0.279138
O O8 0.933960 0.531406 0.355803
O O9 0.276872 0.861675 0.542822
O O10 0.859461 0.964439 0.167787
O O11 0.825602 0.398570 0.026030
O O12 0.990480 0.708759 0.136134
O O13 0.696333 0.911890 0.902748
O O14 0.067574 0.146216 0.072606
O O15 0.334227 0.870756 0.704792
O O16 0.500000 0.500000 0.000000
#
# Coordination Sequence:
#
# PCOD9033746 Si02
#       8
#     1   2   2   2   2   2   2   2
#     4  10  22  44  70  96 134 174 224 276 336 390
#     4  11  25  42  64 100 131 176 224 280 336 400
#     4  12  23  42  68 101 130 181 223 276 331 412
#     4  11  23  41  67  95 140 171 225 277 341 396
#     4  10  23  43  68  98 136 172 225 276 343 386
#     4  11  23  42  69  98 132 179 224 277 333 398
#     4  10  22  44  69  96 136 181 217 288 328 405
#     4  12  23  43  67  94 139 179 222 273 341 398
#
# _framework density 21.176857999999999
#
# number of rings (size 3 to 8) (size 9 to 14) (size 15 to 20)
#    0.000    1.067    4.000    2.000    0.000    1.600 
#    2.400    6.000    0.000    0.000    0.000    0.000 
#    0.000    0.000    0.000    0.000    0.000    0.000 
#
# Total GULP energy -83604.043361 kJ/mol
# GULP energy per Si atom -5573.602891 kJ/mol
# Density = 2.112866 g / cm^3
# Si number density = 21.176858 Si / 1000 Ang^3
#
#
#
# Elastic Constant Matrix: (Units=GPa)
#
#
# Indices 1 2 3 4 5 6 
#
# 1 92.5178 42.8580 9.0116 6.0461 -20.7658 11.2716
# 2 42.8580 122.2021 0.0489 -4.1892 -5.8236 18.0061
# 3 9.0116 0.0489 63.9030 12.4092 -16.1100 1.9044
# 4 6.0461 -4.1892 12.4092 25.4767 -3.7932 -3.0796
# 5 -20.7658 -5.8236 -16.1100 -3.7932 28.7483 -8.0881
# 6 11.2716 18.0061 1.9044 -3.0796 -8.0881 31.3464
#
#
#
# Elastic Compliance Matrix: (Units=1/GPa)
#
#
# Indices 1 2 3 4 5 6 
#
# 1 0.015643 -0.005048 0.001105 -0.003610 0.010281 -0.000495
# 2 -0.005048 0.010596 -0.000238 0.002081 -0.002694 -0.004748
# 3 0.001105 -0.000238 0.019838 -0.008272 0.010928 0.000541
# 4 -0.003610 0.002081 -0.008272 0.045199 0.000606 0.005202
# 5 0.010281 -0.002694 0.010928 0.000606 0.050781 0.010349
# 6 -0.000495 -0.004748 0.000541 0.005202 0.010349 0.037955
#
#
# Mechanical properties :
#
#
# Convention : Reuss Voigt Hill
#
# Bulk Modulus (GPa) = 26.51348 42.49554 34.50451
# Shear Modulus (GPa) = 24.88250 32.22791 28.55521
#
# Velocity S-wave (km/s) = 3.43152 3.90532 3.67606
# Velocity P-wave (km/s) = 5.31486 6.35971 5.86061
#
# Compressibility (1/GPa) = 0.03771667
#
# Stress axis : x y z
#
# Youngs Moduli (GPa) = 63.92607 94.37470 50.40800
#
# Poissons Ratio (x) = 0.47637 -0.05573
# Poissons Ratio (y) = 0.32267 0.01200
# Poissons Ratio (z) = -0.07067 0.02248
#
# Static dielectric constant tensor:
#      x y z
#    x 1.702460 0.040600 -0.068040 
#    y 0.040600 1.776810 0.022450 
#    z -0.068040 0.022450 1.677730 
# 
# From -- ./inp_files/206550.got.cif
#   From: 2010.05.17/outbox.cif.g08.bks.cpg/sg2_104_cif.got.tgz:206550.got - 2010.06.03 11:33:40.
