data_PCOD9033426
_publ_section_title
;
Structure prediction by ZEFSAII (Michael W. Deem and Ramdas Pophale) SiO2 
 PCOD9033426
Probable space group: P -1
;
_chemical_formula_sum "Si O2"
_cell_formula_units_Z 14
_cell_length_a 11.153562
_cell_length_b 7.983941
_cell_length_c 9.337063
_cell_angle_alpha 49.581835
_cell_angle_beta 60.502611
_cell_angle_gamma 74.047016
_cell_volume 549.726753
_symmetry_space_group_name_H-M "P -1"
_symmetry_group_IT_number 2
_symmetry_cell_setting 'triclinic'
loop_
_space_group_symop_operation_xyz
x,y,z
-x,-y,-z
loop_
_atom_site_type_symbol
_atom_site_label
_atom_site_fract_x
_atom_site_fract_y
_atom_site_fract_z
Si Si1 0.836511 0.935133 0.433495
Si Si2 0.482472 0.153150 0.790010
Si Si3 0.199683 0.797906 0.424100
Si Si4 0.229060 0.472331 0.112643
Si Si5 0.198530 0.226474 0.988988
Si Si6 0.038844 0.330170 0.741406
Si Si7 0.613627 0.125044 0.266449
O O1 0.752163 0.738514 0.680635
O O2 0.933999 0.807832 0.340499
O O3 0.875190 0.105486 0.444904
O O4 0.750842 0.069248 0.298789
O O5 0.639129 0.236280 0.614555
O O6 0.358004 0.306009 0.812523
O O7 0.411788 0.997084 0.798651
O O8 0.500000 0.000000 0.000000
O O9 0.124411 0.567837 0.550609
O O10 0.198965 0.988313 0.198409
O O11 0.120044 0.622361 0.169207
O O12 0.161094 0.387337 0.050464
O O13 0.369396 0.615886 0.916480
O O14 0.102939 0.227378 0.904919
O O15 0.500000 0.000000 0.500000
#
# Coordination Sequence:
#
# PCOD9033426 Si02
#       7
#     2   2   2   2   2   2   2
#     4  11  25  45  71 107 134 188 227 280 351 402
#     4  10  22  44  68 100 135 178 223 284 349 399
#     4  10  24  45  68 103 146 173 229 293 339 405
#     4  11  28  46  66 105 140 179 236 285 338 412
#     4  10  23  44  69 101 136 187 227 282 347 402
#     4  12  25  45  72 102 138 189 234 276 339 418
#     4  12  25  47  71  98 140 177 228 292 343 410
#
# _framework density 25.467196000000001
#
# number of rings (size 3 to 8) (size 9 to 14) (size 15 to 20)
#    0.000    1.143    2.857    1.714    4.000    6.286 
#    2.571    0.000    0.000    0.000    0.000    0.000 
#    0.000    0.000    0.000    0.000    0.000    0.000 
#
# Total GULP energy -78351.078491 kJ/mol
# GULP energy per Si atom -5596.505607 kJ/mol
# Density = 2.540923 g / cm^3
# Si number density = 25.467196 Si / 1000 Ang^3
#
#
#
# Elastic Constant Matrix: (Units=GPa)
#
#
# Indices 1 2 3 4 5 6 
#
# 1 80.2184 13.1900 36.3511 0.6919 10.6968 4.3496
# 2 13.1900 96.9834 55.6722 24.4161 -18.4496 -3.5856
# 3 36.3511 55.6722 129.5828 -12.7784 8.1621 13.9941
# 4 0.6919 24.4161 -12.7784 44.2119 11.5413 18.5168
# 5 10.6968 -18.4496 8.1621 11.5413 53.4057 -9.5430
# 6 4.3496 -3.5856 13.9941 18.5168 -9.5430 -0.6813
#
#
#
# Elastic Compliance Matrix: (Units=1/GPa)
#
#
# Indices 1 2 3 4 5 6 
#
# 1 0.014593 0.000370 -0.004239 -0.001139 -0.001910 -0.000050
# 2 0.000370 0.009975 -0.001971 0.002387 -0.000412 -0.019970
# 3 -0.004239 -0.001971 0.007674 -0.003422 0.002370 0.014746
# 4 -0.001139 0.002387 -0.003422 0.007025 0.005159 0.028549
# 5 -0.001910 -0.000412 0.002370 0.005159 0.014116 -0.018868
# 6 -0.000050 -0.019970 0.014746 0.028549 -0.018868 -0.019896
#
#
# Mechanical properties :
#
#
# Convention : Reuss Voigt Hill
#
# Bulk Modulus (GPa) = 48.63496 57.46791 53.05143
# Shear Modulus (GPa) = 96.11288 32.82535 64.46912
#
# Velocity S-wave (km/s) = 6.14994 3.59406 5.03682
# Velocity P-wave (km/s) = 8.34072 6.31169 7.39612
#
# Compressibility (1/GPa) = 0.02056134
#
# Stress axis : x y z
#
# Youngs Moduli (GPa) = 68.52395 100.25499 130.30939
#
# Poissons Ratio (x) = -0.03712 0.55244
# Poissons Ratio (y) = -0.02537 0.25687
# Poissons Ratio (z) = 0.29050 0.19762
#
# Static dielectric constant tensor:
#      x y z
#    x 2.044610 -0.005190 -0.044840 
#    y -0.005190 2.132400 0.083590 
#    z -0.044840 0.083590 2.058820 
# 
# From -- ./inp_files/241898.got.cif
#   From: 2010.05.17/outbox.cif.g08.bks.cpg/sg2_121_cif.got.tgz:241898.got - 2010.06.03 11:33:40.
