data_PCOD9033893
_publ_section_title
;
Structure prediction by ZEFSAII (Michael W. Deem and Ramdas Pophale) SiO2 
 PCOD9033893
Probable space group: P -1
;
_chemical_formula_sum "Si O2"
_cell_formula_units_Z 16
_cell_length_a 20.836272
_cell_length_b 5.137145
_cell_length_c 10.229119
_cell_angle_alpha 70.247043
_cell_angle_beta 141.358821
_cell_angle_gamma 98.563834
_cell_volume 631.025310
_symmetry_space_group_name_H-M "P -1"
_symmetry_group_IT_number 2
_symmetry_cell_setting 'triclinic'
loop_
_space_group_symop_operation_xyz
x,y,z
-x,-y,-z
loop_
_atom_site_type_symbol
_atom_site_label
_atom_site_fract_x
_atom_site_fract_y
_atom_site_fract_z
Si Si1 0.442185 0.591541 0.643660
Si Si2 0.673778 0.613159 0.034841
Si Si3 0.595358 0.994214 0.254378
Si Si4 0.730559 0.989321 0.853664
Si Si5 0.773677 0.724402 0.418822
Si Si6 0.960402 0.271347 0.802235
Si Si7 0.885437 0.161733 0.412804
Si Si8 0.126411 0.583044 0.920705
O O1 0.406009 0.296102 0.621015
O O2 0.371387 0.830285 0.404940
O O3 0.425626 0.730411 0.737350
O O4 0.565895 0.546898 0.823932
O O5 0.681568 0.654282 0.194243
O O6 0.772623 0.371176 0.203370
O O7 0.693617 0.895354 0.950356
O O8 0.711341 0.944487 0.384384
O O9 0.500000 0.000000 0.000000
O O10 0.815811 0.184825 0.967033
O O11 0.787111 0.697697 0.926213
O O12 0.847514 0.446318 0.638910
O O13 0.851495 0.860890 0.426831
O O14 0.947384 0.198562 0.638990
O O15 0.043504 0.476837 0.899380
O O16 0.000000 0.000000 0.000000
O O17 0.926591 0.266873 0.323573
#
# Coordination Sequence:
#
# PCOD9033893 Si02
#       8
#     2   2   2   2   2   2   2   2
#     4  12  26  43  71 106 148 195 239 300 363 430
#     4  10  22  44  70 107 144 186 243 297 361 432
#     4  12  26  43  70 104 148 196 242 291 359 440
#     4  11  25  45  73 108 143 190 241 309 358 428
#     4  11  24  44  75 103 145 191 246 294 363 437
#     4  11  28  46  74 108 146 192 243 312 371 436
#     4  10  23  45  74 107 139 196 243 306 363 447
#     4  11  25  49  74 105 148 192 250 296 370 438
#
# _framework density 25.355559
#
# number of rings (size 3 to 8) (size 9 to 14) (size 15 to 20)
#    0.000    1.000    2.500    2.625    7.000    2.000 
#    0.000    3.125    0.000    0.000    0.000    0.000 
#    0.000    0.000    0.000    0.000    0.000    0.000 
#
# Total GULP energy -89646.215569 kJ/mol
# GULP energy per Si atom -5602.888473 kJ/mol
# Density = 2.529785 g / cm^3
# Si number density = 25.355559 Si / 1000 Ang^3
#
#
#
# Elastic Constant Matrix: (Units=GPa)
#
#
# Indices 1 2 3 4 5 6 
#
# 1 53.7844 18.2694 46.3622 -2.3825 16.0132 24.6585
# 2 18.2694 115.0977 43.2899 -11.0676 -3.1855 29.5363
# 3 46.3622 43.2899 159.8545 -28.9704 -6.1571 19.9709
# 4 -2.3825 -11.0676 -28.9704 45.5360 1.2470 -0.6842
# 5 16.0132 -3.1855 -6.1571 1.2470 29.5115 -0.5814
# 6 24.6585 29.5363 19.9709 -0.6842 -0.5814 41.5162
#
#
#
# Elastic Compliance Matrix: (Units=1/GPa)
#
#
# Indices 1 2 3 4 5 6 
#
# 1 0.050577 0.002533 -0.014324 -0.005400 -0.030432 -0.025467
# 2 0.002533 0.011525 -0.002626 0.001161 -0.000894 -0.008434
# 3 -0.014324 -0.002626 0.011990 0.006044 0.009830 0.004846
# 4 -0.005400 0.001161 0.006044 0.025716 0.003229 -0.000057
# 5 -0.030432 -0.000894 0.009830 0.003229 0.052507 0.014771
# 6 -0.025467 -0.008434 0.004846 -0.000057 0.014771 0.043089
#
#
# Mechanical properties :
#
#
# Convention : Reuss Voigt Hill
#
# Bulk Modulus (GPa) = 22.09556 60.50883 41.30220
# Shear Modulus (GPa) = 20.89233 38.03374 29.46304
#
# Velocity S-wave (km/s) = 2.87361 3.87721 3.41250
# Velocity P-wave (km/s) = 4.44335 6.63020 5.64371
#
# Compressibility (1/GPa) = 0.04525796
#
# Stress axis : x y z
#
# Youngs Moduli (GPa) = 19.77201 86.76660 83.40474
#
# Poissons Ratio (x) = -0.21979 1.19467
# Poissons Ratio (y) = -0.05009 0.21903
# Poissons Ratio (z) = 0.28321 0.22786
#
# Static dielectric constant tensor:
#      x y z
#    x 2.078490 -0.033980 -0.045880 
#    y -0.033980 1.993810 0.013640 
#    z -0.045880 0.013640 2.019580 
# 
# From -- ./inp_files/118366.got.cif
#   From: 2010.05.17/outbox.cif.g08.bks.cpg/sg2_60_cif.got.tgz:118366.got - 2010.06.03 11:33:40.
