data_PCOD9033301
_publ_section_title
;
Structure prediction by ZEFSAII (Michael W. Deem and Ramdas Pophale) SiO2 
 PCOD9033301
Probable space group: P -1
;
_chemical_formula_sum "Si O2"
_cell_formula_units_Z 14
_cell_length_a 8.127250
_cell_length_b 26.670625
_cell_length_c 6.814061
_cell_angle_alpha 58.736523
_cell_angle_beta 111.522580
_cell_angle_gamma 150.034048
_cell_volume 618.663707
_symmetry_space_group_name_H-M "P -1"
_symmetry_group_IT_number 2
_symmetry_cell_setting 'triclinic'
loop_
_space_group_symop_operation_xyz
x,y,z
-x,-y,-z
loop_
_atom_site_type_symbol
_atom_site_label
_atom_site_fract_x
_atom_site_fract_y
_atom_site_fract_z
Si Si1 0.286639 0.983338 0.574975
Si Si2 0.067945 0.952367 0.142407
Si Si3 0.206020 0.212956 0.931743
Si Si4 0.322647 0.845729 0.272377
Si Si5 0.074543 0.648686 0.469384
Si Si6 0.632648 0.373046 0.134907
Si Si7 0.422740 0.444350 0.878596
O O1 0.058208 0.887450 0.825609
O O2 0.500000 0.000000 0.500000
O O3 0.518180 0.093642 0.570488
O O4 0.053433 0.941934 0.389130
O O5 0.812608 0.838608 0.147411
O O6 0.431589 0.052620 0.985854
O O7 0.000000 0.000000 0.000000
O O8 0.524707 0.312380 0.005437
O O9 0.043127 0.227289 0.754620
O O10 0.274680 0.763734 0.383687
O O11 0.746824 0.546046 0.673346
O O12 0.901127 0.617838 0.246803
O O13 0.310599 0.658285 0.600761
O O14 0.402416 0.367470 0.066667
O O15 0.000000 0.500000 0.000000
O O16 0.500000 0.500000 0.000000
#
# Coordination Sequence:
#
# PCOD9033301 Si02
#       7
#     2   2   2   2   2   2   2
#     4  11  21  39  63  92 122 169 210 251 315 382
#     4  11  25  40  59  97 132 161 215 264 312 385
#     4  11  22  42  65  89 128 173 209 263 318 376
#     4  11  22  40  65  91 127 167 211 259 317 388
#     4  10  23  41  64  93 126 165 208 266 323 369
#     4  10  23  44  64  91 131 166 211 268 317 374
#     4  10  22  44  67  90 122 167 217 263 319 380
#
# _framework density 22.629418000000001
#
# number of rings (size 3 to 8) (size 9 to 14) (size 15 to 20)
#    0.000    1.429    4.286    0.857    4.000    4.000 
#    2.571    0.000    0.000    0.000    0.000    0.000 
#    0.000    0.000    0.000    0.000    0.000    0.000 
#
# Total GULP energy -78059.123812 kJ/mol
# GULP energy per Si atom -5575.651701 kJ/mol
# Density = 2.257791 g / cm^3
# Si number density = 22.629418 Si / 1000 Ang^3
#
#
#
# Elastic Constant Matrix: (Units=GPa)
#
#
# Indices 1 2 3 4 5 6 
#
# 1 63.7723 33.7028 66.4462 19.9284 26.7609 -15.3533
# 2 33.7028 139.1370 58.8715 26.3894 21.5750 -10.8432
# 3 66.4462 58.8715 140.9670 33.5139 22.7093 -24.6725
# 4 19.9284 26.3894 33.5139 45.1890 5.4753 0.0819
# 5 26.7609 21.5750 22.7093 5.4753 36.0772 -8.4296
# 6 -15.3533 -10.8432 -24.6725 0.0819 -8.4296 25.6787
#
#
#
# Elastic Compliance Matrix: (Units=1/GPa)
#
#
# Indices 1 2 3 4 5 6 
#
# 1 0.042034 0.000591 -0.014641 -0.005562 -0.020389 0.004639
# 2 0.000591 0.009451 -0.002760 -0.003281 -0.003745 0.000474
# 3 -0.014641 -0.002760 0.017039 -0.005117 0.004412 0.007917
# 4 -0.005562 -0.003281 -0.005117 0.029983 0.002693 -0.008839
# 5 -0.020389 -0.003745 0.004412 0.002693 0.042962 0.004561
# 6 0.004639 0.000474 0.007917 -0.008839 0.004561 0.051049
#
#
# Mechanical properties :
#
#
# Convention : Reuss Voigt Hill
#
# Bulk Modulus (GPa) = 28.64883 73.54635 51.09759
# Shear Modulus (GPa) = 21.02840 33.71268 27.37054
#
# Velocity S-wave (km/s) = 3.05167 3.86394 3.48158
# Velocity P-wave (km/s) = 5.01043 7.24414 6.22824
#
# Compressibility (1/GPa) = 0.03490543
#
# Stress axis : x y z
#
# Youngs Moduli (GPa) = 23.79002 105.80344 58.68799
#
# Poissons Ratio (x) = -0.06255 0.85928
# Poissons Ratio (y) = -0.01406 0.16196
# Poissons Ratio (z) = 0.34832 0.29198
#
# Static dielectric constant tensor:
#      x y z
#    x 1.940250 0.023420 0.061810 
#    y 0.023420 1.851140 0.049630 
#    z 0.061810 0.049630 1.683290 
# 
# From -- ./inp_files/35082.got.cif
#   From: 2010.05.17/outbox.cif.g08.bks.cpg/sg2_18_cif.got.tgz:35082.got - 2010.06.03 11:33:40.
