data_PCOD9033694
_publ_section_title
;
Structure prediction by ZEFSAII (Michael W. Deem and Ramdas Pophale) SiO2 
 PCOD9033694
Probable space group: P -1
;
_chemical_formula_sum "Si O2"
_cell_formula_units_Z 16
_cell_length_a 10.162306
_cell_length_b 8.891750
_cell_length_c 13.224185
_cell_angle_alpha 128.173892
_cell_angle_beta 64.234689
_cell_angle_gamma 138.343650
_cell_volume 623.539019
_symmetry_space_group_name_H-M "P -1"
_symmetry_group_IT_number 2
_symmetry_cell_setting 'triclinic'
loop_
_space_group_symop_operation_xyz
x,y,z
-x,-y,-z
loop_
_atom_site_type_symbol
_atom_site_label
_atom_site_fract_x
_atom_site_fract_y
_atom_site_fract_z
Si Si1 0.338837 0.919034 0.104911
Si Si2 0.412297 0.313883 0.817203
Si Si3 0.975791 0.080103 0.900516
Si Si4 0.905619 0.276983 0.586744
Si Si5 0.669533 0.791766 0.602911
Si Si6 0.744865 0.227497 0.407537
Si Si7 0.789228 0.506118 0.868697
Si Si8 0.710000 0.577542 0.670636
O O1 0.255105 0.662409 0.086630
O O2 0.160195 0.884674 0.099036
O O3 0.414669 0.120285 0.256304
O O4 0.500000 0.000000 0.000000
O O5 0.602245 0.477395 0.896617
O O6 0.508143 0.470708 0.744950
O O7 0.368619 0.047924 0.716140
O O8 0.205579 0.238655 0.865429
O O9 0.993334 0.797295 0.948564
O O10 0.869844 0.784205 0.787165
O O11 0.868330 0.238160 0.462627
O O12 0.803454 0.365841 0.714721
O O13 0.132026 0.549017 0.625361
O O14 0.810135 0.012931 0.565037
O O15 0.500000 0.500000 0.500000
O O16 0.792483 0.763971 0.624474
O O17 0.649175 0.315263 0.540251
#
# Coordination Sequence:
#
# PCOD9033694 Si02
#       8
#     2   2   2   2   2   2   2   2
#     4  10  25  50  76 107 153 210 255 307 400 460
#     4  12  26  45  79 113 149 203 255 318 381 451
#     4  11  26  48  72 109 154 195 251 321 377 451
#     4  10  22  44  69 108 146 199 256 305 385 449
#     4  10  23  43  75 113 150 194 260 320 373 461
#     4  11  23  45  73 106 153 200 248 318 385 452
#     4  11  25  46  73 111 146 201 262 307 374 461
#     4  11  25  46  74 111 153 201 250 314 395 446
#
# _framework density 25.659980999999998
#
# number of rings (size 3 to 8) (size 9 to 14) (size 15 to 20)
#    0.000    1.250    1.250    3.375    7.000    2.000 
#    0.000    2.500    0.000    0.000    0.000    0.000 
#    0.000    0.000    0.000    0.000    0.000    0.000 
#
# Total GULP energy -89214.625025 kJ/mol
# GULP energy per Si atom -5575.914064 kJ/mol
# Density = 2.560158 g / cm^3
# Si number density = 25.659981 Si / 1000 Ang^3
#
#
#
# Elastic Constant Matrix: (Units=GPa)
#
#
# Indices 1 2 3 4 5 6 
#
# 1 121.8514 41.4521 38.2760 -9.3710 -5.0366 5.5014
# 2 41.4521 160.7288 40.3573 1.2955 8.0162 -14.6135
# 3 38.2760 40.3573 112.0971 8.1778 -6.6085 15.9050
# 4 -9.3710 1.2955 8.1778 46.4236 5.9035 -2.2507
# 5 -5.0366 8.0162 -6.6085 5.9035 41.2405 0.0767
# 6 5.5014 -14.6135 15.9050 -2.2507 0.0767 45.1121
#
#
#
# Elastic Compliance Matrix: (Units=1/GPa)
#
#
# Indices 1 2 3 4 5 6 
#
# 1 0.010002 -0.002039 -0.002691 0.002403 0.000844 -0.000813
# 2 -0.002039 0.007930 -0.002866 0.000352 -0.002307 0.003849
# 3 -0.002691 -0.002866 0.011961 -0.003143 0.002604 -0.004979
# 4 0.002403 0.000352 -0.003143 0.023128 -0.003593 0.002089
# 5 0.000844 -0.002307 0.002604 -0.003593 0.025735 -0.001992
# 6 -0.000813 0.003849 -0.004979 0.002089 -0.001992 0.025376
#
#
# Mechanical properties :
#
#
# Convention : Reuss Voigt Hill
#
# Bulk Modulus (GPa) = 68.03254 70.53870 69.28562
# Shear Modulus (GPa) = 40.24948 44.86134 42.55541
#
# Velocity S-wave (km/s) = 3.96481 4.18580 4.07681
# Velocity P-wave (km/s) = 6.89422 7.13517 7.01573
#
# Compressibility (1/GPa) = 0.01469885
#
# Stress axis : x y z
#
# Youngs Moduli (GPa) = 99.97733 126.11108 83.60522
#
# Poissons Ratio (x) = 0.25717 0.22501
# Poissons Ratio (y) = 0.20388 0.23964
# Poissons Ratio (z) = 0.26908 0.36148
#
# Static dielectric constant tensor:
#      x y z
#    x 2.166090 -0.065600 0.025530 
#    y -0.065600 2.036120 0.003420 
#    z 0.025530 0.003420 2.109050 
# 
# From -- ./inp_files/516091.got.cif
#   From: 2010.05.17/outbox.cif.g08.bks.cpg/sg2_259_cif.got.tgz:516091.got - 2010.06.03 11:33:40.
