data_PCOD9033105
_publ_section_title
;
Structure prediction by ZEFSAII (Michael W. Deem and Ramdas Pophale) SiO2 
 PCOD9033105
Probable space group: P -1
;
_chemical_formula_sum "Si O2"
_cell_formula_units_Z 14
_cell_length_a 5.720535
_cell_length_b 12.220502
_cell_length_c 13.647472
_cell_angle_alpha 139.439364
_cell_angle_beta 62.943884
_cell_angle_gamma 105.565082
_cell_volume 547.553200
_symmetry_space_group_name_H-M "P -1"
_symmetry_group_IT_number 2
_symmetry_cell_setting 'triclinic'
loop_
_space_group_symop_operation_xyz
x,y,z
-x,-y,-z
loop_
_atom_site_type_symbol
_atom_site_label
_atom_site_fract_x
_atom_site_fract_y
_atom_site_fract_z
Si Si1 0.207066 0.631626 0.823474
Si Si2 0.809514 0.819794 0.335159
Si Si3 0.016669 0.443525 0.571677
Si Si4 0.594164 0.306840 0.828930
Si Si5 0.205678 0.884440 0.163686
Si Si6 0.436360 0.742262 0.494602
Si Si7 0.497121 0.817462 0.735926
O O1 0.988211 0.589492 0.757729
O O2 0.386104 0.448825 0.681397
O O3 0.366867 0.758672 0.817664
O O4 0.130661 0.732175 0.005657
O O5 0.596338 0.742784 0.254548
O O6 0.624268 0.867950 0.496489
O O7 0.081514 0.715138 0.255951
O O8 0.949327 0.942546 0.320592
O O9 0.309646 0.345758 0.450289
O O10 0.000000 0.500000 0.500000
O O11 0.823789 0.308587 0.540275
O O12 0.572789 0.199388 0.859116
O O13 0.500000 0.500000 0.000000
O O14 0.331828 0.030096 0.183191
O O15 0.324414 0.829896 0.678155
#
# Coordination Sequence:
#
# PCOD9033105 Si02
#       7
#     2   2   2   2   2   2   2
#     4  11  22  41  68  98 133 176 234 282 345 411
#     4  10  25  42  67 103 136 178 235 281 347 405
#     4  11  21  42  66  98 131 182 235 278 335 409
#     4  10  22  44  65  98 140 180 231 280 340 414
#     4  10  26  42  66 101 142 183 220 290 355 412
#     4  11  23  41  72  96 129 185 229 291 333 414
#     4  11  23  44  64  99 141 175 231 282 349 414
#
# _framework density 25.568294999999999
#
# number of rings (size 3 to 8) (size 9 to 14) (size 15 to 20)
#    0.857    0.571    2.857    2.571    6.000    2.857 
#    0.000    2.143    0.000    0.000    0.000    0.000 
#    0.000    0.000    0.000    0.000    0.000    0.000 
#
# Total GULP energy -78029.688938 kJ/mol
# GULP energy per Si atom -5573.549210 kJ/mol
# Density = 2.551010 g / cm^3
# Si number density = 25.568295 Si / 1000 Ang^3
#
#
#
# Elastic Constant Matrix: (Units=GPa)
#
#
# Indices 1 2 3 4 5 6 
#
# 1 112.3756 24.9241 30.3789 3.5860 18.8211 13.7887
# 2 24.9241 110.2101 45.3551 -6.0317 3.0960 13.4562
# 3 30.3789 45.3551 86.5762 9.1496 22.2305 -5.1352
# 4 3.5860 -6.0317 9.1496 31.4941 7.5664 1.3648
# 5 18.8211 3.0960 22.2305 7.5664 36.1301 -2.7020
# 6 13.7887 13.4562 -5.1352 1.3648 -2.7020 28.4828
#
#
#
# Elastic Compliance Matrix: (Units=1/GPa)
#
#
# Indices 1 2 3 4 5 6 
#
# 1 0.011338 -0.000334 -0.003086 0.000935 -0.004652 -0.006374
# 2 -0.000334 0.014009 -0.008955 0.004989 0.002837 -0.008041
# 3 -0.003086 -0.008955 0.020628 -0.005712 -0.008454 0.008915
# 4 0.000935 0.004989 -0.005712 0.035809 -0.005353 -0.006063
# 5 -0.004652 0.002837 -0.008454 -0.005353 0.036412 0.003098
# 6 -0.006374 -0.008041 0.008915 -0.006063 0.003098 0.044185
#
#
# Mechanical properties :
#
#
# Convention : Reuss Voigt Hill
#
# Bulk Modulus (GPa) = 47.11219 56.71979 51.91599
# Shear Modulus (GPa) = 25.74571 33.12165 29.43368
#
# Velocity S-wave (km/s) = 3.17667 3.60310 3.39658
# Velocity P-wave (km/s) = 5.64987 6.28821 5.97756
#
# Compressibility (1/GPa) = 0.02122593
#
# Stress axis : x y z
#
# Youngs Moduli (GPa) = 88.19626 71.38030 48.47844
#
# Poissons Ratio (x) = 0.02385 0.14960
# Poissons Ratio (y) = 0.02947 0.43411
# Poissons Ratio (z) = 0.27217 0.63919
#
# Static dielectric constant tensor:
#      x y z
#    x 1.761350 0.282180 -0.192640 
#    y 0.282180 1.723250 0.221020 
#    z -0.192640 0.221020 1.856910 
# 
# From -- ./inp_files/483403.got.cif
#   From: 2010.05.17/outbox.cif.g08.bks.cpg/sg2_242_cif.got.tgz:483403.got - 2010.06.03 11:33:40.
