data_PCOD9033951
_publ_section_title
;
Structure prediction by ZEFSAII (Michael W. Deem and Ramdas Pophale) SiO2 
 PCOD9033951
Probable space group: P -1
;
_chemical_formula_sum "Si O2"
_cell_formula_units_Z 13
_cell_length_a 9.304840
_cell_length_b 9.328269
_cell_length_c 15.986073
_cell_angle_alpha 150.149044
_cell_angle_beta 128.131089
_cell_angle_gamma 64.228996
_cell_volume 524.966736
_symmetry_space_group_name_H-M "P -1"
_symmetry_group_IT_number 2
_symmetry_cell_setting 'triclinic'
loop_
_space_group_symop_operation_xyz
x,y,z
-x,-y,-z
loop_
_atom_site_type_symbol
_atom_site_label
_atom_site_fract_x
_atom_site_fract_y
_atom_site_fract_z
Si Si1 0.804612 0.624352 0.893916
Si Si2 0.565960 0.877154 0.812552
Si Si3 0.817233 0.367497 0.064300
Si Si4 0.500000 0.000000 0.500000
Si Si5 0.732801 0.682506 0.535169
Si Si6 0.057698 0.487678 0.629400
Si Si7 0.769206 0.849067 0.171141
O O1 0.705761 0.845744 0.920866
O O2 0.651017 0.306489 0.680166
O O3 0.987234 0.610478 0.900674
O O4 0.849190 0.727190 0.056606
O O5 0.426846 0.550931 0.588554
O O6 0.428111 0.084087 0.889789
O O7 0.684064 0.033651 0.854309
O O8 0.730683 0.603545 0.105225
O O9 0.859818 0.460046 0.222531
O O10 0.345633 0.055650 0.399202
O O11 0.929003 0.709319 0.669200
O O12 0.782689 0.514362 0.383333
O O13 0.915357 0.154889 0.406689
#
# Coordination Sequence:
#
# PCOD9033951 Si02
#       7
#     2   2   2   1   2   2   2
#     4  11  25  46  70  99 138 179 224 279 345 401
#     4  10  24  44  69 100 137 179 228 276 340 400
#     4  12  25  43  68 107 139 173 224 289 333 397
#     4  10  22  44  70  96 134 176 230 270 332 406
#     4   9  21  43  68  99 131 187 219 276 335 411
#     4  10  23  42  73  97 137 176 233 271 338 399
#     4  11  24  46  72  98 134 183 231 272 337 408
#
# _framework density 24.763473000000001
#
# number of rings (size 3 to 8) (size 9 to 14) (size 15 to 20)
#    0.000    1.538    0.000    3.231   10.769    0.000 
#    8.308    3.846    0.000    0.000    0.000    0.000 
#    0.000    0.000    0.000    0.000    0.000    0.000 
#
# Total GULP energy -72587.607915 kJ/mol
# GULP energy per Si atom -5583.662147 kJ/mol
# Density = 2.470711 g / cm^3
# Si number density = 24.763473 Si / 1000 Ang^3
#
#
#
# Elastic Constant Matrix: (Units=GPa)
#
#
# Indices 1 2 3 4 5 6 
#
# 1 104.6132 48.6267 42.4013 17.1519 22.8101 16.4479
# 2 48.6267 196.8943 22.1322 29.8622 22.3850 14.6299
# 3 42.4013 22.1322 77.7296 16.1239 30.8000 11.2404
# 4 17.1519 29.8622 16.1239 34.0090 12.9960 12.3424
# 5 22.8101 22.3850 30.8000 12.9960 34.8470 5.5707
# 6 16.4479 14.6299 11.2404 12.3424 5.5707 35.1379
#
#
#
# Elastic Compliance Matrix: (Units=1/GPa)
#
#
# Indices 1 2 3 4 5 6 
#
# 1 0.013902 -0.002269 -0.005565 -0.000394 -0.002046 -0.003320
# 2 -0.002269 0.006387 0.001105 -0.004155 -0.002018 -0.000172
# 3 -0.005565 0.001105 0.022620 -0.002125 -0.015978 -0.001812
# 4 -0.000394 -0.004155 -0.002125 0.041531 -0.008994 -0.010568
# 5 -0.002046 -0.002018 -0.015978 -0.008994 0.048427 0.002391
# 6 -0.003320 -0.000172 -0.001812 -0.010568 0.002391 0.033997
#
#
# Mechanical properties :
#
#
# Convention : Reuss Voigt Hill
#
# Bulk Modulus (GPa) = 33.95289 67.28415 50.61852
# Shear Modulus (GPa) = 26.29661 38.53724 32.41692
#
# Velocity S-wave (km/s) = 3.26223 3.94917 3.62202
# Velocity P-wave (km/s) = 5.28490 6.92995 6.16257
#
# Compressibility (1/GPa) = 0.02945257
#
# Stress axis : x y z
#
# Youngs Moduli (GPa) = 71.93310 156.56188 44.20833
#
# Poissons Ratio (x) = 0.35519 0.24601
# Poissons Ratio (y) = 0.16320 -0.04886
# Poissons Ratio (z) = 0.40029 -0.17302
#
# Static dielectric constant tensor:
#      x y z
#    x 1.957130 -0.026050 0.013340 
#    y -0.026050 1.920160 0.014950 
#    z 0.013340 0.014950 2.025270 
# 
# From -- ./inp_files/240833.got.cif
#   From: 2010.05.17/outbox.cif.g08.bks.cpg/sg2_121_cif.got.tgz:240833.got - 2010.06.03 11:33:40.
