data_PCOD9033930
_publ_section_title
;
Structure prediction by ZEFSAII (Michael W. Deem and Ramdas Pophale) SiO2 
 PCOD9033930
Probable space group: P -1
;
_chemical_formula_sum "Si O2"
_cell_formula_units_Z 15
_cell_length_a 20.648825
_cell_length_b 23.427592
_cell_length_c 8.872495
_cell_angle_alpha 142.604754
_cell_angle_beta 135.604476
_cell_angle_gamma 16.682093
_cell_volume 721.153167
_symmetry_space_group_name_H-M "P -1"
_symmetry_group_IT_number 2
_symmetry_cell_setting 'triclinic'
loop_
_space_group_symop_operation_xyz
x,y,z
-x,-y,-z
loop_
_atom_site_type_symbol
_atom_site_label
_atom_site_fract_x
_atom_site_fract_y
_atom_site_fract_z
Si Si1 0.953300 0.766684 0.487522
Si Si2 0.883610 0.832163 0.859832
Si Si3 0.344387 0.298637 0.025758
Si Si4 0.500000 0.500000 0.000000
Si Si5 0.978719 0.958136 0.228172
Si Si6 0.780961 0.142139 0.981595
Si Si7 0.379889 0.080180 0.815359
Si Si8 0.818022 0.587419 0.341161
O O1 0.918091 0.772361 0.616238
O O2 0.847987 0.968678 0.712599
O O3 0.818240 0.812723 0.265909
O O4 0.222766 0.501808 0.329941
O O5 0.073846 0.603267 0.797813
O O6 0.622091 0.052366 0.943904
O O7 0.930529 0.898323 0.078744
O O8 0.228314 0.387844 0.858388
O O9 0.301122 0.247502 0.949420
O O10 0.421940 0.635418 0.000985
O O11 0.223371 0.740616 0.089621
O O12 0.000000 0.000000 0.500000
O O13 0.771078 0.170062 0.204664
O O14 0.000000 0.000000 0.000000
O O15 0.573319 0.847552 0.549102
O O16 0.500000 0.000000 0.000000
O O17 0.000000 0.500000 0.500000
#
# Coordination Sequence:
#
# PCOD9033930 Si02
#       8
#     2   2   2   1   2   2   2   2
#     4  11  24  44  69  95 137 177 229 275 339 405
#     4  11  25  44  67 102 133 182 226 274 346 403
#     4  12  25  45  67  98 140 178 225 285 329 406
#     4  10  22  44  70  94 140 174 216 290 342 394
#     4  10  24  43  69 101 134 173 232 278 344 412
#     4   9  22  45  67 100 132 175 225 279 344 407
#     4  12  24  43  67  98 136 182 226 276 337 402
#     4  12  23  41  68  97 138 177 223 283 333 398
#
# _framework density 20.800021000000001
#
# number of rings (size 3 to 8) (size 9 to 14) (size 15 to 20)
#    0.000    1.067    2.667    3.200    1.867    5.867 
#    2.400    0.000    0.000    0.000    0.000    0.000 
#    0.000    0.000    0.000    0.000    0.000    0.000 
#
# Total GULP energy -83516.116021 kJ/mol
# GULP energy per Si atom -5567.741068 kJ/mol
# Density = 2.075268 g / cm^3
# Si number density = 20.800021 Si / 1000 Ang^3
#
#
#
# Elastic Constant Matrix: (Units=GPa)
#
#
# Indices 1 2 3 4 5 6 
#
# 1 99.2650 37.8398 33.6428 -9.7487 15.2766 35.1898
# 2 37.8398 92.2955 43.8612 6.6419 3.4463 40.5581
# 3 33.6428 43.8612 86.5663 -13.0196 -9.8010 20.8312
# 4 -9.7487 6.6419 -13.0196 33.9398 -6.9573 -2.1990
# 5 15.2766 3.4463 -9.8010 -6.9573 24.4133 5.3280
# 6 35.1898 40.5581 20.8312 -2.1990 5.3280 62.1409
#
#
#
# Elastic Compliance Matrix: (Units=1/GPa)
#
#
# Indices 1 2 3 4 5 6 
#
# 1 0.016025 -0.001085 -0.005553 0.000098 -0.010860 -0.005571
# 2 -0.001085 0.021721 -0.010766 -0.010898 -0.007703 -0.009679
# 3 -0.005553 -0.010766 0.022718 0.012904 0.017462 0.001515
# 4 0.000098 -0.010898 0.012904 0.040350 0.017578 0.002652
# 5 -0.010860 -0.007703 0.017462 0.017578 0.060702 0.000741
# 6 -0.005571 -0.009679 0.001515 0.002652 0.000741 0.025087
#
#
# Mechanical properties :
#
#
# Convention : Reuss Voigt Hill
#
# Bulk Modulus (GPa) = 38.97558 56.53494 47.75526
# Shear Modulus (GPa) = 21.74265 34.95100 28.34682
#
# Velocity S-wave (km/s) = 3.23665 4.10364 3.69565
# Velocity P-wave (km/s) = 5.72248 7.04928 6.42025
#
# Compressibility (1/GPa) = 0.02565709
#
# Stress axis : x y z
#
# Youngs Moduli (GPa) = 62.40113 46.03838 44.01801
#
# Poissons Ratio (x) = 0.04995 0.24441
# Poissons Ratio (y) = 0.06770 0.47390
# Poissons Ratio (z) = 0.34648 0.49566
#
# Static dielectric constant tensor:
#      x y z
#    x 1.635870 -0.034480 -0.076630 
#    y -0.034480 1.786360 0.021700 
#    z -0.076630 0.021700 1.707750 
# 
# From -- ./inp_files/337952.got.cif
#   From: 2010.05.17/outbox.cif.g08.bks.cpg/sg2_169_cif.got.tgz:337952.got - 2010.06.03 11:33:40.
