data_PCOD9033183
_publ_section_title
;
Structure prediction by ZEFSAII (Michael W. Deem and Ramdas Pophale) SiO2 
 PCOD9033183
Probable space group: P -1
;
_chemical_formula_sum "Si O2"
_cell_formula_units_Z 14
_cell_length_a 18.620235
_cell_length_b 5.750309
_cell_length_c 18.119765
_cell_angle_alpha 71.301343
_cell_angle_beta 18.239896
_cell_angle_gamma 69.793588
_cell_volume 569.693532
_symmetry_space_group_name_H-M "P -1"
_symmetry_group_IT_number 2
_symmetry_cell_setting 'triclinic'
loop_
_space_group_symop_operation_xyz
x,y,z
-x,-y,-z
loop_
_atom_site_type_symbol
_atom_site_label
_atom_site_fract_x
_atom_site_fract_y
_atom_site_fract_z
Si Si1 0.396682 0.510814 0.484918
Si Si2 0.020874 0.032632 0.151661
Si Si3 0.712328 0.180758 0.686045
Si Si4 0.629054 0.046730 0.054148
Si Si5 0.781559 0.712291 0.186833
Si Si6 0.873480 0.273228 0.672146
Si Si7 0.732018 0.641272 0.524238
O O1 0.191036 0.743429 0.662136
O O2 0.606274 0.609758 0.311488
O O3 0.328525 0.285380 0.624852
O O4 0.430098 0.427446 0.377009
O O5 0.933384 0.770686 0.277614
O O6 0.141467 0.050516 0.952513
O O7 0.186688 0.074931 0.054057
O O8 0.696202 0.239652 0.782291
O O9 0.799882 0.401781 0.532059
O O10 0.473557 0.124177 0.888692
O O11 0.917198 0.952221 0.503636
O O12 0.409490 0.160025 0.304613
O O13 0.737663 0.262007 0.882323
O O14 0.000000 0.500000 0.000000
O O15 0.000000 0.500000 0.500000
#
# Coordination Sequence:
#
# PCOD9033183 Si02
#       7
#     2   2   2   2   2   2   2
#     4  10  22  44  66  94 132 172 217 268 323 380
#     4  11  23  42  65  94 132 172 217 268 320 380
#     4  11  25  44  67  95 129 171 213 265 323 383
#     4  12  25  42  65  96 130 168 214 264 324 387
#     4   9  20  41  69  94 128 173 219 268 319 377
#     4  11  25  47  70  95 128 168 216 267 321 384
#     4  12  25  40  65  97 131 169 215 266 320 387
#
# _framework density 24.574614
#
# number of rings (size 3 to 8) (size 9 to 14) (size 15 to 20)
#    0.000    1.143    0.000    6.429    0.000    9.714 
#    0.000   11.429    0.000    0.000    0.000    0.000 
#    0.000    0.000    0.000    0.000    0.000    0.000 
#
# Total GULP energy -78425.509327 kJ/mol
# GULP energy per Si atom -5601.822095 kJ/mol
# Density = 2.451868 g / cm^3
# Si number density = 24.574614 Si / 1000 Ang^3
#
#
#
# Elastic Constant Matrix: (Units=GPa)
#
#
# Indices 1 2 3 4 5 6 
#
# 1 149.2037 32.2518 25.5588 -5.2529 -13.9506 -33.7543
# 2 32.2518 88.9038 34.6090 -23.3742 -6.6212 -44.4277
# 3 25.5588 34.6090 64.1513 -27.3456 -1.4137 -33.2393
# 4 -5.2529 -23.3742 -27.3456 35.6160 -17.9869 12.2495
# 5 -13.9506 -6.6212 -1.4137 -17.9869 62.9530 -6.6475
# 6 -33.7543 -44.4277 -33.2393 12.2495 -6.6475 43.4067
#
#
#
# Elastic Compliance Matrix: (Units=1/GPa)
#
#
# Indices 1 2 3 4 5 6 
#
# 1 0.008740 0.002490 0.002128 0.002990 0.004239 0.010780
# 2 0.002490 0.036074 0.016525 0.030158 0.018168 0.045784
# 3 0.002128 0.016525 0.049008 0.042964 0.020562 0.047122
# 4 0.002990 0.030158 0.042964 0.081478 0.033167 0.048180
# 5 0.004239 0.018168 0.020562 0.033167 0.032180 0.033206
# 6 0.010780 0.045784 0.047122 0.048180 0.033206 0.105855
#
#
# Mechanical properties :
#
#
# Convention : Reuss Voigt Hill
#
# Bulk Modulus (GPa) = 7.34710 54.12200 30.73455
# Shear Modulus (GPa) = 15.80194 42.38442 29.09318
#
# Velocity S-wave (km/s) = 2.53853 4.15748 3.44448
# Velocity P-wave (km/s) = 3.40417 6.71696 5.32475
#
# Compressibility (1/GPa) = 0.13610811
#
# Stress axis : x y z
#
# Youngs Moduli (GPa) = 114.41892 27.72090 20.40480
#
# Poissons Ratio (x) = -0.06902 -0.04343
# Poissons Ratio (y) = -0.28488 -0.33719
# Poissons Ratio (z) = -0.24351 -0.45809
#
# Static dielectric constant tensor:
#      x y z
#    x 1.906240 0.017430 0.004450 
#    y 0.017430 1.948600 -0.030870 
#    z 0.004450 -0.030870 1.966510 
# 
# From -- ./inp_files/7462.got.cif
#   From: 2010.05.17/outbox.cif.g08.bks.cpg/sg2_4_cif.got.tgz:7462.got - 2010.06.03 11:33:40.
