data_PCOD9033181
_publ_section_title
;
Structure prediction by ZEFSAII (Michael W. Deem and Ramdas Pophale) SiO2 
 PCOD9033181
Probable space group: P -1
;
_chemical_formula_sum "Si O2"
_cell_formula_units_Z 16
_cell_length_a 8.190714
_cell_length_b 19.863500
_cell_length_c 17.116273
_cell_angle_alpha 159.468622
_cell_angle_beta 123.222303
_cell_angle_gamma 64.146067
_cell_volume 788.387945
_symmetry_space_group_name_H-M "P -1"
_symmetry_group_IT_number 2
_symmetry_cell_setting 'triclinic'
loop_
_space_group_symop_operation_xyz
x,y,z
-x,-y,-z
loop_
_atom_site_type_symbol
_atom_site_label
_atom_site_fract_x
_atom_site_fract_y
_atom_site_fract_z
Si Si1 0.668056 0.336050 0.725103
Si Si2 0.602837 0.040519 0.985820
Si Si3 0.056681 0.376366 0.767138
Si Si4 0.953767 0.756454 0.624438
Si Si5 0.750447 0.923302 0.609788
Si Si6 0.398186 0.368185 0.257123
Si Si7 0.968733 0.360387 0.104230
Si Si8 0.448956 0.357156 0.543296
O O1 0.491830 0.167747 0.539028
O O2 0.534282 0.420236 0.719317
O O3 0.847161 0.288995 0.666454
O O4 0.781564 0.498866 0.993488
O O5 0.520369 0.207885 0.106823
O O6 0.839685 0.114099 0.145020
O O7 0.500000 0.000000 0.000000
O O8 0.532955 0.856311 0.710371
O O9 0.025320 0.541114 0.873938
O O10 0.850228 0.789780 0.431286
O O11 0.856961 0.886947 0.680681
O O12 0.975988 0.558497 0.371717
O O13 0.788593 0.668564 0.551133
O O14 0.795311 0.154181 0.845998
O O15 0.500000 0.500000 0.500000
O O16 0.429611 0.498389 0.330633
O O17 0.158960 0.287891 0.108938
#
# Coordination Sequence:
#
# PCOD9033181 Si02
#       8
#     2   2   2   2   2   2   2   2
#     4  10  22  44  66  94 131 168 214 266 327 375
#     4  12  23  38  63  87 121 167 211 253 311 380
#     4  10  22  44  69  91 131 172 210 267 322 386
#     4  10  23  41  60  91 133 165 205 265 318 372
#     4  10  23  40  68  97 129 170 213 264 321 388
#     4  12  23  39  62  87 124 167 208 260 311 374
#     4  11  22  42  65  97 127 168 215 258 320 385
#     4  11  24  41  62  91 124 166 212 263 314 381
#
# _framework density 20.294577
#
# number of rings (size 3 to 8) (size 9 to 14) (size 15 to 20)
#    0.000    1.250    3.750    1.500    3.500    3.000 
#    0.000    3.750    0.000    0.000    0.000    0.000 
#    0.000    0.000    0.000    0.000    0.000    0.000 
#
# Total GULP energy -89167.663734 kJ/mol
# GULP energy per Si atom -5572.978983 kJ/mol
# Density = 2.024839 g / cm^3
# Si number density = 20.294577 Si / 1000 Ang^3
#
#
#
# Elastic Constant Matrix: (Units=GPa)
#
#
# Indices 1 2 3 4 5 6 
#
# 1 48.2434 4.3529 7.0968 -4.3142 29.4431 3.6332
# 2 4.3529 50.3719 55.0101 -9.5006 0.6066 -10.8745
# 3 7.0968 55.0101 65.4682 -1.5243 16.9115 6.8482
# 4 -4.3142 -9.5006 -1.5243 21.5931 -2.7932 2.3090
# 5 29.4431 0.6066 16.9115 -2.7932 33.7728 -1.4130
# 6 3.6332 -10.8745 6.8482 2.3090 -1.4130 18.2100
#
#
#
# Elastic Compliance Matrix: (Units=1/GPa)
#
#
# Indices 1 2 3 4 5 6 
#
# 1 0.032541 0.022759 -0.018959 0.011653 -0.017845 0.011366
# 2 0.022759 -0.026504 0.033119 -0.005936 -0.037905 -0.035012
# 3 -0.018959 0.033119 -0.021072 0.009525 0.028632 0.032499
# 4 0.011653 -0.005936 0.009525 0.046940 -0.011622 -0.016305
# 5 -0.017845 -0.037905 0.028632 -0.011622 0.029458 -0.026084
# 6 0.011366 -0.035012 0.032499 -0.016305 -0.026084 0.019561
#
#
# Mechanical properties :
#
#
# Convention : Reuss Voigt Hill
#
# Bulk Modulus (GPa) = 17.00621 33.00035 25.00328
# Shear Modulus (GPa) = 187.35956 21.22342 104.29149
#
# Velocity S-wave (km/s) = 9.61875 3.23734 7.17638
# Velocity P-wave (km/s) = 11.47861 5.50180 9.00079
#
# Compressibility (1/GPa) = 0.05880204
#
# Stress axis : x y z
#
# Youngs Moduli (GPa) = 30.73065 -37.73009 -47.45540
#
# Poissons Ratio (x) = 0.85869 -0.89968
# Poissons Ratio (y) = -0.69939 1.57166
# Poissons Ratio (z) = 0.58261 1.24957
#
# Static dielectric constant tensor:
#      x y z
#    x 1.798180 -0.008680 -0.021460 
#    y -0.008680 1.676860 0.072050 
#    z -0.021460 0.072050 1.669530 
# 
# From -- ./inp_files/562825.got.cif
#   From: 2010.05.17/outbox.cif.g08.bks.cpg/sg2_282_cif.got.tgz:562825.got - 2010.06.03 11:33:40.
