data_PCOD9033102
_publ_section_title
;
Structure prediction by ZEFSAII (Michael W. Deem and Ramdas Pophale) SiO2 
 PCOD9033102
Probable space group: P -1
;
_chemical_formula_sum "Si O2"
_cell_formula_units_Z 16
_cell_length_a 15.063722
_cell_length_b 12.278124
_cell_length_c 8.056865
_cell_angle_alpha 105.850838
_cell_angle_beta 126.659430
_cell_angle_gamma 39.912623
_cell_volume 715.834668
_symmetry_space_group_name_H-M "P -1"
_symmetry_group_IT_number 2
_symmetry_cell_setting 'triclinic'
loop_
_space_group_symop_operation_xyz
x,y,z
-x,-y,-z
loop_
_atom_site_type_symbol
_atom_site_label
_atom_site_fract_x
_atom_site_fract_y
_atom_site_fract_z
Si Si1 0.496402 0.246155 0.278100
Si Si2 0.487066 0.637778 0.308806
Si Si3 0.713227 0.632291 0.361604
Si Si4 0.118807 0.614305 0.845530
Si Si5 0.131371 0.320881 0.175932
Si Si6 0.463523 0.019433 0.265057
Si Si7 0.248769 0.780278 0.564212
Si Si8 0.883928 0.127991 0.168995
O O1 0.511395 0.289276 0.494456
O O2 0.500138 0.109288 0.256818
O O3 0.659170 0.170499 0.327187
O O4 0.309014 0.436802 0.070995
O O5 0.605312 0.609580 0.293437
O O6 0.592908 0.436526 0.379991
O O7 0.285193 0.786605 0.082552
O O8 0.865009 0.472680 0.339900
O O9 0.785413 0.649024 0.600159
O O10 0.568518 0.836487 0.214951
O O11 0.092872 0.764928 0.832697
O O12 0.962338 0.695333 0.820231
O O13 0.256016 0.163228 0.111919
O O14 0.000000 0.500000 0.000000
O O15 0.500000 0.000000 0.500000
O O16 0.179156 0.814950 0.686321
O O17 0.077408 0.912061 0.305012
#
# Coordination Sequence:
#
# PCOD9033102 Si02
#       8
#     2   2   2   2   2   2   2   2
#     4  12  24  44  72  97 142 186 227 291 348 420
#     4  12  22  47  70 101 141 182 233 287 355 407
#     4  11  24  43  71  97 138 190 225 285 352 414
#     4  12  24  44  71 100 141 188 231 286 357 412
#     4  11  22  45  66  99 137 177 230 288 342 410
#     4  10  22  44  65  98 135 181 226 283 342 409
#     4  11  25  45  67 104 136 182 236 284 354 412
#     4  11  26  45  70 102 143 182 228 298 345 421
#
# _framework density 22.35153
#
# number of rings (size 3 to 8) (size 9 to 14) (size 15 to 20)
#    0.000    0.750    6.250    1.875    3.500    1.000 
#    4.500    0.000    0.000    0.000    0.000    0.000 
#    0.000    0.000    0.000    0.000    0.000    0.000 
#
# Total GULP energy -89403.386237 kJ/mol
# GULP energy per Si atom -5587.711640 kJ/mol
# Density = 2.230066 g / cm^3
# Si number density = 22.351530 Si / 1000 Ang^3
#
#
#
# Elastic Constant Matrix: (Units=GPa)
#
#
# Indices 1 2 3 4 5 6 
#
# 1 -316.5510 219.7409 82.7451 108.4533 119.3544 413.4756
# 2 219.7409 -27.2207 -6.4752 -54.4574 -41.4997 -133.6480
# 3 82.7451 -6.4752 68.8111 -36.9339 -13.0364 -57.6406
# 4 108.4533 -54.4574 -36.9339 3.8523 -25.3537 -92.7502
# 5 119.3544 -41.4997 -13.0364 -25.3537 6.8266 -90.5485
# 6 413.4756 -133.6480 -57.6406 -92.7502 -90.5485 -281.9935
#
#
#
# Elastic Compliance Matrix: (Units=1/GPa)
#
#
# Indices 1 2 3 4 5 6 
#
# 1 0.004005 -0.002588 0.001356 0.002997 0.001022 0.005507
# 2 -0.002588 0.035493 -0.008052 0.004782 -0.001728 -0.019988
# 3 0.001356 -0.008052 0.016376 0.007529 -0.002601 0.000816
# 4 0.002997 0.004782 0.007529 0.037532 -0.004846 -0.010199
# 5 0.001022 -0.001728 -0.002601 -0.004846 0.029298 -0.004965
# 6 0.005507 -0.019988 0.000816 -0.010199 -0.004965 0.018784
#
#
# Mechanical properties :
#
#
# Convention : Reuss Voigt Hill
#
# Bulk Modulus (GPa) = 26.80492 35.22899 31.01695
# Shear Modulus (GPa) = 28.98724 -92.32768 -31.67022
#
# Velocity S-wave (km/s) = 3.60513 -6.43403 -3.76828
# Velocity P-wave (km/s) = 5.41735 6.27695 2.24192
#
# Compressibility (1/GPa) = 0.03730659
#
# Stress axis : x y z
#
# Youngs Moduli (GPa) = 249.70953 28.17481 61.06427
#
# Poissons Ratio (x) = 0.07291 -0.08283
# Poissons Ratio (y) = 0.64618 0.49170
# Poissons Ratio (z) = -0.33870 0.22687
#
# Static dielectric constant tensor:
#      x y z
#    x 1.841500 -0.026800 0.008130 
#    y -0.026800 1.830440 -0.072420 
#    z 0.008130 -0.072420 1.903080 
# 
# From -- ./inp_files/308189.got.cif
#   From: 2010.05.17/outbox.cif.g08.bks.cpg/sg2_155_cif.got.tgz:308189.got - 2010.06.03 11:33:40.
