data_PCOD9033420
_publ_section_title
;
Structure prediction by ZEFSAII (Michael W. Deem and Ramdas Pophale) SiO2 
 PCOD9033420
Probable space group: P -1
;
_chemical_formula_sum "Si O2"
_cell_formula_units_Z 16
_cell_length_a 8.220282
_cell_length_b 15.000290
_cell_length_c 20.630301
_cell_angle_alpha 19.821154
_cell_angle_beta 131.638641
_cell_angle_gamma 129.244320
_cell_volume 644.364434
_symmetry_space_group_name_H-M "P -1"
_symmetry_group_IT_number 2
_symmetry_cell_setting 'triclinic'
loop_
_space_group_symop_operation_xyz
x,y,z
-x,-y,-z
loop_
_atom_site_type_symbol
_atom_site_label
_atom_site_fract_x
_atom_site_fract_y
_atom_site_fract_z
Si Si1 0.788804 0.105487 0.457824
Si Si2 0.320718 0.518808 0.604053
Si Si3 0.211105 0.250583 0.419632
Si Si4 0.291227 0.263919 0.198119
Si Si5 0.643321 0.157472 0.156382
Si Si6 0.414849 0.248087 0.690531
Si Si7 0.808213 0.893360 0.861491
Si Si8 0.841816 0.969757 0.039415
O O1 0.550408 0.212977 0.307841
O O2 0.978416 0.314757 0.344874
O O3 0.811804 0.858988 0.583683
O O4 0.809214 0.979639 0.620451
O O5 0.583159 0.550956 0.658352
O O6 0.271717 0.367464 0.627425
O O7 0.239581 0.810635 0.377689
O O8 0.217379 0.337557 0.755610
O O9 0.273935 0.999127 0.652166
O O10 0.217839 0.270216 0.099648
O O11 0.258010 0.550982 0.022811
O O12 0.683699 0.971187 0.233458
O O13 0.384734 0.174249 0.091801
O O14 0.500000 0.500000 0.500000
O O15 0.620058 0.113616 0.869280
O O16 0.034215 0.911829 0.946294
O O17 0.000000 0.000000 0.000000
#
# Coordination Sequence:
#
# PCOD9033420 Si02
#       8
#     2   2   2   2   2   2   2   2
#     4  10  23  42  69 104 138 192 234 281 363 421
#     4  11  24  47  71 101 146 188 235 298 355 418
#     4  10  22  44  67  99 142 188 231 286 351 430
#     4  11  24  44  70 105 145 182 232 302 349 419
#     4  11  23  43  70  98 144 187 229 294 357 413
#     4  12  24  48  70 100 144 190 235 296 353 420
#     4  11  23  46  69 107 148 182 236 295 359 423
#     4  12  26  45  74 109 136 195 241 292 362 428
#
# _framework density 24.830670999999999
#
# number of rings (size 3 to 8) (size 9 to 14) (size 15 to 20)
#    0.000    1.000    6.250    1.125    1.750    2.500 
#    4.500    0.000    0.000    0.000    0.000    0.000 
#    0.000    0.000    0.000    0.000    0.000    0.000 
#
# Total GULP energy -89658.113166 kJ/mol
# GULP energy per Si atom -5603.632073 kJ/mol
# Density = 2.477415 g / cm^3
# Si number density = 24.830671 Si / 1000 Ang^3
#
#
#
# Elastic Constant Matrix: (Units=GPa)
#
#
# Indices 1 2 3 4 5 6 
#
# 1 73.1514 22.8446 20.6540 -16.1401 -28.5165 12.6967
# 2 22.8446 129.4777 33.9855 -6.4263 -3.1068 3.0295
# 3 20.6540 33.9855 92.7407 -20.3574 -16.6511 4.7170
# 4 -16.1401 -6.4263 -20.3574 47.0769 0.0094 8.3223
# 5 -28.5165 -3.1068 -16.6511 0.0094 37.1033 -4.3658
# 6 12.6967 3.0295 4.7170 8.3223 -4.3658 40.4468
#
#
#
# Elastic Compliance Matrix: (Units=1/GPa)
#
#
# Indices 1 2 3 4 5 6 
#
# 1 0.025509 -0.003824 0.001863 0.010443 0.019176 -0.008017
# 2 -0.003824 0.009144 -0.003596 -0.001777 -0.003680 0.000903
# 3 0.001863 -0.003596 0.014679 0.006964 0.007403 -0.002661
# 4 0.010443 -0.001777 0.006964 0.029160 0.009950 -0.008883
# 5 0.019176 -0.003680 0.007403 0.009950 0.044245 -0.003879
# 6 -0.008017 0.000903 -0.002661 -0.008883 -0.003879 0.028892
#
#
# Mechanical properties :
#
#
# Convention : Reuss Voigt Hill
#
# Bulk Modulus (GPa) = 26.16504 50.03757 38.10131
# Shear Modulus (GPa) = 28.49284 39.45111 33.97198
#
# Velocity S-wave (km/s) = 3.39113 3.99031 3.70286
# Velocity P-wave (km/s) = 5.08854 6.43625 5.80166
#
# Compressibility (1/GPa) = 0.03821894
#
# Stress axis : x y z
#
# Youngs Moduli (GPa) = 39.20155 109.35796 68.12446
#
# Poissons Ratio (x) = 0.41816 -0.12692
# Poissons Ratio (y) = 0.14990 0.24498
# Poissons Ratio (z) = -0.07304 0.39326
#
# Static dielectric constant tensor:
#      x y z
#    x 2.015220 0.045390 0.019800 
#    y 0.045390 1.962170 0.000650 
#    z 0.019800 0.000650 1.924610 
# 
# From -- ./inp_files/590438.got.cif
#   From: 2010.05.17/outbox.cif.g08.bks.cpg/sg2_296_cif.got.tgz:590438.got - 2010.06.03 11:33:40.
