data_PCOD9033541
_publ_section_title
;
Structure prediction by ZEFSAII (Michael W. Deem and Ramdas Pophale) SiO2 
 PCOD9033541
Probable space group: P -1
;
_chemical_formula_sum "Si O2"
_cell_formula_units_Z 12
_cell_length_a 15.453688
_cell_length_b 7.190746
_cell_length_c 8.986227
_cell_angle_alpha 73.516047
_cell_angle_beta 89.116360
_cell_angle_gamma 35.122404
_cell_volume 506.633423
_symmetry_space_group_name_H-M "P -1"
_symmetry_group_IT_number 2
_symmetry_cell_setting 'triclinic'
loop_
_space_group_symop_operation_xyz
x,y,z
-x,-y,-z
loop_
_atom_site_type_symbol
_atom_site_label
_atom_site_fract_x
_atom_site_fract_y
_atom_site_fract_z
Si Si1 0.704455 0.885828 0.378897
Si Si2 0.279289 0.525364 0.694218
Si Si3 0.612763 0.441961 0.595713
Si Si4 0.031708 0.764291 0.255885
Si Si5 0.837652 0.084115 0.915923
Si Si6 0.386480 0.565631 0.902969
O O1 0.838593 0.597514 0.567518
O O2 0.526614 0.187010 0.387574
O O3 0.302206 0.610599 0.027896
O O4 0.715321 0.081980 0.271046
O O5 0.297943 0.595243 0.519433
O O6 0.274103 0.308719 0.709767
O O7 0.430012 0.323459 0.833904
O O8 0.118273 0.891319 0.708671
O O9 0.500000 0.500000 0.500000
O O10 0.751261 0.115437 0.786060
O O11 0.106534 0.825624 0.184521
O O12 0.976749 0.758999 0.105888
O O13 0.500000 0.500000 0.000000
#
# Coordination Sequence:
#
# PCOD9033541 Si02
#       6
#     2   2   2   2   2   2
#     4  12  24  42  75 103 132 188 235 270 362 404
#     4  11  24  43  73  98 142 180 232 280 343 419
#     4  12  23  44  71 100 135 182 230 288 337 405
#     4  10  24  45  70 102 139 186 224 286 345 412
#     4  10  22  44  68  95 148 173 224 295 336 397
#     4  11  23  45  66 104 142 177 229 295 335 403
#
# _framework density 23.685765
#
# number of rings (size 3 to 8) (size 9 to 14) (size 15 to 20)
#    0.000    1.000    5.000    1.000    0.000    3.333 
#    0.000    6.667    0.000    0.000    0.000    0.000 
#    0.000    0.000    0.000    0.000    0.000    0.000 
#
# Total GULP energy -66902.225989 kJ/mol
# GULP energy per Si atom -5575.185499 kJ/mol
# Density = 2.363186 g / cm^3
# Si number density = 23.685765 Si / 1000 Ang^3
#
#
#
# Elastic Constant Matrix: (Units=GPa)
#
#
# Indices 1 2 3 4 5 6 
#
# 1 94.2786 35.9337 56.4859 6.5950 10.1060 -3.9670
# 2 35.9337 79.0774 53.5972 6.9077 -14.4512 -11.2175
# 3 56.4859 53.5972 157.9791 3.7848 37.6202 10.2995
# 4 6.5950 6.9077 3.7848 34.4709 -17.7921 -9.5689
# 5 10.1060 -14.4512 37.6202 -17.7921 60.7062 12.5698
# 6 -3.9670 -11.2175 10.2995 -9.5689 12.5698 33.7314
#
#
#
# Elastic Compliance Matrix: (Units=1/GPa)
#
#
# Indices 1 2 3 4 5 6 
#
# 1 0.014767 -0.004709 -0.003064 -0.002562 -0.002720 0.001393
# 2 -0.004709 0.025115 -0.010741 0.006244 0.013641 0.007766
# 3 -0.003064 -0.010741 0.014377 -0.006466 -0.011648 -0.005816
# 4 -0.002562 0.006244 -0.006466 0.039562 0.015620 0.009152
# 5 -0.002720 0.013641 -0.011648 0.015620 0.031904 0.000315
# 6 0.001393 0.007766 -0.005816 0.009152 0.000315 0.036647
#
#
# Mechanical properties :
#
#
# Convention : Reuss Voigt Hill
#
# Bulk Modulus (GPa) = 58.03643 69.26319 63.64981
# Shear Modulus (GPa) = 24.37305 38.13624 31.25465
#
# Velocity S-wave (km/s) = 3.21131 4.01695 3.63651
# Velocity P-wave (km/s) = 6.18917 7.12885 6.67557
#
# Compressibility (1/GPa) = 0.01723056
#
# Stress axis : x y z
#
# Youngs Moduli (GPa) = 67.71897 39.81667 69.55325
#
# Poissons Ratio (x) = 0.18751 0.21311
# Poissons Ratio (y) = 0.31890 0.74709
# Poissons Ratio (z) = 0.20749 0.42768
#
# Static dielectric constant tensor:
#      x y z
#    x 1.928070 -0.047880 0.117720 
#    y -0.047880 1.949350 -0.055270 
#    z 0.117720 -0.055270 1.972430 
# 
# From -- ./inp_files/324703.got.cif
#   From: 2010.05.17/outbox.cif.g08.bks.cpg/sg2_163_cif.got.tgz:324703.got - 2010.06.03 11:33:40.
