data_PCOD9033013
_publ_section_title
;
Structure prediction by ZEFSAII (Michael W. Deem and Ramdas Pophale) SiO2 
 PCOD9033013
Probable space group: P -1
;
_chemical_formula_sum "Si O2"
_cell_formula_units_Z 14
_cell_length_a 5.670666
_cell_length_b 9.811530
_cell_length_c 24.808270
_cell_angle_alpha 155.363594
_cell_angle_beta 88.741897
_cell_angle_gamma 90.620861
_cell_volume 575.104976
_symmetry_space_group_name_H-M "P -1"
_symmetry_group_IT_number 2
_symmetry_cell_setting 'triclinic'
loop_
_space_group_symop_operation_xyz
x,y,z
-x,-y,-z
loop_
_atom_site_type_symbol
_atom_site_label
_atom_site_fract_x
_atom_site_fract_y
_atom_site_fract_z
Si Si1 0.888415 0.105839 0.104761
Si Si2 0.585476 0.959465 0.797817
Si Si3 0.080484 0.127183 0.858000
Si Si4 0.452077 0.624336 0.464964
Si Si5 0.177944 0.255842 0.731816
Si Si6 0.395370 0.776457 0.985932
Si Si7 0.813604 0.796202 0.602521
O O1 0.882452 0.472261 0.214695
O O2 0.890048 0.063868 0.154332
O O3 0.645953 0.931515 0.025065
O O4 0.140720 0.938108 0.028310
O O5 0.554755 0.567295 0.660168
O O6 0.342119 0.094139 0.820985
O O7 0.600520 0.156902 0.925396
O O8 0.847829 0.990480 0.782785
O O9 0.000000 0.500000 0.000000
O O10 0.701281 0.756901 0.529549
O O11 0.389706 0.323683 0.398479
O O12 0.279837 0.930961 0.585778
O O13 0.367246 0.422749 0.831053
O O14 0.951996 0.135388 0.723454
O O15 0.000000 0.500000 0.500000
#
# Coordination Sequence:
#
# PCOD9033013 Si02
#       7
#     2   2   2   2   2   2   2
#     4  10  23  42  66 100 135 176 225 275 334 403
#     4  10  23  43  68  96 134 170 222 278 333 398
#     4  10  22  44  64  99 136 175 219 277 336 397
#     4  10  23  43  66  96 135 177 225 280 335 400
#     4  11  23  40  71  94 134 180 221 278 339 396
#     4  10  23  43  65 100 137 170 224 280 331 399
#     4   9  22  43  61  96 133 178 228 274 330 400
#
# _framework density 24.343385000000001
#
# number of rings (size 3 to 8) (size 9 to 14) (size 15 to 20)
#    0.000    2.000    0.000    1.286    8.000    2.286 
#   23.143    5.714    0.000    0.000    0.000    0.000 
#    0.000    0.000    0.000    0.000    0.000    0.000 
#
# Total GULP energy -78036.104625 kJ/mol
# GULP energy per Si atom -5574.007473 kJ/mol
# Density = 2.428798 g / cm^3
# Si number density = 24.343385 Si / 1000 Ang^3
#
#
#
# Elastic Constant Matrix: (Units=GPa)
#
#
# Indices 1 2 3 4 5 6 
#
# 1 210.2801 32.3792 49.1740 8.6922 15.8729 -18.0264
# 2 32.3792 87.1856 30.9774 23.1485 -2.8090 19.3059
# 3 49.1740 30.9774 150.2318 10.0670 4.5849 -0.6945
# 4 8.6922 23.1485 10.0670 32.0824 -0.8745 3.4878
# 5 15.8729 -2.8090 4.5849 -0.8745 55.1056 3.1124
# 6 -18.0264 19.3059 -0.6945 3.4878 3.1124 30.9354
#
#
#
# Elastic Compliance Matrix: (Units=1/GPa)
#
#
# Indices 1 2 3 4 5 6 
#
# 1 0.006216 -0.003329 -0.001283 0.000426 -0.002177 0.005842
# 2 -0.003329 0.019424 -0.002330 -0.010877 0.002714 -0.013161
# 3 -0.001283 -0.002330 0.007607 -0.000476 -0.000445 0.000976
# 4 0.000426 -0.010877 -0.000476 0.038756 -0.000174 0.002674
# 5 -0.002177 0.002714 -0.000445 -0.000174 0.019222 -0.004886
# 6 0.005842 -0.013161 0.000976 0.002674 -0.004886 0.044155
#
#
# Mechanical properties :
#
#
# Convention : Reuss Voigt Hill
#
# Bulk Modulus (GPa) = 51.65047 74.75096 63.20072
# Shear Modulus (GPa) = 32.10903 45.96914 39.03908
#
# Velocity S-wave (km/s) = 3.63575 4.35024 4.00895
# Velocity P-wave (km/s) = 6.23606 7.48374 6.88821
#
# Compressibility (1/GPa) = 0.01936091
#
# Stress axis : x y z
#
# Youngs Moduli (GPa) = 160.88093 51.48314 131.46044
#
# Poissons Ratio (x) = 0.17141 0.16869
# Poissons Ratio (y) = 0.53565 0.30632
# Poissons Ratio (z) = 0.20644 0.11996
#
# Static dielectric constant tensor:
#      x y z
#    x 2.097760 0.118940 0.009770 
#    y 0.118940 2.081640 -0.089510 
#    z 0.009770 -0.089510 2.070530 
# 
# From -- ./inp_files/621873.got.cif
#   From: 2010.05.17/outbox.cif.g08.bks.cpg/sg2_311_cif.got.tgz:621873.got - 2010.06.03 11:33:40.
