data_PCOD9033007
_publ_section_title
;
Structure prediction by ZEFSAII (Michael W. Deem and Ramdas Pophale) SiO2 
 PCOD9033007
Probable space group: P -1
;
_chemical_formula_sum "Si O2"
_cell_formula_units_Z 12
_cell_length_a 5.732055
_cell_length_b 9.632795
_cell_length_c 15.538970
_cell_angle_alpha 116.425925
_cell_angle_beta 60.613172
_cell_angle_gamma 136.414941
_cell_volume 509.649047
_symmetry_space_group_name_H-M "P -1"
_symmetry_group_IT_number 2
_symmetry_cell_setting 'triclinic'
loop_
_space_group_symop_operation_xyz
x,y,z
-x,-y,-z
loop_
_atom_site_type_symbol
_atom_site_label
_atom_site_fract_x
_atom_site_fract_y
_atom_site_fract_z
Si Si1 0.320927 0.901846 0.725127
Si Si2 0.628661 0.430768 0.073316
Si Si3 0.811886 0.591871 0.581383
Si Si4 0.452505 0.267624 0.877961
Si Si5 0.277081 0.579439 0.761497
Si Si6 0.824129 0.097398 0.537614
O O1 0.349195 0.758142 0.739062
O O2 0.039238 0.752149 0.661829
O O3 0.272256 0.036994 0.827803
O O4 0.653465 0.074154 0.653022
O O5 0.674714 0.633330 0.127002
O O6 0.528199 0.331597 0.157286
O O7 0.397452 0.299339 0.996030
O O8 0.000000 0.500000 0.000000
O O9 0.424789 0.482155 0.658817
O O10 0.000000 0.500000 0.500000
O O11 0.866542 0.700086 0.512134
O O12 0.867781 0.416249 0.817874
O O13 0.500000 0.000000 0.500000
O O14 0.000000 0.000000 0.500000
#
# Coordination Sequence:
#
# PCOD9033007 Si02
#       6
#     2   2   2   2   2   2
#     4  11  25  42  66 100 133 183 229 284 344 416
#     4   9  21  44  69 100 131 172 217 286 350 417
#     4  11  26  44  65  99 141 185 231 287 344 413
#     4  10  23  44  71  97 135 172 226 283 348 416
#     4  11  23  43  69  98 135 176 232 277 350 412
#     4  10  22  44  64  97 142 182 236 289 349 414
#
# _framework density 23.545614
#
# number of rings (size 3 to 8) (size 9 to 14) (size 15 to 20)
#    0.000    1.667    1.667    1.000    4.667    6.667 
#    0.000   11.667    0.000    0.000    0.000    0.000 
#    0.000    0.000    0.000    0.000    0.000    0.000 
#
# Total GULP energy -66909.831902 kJ/mol
# GULP energy per Si atom -5575.819325 kJ/mol
# Density = 2.349202 g / cm^3
# Si number density = 23.545614 Si / 1000 Ang^3
#
#
#
# Elastic Constant Matrix: (Units=GPa)
#
#
# Indices 1 2 3 4 5 6 
#
# 1 103.9949 49.9543 48.5360 -3.0874 -4.6619 -26.5326
# 2 49.9543 83.0401 59.3527 -4.9702 7.1647 -12.5300
# 3 48.5360 59.3527 147.4490 -9.8258 1.4417 -16.9265
# 4 -3.0874 -4.9702 -9.8258 54.2986 -7.8935 -4.1245
# 5 -4.6619 7.1647 1.4417 -7.8935 57.6730 -12.0504
# 6 -26.5326 -12.5300 -16.9265 -4.1245 -12.0504 41.9598
#
#
#
# Elastic Compliance Matrix: (Units=1/GPa)
#
#
# Indices 1 2 3 4 5 6 
#
# 1 0.016572 -0.008122 -0.001106 0.001329 0.004441 0.009014
# 2 -0.008122 0.021260 -0.006141 -0.000342 -0.003683 -0.002356
# 3 -0.001106 -0.006141 0.009925 0.001465 0.001025 0.001909
# 4 0.001329 -0.000342 0.001465 0.019591 0.003697 0.004317
# 5 0.004441 -0.003683 0.001025 0.003697 0.020378 0.008338
# 6 0.009014 -0.002356 0.001909 0.004317 0.008338 0.032417
#
#
# Mechanical properties :
#
#
# Convention : Reuss Voigt Hill
#
# Bulk Modulus (GPa) = 58.76225 72.24111 65.50168
# Shear Modulus (GPa) = 31.93784 42.56234 37.25009
#
# Velocity S-wave (km/s) = 3.68696 4.25626 3.98180
# Velocity P-wave (km/s) = 6.56779 7.40961 7.00136
#
# Compressibility (1/GPa) = 0.01701773
#
# Stress axis : x y z
#
# Youngs Moduli (GPa) = 60.34393 47.03700 100.75838
#
# Poissons Ratio (x) = 0.38205 0.11139
# Poissons Ratio (y) = 0.49014 0.61879
# Poissons Ratio (z) = 0.06671 0.28887
#
# Static dielectric constant tensor:
#      x y z
#    x 1.946640 0.070470 -0.014550 
#    y 0.070470 1.910830 0.025130 
#    z -0.014550 0.025130 1.930260 
# 
# From -- ./inp_files/27388.got.cif
#   From: 2010.05.17/outbox.cif.g08.bks.cpg/sg2_14_cif.got.tgz:27388.got - 2010.06.03 11:33:40.
