data_PCOD9033881
_publ_section_title
;
Structure prediction by ZEFSAII (Michael W. Deem and Ramdas Pophale) SiO2 
 PCOD9033881
Probable space group: P -1
;
_chemical_formula_sum "Si O2"
_cell_formula_units_Z 14
_cell_length_a 10.723360
_cell_length_b 10.817062
_cell_length_c 14.534926
_cell_angle_alpha 50.757322
_cell_angle_beta 139.021680
_cell_angle_gamma 149.460632
_cell_volume 561.013893
_symmetry_space_group_name_H-M "P -1"
_symmetry_group_IT_number 2
_symmetry_cell_setting 'triclinic'
loop_
_space_group_symop_operation_xyz
x,y,z
-x,-y,-z
loop_
_atom_site_type_symbol
_atom_site_label
_atom_site_fract_x
_atom_site_fract_y
_atom_site_fract_z
Si Si1 0.344406 0.757296 0.584782
Si Si2 0.827908 0.754868 0.466589
Si Si3 0.757825 0.455652 0.715356
Si Si4 0.835994 0.667440 0.116733
Si Si5 0.307396 0.663488 0.957637
Si Si6 0.313180 0.386442 0.739012
Si Si7 0.588613 0.995291 0.803931
O O1 0.469489 0.656893 0.682868
O O2 0.000000 0.500000 0.500000
O O3 0.500000 0.000000 0.500000
O O4 0.395813 0.828688 0.686853
O O5 0.872971 0.624713 0.611654
O O6 0.486979 0.586310 0.358407
O O7 0.891428 0.779299 0.383255
O O8 0.000000 0.000000 0.500000
O O9 0.605254 0.197148 0.719125
O O10 0.026413 0.581679 0.872712
O O11 0.819141 0.489686 0.136790
O O12 0.873317 0.710268 0.225763
O O13 0.113145 0.908385 0.103215
O O14 0.500000 0.500000 0.000000
O O15 0.539910 0.926568 0.916948
O O16 0.460940 0.616936 0.118040
#
# Coordination Sequence:
#
# PCOD9033881 Si02
#       7
#     2   2   2   2   2   2   2
#     4  12  27  44  70 112 152 198 247 305 373 456
#     4  11  25  47  73  96 139 192 246 307 362 443
#     4  10  24  47  70 101 135 194 246 304 374 436
#     4   9  20  41  63 107 146 184 230 291 369 443
#     4  10  22  44  70 105 147 185 241 299 382 439
#     4  11  24  45  70 109 144 187 250 298 369 446
#     4  11  22  43  74 100 154 191 232 312 370 449
#
# _framework density 24.954816999999998
#
# number of rings (size 3 to 8) (size 9 to 14) (size 15 to 20)
#    0.000    1.429    1.429    2.571    6.000    2.857 
#   18.000    2.857    0.000    0.000    0.000    0.000 
#    0.000    0.000    0.000    0.000    0.000    0.000 
#
# Total GULP energy -78054.122855 kJ/mol
# GULP energy per Si atom -5575.294490 kJ/mol
# Density = 2.489802 g / cm^3
# Si number density = 24.954817 Si / 1000 Ang^3
#
#
#
# Elastic Constant Matrix: (Units=GPa)
#
#
# Indices 1 2 3 4 5 6 
#
# 1 40.0373 3.9424 30.2742 2.2935 2.7552 -0.0616
# 2 3.9424 94.8527 61.0083 -15.8931 2.2923 -11.2491
# 3 30.2742 61.0083 154.2744 -22.3965 15.1069 -3.3824
# 4 2.2935 -15.8931 -22.3965 30.8405 -4.3936 14.5356
# 5 2.7552 2.2923 15.1069 -4.3936 59.8179 7.1918
# 6 -0.0616 -11.2491 -3.3824 14.5356 7.1918 38.8337
#
#
#
# Elastic Compliance Matrix: (Units=1/GPa)
#
#
# Indices 1 2 3 4 5 6 
#
# 1 0.031733 0.003211 -0.008640 -0.008738 -0.000476 0.003587
# 2 0.003211 0.015128 -0.006382 0.001528 0.000618 0.003145
# 3 -0.008640 -0.006382 0.011827 0.007298 -0.001411 -0.003303
# 4 -0.008738 0.001528 0.007298 0.048103 0.004163 -0.017712
# 5 -0.000476 0.000618 -0.001411 0.004163 0.017958 -0.004829
# 6 0.003587 0.003145 -0.003303 -0.017712 -0.004829 0.033904
#
#
# Mechanical properties :
#
#
# Convention : Reuss Voigt Hill
#
# Bulk Modulus (GPa) = 28.51879 53.29047 40.90463
# Shear Modulus (GPa) = 25.77805 38.82772 32.30289
#
# Velocity S-wave (km/s) = 3.21750 3.94880 3.60176
# Velocity P-wave (km/s) = 5.02554 6.49552 5.80723
#
# Compressibility (1/GPa) = 0.03506460
#
# Stress axis : x y z
#
# Youngs Moduli (GPa) = 31.51335 66.10061 84.55485
#
# Poissons Ratio (x) = -0.21226 0.73058
# Poissons Ratio (y) = -0.10120 0.53967
# Poissons Ratio (z) = 0.27228 0.42189
#
# Static dielectric constant tensor:
#      x y z
#    x 2.281150 0.451560 0.161890 
#    y 0.451560 2.746880 0.189500 
#    z 0.161890 0.189500 2.107870 
# 
# From -- ./inp_files/518778.got.cif
#   From: 2010.05.17/outbox.cif.g08.bks.cpg/sg2_260_cif.got.tgz:518778.got - 2010.06.03 11:33:40.
