data_PCOD9033219
_publ_section_title
;
Structure prediction by ZEFSAII (Michael W. Deem and Ramdas Pophale) SiO2 
 PCOD9033219
Probable space group: P -1
;
_chemical_formula_sum "Si O2"
_cell_formula_units_Z 16
_cell_length_a 11.476537
_cell_length_b 15.668798
_cell_length_c 9.920790
_cell_angle_alpha 102.732388
_cell_angle_beta 91.544937
_cell_angle_gamma 27.518403
_cell_volume 745.684267
_symmetry_space_group_name_H-M "P -1"
_symmetry_group_IT_number 2
_symmetry_cell_setting 'triclinic'
loop_
_space_group_symop_operation_xyz
x,y,z
-x,-y,-z
loop_
_atom_site_type_symbol
_atom_site_label
_atom_site_fract_x
_atom_site_fract_y
_atom_site_fract_z
Si Si1 0.969087 0.585162 0.655917
Si Si2 0.186157 0.135356 0.671011
Si Si3 0.831111 0.866750 0.755949
Si Si4 0.187857 0.898276 0.846224
Si Si5 0.614497 0.042844 0.101512
Si Si6 0.356360 0.201334 0.640146
Si Si7 0.609824 0.419236 0.324199
Si Si8 0.895416 0.148841 0.646706
O O1 0.983638 0.675565 0.647372
O O2 0.689401 0.764600 0.789705
O O3 0.000000 0.500000 0.500000
O O4 0.207757 0.393923 0.695712
O O5 0.142030 0.266918 0.676695
O O6 0.023730 0.159283 0.625564
O O7 0.201752 0.118633 0.826748
O O8 0.483527 0.921332 0.537937
O O9 0.069681 0.775890 0.736842
O O10 0.585584 0.046985 0.707867
O O11 0.700749 0.945938 0.927423
O O12 0.338640 0.885558 0.879251
O O13 0.398240 0.676541 0.752361
O O14 0.003168 0.044787 0.759713
O O15 0.000000 0.000000 0.000000
O O16 0.500000 0.500000 0.500000
O O17 0.424502 0.611610 0.297935
O O18 0.000000 0.000000 0.500000
#
# Coordination Sequence:
#
# PCOD9033219 Si02
#       8
#     2   2   2   2   2   2   2   2
#     4  12  25  42  73 101 133 186 234 279 348 407
#     4  10  22  44  66  97 140 175 224 292 340 405
#     4  12  27  46  68 102 145 177 233 290 345 413
#     4  11  25  48  69 103 142 182 232 295 358 411
#     4  11  24  48  68  98 150 176 222 302 347 406
#     4  11  23  42  70 100 132 183 235 276 341 414
#     4  12  26  44  74 104 137 191 234 285 355 425
#     4  11  25  43  72 101 140 180 236 293 349 415
#
# _framework density 21.456803000000001
#
# number of rings (size 3 to 8) (size 9 to 14) (size 15 to 20)
#    0.000    0.750    5.000    1.875    5.250    1.000 
#    0.000    0.000    0.000    0.000    0.000    0.000 
#    0.000    0.000    0.000    0.000    0.000    0.000 
#
# Total GULP energy -89360.592001 kJ/mol
# GULP energy per Si atom -5585.037000 kJ/mol
# Density = 2.140797 g / cm^3
# Si number density = 21.456803 Si / 1000 Ang^3
#
#
#
# Elastic Constant Matrix: (Units=GPa)
#
#
# Indices 1 2 3 4 5 6 
#
# 1 83.3842 28.0825 16.3199 -6.2072 3.2636 2.3048
# 2 28.0825 97.8381 17.2433 -6.9422 26.0972 15.9053
# 3 16.3199 17.2433 115.7195 -2.0939 8.4592 1.3688
# 4 -6.2072 -6.9422 -2.0939 25.2273 1.9969 2.5969
# 5 3.2636 26.0972 8.4592 1.9969 33.9019 5.4873
# 6 2.3048 15.9053 1.3688 2.5969 5.4873 23.5694
#
#
#
# Elastic Compliance Matrix: (Units=1/GPa)
#
#
# Indices 1 2 3 4 5 6 
#
# 1 0.013738 -0.004262 -0.001431 0.001830 0.002056 0.000935
# 2 -0.004262 0.016213 -0.000834 0.005075 -0.010781 -0.008525
# 3 -0.001431 -0.000834 0.009082 0.000244 -0.001584 0.000517
# 4 0.001830 0.005075 0.000244 0.042667 -0.005518 -0.007034
# 5 0.002056 -0.010781 -0.001584 -0.005518 0.038511 -0.001192
# 6 0.000935 -0.008525 0.000517 -0.007034 -0.001192 0.049112
#
#
# Mechanical properties :
#
#
# Convention : Reuss Voigt Hill
#
# Bulk Modulus (GPa) = 38.49161 46.69261 42.59211
# Shear Modulus (GPa) = 26.17314 32.22612 29.19963
#
# Velocity S-wave (km/s) = 3.49636 3.87965 3.69298
# Velocity P-wave (km/s) = 5.85469 6.47127 6.17069
#
# Compressibility (1/GPa) = 0.02597969
#
# Stress axis : x y z
#
# Youngs Moduli (GPa) = 72.79174 61.67941 110.11071
#
# Poissons Ratio (x) = 0.26286 0.15753
# Poissons Ratio (y) = 0.31021 0.09184
# Poissons Ratio (z) = 0.10414 0.05145
#
# Static dielectric constant tensor:
#      x y z
#    x 1.824900 0.006320 0.006110 
#    y 0.006320 1.819860 -0.028330 
#    z 0.006110 -0.028330 1.744250 
# 
# From -- ./inp_files/273384.got.cif
#   From: 2010.05.17/outbox.cif.g08.bks.cpg/sg2_137_cif.got.tgz:273384.got - 2010.06.03 11:33:40.
