data_PCOD9033764
_publ_section_title
;
Structure prediction by ZEFSAII (Michael W. Deem and Ramdas Pophale) SiO2 
 PCOD9033764
Probable space group: P -1
;
_chemical_formula_sum "Si O2"
_cell_formula_units_Z 14
_cell_length_a 26.831215
_cell_length_b 12.606312
_cell_length_c 4.981904
_cell_angle_alpha 87.210735
_cell_angle_beta 73.226967
_cell_angle_gamma 151.787912
_cell_volume 566.660106
_symmetry_space_group_name_H-M "P -1"
_symmetry_group_IT_number 2
_symmetry_cell_setting 'triclinic'
loop_
_space_group_symop_operation_xyz
x,y,z
-x,-y,-z
loop_
_atom_site_type_symbol
_atom_site_label
_atom_site_fract_x
_atom_site_fract_y
_atom_site_fract_z
Si Si1 0.160194 0.299667 0.062689
Si Si2 0.590180 0.903704 0.717176
Si Si3 0.320427 0.064779 0.937014
Si Si4 0.237873 0.573635 0.371940
Si Si5 0.891621 0.231531 0.018066
Si Si6 0.946726 0.126341 0.698148
Si Si7 0.699738 0.762738 0.781870
O O1 0.276630 0.562445 0.076984
O O2 0.160151 0.174571 0.010978
O O3 0.167481 0.378660 0.763941
O O4 0.000000 0.000000 0.500000
O O5 0.630703 0.929639 0.361774
O O6 0.645038 0.124010 0.704870
O O7 0.663585 0.965571 0.808897
O O8 0.415140 0.549688 0.056585
O O9 0.154297 0.779646 0.149871
O O10 0.372734 0.287440 0.897418
O O11 0.115111 0.405732 0.410728
O O12 0.739104 0.907284 0.443978
O O13 0.959022 0.246750 0.861920
O O14 0.000000 0.500000 0.000000
O O15 0.852448 0.002259 0.622598
#
# Coordination Sequence:
#
# PCOD9033764 Si02
#       7
#     2   2   2   2   2   2   2
#     4  10  22  44  69  98 127 167 220 272 329 385
#     4  12  25  43  68  96 135 174 223 266 323 387
#     4  11  24  43  66  92 133 182 216 260 324 389
#     4  11  24  43  70 100 123 171 223 273 320 393
#     4  11  25  41  66 102 136 172 223 267 326 390
#     4  10  24  39  68  94 133 168 210 275 330 376
#     4  11  26  41  66  97 137 176 216 266 332 390
#
# _framework density 24.706167000000001
#
# number of rings (size 3 to 8) (size 9 to 14) (size 15 to 20)
#    0.000    1.143    1.429    4.286   12.000    1.143 
#    0.000    1.429    0.000    0.000    0.000    0.000 
#    0.000    0.000    0.000    0.000    0.000    0.000 
#
# Total GULP energy -78011.363953 kJ/mol
# GULP energy per Si atom -5572.240282 kJ/mol
# Density = 2.464993 g / cm^3
# Si number density = 24.706167 Si / 1000 Ang^3
#
#
#
# Elastic Constant Matrix: (Units=GPa)
#
#
# Indices 1 2 3 4 5 6 
#
# 1 60.5833 3.2692 14.8618 3.7329 29.7229 -20.5547
# 2 3.2692 4.0143 37.9900 -24.7079 38.0951 -74.4430
# 3 14.8618 37.9900 41.9917 3.0646 15.7636 5.4983
# 4 3.7329 -24.7079 3.0646 32.8141 3.6788 9.4860
# 5 29.7229 38.0951 15.7636 3.6788 20.9171 5.6652
# 6 -20.5547 -74.4430 5.4983 9.4860 5.6652 44.3463
#
#
#
# Elastic Compliance Matrix: (Units=1/GPa)
#
#
# Indices 1 2 3 4 5 6 
#
# 1 0.024754 -0.010404 0.009594 -0.008391 -0.021257 -0.002671
# 2 -0.010404 0.000287 -0.002438 0.001567 0.017617 -0.006624
# 3 0.009594 -0.002438 0.036345 -0.002540 -0.036419 0.001044
# 4 -0.008391 0.001567 -0.002540 0.034709 0.007401 -0.009313
# 5 -0.021257 0.017617 -0.036419 0.007401 0.068301 0.013927
# 6 -0.002671 -0.006624 0.001044 -0.009313 0.013927 0.010276
#
#
# Mechanical properties :
#
#
# Convention : Reuss Voigt Hill
#
# Bulk Modulus (GPa) = 18.21865 24.31458 21.26662
# Shear Modulus (GPa) = 25.06693 22.98006 24.02349
#
# Velocity S-wave (km/s) = 3.18874 3.05312 3.12167
# Velocity P-wave (km/s) = 4.57685 4.72140 4.64968
#
# Compressibility (1/GPa) = 0.05488880
#
# Stress axis : x y z
#
# Youngs Moduli (GPa) = 40.39772 3480.82150 27.51436
#
# Poissons Ratio (x) = 36.21568 -0.26397
# Poissons Ratio (y) = 0.42031 0.06708
# Poissons Ratio (z) = -0.38757 8.48633
#
# Static dielectric constant tensor:
#      x y z
#    x 8.114310 3.607260 -1.352810 
#    y 3.607260 4.217270 -0.767580 
#    z -1.352810 -0.767580 2.510730 
# 
# From -- ./inp_files/123658.got.cif
#   From: 2010.05.17/outbox.cif.g08.bks.cpg/sg2_62_cif.got.tgz:123658.got - 2010.06.03 11:33:40.
