data_PCOD9033773
_publ_section_title
;
Structure prediction by ZEFSAII (Michael W. Deem and Ramdas Pophale) SiO2 
 PCOD9033773
Probable space group: P -1
;
_chemical_formula_sum "Si O2"
_cell_formula_units_Z 14
_cell_length_a 12.467373
_cell_length_b 5.422425
_cell_length_c 9.965515
_cell_angle_alpha 86.824358
_cell_angle_beta 99.049212
_cell_angle_gamma 109.898119
_cell_volume 625.596301
_symmetry_space_group_name_H-M "P -1"
_symmetry_group_IT_number 2
_symmetry_cell_setting 'triclinic'
loop_
_space_group_symop_operation_xyz
x,y,z
-x,-y,-z
loop_
_atom_site_type_symbol
_atom_site_label
_atom_site_fract_x
_atom_site_fract_y
_atom_site_fract_z
Si Si1 0.583676 0.849942 0.396472
Si Si2 0.532612 0.270753 0.077134
Si Si3 0.048704 0.454466 0.655683
Si Si4 0.698159 0.453777 0.306038
Si Si5 0.970920 0.266247 0.109385
Si Si6 0.617550 0.974025 0.697264
Si Si7 0.871161 0.029292 0.831608
O O1 0.634452 0.654041 0.336193
O O2 0.449821 0.814636 0.338911
O O3 0.654498 0.161914 0.373416
O O4 0.598602 0.823226 0.557840
O O5 0.664767 0.382944 0.146237
O O6 0.457068 0.205872 0.197487
O O7 0.500000 0.500000 0.000000
O O8 0.500000 0.000000 0.000000
O O9 0.167063 0.405101 0.651212
O O10 0.082464 0.697845 0.760423
O O11 0.000000 0.500000 0.500000
O O12 0.960882 0.236036 0.741127
O O13 0.889248 0.052351 0.997576
O O14 0.090944 0.225166 0.174777
O O15 0.000000 0.500000 0.000000
O O16 0.748945 0.047312 0.765833
#
# Coordination Sequence:
#
# PCOD9033773 Si02
#       7
#     2   2   2   2   2   2   2
#     4  10  24  46  69 107 132 188 228 287 356 408
#     4  11  25  43  66 102 132 179 227 276 348 406
#     4  11  25  41  68 102 139 186 230 293 349 419
#     4  11  25  45  70  99 146 177 232 292 342 415
#     4   9  22  42  60  96 128 179 235 275 349 407
#     4  10  23  43  72  96 139 178 232 290 342 428
#     4  10  22  44  69  98 136 186 232 288 350 417
#
# _framework density 22.378647999999998
#
# number of rings (size 3 to 8) (size 9 to 14) (size 15 to 20)
#    0.000    1.714    0.000    2.571    6.000   10.286 
#   12.857    0.000    0.000    0.000    0.000    0.000 
#    0.000    0.000    0.000    0.000    0.000    0.000 
#
# Total GULP energy -78000.522602 kJ/mol
# GULP energy per Si atom -5571.465900 kJ/mol
# Density = 2.232771 g / cm^3
# Si number density = 22.378648 Si / 1000 Ang^3
#
#
#
# Elastic Constant Matrix: (Units=GPa)
#
#
# Indices 1 2 3 4 5 6 
#
# 1 169.5985 38.2108 51.2926 10.4111 35.7221 -17.2809
# 2 38.2108 90.4775 42.0444 -3.8026 2.5176 -23.2777
# 3 51.2926 42.0444 159.7131 -4.9840 12.0960 -14.8675
# 4 10.4111 -3.8026 -4.9840 27.8957 -4.3520 -11.5739
# 5 35.7221 2.5176 12.0960 -4.3520 36.2398 1.0967
# 6 -17.2809 -23.2777 -14.8675 -11.5739 1.0967 32.3670
#
#
#
# Elastic Compliance Matrix: (Units=1/GPa)
#
#
# Indices 1 2 3 4 5 6 
#
# 1 0.009396 -0.003076 -0.001648 -0.005486 -0.009169 0.000396
# 2 -0.003076 0.016893 -0.002275 0.008733 0.003289 0.012473
# 3 -0.001648 -0.002275 0.007680 0.002370 -0.000553 0.001878
# 4 -0.005486 0.008733 0.002370 0.050115 0.009362 0.022043
# 5 -0.009169 0.003289 -0.000553 0.009362 0.037734 -0.000715
# 6 0.000396 0.012473 0.001878 0.022043 -0.000715 0.048847
#
#
# Mechanical properties :
#
#
# Convention : Reuss Voigt Hill
#
# Bulk Modulus (GPa) = 50.06924 75.87606 62.97265
# Shear Modulus (GPa) = 26.13423 38.51660 32.32542
#
# Velocity S-wave (km/s) = 3.42105 4.15315 3.80475
# Velocity P-wave (km/s) = 6.16660 7.54834 6.89218
#
# Compressibility (1/GPa) = 0.01997234
#
# Stress axis : x y z
#
# Youngs Moduli (GPa) = 106.42773 59.19559 130.20942
#
# Poissons Ratio (x) = 0.18208 0.21455
# Poissons Ratio (y) = 0.32737 0.29619
# Poissons Ratio (z) = 0.17536 0.13465
#
# Static dielectric constant tensor:
#      x y z
#    x 1.890050 0.020830 0.050610 
#    y 0.020830 1.969310 0.084240 
#    z 0.050610 0.084240 1.889390 
# 
# From -- ./inp_files/229778.got.cif
#   From: 2010.05.17/outbox.cif.g08.bks.cpg/sg2_115_cif.got.tgz:229778.got - 2010.06.03 11:33:40.
