data_PCOD9033374
_publ_section_title
;
Structure prediction by ZEFSAII (Michael W. Deem and Ramdas Pophale) SiO2 
 PCOD9033374
Probable space group: P -1
;
_chemical_formula_sum "Si O2"
_cell_formula_units_Z 16
_cell_length_a 18.051281
_cell_length_b 12.246345
_cell_length_c 9.319319
_cell_angle_alpha 130.287527
_cell_angle_beta 82.790471
_cell_angle_gamma 137.997982
_cell_volume 755.565246
_symmetry_space_group_name_H-M "P -1"
_symmetry_group_IT_number 2
_symmetry_cell_setting 'triclinic'
loop_
_space_group_symop_operation_xyz
x,y,z
-x,-y,-z
loop_
_atom_site_type_symbol
_atom_site_label
_atom_site_fract_x
_atom_site_fract_y
_atom_site_fract_z
Si Si1 0.888139 0.375002 0.638629
Si Si2 0.802362 0.726534 0.285074
Si Si3 0.793434 0.213610 0.206598
Si Si4 0.957046 0.755916 0.126186
Si Si5 0.158994 0.206644 0.211252
Si Si6 0.682408 0.316925 0.217250
Si Si7 0.359354 0.256911 0.720272
Si Si8 0.576122 0.583247 0.704719
O O1 0.830979 0.332393 0.459534
O O2 0.059642 0.611425 0.757493
O O3 0.783214 0.067611 0.454478
O O4 0.884784 0.487497 0.861779
O O5 0.841374 0.696920 0.110837
O O6 0.739208 0.509139 0.234012
O O7 0.683828 0.652731 0.225378
O O8 0.953581 0.067768 0.595388
O O9 0.743874 0.259456 0.155832
O O10 0.664329 0.876988 0.974560
O O11 0.089452 0.002859 0.188367
O O12 0.249985 0.493205 0.496935
O O13 0.293238 0.321829 0.223545
O O14 0.000000 0.000000 0.000000
O O15 0.500000 0.000000 0.000000
O O16 0.429480 0.302816 0.600616
O O17 0.500000 0.500000 0.000000
O O18 0.500000 0.500000 0.500000
#
# Coordination Sequence:
#
# PCOD9033374 Si02
#       8
#     2   2   2   2   2   2   2   2
#     4  11  25  43  71 106 138 184 242 295 352 429
#     4  10  25  45  67  99 140 179 232 289 361 422
#     4  11  24  44  71 102 141 183 243 292 352 433
#     4  10  22  44  67  97 136 177 229 297 343 417
#     4  11  24  41  70 102 137 186 241 291 353 432
#     4  11  24  43  68  99 141 187 232 293 363 433
#     4  12  27  45  71 102 147 187 230 300 367 427
#     4  12  25  48  72 104 148 190 241 295 369 436
#
# _framework density 21.176200000000001
#
# number of rings (size 3 to 8) (size 9 to 14) (size 15 to 20)
#    0.000    1.000    2.500    3.750    8.750    2.500 
#    0.000    0.625    0.000    0.000    0.000    0.000 
#    0.000    0.000    0.000    0.000    0.000    0.000 
#
# Total GULP energy -89205.776228 kJ/mol
# GULP energy per Si atom -5575.361014 kJ/mol
# Density = 2.112800 g / cm^3
# Si number density = 21.176200 Si / 1000 Ang^3
#
#
#
# Elastic Constant Matrix: (Units=GPa)
#
#
# Indices 1 2 3 4 5 6 
#
# 1 139.2503 34.4394 32.3283 -1.1637 3.5957 8.3132
# 2 34.4394 93.3081 12.8017 9.2228 -1.6339 6.7663
# 3 32.3283 12.8017 104.0070 6.4241 0.4124 3.1657
# 4 -1.1637 9.2228 6.4241 31.9963 0.7006 -4.1829
# 5 3.5957 -1.6339 0.4124 0.7006 35.1231 2.3520
# 6 8.3132 6.7663 3.1657 -4.1829 2.3520 25.8465
#
#
#
# Elastic Compliance Matrix: (Units=1/GPa)
#
#
# Indices 1 2 3 4 5 6 
#
# 1 0.008562 -0.002897 -0.002349 0.001457 -0.000920 -0.001388
# 2 -0.002897 0.012471 -0.000295 -0.004067 0.001166 -0.003061
# 3 -0.002349 -0.000295 0.010544 -0.002231 0.000204 -0.000838
# 4 0.001457 -0.004067 -0.002231 0.033804 -0.001420 0.006469
# 5 -0.000920 0.001166 0.000204 -0.001420 0.028839 -0.002888
# 6 -0.001388 -0.003061 -0.000838 0.006469 -0.002888 0.041350
#
#
# Mechanical properties :
#
#
# Convention : Reuss Voigt Hill
#
# Bulk Modulus (GPa) = 48.79169 55.07826 51.93498
# Shear Modulus (GPa) = 32.57677 35.72622 34.15149
#
# Velocity S-wave (km/s) = 3.92646 4.11188 4.02024
# Velocity P-wave (km/s) = 6.60658 6.97204 6.79177
#
# Compressibility (1/GPa) = 0.02049529
#
# Stress axis : x y z
#
# Youngs Moduli (GPa) = 116.79548 80.18358 94.84410
#
# Poissons Ratio (x) = 0.23232 0.22277
# Poissons Ratio (y) = 0.33840 0.02795
# Poissons Ratio (z) = 0.27432 0.02363
#
# Static dielectric constant tensor:
#      x y z
#    x 1.693790 0.226760 0.007520 
#    y 0.226760 1.190210 -0.001960 
#    z 0.007520 -0.001960 1.800210 
# 
# From -- ./inp_files/333760.got.cif
#   From: 2010.05.17/outbox.cif.g08.bks.cpg/sg2_167_cif.got.tgz:333760.got - 2010.06.03 11:33:40.
