data_PCOD9033114
_publ_section_title
;
Structure prediction by ZEFSAII (Michael W. Deem and Ramdas Pophale) SiO2 
 PCOD9033114
Probable space group: P -1
;
_chemical_formula_sum "Si O2"
_cell_formula_units_Z 12
_cell_length_a 12.385433
_cell_length_b 7.837505
_cell_length_c 6.796033
_cell_angle_alpha 124.855232
_cell_angle_beta 105.654985
_cell_angle_gamma 62.043216
_cell_volume 478.170448
_symmetry_space_group_name_H-M "P -1"
_symmetry_group_IT_number 2
_symmetry_cell_setting 'triclinic'
loop_
_space_group_symop_operation_xyz
x,y,z
-x,-y,-z
loop_
_atom_site_type_symbol
_atom_site_label
_atom_site_fract_x
_atom_site_fract_y
_atom_site_fract_z
Si Si1 0.176305 0.739797 0.775572
Si Si2 0.894877 0.900752 0.740240
Si Si3 0.435473 0.891478 0.747173
Si Si4 0.491649 0.530997 0.247282
Si Si5 0.795626 0.346278 0.726702
Si Si6 0.779033 0.668848 0.237807
O O1 0.182817 0.696031 0.519989
O O2 0.258878 0.515697 0.788573
O O3 0.035861 0.781131 0.786589
O O4 0.182516 0.968582 0.019831
O O5 0.854020 0.734202 0.484430
O O6 0.869493 0.110498 0.716974
O O7 0.507938 0.743597 0.497750
O O8 0.421119 0.697618 0.749538
O O9 0.322643 0.095316 0.731382
O O10 0.500000 0.000000 0.000000
O O11 0.350199 0.574424 0.258097
O O12 0.500000 0.500000 0.000000
O O13 0.834213 0.533289 0.973481
#
# Coordination Sequence:
#
# PCOD9033114 Si02
#       6
#     2   2   2   2   2   2
#     4  10  24  41  70  96 138 170 214 269 321 390
#     4  10  22  44  66 100 133 175 215 261 326 385
#     4  11  24  46  65  97 128 169 223 269 327 386
#     4  11  26  46  67  93 130 174 222 272 326 386
#     4  11  23  44  64 101 131 172 218 268 326 384
#     4  11  23  42  67 100 132 169 219 265 325 390
#
# _framework density 25.095655000000001
#
# number of rings (size 3 to 8) (size 9 to 14) (size 15 to 20)
#    0.000    1.333    3.333    1.000    0.000    9.333 
#    0.000    0.000    0.000    0.000    0.000    0.000 
#    0.000    0.000    0.000    0.000    0.000    0.000 
#
# Total GULP energy -67094.249890 kJ/mol
# GULP energy per Si atom -5591.187491 kJ/mol
# Density = 2.503854 g / cm^3
# Si number density = 25.095655 Si / 1000 Ang^3
#
#
#
# Elastic Constant Matrix: (Units=GPa)
#
#
# Indices 1 2 3 4 5 6 
#
# 1 36.9172 5.1613 46.2852 0.8962 2.7472 -16.0335
# 2 5.1613 143.2455 51.8644 3.4267 -16.5638 0.8139
# 3 46.2852 51.8644 311.4857 -1.4662 4.4758 8.1117
# 4 0.8962 3.4267 -1.4662 56.5350 6.9002 5.2437
# 5 2.7472 -16.5638 4.4758 6.9002 57.0391 -4.1428
# 6 -16.0335 0.8139 8.1117 5.2437 -4.1428 24.7024
#
#
#
# Elastic Compliance Matrix: (Units=1/GPa)
#
#
# Indices 1 2 3 4 5 6 
#
# 1 0.057715 0.001695 -0.010016 -0.005466 0.002227 0.042228
# 2 0.001695 0.007832 -0.001651 -0.001051 0.002598 0.002043
# 3 -0.010016 -0.001651 0.005222 0.001343 -0.001197 -0.008647
# 4 -0.005466 -0.001051 0.001343 0.019037 -0.003068 -0.008510
# 5 0.002227 0.002598 -0.001197 -0.003068 0.019051 0.005599
# 6 0.042228 0.002043 -0.008647 -0.008510 0.005599 0.073408
#
#
# Mechanical properties :
#
#
# Convention : Reuss Voigt Hill
#
# Bulk Modulus (GPa) = 19.67539 77.58560 48.63050
# Shear Modulus (GPa) = 22.81532 53.54448 38.17990
#
# Velocity S-wave (km/s) = 3.01846 4.62412 3.90471
# Velocity P-wave (km/s) = 4.47273 7.71317 6.30469
#
# Compressibility (1/GPa) = 0.05082490
#
# Stress axis : x y z
#
# Youngs Moduli (GPa) = 17.32654 127.68485 191.48255
#
# Poissons Ratio (x) = -0.21644 1.91785
# Poissons Ratio (y) = -0.02937 0.31622
# Poissons Ratio (z) = 0.17354 0.21086
#
# Static dielectric constant tensor:
#      x y z
#    x 2.161640 0.007130 -0.011600 
#    y 0.007130 1.929290 0.037420 
#    z -0.011600 0.037420 2.014860 
# 
# From -- ./inp_files/105998.got.cif
#   From: 2010.05.17/outbox.cif.g08.bks.cpg/sg2_53_cif.got.tgz:105998.got - 2010.06.03 11:33:40.
