data_PCOD9033376
_publ_section_title
;
Structure prediction by ZEFSAII (Michael W. Deem and Ramdas Pophale) SiO2 
 PCOD9033376
Probable space group: P -1
;
_chemical_formula_sum "Si O2"
_cell_formula_units_Z 16
_cell_length_a 20.334794
_cell_length_b 11.621491
_cell_length_c 17.585950
_cell_angle_alpha 151.549596
_cell_angle_beta 158.401777
_cell_angle_gamma 28.312024
_cell_volume 680.317885
_symmetry_space_group_name_H-M "P -1"
_symmetry_group_IT_number 2
_symmetry_cell_setting 'triclinic'
loop_
_space_group_symop_operation_xyz
x,y,z
-x,-y,-z
loop_
_atom_site_type_symbol
_atom_site_label
_atom_site_fract_x
_atom_site_fract_y
_atom_site_fract_z
Si Si1 0.694432 0.214721 0.792806
Si Si2 0.535286 0.935107 0.911890
Si Si3 0.421101 0.468563 0.012392
Si Si4 0.948148 0.617216 0.720190
Si Si5 0.248178 0.458889 0.680032
Si Si6 0.402797 0.839586 0.510130
Si Si7 0.984607 0.764813 0.295784
Si Si8 0.270181 0.643450 0.393732
O O1 0.567736 0.324304 0.793441
O O2 0.599336 0.259443 0.635082
O O3 0.804698 0.910870 0.740765
O O4 0.843637 0.363350 0.043763
O O5 0.417913 0.758656 0.658573
O O6 0.447761 0.201661 0.926607
O O7 0.500000 0.000000 0.000000
O O8 0.761969 0.814533 0.073248
O O9 0.605880 0.427286 0.135964
O O10 0.233419 0.566881 0.813114
O O11 0.911998 0.498834 0.532305
O O12 0.925452 0.472307 0.687247
O O13 0.343530 0.148268 0.618013
O O14 0.254697 0.769081 0.365799
O O15 0.614470 0.666162 0.667006
O O16 0.092244 0.720170 0.304438
O O17 0.000000 0.000000 0.500000
#
# Coordination Sequence:
#
# PCOD9033376 Si02
#       8
#     2   2   2   2   2   2   2   2
#     4  10  23  42  71  91 133 177 225 280 341 405
#     4  12  23  43  69 100 142 175 225 284 338 411
#     4  11  23  42  67 101 125 184 223 277 345 399
#     4  10  23  43  62 103 130 171 224 279 337 405
#     4  10  23  41  68  95 135 169 230 282 334 407
#     4  10  22  44  67  97 136 184 225 279 346 402
#     4  12  25  40  69 107 137 180 228 278 344 414
#     4  11  24  42  69  98 138 186 224 281 343 410
#
# _framework density 23.518418
#
# number of rings (size 3 to 8) (size 9 to 14) (size 15 to 20)
#    0.000    1.250    2.500    3.000    3.500    1.500 
#    0.000   15.625    0.000    0.000    0.000    0.000 
#    0.000    0.000    0.000    0.000    0.000    0.000 
#
# Total GULP energy -89450.689577 kJ/mol
# GULP energy per Si atom -5590.668099 kJ/mol
# Density = 2.346489 g / cm^3
# Si number density = 23.518418 Si / 1000 Ang^3
#
#
#
# Elastic Constant Matrix: (Units=GPa)
#
#
# Indices 1 2 3 4 5 6 
#
# 1 147.4904 23.6814 14.5568 -1.8895 -10.0569 -4.2996
# 2 23.6814 57.8635 -9.1437 0.0810 12.6724 15.3591
# 3 14.5568 -9.1437 75.4217 -2.7320 -14.6198 -2.0223
# 4 -1.8895 0.0810 -2.7320 14.3434 3.1778 9.3441
# 5 -10.0569 12.6724 -14.6198 3.1778 48.7615 -6.2140
# 6 -4.2996 15.3591 -2.0223 9.3441 -6.2140 32.3330
#
#
#
# Elastic Compliance Matrix: (Units=1/GPa)
#
#
# Indices 1 2 3 4 5 6 
#
# 1 0.008254 -0.005914 -0.001572 -0.003632 0.003715 0.005572
# 2 -0.005914 0.028031 0.002329 0.015481 -0.011444 -0.020630
# 3 -0.001572 0.002329 0.014539 0.002080 0.003245 -0.000383
# 4 -0.003632 0.015481 0.002080 0.098511 -0.015560 -0.039166
# 5 0.003715 -0.011444 0.003245 -0.015560 0.028283 0.016066
# 6 0.005572 -0.020630 -0.000383 -0.039166 0.016066 0.055851
#
#
# Mechanical properties :
#
#
# Convention : Reuss Voigt Hill
#
# Bulk Modulus (GPa) = 24.68557 37.66274 31.17416
# Shear Modulus (GPa) = 19.43362 35.86631 27.64997
#
# Velocity S-wave (km/s) = 2.87769 3.90940 3.43253
# Velocity P-wave (km/s) = 4.64333 6.03546 5.38458
#
# Compressibility (1/GPa) = 0.04050949
#
# Stress axis : x y z
#
# Youngs Moduli (GPa) = 121.15275 35.67474 68.78210
#
# Poissons Ratio (x) = 0.21098 0.10813
# Poissons Ratio (y) = 0.71650 -0.16019
# Poissons Ratio (z) = 0.19047 -0.08309
#
# Static dielectric constant tensor:
#      x y z
#    x 8.483050 0.807880 9.348130 
#    y 0.807880 2.014090 1.221060 
#    z 9.348130 1.221060 15.562530 
# 
# From -- ./inp_files/578049.got.cif
#   From: 2010.05.17/outbox.cif.g08.bks.cpg/sg2_290_cif.got.tgz:578049.got - 2010.06.03 11:33:40.
