data_PCOD9033077
_publ_section_title
;
Structure prediction by ZEFSAII (Michael W. Deem and Ramdas Pophale) SiO2 
 PCOD9033077
Probable space group: P -1
;
_chemical_formula_sum "Si O2"
_cell_formula_units_Z 14
_cell_length_a 9.249307
_cell_length_b 6.229460
_cell_length_c 11.074850
_cell_angle_alpha 90.957512
_cell_angle_beta 81.306591
_cell_angle_gamma 106.892183
_cell_volume 603.315739
_symmetry_space_group_name_H-M "P -1"
_symmetry_group_IT_number 2
_symmetry_cell_setting 'triclinic'
loop_
_space_group_symop_operation_xyz
x,y,z
-x,-y,-z
loop_
_atom_site_type_symbol
_atom_site_label
_atom_site_fract_x
_atom_site_fract_y
_atom_site_fract_z
Si Si1 0.183191 0.226858 0.685316
Si Si2 0.511008 0.851921 0.284456
Si Si3 0.477817 0.180693 0.102843
Si Si4 0.005784 0.525718 0.142238
Si Si5 0.246239 0.571741 0.474929
Si Si6 0.007432 0.770182 0.636167
Si Si7 0.333341 0.530981 0.102003
O O1 0.314069 0.120343 0.708470
O O2 0.097548 0.322836 0.800121
O O3 0.265147 0.428932 0.587220
O O4 0.049196 0.036887 0.633813
O O5 0.397493 0.748301 0.407335
O O6 0.455598 0.663457 0.185830
O O7 0.491307 0.078341 0.230081
O O8 0.329075 0.270328 0.111270
O O9 0.612457 0.393449 0.040198
O O10 0.500000 0.000000 0.000000
O O11 0.963069 0.307550 0.232496
O O12 0.186702 0.614717 0.146370
O O13 0.000000 0.500000 0.000000
O O14 0.125817 0.700924 0.532179
O O15 0.159227 0.382299 0.386533
#
# Coordination Sequence:
#
# PCOD9033077 Si02
#       7
#     2   2   2   2   2   2   2
#     4  11  26  42  70 106 139 177 233 288 338 407
#     4  11  23  42  70 105 135 178 226 285 349 405
#     4   9  22  38  66  93 133 173 235 273 334 405
#     4  11  26  43  69  99 143 182 230 282 345 407
#     4  10  22  46  70  98 141 181 230 279 353 403
#     4  10  23  45  68 100 136 185 229 283 337 418
#     4  10  22  44  65  95 138 188 222 284 339 407
#
# _framework density 23.205096000000001
#
# number of rings (size 3 to 8) (size 9 to 14) (size 15 to 20)
#    0.000    1.714    1.429    0.857    8.000    5.714 
#    0.000    0.000    0.000    0.000    0.000    0.000 
#    0.000    0.000    0.000    0.000    0.000    0.000 
#
# Total GULP energy -78158.413912 kJ/mol
# GULP energy per Si atom -5582.743851 kJ/mol
# Density = 2.315228 g / cm^3
# Si number density = 23.205096 Si / 1000 Ang^3
#
#
#
# Elastic Constant Matrix: (Units=GPa)
#
#
# Indices 1 2 3 4 5 6 
#
# 1 96.7288 23.6405 33.7855 -11.6377 -7.7669 -3.5857
# 2 23.6405 73.6636 38.5096 -18.4288 -1.4351 -15.6836
# 3 33.7855 38.5096 117.4372 -12.2155 -15.4344 -1.2418
# 4 -11.6377 -18.4288 -12.2155 24.9571 7.4763 5.0887
# 5 -7.7669 -1.4351 -15.4344 7.4763 31.0711 -2.3336
# 6 -3.5857 -15.6836 -1.2418 5.0887 -2.3336 27.4213
#
#
#
# Elastic Compliance Matrix: (Units=1/GPa)
#
#
# Indices 1 2 3 4 5 6 
#
# 1 0.012062 -0.001915 -0.002420 0.002715 0.001068 -0.000040
# 2 -0.001915 0.022306 -0.006014 0.012059 -0.004616 0.009604
# 3 -0.002420 -0.006014 0.011723 -0.000763 0.004924 -0.002665
# 4 0.002715 0.012059 -0.000763 0.054426 -0.012536 -0.003950
# 5 0.001068 -0.004616 0.004924 -0.012536 0.037947 0.003278
# 6 -0.000040 0.009604 -0.002665 -0.003950 0.003278 0.042847
#
#
# Mechanical properties :
#
#
# Convention : Reuss Voigt Hill
#
# Bulk Modulus (GPa) = 39.38069 53.30009 46.34039
# Shear Modulus (GPa) = 23.75595 29.48283 26.61939
#
# Velocity S-wave (km/s) = 3.20306 3.56832 3.39061
# Velocity P-wave (km/s) = 5.53959 6.32426 5.94488
#
# Compressibility (1/GPa) = 0.02539315
#
# Stress axis : x y z
#
# Youngs Moduli (GPa) = 82.90318 44.83191 85.30090
#
# Poissons Ratio (x) = 0.08583 0.20643
# Poissons Ratio (y) = 0.15872 0.51303
# Poissons Ratio (z) = 0.20063 0.26963
#
# Static dielectric constant tensor:
#      x y z
#    x 1.897050 0.022600 0.007740 
#    y 0.022600 1.894090 -0.030160 
#    z 0.007740 -0.030160 1.909660 
# 
# From -- ./inp_files/373041.got.cif
#   From: 2010.05.17/outbox.cif.g08.bks.cpg/sg2_187_cif.got.tgz:373041.got - 2010.06.03 11:33:40.
