data_PCOD9033067
_publ_section_title
;
Structure prediction by ZEFSAII (Michael W. Deem and Ramdas Pophale) SiO2 
 PCOD9033067
Probable space group: P -1
;
_chemical_formula_sum "Si O2"
_cell_formula_units_Z 16
_cell_length_a 10.808464
_cell_length_b 7.035725
_cell_length_c 12.159633
_cell_angle_alpha 76.085906
_cell_angle_beta 105.013844
_cell_angle_gamma 121.543233
_cell_volume 754.944763
_symmetry_space_group_name_H-M "P -1"
_symmetry_group_IT_number 2
_symmetry_cell_setting 'triclinic'
loop_
_space_group_symop_operation_xyz
x,y,z
-x,-y,-z
loop_
_atom_site_type_symbol
_atom_site_label
_atom_site_fract_x
_atom_site_fract_y
_atom_site_fract_z
Si Si1 0.823552 0.178111 0.581542
Si Si2 0.130583 0.948582 0.922691
Si Si3 0.339315 0.320493 0.446384
Si Si4 0.327919 0.440692 0.822754
Si Si5 0.357039 0.456079 0.191784
Si Si6 0.872435 0.025728 0.834155
Si Si7 0.845415 0.615694 0.429640
Si Si8 0.651746 0.226784 0.031648
O O1 0.795557 0.373710 0.506125
O O2 0.978851 0.236161 0.553264
O O3 0.692878 0.928437 0.559662
O O4 0.857123 0.180682 0.718507
O O5 0.247952 0.213009 0.906389
O O6 0.214471 0.824418 0.911637
O O7 0.086511 0.871895 0.049433
O O8 0.987987 0.942168 0.836311
O O9 0.500000 0.500000 0.500000
O O10 0.315205 0.427345 0.314444
O O11 0.227038 0.278376 0.524241
O O12 0.470132 0.451548 0.797764
O O13 0.219163 0.422594 0.702607
O O14 0.366474 0.646551 0.884814
O O15 0.279822 0.204000 0.162250
O O16 0.313394 0.609569 0.088059
O O17 0.500000 0.000000 0.000000
#
# Coordination Sequence:
#
# PCOD9033067 Si02
#       8
#     2   2   2   2   2   2   2   2
#     4  10  24  44  68  96 129 176 221 269 325 394
#     4  11  23  42  67  95 134 170 213 268 330 384
#     4  11  24  44  67  97 133 172 218 275 327 387
#     4  12  23  45  67  94 137 168 216 269 326 390
#     4  11  23  43  65  95 133 168 216 269 324 383
#     4  10  22  44  65  94 136 167 207 280 325 374
#     4  11  24  45  68  97 129 177 221 266 331 391
#     4  12  25  40  68 100 126 178 220 261 325 398
#
# _framework density 21.193601999999998
#
# number of rings (size 3 to 8) (size 9 to 14) (size 15 to 20)
#    0.000    1.000    5.000    1.500    1.750    3.000 
#    9.000    0.000    0.000    0.000    0.000    0.000 
#    0.000    0.000    0.000    0.000    0.000    0.000 
#
# Total GULP energy -89363.859921 kJ/mol
# GULP energy per Si atom -5585.241245 kJ/mol
# Density = 2.114536 g / cm^3
# Si number density = 21.193602 Si / 1000 Ang^3
#
#
#
# Elastic Constant Matrix: (Units=GPa)
#
#
# Indices 1 2 3 4 5 6 
#
# 1 38.5073 5.4366 -16.5902 0.4891 7.9770 0.4398
# 2 5.4366 66.4560 33.0045 -8.5634 1.1985 1.3771
# 3 -16.5902 33.0045 109.6817 -7.7719 1.7451 -10.3922
# 4 0.4891 -8.5634 -7.7719 33.4902 0.5505 -0.1845
# 5 7.9770 1.1985 1.7451 0.5505 26.8790 -2.2517
# 6 0.4398 1.3771 -10.3922 -0.1845 -2.2517 29.0618
#
#
#
# Elastic Compliance Matrix: (Units=1/GPa)
#
#
# Indices 1 2 3 4 5 6 
#
# 1 0.031691 -0.005878 0.006841 -0.000215 -0.009456 0.001511
# 2 -0.005878 0.019394 -0.006797 0.003434 0.000986 -0.003162
# 3 0.006841 -0.006797 0.012753 0.001183 -0.002193 0.004617
# 4 -0.000215 0.003434 0.001183 0.031030 -0.000768 0.000401
# 5 -0.009456 0.000986 -0.002193 -0.000768 0.040328 0.002432
# 6 0.001511 -0.003162 0.004617 0.000401 0.002432 0.036378
#
#
# Mechanical properties :
#
#
# Convention : Reuss Voigt Hill
#
# Bulk Modulus (GPa) = 19.16848 28.70521 23.93685
# Shear Modulus (GPa) = 24.92100 30.73913 27.83007
#
# Velocity S-wave (km/s) = 3.43282 3.81254 3.62765
# Velocity P-wave (km/s) = 4.97760 5.74058 5.37265
#
# Compressibility (1/GPa) = 0.05216897
#
# Stress axis : x y z
#
# Youngs Moduli (GPa) = 31.55514 51.56124 78.40986
#
# Poissons Ratio (x) = 0.30309 -0.53638
# Poissons Ratio (y) = 0.18549 0.53296
# Poissons Ratio (z) = -0.21586 0.35047
#
# Static dielectric constant tensor:
#      x y z
#    x 1.781560 0.012110 0.001160 
#    y 0.012110 1.744200 0.012700 
#    z 0.001160 0.012700 1.765460 
# 
# From -- ./inp_files/68678.got.cif
#   From: 2010.05.17/outbox.cif.g08.bks.cpg/sg2_35_cif.got.tgz:68678.got - 2010.06.03 11:33:40.
