data_PCOD9033252
_publ_section_title
;
Structure prediction by ZEFSAII (Michael W. Deem and Ramdas Pophale) SiO2 
 PCOD9033252
Probable space group: P -1
;
_chemical_formula_sum "Si O2"
_cell_formula_units_Z 16
_cell_length_a 27.487061
_cell_length_b 6.407151
_cell_length_c 12.140908
_cell_angle_alpha 135.971807
_cell_angle_beta 149.369981
_cell_angle_gamma 43.127291
_cell_volume 718.865703
_symmetry_space_group_name_H-M "P -1"
_symmetry_group_IT_number 2
_symmetry_cell_setting 'triclinic'
loop_
_space_group_symop_operation_xyz
x,y,z
-x,-y,-z
loop_
_atom_site_type_symbol
_atom_site_label
_atom_site_fract_x
_atom_site_fract_y
_atom_site_fract_z
Si Si1 0.567249 0.217589 0.171583
Si Si2 0.132055 0.483544 0.021791
Si Si3 0.384998 0.530597 0.279510
Si Si4 0.607809 0.157580 0.967328
Si Si5 0.894944 0.434777 0.750981
Si Si6 0.255812 0.910907 0.357122
Si Si7 0.249452 0.762351 0.899236
Si Si8 0.939517 0.309083 0.563874
O O1 0.665153 0.159156 0.415792
O O2 0.506121 0.420705 0.828344
O O3 0.500000 0.000000 0.000000
O O4 0.599877 0.159026 0.084976
O O5 0.143513 0.587269 0.209783
O O6 0.180383 0.702346 0.129999
O O7 0.013461 0.523607 0.789827
O O8 0.192857 0.117453 0.970955
O O9 0.500000 0.500000 0.500000
O O10 0.322545 0.814945 0.341969
O O11 0.379107 0.194823 0.181484
O O12 0.338520 0.597890 0.093580
O O13 0.701039 0.236189 0.123223
O O14 0.922357 0.196022 0.611506
O O15 0.813865 0.732458 0.650100
O O16 0.000000 0.500000 0.000000
O O17 0.167940 0.576658 0.661548
O O18 0.000000 0.000000 0.500000
#
# Coordination Sequence:
#
# PCOD9033252 Si02
#       8
#     2   2   2   2   2   2   2   2
#     4  11  27  46  66 101 144 181 236 291 343 416
#     4  10  22  44  67 100 134 176 229 280 347 415
#     4  12  26  43  69 103 141 184 234 291 341 415
#     4  11  25  44  69  99 138 186 232 283 355 408
#     4  10  23  43  69  97 138 178 224 287 348 405
#     4  12  25  42  72 101 135 185 234 278 354 417
#     4  11  22  43  69  98 141 177 228 282 348 408
#     4   9  22  42  69  97 131 175 225 285 339 404
#
# _framework density 22.257289
#
# number of rings (size 3 to 8) (size 9 to 14) (size 15 to 20)
#    0.000    1.250    2.500    2.250    7.000    4.000 
#    0.000    3.125    0.000    0.000    0.000    0.000 
#    0.000    0.000    0.000    0.000    0.000    0.000 
#
# Total GULP energy -89345.964125 kJ/mol
# GULP energy per Si atom -5584.122758 kJ/mol
# Density = 2.220663 g / cm^3
# Si number density = 22.257289 Si / 1000 Ang^3
#
#
#
# Elastic Constant Matrix: (Units=GPa)
#
#
# Indices 1 2 3 4 5 6 
#
# 1 130.4491 23.8227 43.5370 -17.2923 1.6361 -16.1914
# 2 23.8227 49.8589 16.9779 -2.6643 -1.3517 -9.7323
# 3 43.5370 16.9779 144.3806 -22.8897 17.1442 12.0258
# 4 -17.2923 -2.6643 -22.8897 23.9241 -0.6589 -3.2462
# 5 1.6361 -1.3517 17.1442 -0.6589 40.4518 6.3535
# 6 -16.1914 -9.7323 12.0258 -3.2462 6.3535 31.3809
#
#
#
# Elastic Compliance Matrix: (Units=1/GPa)
#
#
# Indices 1 2 3 4 5 6 
#
# 1 0.010502 -0.002694 -0.002397 0.005826 -0.000375 0.006180
# 2 -0.002694 0.023574 -0.002807 -0.001074 0.001020 0.006679
# 3 -0.002397 -0.002807 0.009801 0.006630 -0.003336 -0.004502
# 4 0.005826 -0.001074 0.006630 0.052995 -0.003202 0.006263
# 5 -0.000375 0.001020 -0.003336 -0.003202 0.026816 -0.004359
# 6 0.006180 0.006679 -0.004502 0.006263 -0.004359 0.040382
#
#
# Mechanical properties :
#
#
# Convention : Reuss Voigt Hill
#
# Bulk Modulus (GPa) = 35.61186 54.81819 45.21503
# Shear Modulus (GPa) = 26.42339 35.17476 30.79907
#
# Velocity S-wave (km/s) = 3.44928 3.97970 3.72395
# Velocity P-wave (km/s) = 5.64785 6.76758 6.23291
#
# Compressibility (1/GPa) = 0.02808053
#
# Stress axis : x y z
#
# Youngs Moduli (GPa) = 95.22266 42.41981 102.03029
#
# Poissons Ratio (x) = 0.11429 0.24452
# Poissons Ratio (y) = 0.25655 0.28643
# Poissons Ratio (z) = 0.22820 0.11908
#
# Static dielectric constant tensor:
#      x y z
#    x 1.873230 0.030610 -0.019570 
#    y 0.030610 1.865160 0.028830 
#    z -0.019570 0.028830 1.817890 
# 
# From -- ./inp_files/476048.got.cif
#   From: 2010.05.17/outbox.cif.g08.bks.cpg/sg2_239_cif.got.tgz:476048.got - 2010.06.03 11:33:40.
