data_PCOD9033566
_publ_section_title
;
Structure prediction by ZEFSAII (Michael W. Deem and Ramdas Pophale) SiO2 
 PCOD9033566
Probable space group: P -1
;
_chemical_formula_sum "Si O2"
_cell_formula_units_Z 16
_cell_length_a 13.203095
_cell_length_b 13.235844
_cell_length_c 8.277507
_cell_angle_alpha 109.800858
_cell_angle_beta 56.401562
_cell_angle_gamma 145.408212
_cell_volume 662.842768
_symmetry_space_group_name_H-M "P -1"
_symmetry_group_IT_number 2
_symmetry_cell_setting 'triclinic'
loop_
_space_group_symop_operation_xyz
x,y,z
-x,-y,-z
loop_
_atom_site_type_symbol
_atom_site_label
_atom_site_fract_x
_atom_site_fract_y
_atom_site_fract_z
Si Si1 0.474456 0.798140 0.223289
Si Si2 0.310828 0.690646 0.662969
Si Si3 0.319855 0.446097 0.190627
Si Si4 0.873728 0.037451 0.829233
Si Si5 0.980988 0.064686 0.204558
Si Si6 0.101339 0.627078 0.319849
Si Si7 0.689405 0.561368 0.426006
Si Si8 0.708202 0.005602 0.626832
O O1 0.406864 0.789675 0.455265
O O2 0.395851 0.619974 0.196915
O O3 0.336134 0.752522 0.180959
O O4 0.718745 0.971027 0.067434
O O5 0.343147 0.589957 0.635880
O O6 0.467211 0.865951 0.738065
O O7 0.061403 0.518112 0.757779
O O8 0.280987 0.398605 0.387616
O O9 0.122965 0.270083 0.165793
O O10 0.500000 0.500000 0.000000
O O11 0.098711 0.253435 0.748835
O O12 0.756011 0.980098 0.737038
O O13 0.915664 0.940752 0.757330
O O14 0.772509 0.965993 0.407970
O O15 0.000000 0.000000 0.000000
O O16 0.000000 0.500000 0.500000
O O17 0.138035 0.780868 0.392973
O O18 0.500000 0.500000 0.500000
#
# Coordination Sequence:
#
# PCOD9033566 Si02
#       8
#     2   2   2   2   2   2   2   2
#     4  10  23  44  72 100 133 182 236 283 349 414
#     4  10  22  44  68  97 133 181 236 277 341 421
#     4  11  23  43  65  97 137 178 228 281 341 420
#     4  12  24  42  66 103 140 179 223 295 355 405
#     4  12  25  41  65 100 140 182 230 286 345 421
#     4  10  22  46  74  97 137 186 235 290 340 418
#     4  11  24  41  66  97 140 182 221 280 357 419
#     4  12  24  43  70 101 138 181 232 290 351 412
#
# _framework density 24.138455
#
# number of rings (size 3 to 8) (size 9 to 14) (size 15 to 20)
#    0.000    1.000    3.750    3.375    5.250    2.500 
#    0.000    1.875    0.000    0.000    0.000    0.000 
#    0.000    0.000    0.000    0.000    0.000    0.000 
#
# Total GULP energy -89400.054155 kJ/mol
# GULP energy per Si atom -5587.503385 kJ/mol
# Density = 2.408351 g / cm^3
# Si number density = 24.138455 Si / 1000 Ang^3
#
#
#
# Elastic Constant Matrix: (Units=GPa)
#
#
# Indices 1 2 3 4 5 6 
#
# 1 119.7798 24.8005 16.6036 -10.2262 2.5709 27.5179
# 2 24.8005 120.4087 24.4274 -20.5865 12.7169 23.1046
# 3 16.6036 24.4274 61.0894 -14.3790 5.2195 -3.4704
# 4 -10.2262 -20.5865 -14.3790 35.7617 15.4644 -7.3788
# 5 2.5709 12.7169 5.2195 15.4644 23.3708 -10.1852
# 6 27.5179 23.1046 -3.4704 -7.3788 -10.1852 40.7880
#
#
#
# Elastic Compliance Matrix: (Units=1/GPa)
#
#
# Indices 1 2 3 4 5 6 
#
# 1 0.011428 0.002407 -0.002297 0.006198 -0.010891 -0.010868
# 2 0.002407 0.017472 -0.001411 0.019603 -0.029125 -0.015368
# 3 -0.002297 -0.001411 0.021613 0.012517 -0.010410 0.003853
# 4 0.006198 0.019603 0.012517 0.072613 -0.070316 -0.018643
# 5 -0.010891 -0.029125 -0.010410 -0.070316 0.126968 0.041945
# 6 -0.010868 -0.015368 0.003853 -0.018643 0.041945 0.047984
#
#
# Mechanical properties :
#
#
# Convention : Reuss Voigt Hill
#
# Bulk Modulus (GPa) = 20.87181 48.10452 34.48817
# Shear Modulus (GPa) = 15.79038 35.68053 25.73545
#
# Velocity S-wave (km/s) = 2.56043 3.84886 3.26875
# Velocity P-wave (km/s) = 4.17211 6.30265 5.34462
#
# Compressibility (1/GPa) = 0.04791152
#
# Stress axis : x y z
#
# Youngs Moduli (GPa) = 87.50299 57.23476 46.26932
#
# Poissons Ratio (x) = -0.13778 0.10627
# Poissons Ratio (y) = -0.21065 0.06530
# Poissons Ratio (z) = 0.20097 0.08077
#
# Static dielectric constant tensor:
#      x y z
#    x 1.952850 0.059720 -0.002650 
#    y 0.059720 1.920220 -0.025070 
#    z -0.002650 -0.025070 1.972550 
# 
# From -- ./inp_files/315567.got.cif
#   From: 2010.05.17/outbox.cif.g08.bks.cpg/sg2_158_cif.got.tgz:315567.got - 2010.06.03 11:33:40.
