data_PCOD9033778
_publ_section_title
;
Structure prediction by ZEFSAII (Michael W. Deem and Ramdas Pophale) SiO2 
 PCOD9033778
Probable space group: P -1
;
_chemical_formula_sum "Si O2"
_cell_formula_units_Z 16
_cell_length_a 9.930337
_cell_length_b 12.449268
_cell_length_c 8.301935
_cell_angle_alpha 94.044264
_cell_angle_beta 134.741515
_cell_angle_gamma 110.876892
_cell_volume 595.944543
_symmetry_space_group_name_H-M "P -1"
_symmetry_group_IT_number 2
_symmetry_cell_setting 'triclinic'
loop_
_space_group_symop_operation_xyz
x,y,z
-x,-y,-z
loop_
_atom_site_type_symbol
_atom_site_label
_atom_site_fract_x
_atom_site_fract_y
_atom_site_fract_z
Si Si1 0.059212 0.607302 0.729261
Si Si2 0.875980 0.609569 0.907618
Si Si3 0.557332 0.718309 0.158496
Si Si4 0.954929 0.899980 0.306410
Si Si5 0.347960 0.095539 0.200742
Si Si6 0.841444 0.320665 0.519297
Si Si7 0.563956 0.680879 0.501253
Si Si8 0.459524 0.029848 0.787175
O O1 0.068463 0.682138 0.583669
O O2 0.036612 0.654768 0.888924
O O3 0.852502 0.454675 0.534939
O O4 0.287507 0.604919 0.908260
O O5 0.711442 0.659022 0.747944
O O6 0.697881 0.449755 0.734778
O O7 0.015775 0.659573 0.196579
O O8 0.735187 0.760851 0.168522
O O9 0.652923 0.693820 0.396463
O O10 0.529061 0.837988 0.178987
O O11 0.197297 0.919585 0.498078
O O12 0.878382 0.937157 0.085770
O O13 0.000000 0.000000 0.500000
O O14 0.574200 0.202543 0.298250
O O15 0.395796 0.181076 0.407379
O O16 0.367315 0.973455 0.190606
O O17 0.500000 0.000000 0.000000
#
# Coordination Sequence:
#
# PCOD9033778 Si02
#       8
#     2   2   2   2   2   2   2   2
#     4  11  21  41  71 106 136 189 241 290 360 431
#     4  11  24  47  66  99 155 193 233 295 367 417
#     4  11  22  44  69 101 140 180 236 293 350 428
#     4  10  22  44  69  98 140 177 233 296 339 419
#     4  12  23  44  69 103 141 183 236 289 356 424
#     4  11  22  39  73 106 136 189 244 287 357 434
#     4  11  26  44  65 100 146 191 234 301 355 418
#     4  11  23  44  75 102 134 190 230 291 367 415
#
# _framework density 26.848136
#
# number of rings (size 3 to 8) (size 9 to 14) (size 15 to 20)
#    0.000    1.000    6.250    1.125    1.750    2.500 
#    0.000    3.750    0.000    0.000    0.000    0.000 
#    0.000    0.000    0.000    0.000    0.000    0.000 
#
# Total GULP energy -89528.633874 kJ/mol
# GULP energy per Si atom -5595.539617 kJ/mol
# Density = 2.678703 g / cm^3
# Si number density = 26.848136 Si / 1000 Ang^3
#
#
#
# Elastic Constant Matrix: (Units=GPa)
#
#
# Indices 1 2 3 4 5 6 
#
# 1 94.3661 2.5496 49.1829 -10.4061 -12.4595 9.7063
# 2 2.5496 58.5764 26.3161 0.5789 -4.4399 5.0459
# 3 49.1829 26.3161 183.3921 -29.7114 -12.5960 2.3143
# 4 -10.4061 0.5789 -29.7114 45.8075 4.0060 -5.4658
# 5 -12.4595 -4.4399 -12.5960 4.0060 48.0745 -5.9998
# 6 9.7063 5.0459 2.3143 -5.4658 -5.9998 32.9453
#
#
#
# Elastic Compliance Matrix: (Units=1/GPa)
#
#
# Indices 1 2 3 4 5 6 
#
# 1 0.013026 0.001462 -0.003499 0.000075 0.002162 -0.003410
# 2 0.001462 0.018936 -0.003420 -0.002614 0.001033 -0.003336
# 3 -0.003499 -0.003420 0.007607 0.004348 0.000640 0.001858
# 4 0.000075 -0.002614 0.004348 0.025253 -0.000670 0.004140
# 5 0.002162 0.001033 0.000640 -0.000670 0.022063 0.003067
# 6 -0.003410 -0.003336 0.001858 0.004140 0.003067 0.032984
#
#
# Mechanical properties :
#
#
# Convention : Reuss Voigt Hill
#
# Bulk Modulus (GPa) = 34.89851 54.71465 44.80658
# Shear Modulus (GPa) = 35.62912 42.58453 39.10682
#
# Velocity S-wave (km/s) = 3.64684 3.98694 3.82067
# Velocity P-wave (km/s) = 5.54610 6.45119 6.01569
#
# Compressibility (1/GPa) = 0.02865452
#
# Stress axis : x y z
#
# Youngs Moduli (GPa) = 76.77036 52.80954 131.45901
#
# Poissons Ratio (x) = -0.07721 0.46004
# Poissons Ratio (y) = -0.11224 0.44955
# Poissons Ratio (z) = 0.26865 0.18059
#
# Static dielectric constant tensor:
#      x y z
#    x 2.131120 0.033040 0.031660 
#    y 0.033040 2.214570 0.055400 
#    z 0.031660 0.055400 2.099000 
# 
# From -- ./inp_files/273267.got.cif
#   From: 2010.05.17/outbox.cif.g08.bks.cpg/sg2_137_cif.got.tgz:273267.got - 2010.06.03 11:33:40.
