data_PCOD9033983
_publ_section_title
;
Structure prediction by ZEFSAII (Michael W. Deem and Ramdas Pophale) SiO2 
 PCOD9033983
Probable space group: P -1
;
_chemical_formula_sum "Si O2"
_cell_formula_units_Z 16
_cell_length_a 10.679552
_cell_length_b 9.464669
_cell_length_c 14.542760
_cell_angle_alpha 74.766982
_cell_angle_beta 30.082388
_cell_angle_gamma 85.974141
_cell_volume 672.345222
_symmetry_space_group_name_H-M "P -1"
_symmetry_group_IT_number 2
_symmetry_cell_setting 'triclinic'
loop_
_space_group_symop_operation_xyz
x,y,z
-x,-y,-z
loop_
_atom_site_type_symbol
_atom_site_label
_atom_site_fract_x
_atom_site_fract_y
_atom_site_fract_z
Si Si1 0.919081 0.016983 0.758214
Si Si2 0.433634 0.779675 0.013082
Si Si3 0.797041 0.287563 0.210995
Si Si4 0.243444 0.483373 0.289976
Si Si5 0.232568 0.140487 0.371552
Si Si6 0.161007 0.021911 0.799728
Si Si7 0.399080 0.449511 0.779713
Si Si8 0.418500 0.645697 0.492970
O O1 0.181486 0.090761 0.518169
O O2 0.982415 0.997971 0.826421
O O3 0.713532 0.860497 0.873144
O O4 0.766845 0.142761 0.828936
O O5 0.492788 0.835616 0.860016
O O6 0.310547 0.596870 0.140268
O O7 0.618063 0.381835 0.265203
O O8 0.817439 0.337474 0.297506
O O9 0.698114 0.107638 0.281478
O O10 0.096640 0.345444 0.973662
O O11 0.188592 0.301524 0.345496
O O12 0.497179 0.543279 0.185154
O O13 0.000000 0.500000 0.500000
O O14 0.000000 0.000000 0.500000
O O15 0.358476 0.195234 0.649740
O O16 0.000000 0.000000 0.000000
O O17 0.586863 0.384609 0.607113
O O18 0.500000 0.500000 0.500000
#
# Coordination Sequence:
#
# PCOD9033983 Si02
#       8
#     2   2   2   2   2   2   2   2
#     4  10  23  44  68  98 143 180 222 295 342 407
#     4  10  22  44  70  98 136 184 231 280 349 407
#     4  10  22  45  67  98 136 187 228 277 337 411
#     4  12  24  44  73 104 139 178 233 290 351 416
#     4  10  23  46  67  97 137 179 232 281 345 413
#     4  12  24  43  70 105 141 181 234 283 350 419
#     4  10  23  45  68  97 143 179 225 290 344 408
#     4  10  23  43  67  95 137 181 231 281 343 404
#
# _framework density 23.7973
#
# number of rings (size 3 to 8) (size 9 to 14) (size 15 to 20)
#    0.000    1.500    2.500    1.500    3.500    1.000 
#   11.250    0.000    0.000    0.000    0.000    0.000 
#    0.000    0.000    0.000    0.000    0.000    0.000 
#
# Total GULP energy -89376.552394 kJ/mol
# GULP energy per Si atom -5586.034525 kJ/mol
# Density = 2.374314 g / cm^3
# Si number density = 23.797300 Si / 1000 Ang^3
#
#
#
# Elastic Constant Matrix: (Units=GPa)
#
#
# Indices 1 2 3 4 5 6 
#
# 1 71.1285 4.7589 29.0312 1.9720 12.4943 3.2562
# 2 4.7589 146.2598 28.5269 -7.4926 3.3482 8.0228
# 3 29.0312 28.5269 103.6470 -3.9561 30.5526 0.5727
# 4 1.9720 -7.4926 -3.9561 37.4195 4.9640 6.7181
# 5 12.4943 3.3482 30.5526 4.9640 34.6677 5.2055
# 6 3.2562 8.0228 0.5727 6.7181 5.2055 15.9480
#
#
#
# Elastic Compliance Matrix: (Units=1/GPa)
#
#
# Indices 1 2 3 4 5 6 
#
# 1 0.016158 0.000436 -0.004130 -0.000503 -0.001766 -0.002582
# 2 0.000436 0.007702 -0.002741 0.001917 0.002042 -0.005339
# 3 -0.004130 -0.002741 0.015408 0.002111 -0.012876 0.004983
# 4 -0.000503 0.001917 0.002111 0.030126 -0.004345 -0.012210
# 5 -0.001766 0.002042 -0.012876 -0.004345 0.043124 -0.012450
# 6 -0.002582 -0.005339 0.004983 -0.012210 -0.012450 0.074945
#
#
# Mechanical properties :
#
#
# Convention : Reuss Voigt Hill
#
# Bulk Modulus (GPa) = 37.88263 49.51882 43.70072
# Shear Modulus (GPa) = 23.90823 34.85494 29.38159
#
# Velocity S-wave (km/s) = 3.17308 3.83124 3.51759
# Velocity P-wave (km/s) = 5.42015 6.35806 5.90775
#
# Compressibility (1/GPa) = 0.02639732
#
# Stress axis : x y z
#
# Youngs Moduli (GPa) = 61.88890 129.83716 64.90062
#
# Poissons Ratio (x) = -0.05662 0.26806
# Poissons Ratio (y) = -0.02699 0.17791
# Poissons Ratio (z) = 0.25562 0.35591
#
# Static dielectric constant tensor:
#      x y z
#    x 1.824220 0.046270 0.121950 
#    y 0.046270 1.890300 0.017090 
#    z 0.121950 0.017090 1.977040 
# 
# From -- ./inp_files/495274.got.cif
#   From: 2010.05.17/outbox.cif.g08.bks.cpg/sg2_248_cif.got.tgz:495274.got - 2010.06.03 11:33:40.
