data_PCOD9033103
_publ_section_title
;
Structure prediction by ZEFSAII (Michael W. Deem and Ramdas Pophale) SiO2 
 PCOD9033103
Probable space group: P -1
;
_chemical_formula_sum "Si O2"
_cell_formula_units_Z 16
_cell_length_a 13.910414
_cell_length_b 9.720597
_cell_length_c 16.393562
_cell_angle_alpha 122.865669
_cell_angle_beta 138.920238
_cell_angle_gamma 29.208827
_cell_volume 663.298243
_symmetry_space_group_name_H-M "P -1"
_symmetry_group_IT_number 2
_symmetry_cell_setting 'triclinic'
loop_
_space_group_symop_operation_xyz
x,y,z
-x,-y,-z
loop_
_atom_site_type_symbol
_atom_site_label
_atom_site_fract_x
_atom_site_fract_y
_atom_site_fract_z
Si Si1 0.341724 0.089606 0.848823
Si Si2 0.639890 0.019248 0.336350
Si Si3 0.310677 0.839927 0.420509
Si Si4 0.010714 0.291766 0.232754
Si Si5 0.351738 0.641599 0.036502
Si Si6 0.794815 0.367772 0.450470
Si Si7 0.864901 0.030326 0.263774
Si Si8 0.549176 0.122873 0.740901
O O1 0.505088 0.841252 0.800490
O O2 0.231778 0.355096 0.819336
O O3 0.123380 0.171408 0.775008
O O4 0.500000 0.000000 0.000000
O O5 0.607939 0.174181 0.441782
O O6 0.584709 0.897201 0.302789
O O7 0.944823 0.762850 0.417642
O O8 0.129832 0.140792 0.349562
O O9 0.103626 0.883301 0.315040
O O10 0.574683 0.563289 0.444539
O O11 0.917846 0.207862 0.104525
O O12 0.240408 0.148498 0.275933
O O13 0.567351 0.348763 0.139308
O O14 0.321157 0.858415 0.113481
O O15 0.500000 0.500000 0.000000
O O16 0.875274 0.116560 0.383969
O O17 0.651861 0.588418 0.352388
#
# Coordination Sequence:
#
# PCOD9033103 Si02
#       8
#     2   2   2   2   2   2   2   2
#     4  12  27  45  65  96 141 184 221 267 334 404
#     4  11  25  42  70  99 139 174 220 278 341 393
#     4  10  23  43  73 105 127 171 227 283 337 390
#     4  11  23  41  70 101 134 173 223 282 334 396
#     4  11  19  38  69  94 131 175 223 278 332 386
#     4   9  22  42  72 100 133 167 224 286 334 394
#     4  10  22  44  65  98 135 182 222 268 334 399
#     4  10  23  38  66 109 131 166 226 285 336 392
#
# _framework density 24.121879
#
# number of rings (size 3 to 8) (size 9 to 14) (size 15 to 20)
#    0.000    1.500    2.500    1.500    7.000    3.000 
#    2.250    1.875    0.000    0.000    0.000    0.000 
#    0.000    0.000    0.000    0.000    0.000    0.000 
#
# Total GULP energy -89401.811236 kJ/mol
# GULP energy per Si atom -5587.613202 kJ/mol
# Density = 2.406698 g / cm^3
# Si number density = 24.121879 Si / 1000 Ang^3
#
#
#
# Elastic Constant Matrix: (Units=GPa)
#
#
# Indices 1 2 3 4 5 6 
#
# 1 189.8185 30.7062 47.4859 10.9573 3.8354 -9.0412
# 2 30.7062 27.4944 6.8623 -5.8594 5.1701 6.9878
# 3 47.4859 6.8623 107.7569 9.7438 -17.4746 -0.8733
# 4 10.9573 -5.8594 9.7438 24.0089 5.9995 3.4905
# 5 3.8354 5.1701 -17.4746 5.9995 45.5771 5.8846
# 6 -9.0412 6.9878 -0.8733 3.4905 5.8846 33.8125
#
#
#
# Elastic Compliance Matrix: (Units=1/GPa)
#
#
# Indices 1 2 3 4 5 6 
#
# 1 0.008300 -0.011314 -0.002349 -0.006310 -0.000153 0.005175
# 2 -0.011314 0.060978 -0.002680 0.025638 -0.008183 -0.016919
# 3 -0.002349 -0.002680 0.011972 -0.005886 0.005890 -0.000183
# 4 -0.006310 0.025638 -0.005886 0.057493 -0.010756 -0.011201
# 5 -0.000153 -0.008183 0.005890 -0.010756 0.026782 -0.001749
# 6 0.005175 -0.016919 -0.000183 -0.011201 -0.001749 0.035911
#
#
# Mechanical properties :
#
#
# Convention : Reuss Voigt Hill
#
# Bulk Modulus (GPa) = 20.59159 55.01984 37.80571
# Shear Modulus (GPa) = 19.97517 36.68071 28.32794
#
# Velocity S-wave (km/s) = 2.88078 3.90377 3.43062
# Velocity P-wave (km/s) = 4.42947 6.57099 5.60348
#
# Compressibility (1/GPa) = 0.04856353
#
# Stress axis : x y z
#
# Youngs Moduli (GPa) = 120.48137 16.39927 83.52760
#
# Poissons Ratio (x) = 0.18555 0.19625
# Poissons Ratio (y) = 1.36316 0.22383
# Poissons Ratio (z) = 0.28307 0.04394
#
# Static dielectric constant tensor:
#      x y z
#    x 1.882210 0.001980 0.005820 
#    y 0.001980 2.075410 -0.045500 
#    z 0.005820 -0.045500 2.076310 
# 
# From -- ./inp_files/515978.got.cif
#   From: 2010.05.17/outbox.cif.g08.bks.cpg/sg2_258_cif.got.tgz:515978.got - 2010.06.03 11:33:40.
