data_PCOD9033537
_publ_section_title
;
Structure prediction by ZEFSAII (Michael W. Deem and Ramdas Pophale) SiO2 
 PCOD9033537
Probable space group: P -1
;
_chemical_formula_sum "Si O2"
_cell_formula_units_Z 16
_cell_length_a 12.087030
_cell_length_b 9.077955
_cell_length_c 14.280073
_cell_angle_alpha 72.776911
_cell_angle_beta 123.771115
_cell_angle_gamma 143.446632
_cell_volume 739.047042
_symmetry_space_group_name_H-M "P -1"
_symmetry_group_IT_number 2
_symmetry_cell_setting 'triclinic'
loop_
_space_group_symop_operation_xyz
x,y,z
-x,-y,-z
loop_
_atom_site_type_symbol
_atom_site_label
_atom_site_fract_x
_atom_site_fract_y
_atom_site_fract_z
Si Si1 0.115691 0.112519 0.137072
Si Si2 0.162739 0.927717 0.853052
Si Si3 0.927578 0.102328 0.472437
Si Si4 0.652592 0.990944 0.722151
Si Si5 0.255890 0.792163 0.074286
Si Si6 0.137547 0.502274 0.624662
Si Si7 0.522609 0.727167 0.229688
Si Si8 0.936566 0.508547 0.677465
O O1 0.203023 0.026957 0.227801
O O2 0.336542 0.424997 0.186548
O O3 0.952082 0.048759 0.143169
O O4 0.000000 0.000000 0.000000
O O5 0.999319 0.650970 0.777287
O O6 0.297919 0.128671 0.794738
O O7 0.311232 0.961725 0.985398
O O8 0.000082 0.219588 0.588588
O O9 0.059792 0.344407 0.420181
O O10 0.664914 0.868846 0.366250
O O11 0.000000 0.000000 0.500000
O O12 0.387237 0.719289 0.661242
O O13 0.726994 0.105473 0.839556
O O14 0.721422 0.199440 0.649563
O O15 0.411022 0.788229 0.149538
O O16 0.000000 0.500000 0.000000
O O17 0.000000 0.500000 0.500000
O O18 0.119407 0.558390 0.709634
#
# Coordination Sequence:
#
# PCOD9033537 Si02
#       8
#     2   2   2   2   2   2   2   2
#     4  12  25  43  60  97 141 174 210 271 321 391
#     4  11  23  42  65  98 135 176 223 259 324 401
#     4  10  22  44  68  95 132 168 217 275 330 384
#     4  12  23  40  66  96 136 173 215 270 334 377
#     4  12  20  41  67  95 138 173 214 272 320 391
#     4  10  23  43  66  97 130 167 224 279 323 378
#     4  11  24  42  69  95 128 179 220 263 331 391
#     4  10  23  41  70 100 127 173 226 266 324 399
#
# _framework density 21.649502999999999
#
# number of rings (size 3 to 8) (size 9 to 14) (size 15 to 20)
#    0.000    1.000    3.750    3.375    0.000    5.500 
#    0.000    1.250    0.000   19.500    0.000    0.000 
#    0.000    0.000    0.000    0.000    0.000    0.000 
#
# Total GULP energy -89305.720478 kJ/mol
# GULP energy per Si atom -5581.607530 kJ/mol
# Density = 2.160023 g / cm^3
# Si number density = 21.649503 Si / 1000 Ang^3
#
#
#
# Elastic Constant Matrix: (Units=GPa)
#
#
# Indices 1 2 3 4 5 6 
#
# 1 160.1006 38.9860 45.7106 10.7779 -3.9556 -26.4499
# 2 38.9860 71.3488 20.1781 12.8444 0.1378 -14.4054
# 3 45.7106 20.1781 74.7535 21.3624 7.6491 -12.6165
# 4 10.7779 12.8444 21.3624 36.3268 -1.4559 2.9672
# 5 -3.9556 0.1378 7.6491 -1.4559 35.9584 3.7473
# 6 -26.4499 -14.4054 -12.6165 2.9672 3.7473 36.1213
#
#
#
# Elastic Compliance Matrix: (Units=1/GPa)
#
#
# Indices 1 2 3 4 5 6 
#
# 1 0.008784 -0.003012 -0.004362 0.000803 0.001576 0.003478
# 2 -0.003012 0.017875 -0.000321 -0.005724 -0.001126 0.005398
# 3 -0.004362 -0.000321 0.021021 -0.011652 -0.006006 0.005600
# 4 0.000803 -0.005724 -0.011652 0.037131 0.005066 -0.009340
# 5 0.001576 -0.001126 -0.006006 0.005066 0.029983 -0.004919
# 6 0.003478 0.005398 0.005600 -0.009340 -0.004919 0.035618
#
#
# Mechanical properties :
#
#
# Convention : Reuss Voigt Hill
#
# Bulk Modulus (GPa) = 30.97009 57.32804 44.14906
# Shear Modulus (GPa) = 28.31813 35.10318 31.71065
#
# Velocity S-wave (km/s) = 3.62059 4.03107 3.83133
# Velocity P-wave (km/s) = 5.64043 6.94288 6.32527
#
# Compressibility (1/GPa) = 0.03228921
#
# Stress axis : x y z
#
# Youngs Moduli (GPa) = 113.83785 55.94558 47.57170
#
# Poissons Ratio (x) = 0.16848 0.20752
# Poissons Ratio (y) = 0.34283 0.01529
# Poissons Ratio (z) = 0.49659 0.01799
#
# Static dielectric constant tensor:
#      x y z
#    x 1.848920 -0.017500 -0.013510 
#    y -0.017500 1.805140 0.015580 
#    z -0.013510 0.015580 1.880770 
# 
# From -- ./inp_files/515537.got.cif
#   From: 2010.05.17/outbox.cif.g08.bks.cpg/sg2_258_cif.got.tgz:515537.got - 2010.06.03 11:33:40.
