data_PCOD9033174
_publ_section_title
;
Structure prediction by ZEFSAII (Michael W. Deem and Ramdas Pophale) SiO2 
 PCOD9033174
Probable space group: P -1
;
_chemical_formula_sum "Si O2"
_cell_formula_units_Z 15
_cell_length_a 12.192577
_cell_length_b 13.842582
_cell_length_c 6.126912
_cell_angle_alpha 85.756701
_cell_angle_beta 59.147157
_cell_angle_gamma 121.747455
_cell_volume 665.944594
_symmetry_space_group_name_H-M "P -1"
_symmetry_group_IT_number 2
_symmetry_cell_setting 'triclinic'
loop_
_space_group_symop_operation_xyz
x,y,z
-x,-y,-z
loop_
_atom_site_type_symbol
_atom_site_label
_atom_site_fract_x
_atom_site_fract_y
_atom_site_fract_z
Si Si1 0.343704 0.100831 0.307604
Si Si2 0.311550 0.906490 0.614287
Si Si3 0.105969 0.003548 0.194471
Si Si4 0.500000 0.500000 0.500000
Si Si5 0.212513 0.209679 0.681945
Si Si6 0.260920 0.565674 0.679039
Si Si7 0.314249 0.757493 0.266127
Si Si8 0.907946 0.357631 0.862969
O O1 0.315012 0.195261 0.403300
O O2 0.261606 0.990920 0.592862
O O3 0.262913 0.038584 0.163324
O O4 0.541000 0.175620 0.073998
O O5 0.317835 0.856086 0.383866
O O6 0.188273 0.782535 0.911094
O O7 0.500000 0.000000 0.500000
O O8 0.970322 0.866486 0.236053
O O9 0.000000 0.000000 0.500000
O O10 0.170363 0.119616 0.947019
O O11 0.325294 0.356071 0.615148
O O12 0.391903 0.549104 0.617545
O O13 0.349079 0.687709 0.409219
O O14 0.175649 0.587653 0.953099
O O15 0.102061 0.447420 0.720530
O O16 0.133992 0.659335 0.346651
#
# Coordination Sequence:
#
# PCOD9033174 Si02
#       8
#     2   2   2   1   2   2   2   2
#     4  11  22  37  65  95 128 168 213 275 332 400
#     4  11  24  37  61  99 125 161 214 276 332 388
#     4   9  21  42  64  91 124 171 217 267 331 392
#     4  12  24  42  66  96 132 180 220 274 338 390
#     4  10  23  42  64  91 134 173 219 273 329 399
#     4  10  24  42  64  93 130 176 219 273 328 401
#     4  11  22  40  65  93 125 169 220 271 332 401
#     4  10  22  44  66  92 133 172 219 271 337 395
#
# _framework density 22.524395999999999
#
# number of rings (size 3 to 8) (size 9 to 14) (size 15 to 20)
#    0.000    1.600    1.333    2.400    3.733    4.267 
#    0.000   10.667    0.000    0.000    0.000    0.000 
#    0.000    0.000    0.000    0.000    0.000    0.000 
#
# Total GULP energy -83585.249411 kJ/mol
# GULP energy per Si atom -5572.349961 kJ/mol
# Density = 2.247313 g / cm^3
# Si number density = 22.524396 Si / 1000 Ang^3
#
#
#
# Elastic Constant Matrix: (Units=GPa)
#
#
# Indices 1 2 3 4 5 6 
#
# 1 93.2125 28.3734 2.6987 6.2262 -6.7079 11.9357
# 2 28.3734 146.0701 5.9109 -4.6193 1.7714 21.0184
# 3 2.6987 5.9109 50.5695 3.3467 -6.6547 -1.4712
# 4 6.2262 -4.6193 3.3467 27.7651 4.2662 1.4288
# 5 -6.7079 1.7714 -6.6547 4.2662 25.2138 4.5695
# 6 11.9357 21.0184 -1.4712 1.4288 4.5695 44.6140
#
#
#
# Elastic Compliance Matrix: (Units=1/GPa)
#
#
# Indices 1 2 3 4 5 6 
#
# 1 0.012305 -0.002207 0.000384 -0.003752 0.004635 -0.002594
# 2 -0.002207 0.007857 -0.001213 0.002306 -0.001289 -0.003093
# 3 0.000384 -0.001213 0.020990 -0.003812 0.006256 0.000642
# 4 -0.003752 0.002306 -0.003812 0.039063 -0.008672 -0.000571
# 5 0.004635 -0.001289 0.006256 -0.008672 0.044965 -0.004754
# 6 -0.002594 -0.003093 0.000642 -0.000571 -0.004754 0.025092
#
#
# Mechanical properties :
#
#
# Convention : Reuss Voigt Hill
#
# Bulk Modulus (GPa) = 28.50560 40.42424 34.46492
# Shear Modulus (GPa) = 29.75514 36.37652 33.06583
#
# Velocity S-wave (km/s) = 3.63852 4.02305 3.83561
# Velocity P-wave (km/s) = 5.50770 6.29013 5.91187
#
# Compressibility (1/GPa) = 0.03508083
#
# Stress axis : x y z
#
# Youngs Moduli (GPa) = 81.26597 127.26703 47.64113
#
# Poissons Ratio (x) = 0.28093 -0.01830
# Poissons Ratio (y) = 0.17938 0.05778
# Poissons Ratio (z) = -0.03121 0.15435
#
# Static dielectric constant tensor:
#      x y z
#    x 1.859750 0.029660 -0.002690 
#    y 0.029660 1.849260 0.003040 
#    z -0.002690 0.003040 1.827240 
# 
# From -- ./inp_files/66960.got.cif
#   From: 2010.05.17/outbox.cif.g08.bks.cpg/sg2_34_cif.got.tgz:66960.got - 2010.06.03 11:33:40.
