data_PCOD9033108
_publ_section_title
;
Structure prediction by ZEFSAII (Michael W. Deem and Ramdas Pophale) SiO2 
 PCOD9033108
Probable space group: P -1
;
_chemical_formula_sum "Si O2"
_cell_formula_units_Z 16
_cell_length_a 9.347582
_cell_length_b 8.598301
_cell_length_c 11.523773
_cell_angle_alpha 84.002042
_cell_angle_beta 94.588836
_cell_angle_gamma 55.393628
_cell_volume 747.093669
_symmetry_space_group_name_H-M "P -1"
_symmetry_group_IT_number 2
_symmetry_cell_setting 'triclinic'
loop_
_space_group_symop_operation_xyz
x,y,z
-x,-y,-z
loop_
_atom_site_type_symbol
_atom_site_label
_atom_site_fract_x
_atom_site_fract_y
_atom_site_fract_z
Si Si1 0.827884 0.939374 0.780259
Si Si2 0.610182 0.139501 0.216144
Si Si3 0.743367 0.503399 0.946164
Si Si4 0.208494 0.886697 0.000688
Si Si5 0.099445 0.866068 0.628093
Si Si6 0.953083 0.521755 0.151381
Si Si7 0.141310 0.475609 0.602058
Si Si8 0.486724 0.088760 0.615815
O O1 0.978934 0.948656 0.730114
O O2 0.919313 0.713381 0.826745
O O3 0.738456 0.061621 0.880892
O O4 0.678758 0.023788 0.667611
O O5 0.423972 0.332958 0.149996
O O6 0.718824 0.168993 0.317419
O O7 0.569319 0.000754 0.283199
O O8 0.725527 0.063057 0.111639
O O9 0.721710 0.335280 0.988347
O O10 0.925690 0.416389 0.894147
O O11 0.785344 0.581313 0.056883
O O12 0.000000 0.000000 0.000000
O O13 0.122956 0.669717 0.613152
O O14 0.000000 0.000000 0.500000
O O15 0.897516 0.583587 0.273774
O O16 0.336833 0.314033 0.585297
O O17 0.000000 0.500000 0.500000
O O18 0.500000 0.000000 0.500000
#
# Coordination Sequence:
#
# PCOD9033108 Si02
#       8
#     2   2   2   2   2   2   2   2
#     4  11  23  44  67  98 141 176 220 282 337 407
#     4  12  26  44  72  99 139 181 225 285 347 406
#     4  11  24  41  69  98 144 175 224 277 342 412
#     4  12  24  41  66 104 138 175 220 275 345 406
#     4  11  24  47  70 100 136 182 230 284 345 407
#     4  10  22  44  65  99 135 185 220 274 341 412
#     4  11  25  43  73  95 134 184 232 279 345 400
#     4  12  27  48  69 100 135 178 235 289 331 409
#
# _framework density 21.416325000000001
#
# number of rings (size 3 to 8) (size 9 to 14) (size 15 to 20)
#    0.000    0.750    3.750    4.125    5.250    1.500 
#    0.000    1.250    0.000    0.000    0.000    0.000 
#    0.000    0.000    0.000    0.000    0.000    0.000 
#
# Total GULP energy -89477.350739 kJ/mol
# GULP energy per Si atom -5592.334421 kJ/mol
# Density = 2.136758 g / cm^3
# Si number density = 21.416325 Si / 1000 Ang^3
#
#
#
# Elastic Constant Matrix: (Units=GPa)
#
#
# Indices 1 2 3 4 5 6 
#
# 1 56.0835 16.3634 2.1117 -6.4423 17.6405 -13.0174
# 2 16.3634 59.1596 29.6623 -2.0978 1.0854 -13.2660
# 3 2.1117 29.6623 101.4026 8.6930 13.1523 -13.2877
# 4 -6.4423 -2.0978 8.6930 37.5811 -5.1303 5.0939
# 5 17.6405 1.0854 13.1523 -5.1303 59.7838 -8.6319
# 6 -13.0174 -13.2660 -13.2877 5.0939 -8.6319 17.7137
#
#
#
# Elastic Compliance Matrix: (Units=1/GPa)
#
#
# Indices 1 2 3 4 5 6 
#
# 1 0.024290 -0.005343 0.003557 0.000407 -0.005862 0.013543
# 2 -0.005343 0.023865 -0.006013 0.000854 0.004159 0.011217
# 3 0.003557 -0.006013 0.013347 -0.004301 -0.003113 0.007843
# 4 0.000407 0.000854 -0.004301 0.029309 0.001913 -0.009784
# 5 -0.005862 0.004159 -0.003113 0.001913 0.020052 0.005692
# 6 0.013543 0.011217 0.007843 -0.009784 0.005692 0.086277
#
#
# Mechanical properties :
#
#
# Convention : Reuss Voigt Hill
#
# Bulk Modulus (GPa) = 21.78417 34.76893 28.27655
# Shear Modulus (GPa) = 21.92611 34.24964 28.08787
#
# Velocity S-wave (km/s) = 3.20316 4.00338 3.62542
# Velocity P-wave (km/s) = 4.88612 6.13509 5.54588
#
# Compressibility (1/GPa) = 0.04590490
#
# Stress axis : x y z
#
# Youngs Moduli (GPa) = 41.16961 41.90162 74.92501
#
# Poissons Ratio (x) = 0.22389 -0.26654
# Poissons Ratio (y) = 0.21998 0.45050
# Poissons Ratio (z) = -0.14646 0.25194
#
# Static dielectric constant tensor:
#      x y z
#    x 1.773700 0.012590 -0.006680 
#    y 0.012590 1.776980 0.008510 
#    z -0.006680 0.008510 1.784690 
# 
# From -- ./inp_files/225147.got.cif
#   From: 2010.05.17/outbox.cif.g08.bks.cpg/sg2_113_cif.got.tgz:225147.got - 2010.06.03 11:33:40.
