data_PCOD9033784
_publ_section_title
;
Structure prediction by ZEFSAII (Michael W. Deem and Ramdas Pophale) SiO2 
 PCOD9033784
Probable space group: P -1
;
_chemical_formula_sum "Si O2"
_cell_formula_units_Z 16
_cell_length_a 14.866185
_cell_length_b 5.279736
_cell_length_c 9.537961
_cell_angle_alpha 104.641401
_cell_angle_beta 88.727638
_cell_angle_gamma 81.852681
_cell_volume 715.691904
_symmetry_space_group_name_H-M "P -1"
_symmetry_group_IT_number 2
_symmetry_cell_setting 'triclinic'
loop_
_space_group_symop_operation_xyz
x,y,z
-x,-y,-z
loop_
_atom_site_type_symbol
_atom_site_label
_atom_site_fract_x
_atom_site_fract_y
_atom_site_fract_z
Si Si1 0.851784 0.094171 0.617518
Si Si2 0.592357 0.427651 0.074165
Si Si3 0.051034 0.724085 0.901208
Si Si4 0.413194 0.444203 0.582785
Si Si5 0.974784 0.244296 0.388647
Si Si6 0.862199 0.535342 0.887072
Si Si7 0.290853 0.121336 0.927315
Si Si8 0.695991 0.014975 0.419448
O O1 0.914825 0.118798 0.484324
O O2 0.827222 0.367912 0.740079
O O3 0.769379 0.974405 0.536391
O O4 0.926967 0.913771 0.684112
O O5 0.570853 0.495330 0.246838
O O6 0.659505 0.619645 0.038844
O O7 0.643376 0.125664 0.040644
O O8 0.500000 0.500000 0.000000
O O9 0.085832 0.725788 0.743155
O O10 0.969863 0.545034 0.863853
O O11 0.131678 0.615648 0.985919
O O12 0.000000 0.000000 0.000000
O O13 0.500000 0.500000 0.500000
O O14 0.335136 0.670527 0.555574
O O15 0.381866 0.155244 0.551130
O O16 0.000000 0.500000 0.500000
O O17 0.799148 0.808307 0.964616
O O18 0.274258 0.074596 0.754164
#
# Coordination Sequence:
#
# PCOD9033784 Si02
#       8
#     2   2   2   2   2   2   2   2
#     4  11  25  41  61  97 129 171 232 277 328 395
#     4  10  22  44  69  99 131 169 215 266 335 405
#     4  11  24  41  64  89 130 180 222 278 332 387
#     4  10  22  44  69  99 131 169 215 266 335 405
#     4  11  24  41  64  89 130 180 222 278 332 387
#     4  11  25  41  61  97 129 171 232 277 328 395
#     4  10  24  41  68  99 133 173 217 274 333 397
#     4  10  24  41  68  99 133 173 217 274 333 397
#
# _framework density 22.355991
#
# number of rings (size 3 to 8) (size 9 to 14) (size 15 to 20)
#    0.000    1.500    2.500    0.750    7.000    2.000 
#    0.000    2.500    0.000    0.000    0.000    0.000 
#    0.000    0.000    0.000    0.000    0.000    0.000 
#
# Total GULP energy -89292.616946 kJ/mol
# GULP energy per Si atom -5580.788559 kJ/mol
# Density = 2.230511 g / cm^3
# Si number density = 22.355991 Si / 1000 Ang^3
#
#
#
# Elastic Constant Matrix: (Units=GPa)
#
#
# Indices 1 2 3 4 5 6 
#
# 1 90.1486 23.3663 34.9031 -2.4064 7.2101 -0.4741
# 2 23.3663 97.8350 21.1754 -6.5140 9.2426 -2.9660
# 3 34.9031 21.1754 84.3467 -9.9443 10.8863 -9.3467
# 4 -2.4064 -6.5140 -9.9443 30.6288 -4.0437 1.7635
# 5 7.2101 9.2426 10.8863 -4.0437 28.4853 -1.1739
# 6 -0.4741 -2.9660 -9.3467 1.7635 -1.1739 28.2469
#
#
#
# Elastic Compliance Matrix: (Units=1/GPa)
#
#
# Indices 1 2 3 4 5 6 
#
# 1 0.013765 -0.002166 -0.005355 -0.001146 -0.000969 -0.001737
# 2 -0.002166 0.011384 -0.001430 0.001445 -0.002373 0.000497
# 3 -0.005355 -0.001430 0.015831 0.003685 -0.003517 0.004622
# 4 -0.001146 0.001445 0.003685 0.034535 0.003288 -0.000668
# 5 -0.000969 -0.002373 -0.003517 0.003288 0.037930 -0.000058
# 6 -0.001737 0.000497 0.004622 -0.000668 -0.000058 0.036994
#
#
# Mechanical properties :
#
#
# Convention : Reuss Voigt Hill
#
# Bulk Modulus (GPa) = 43.33000 47.91334 45.62167
# Shear Modulus (GPa) = 28.40375 30.33123 29.36749
#
# Velocity S-wave (km/s) = 3.56830 3.68739 3.62833
# Velocity P-wave (km/s) = 6.03332 6.29346 6.16476
#
# Compressibility (1/GPa) = 0.02307870
#
# Stress axis : x y z
#
# Youngs Moduli (GPa) = 72.64668 87.84611 63.16625
#
# Poissons Ratio (x) = 0.19027 0.33824
# Poissons Ratio (y) = 0.15735 0.09032
# Poissons Ratio (z) = 0.38901 0.12561
#
# Static dielectric constant tensor:
#      x y z
#    x 1.861490 0.030240 -0.049020 
#    y 0.030240 1.919100 -0.009530 
#    z -0.049020 -0.009530 1.787840 
# 
# From -- ./inp_files/110824.got.cif
#   From: 2010.05.17/outbox.cif.g08.bks.cpg/sg2_56_cif.got.tgz:110824.got - 2010.06.03 11:33:40.
