data_PCOD9033038
_publ_section_title
;
Structure prediction by ZEFSAII (Michael W. Deem and Ramdas Pophale) SiO2 
 PCOD9033038
Probable space group: P -1
;
_chemical_formula_sum "Si O2"
_cell_formula_units_Z 16
_cell_length_a 20.372897
_cell_length_b 21.979228
_cell_length_c 8.322929
_cell_angle_alpha 147.409636
_cell_angle_beta 137.994103
_cell_angle_gamma 20.425993
_cell_volume 678.808696
_symmetry_space_group_name_H-M "P -1"
_symmetry_group_IT_number 2
_symmetry_cell_setting 'triclinic'
loop_
_space_group_symop_operation_xyz
x,y,z
-x,-y,-z
loop_
_atom_site_type_symbol
_atom_site_label
_atom_site_fract_x
_atom_site_fract_y
_atom_site_fract_z
Si Si1 0.278763 0.240001 0.683467
Si Si2 0.948311 0.901038 0.827568
Si Si3 0.327558 0.115166 0.842763
Si Si4 0.608778 0.506106 0.268411
Si Si5 0.441093 0.578397 0.743461
Si Si6 0.402782 0.342855 0.687419
Si Si7 0.019049 0.285346 0.846098
Si Si8 0.042901 0.255563 0.187445
O O1 0.258791 0.253035 0.870498
O O2 0.151463 0.265878 0.432673
O O3 0.500000 0.000000 0.500000
O O4 0.190731 0.446703 0.927791
O O5 0.971612 0.808498 0.497093
O O6 0.900709 0.878740 0.855423
O O7 0.162579 0.736426 0.882870
O O8 0.777858 0.158263 0.058123
O O9 0.162325 0.242185 0.948288
O O10 0.428626 0.901360 0.479899
O O11 0.500000 0.000000 0.000000
O O12 0.554236 0.548591 0.447728
O O13 0.552827 0.679067 0.469750
O O14 0.500000 0.500000 0.000000
O O15 0.500000 0.500000 0.500000
O O16 0.578156 0.546316 0.976943
O O17 0.191145 0.502947 0.681353
O O18 0.074077 0.186191 0.903631
#
# Coordination Sequence:
#
# PCOD9033038 Si02
#       8
#     2   2   2   2   2   2   2   2
#     4  12  25  45  65 101 144 185 234 282 338 414
#     4  11  24  46  70 101 138 179 233 287 346 422
#     4  12  24  41  71 104 139 182 230 282 345 412
#     4   9  22  43  69  94 135 178 226 288 347 409
#     4  11  23  44  70 102 136 179 229 291 353 407
#     4  10  22  44  65 102 140 173 231 288 338 418
#     4  12  25  42  71 100 138 187 229 283 347 402
#     4  11  24  45  68 100 141 182 229 286 343 413
#
# _framework density 23.570706999999999
#
# number of rings (size 3 to 8) (size 9 to 14) (size 15 to 20)
#    0.000    1.000    2.500    3.375    5.250    1.000 
#    2.250    3.125    0.000    0.000    0.000    0.000 
#    0.000    0.000    0.000    0.000    0.000    0.000 
#
# Total GULP energy -89377.281093 kJ/mol
# GULP energy per Si atom -5586.080068 kJ/mol
# Density = 2.351706 g / cm^3
# Si number density = 23.570707 Si / 1000 Ang^3
#
#
#
# Elastic Constant Matrix: (Units=GPa)
#
#
# Indices 1 2 3 4 5 6 
#
# 1 130.7513 17.4233 31.8693 -14.8718 -24.2948 18.1678
# 2 17.4233 110.4881 23.7951 -20.5141 -1.1113 -15.3203
# 3 31.8693 23.7951 58.4179 -8.8695 -8.4500 0.7815
# 4 -14.8718 -20.5141 -8.8695 22.6399 -0.1834 -3.0870
# 5 -24.2948 -1.1113 -8.4500 -0.1834 29.6891 -5.0751
# 6 18.1678 -15.3203 0.7815 -3.0870 -5.0751 47.1950
#
#
#
# Elastic Compliance Matrix: (Units=1/GPa)
#
#
# Indices 1 2 3 4 5 6 
#
# 1 0.011055 -0.000305 -0.004033 0.005034 0.007377 -0.003165
# 2 -0.000305 0.012441 -0.003360 0.010427 0.000164 0.004911
# 3 -0.004033 -0.003360 0.021518 0.002840 0.002817 0.000594
# 4 0.005034 0.010427 0.002840 0.058906 0.006703 0.005974
# 5 0.007377 0.000164 0.002817 0.006703 0.040911 0.002005
# 6 -0.003165 0.004911 0.000594 0.005974 0.002005 0.024598
#
#
# Mechanical properties :
#
#
# Convention : Reuss Voigt Hill
#
# Bulk Modulus (GPa) = 33.76360 49.53695 41.65028
# Shear Modulus (GPa) = 25.68090 35.00943 30.34516
#
# Velocity S-wave (km/s) = 3.30438 3.85813 3.59194
# Velocity P-wave (km/s) = 5.37718 6.39600 5.90859
#
# Compressibility (1/GPa) = 0.02961769
#
# Stress axis : x y z
#
# Youngs Moduli (GPa) = 90.45852 80.37853 46.47349
#
# Poissons Ratio (x) = 0.02450 0.18743
# Poissons Ratio (y) = 0.02757 0.15616
# Poissons Ratio (z) = 0.36482 0.27008
#
# Static dielectric constant tensor:
#      x y z
#    x 2.035240 0.095080 -0.055550 
#    y 0.095080 1.880720 -0.110050 
#    z -0.055550 -0.110050 1.945500 
# 
# From -- ./inp_files/350063.got.cif
#   From: 2010.05.17/outbox.cif.g08.bks.cpg/sg2_176_cif.got.tgz:350063.got - 2010.06.03 11:33:40.
