data_PCOD9033714
_publ_section_title
;
Structure prediction by ZEFSAII (Michael W. Deem and Ramdas Pophale) SiO2 
 PCOD9033714
Probable space group: P -1
;
_chemical_formula_sum "Si O2"
_cell_formula_units_Z 16
_cell_length_a 8.709708
_cell_length_b 9.756556
_cell_length_c 21.920676
_cell_angle_alpha 145.554171
_cell_angle_beta 128.396390
_cell_angle_gamma 44.876850
_cell_volume 740.265066
_symmetry_space_group_name_H-M "P -1"
_symmetry_group_IT_number 2
_symmetry_cell_setting 'triclinic'
loop_
_space_group_symop_operation_xyz
x,y,z
-x,-y,-z
loop_
_atom_site_type_symbol
_atom_site_label
_atom_site_fract_x
_atom_site_fract_y
_atom_site_fract_z
Si Si1 0.486045 0.634850 0.341769
Si Si2 0.120913 0.306091 0.904339
Si Si3 0.445146 0.091233 0.167149
Si Si4 0.975093 0.474100 0.173773
Si Si5 0.488592 0.330545 0.876020
Si Si6 0.921720 0.058262 0.571334
Si Si7 0.013672 0.487212 0.570324
Si Si8 0.783668 0.092800 0.748567
O O1 0.482361 0.351978 0.255256
O O2 0.334329 0.830447 0.430564
O O3 0.735310 0.583825 0.377682
O O4 0.359753 0.767565 0.295907
O O5 0.061561 0.470202 0.886888
O O6 0.014061 0.099594 0.796881
O O7 0.379886 0.143931 0.917779
O O8 0.000000 0.500000 0.000000
O O9 0.187546 0.195389 0.133989
O O10 0.502298 0.947958 0.195130
O O11 0.746393 0.499611 0.150600
O O12 0.013882 0.716979 0.302338
O O13 0.670109 0.253253 0.840757
O O14 0.500000 0.500000 0.000000
O O15 0.038913 0.759200 0.517252
O O16 0.000000 0.000000 0.500000
O O17 0.000000 0.500000 0.500000
O O18 0.841836 0.780196 0.658494
#
# Coordination Sequence:
#
# PCOD9033714 Si02
#       8
#     2   2   2   2   2   2   2   2
#     4  11  24  45  67  99 138 176 225 284 334 409
#     4  11  21  42  70 100 134 173 230 283 341 410
#     4  10  22  44  69  93 134 184 218 276 348 399
#     4  10  23  47  66  95 142 172 228 285 333 412
#     4  11  27  46  68 100 139 182 229 288 349 411
#     4  11  25  43  70  98 134 182 227 275 339 409
#     4  12  25  43  69 102 139 179 228 280 347 407
#     4  12  24  43  68 102 138 178 229 291 340 401
#
# _framework density 21.613878
#
# number of rings (size 3 to 8) (size 9 to 14) (size 15 to 20)
#    0.000    1.000    5.000    1.875    7.000    1.000 
#    2.250    1.250    0.000    0.000    0.000    0.000 
#    0.000    0.000    0.000    0.000    0.000    0.000 
#
# Total GULP energy -89261.003751 kJ/mol
# GULP energy per Si atom -5578.812734 kJ/mol
# Density = 2.156468 g / cm^3
# Si number density = 21.613878 Si / 1000 Ang^3
#
#
#
# Elastic Constant Matrix: (Units=GPa)
#
#
# Indices 1 2 3 4 5 6 
#
# 1 91.1764 39.0100 24.7350 -2.6520 -26.3397 -14.0845
# 2 39.0100 109.4386 36.0491 10.4362 -16.1914 -18.9317
# 3 24.7350 36.0491 80.6694 4.5930 -24.3164 -7.1226
# 4 -2.6520 10.4362 4.5930 28.2045 -2.6609 -0.3135
# 5 -26.3397 -16.1914 -24.3164 -2.6609 40.2976 -7.5005
# 6 -14.0845 -18.9317 -7.1226 -0.3135 -7.5005 43.3045
#
#
#
# Elastic Compliance Matrix: (Units=1/GPa)
#
#
# Indices 1 2 3 4 5 6 
#
# 1 0.016658 -0.003782 0.000093 0.004027 0.010746 0.005670
# 2 -0.003782 0.012961 -0.003759 -0.004410 0.000911 0.003944
# 3 0.000093 -0.003759 0.017158 -0.000476 0.009400 0.002834
# 4 0.004027 -0.004410 -0.000476 0.037836 0.003093 0.000113
# 5 0.010746 0.000911 0.009400 0.003093 0.040401 0.012459
# 6 0.005670 0.003944 0.002834 0.000113 0.012459 0.029286
#
#
# Mechanical properties :
#
#
# Convention : Reuss Voigt Hill
#
# Bulk Modulus (GPa) = 31.36530 53.43030 42.39780
# Shear Modulus (GPa) = 27.80518 34.46068 31.13293
#
# Velocity S-wave (km/s) = 3.59060 3.99730 3.79940
# Velocity P-wave (km/s) = 5.63321 6.78812 6.23745
#
# Compressibility (1/GPa) = 0.03188236
#
# Stress axis : x y z
#
# Youngs Moduli (GPa) = 60.03105 77.15356 58.28086
#
# Poissons Ratio (x) = 0.29177 -0.00541
# Poissons Ratio (y) = 0.22702 0.21906
# Poissons Ratio (z) = -0.00557 0.28999
#
# Static dielectric constant tensor:
#      x y z
#    x 1.783700 -0.009800 0.036830 
#    y -0.009800 1.757820 0.029550 
#    z 0.036830 0.029550 1.841950 
# 
# From -- ./inp_files/588218.got.cif
#   From: 2010.05.17/outbox.cif.g08.bks.cpg/sg2_295_cif.got.tgz:588218.got - 2010.06.03 11:33:40.
