data_PCOD9033888
_publ_section_title
;
Structure prediction by ZEFSAII (Michael W. Deem and Ramdas Pophale) SiO2 
 PCOD9033888
Probable space group: P -1
;
_chemical_formula_sum "Si O2"
_cell_formula_units_Z 16
_cell_length_a 8.834013
_cell_length_b 15.411572
_cell_length_c 8.599147
_cell_angle_alpha 54.828643
_cell_angle_beta 120.327800
_cell_angle_gamma 84.962874
_cell_volume 696.998980
_symmetry_space_group_name_H-M "P -1"
_symmetry_group_IT_number 2
_symmetry_cell_setting 'triclinic'
loop_
_space_group_symop_operation_xyz
x,y,z
-x,-y,-z
loop_
_atom_site_type_symbol
_atom_site_label
_atom_site_fract_x
_atom_site_fract_y
_atom_site_fract_z
Si Si1 0.532592 0.241753 0.267751
Si Si2 0.882322 0.287542 0.503927
Si Si3 0.823416 0.992432 0.508056
Si Si4 0.535925 0.733375 0.455792
Si Si5 0.868364 0.224114 0.919642
Si Si6 0.284367 0.119760 0.709365
Si Si7 0.078289 0.479819 0.735990
Si Si8 0.714562 0.468375 0.731185
O O1 0.688511 0.290499 0.321629
O O2 0.525409 0.196693 0.484373
O O3 0.634135 0.129319 0.314578
O O4 0.298730 0.349435 0.995852
O O5 0.874955 0.280503 0.696385
O O6 0.883721 0.408695 0.325663
O O7 0.092878 0.164004 0.680429
O O8 0.760159 0.918907 0.438280
O O9 0.000000 0.000000 0.500000
O O10 0.929490 0.909326 0.802415
O O11 0.333371 0.784286 0.192306
O O12 0.688776 0.763033 0.419269
O O13 0.627664 0.584543 0.686709
O O14 0.829273 0.317367 0.947922
O O15 0.500000 0.000000 0.000000
O O16 0.000000 0.500000 0.500000
O O17 0.895706 0.480736 0.734401
O O18 0.500000 0.500000 0.500000
#
# Coordination Sequence:
#
# PCOD9033888 Si02
#       8
#     2   2   2   2   2   2   2   2
#     4  11  28  46  71 104 145 193 244 299 366 431
#     4  11  24  49  71 109 146 194 237 301 364 425
#     4  12  27  49  72 105 141 193 244 299 364 439
#     4  10  24  45  69 107 143 189 237 300 358 430
#     4  10  24  45  77 101 146 189 238 291 364 432
#     4  12  27  43  72 105 145 189 245 299 357 432
#     4  12  25  44  74 105 143 191 244 299 356 431
#     4  10  22  44  70 106 142 187 233 290 359 421
#
# _framework density 22.955556000000001
#
# number of rings (size 3 to 8) (size 9 to 14) (size 15 to 20)
#    0.000    1.000    3.750    1.125    5.250    5.000 
#    0.000    0.000    0.000    0.000    0.000    0.000 
#    0.000    0.000    0.000    0.000    0.000    0.000 
#
# Total GULP energy -89378.614150 kJ/mol
# GULP energy per Si atom -5586.163384 kJ/mol
# Density = 2.290331 g / cm^3
# Si number density = 22.955556 Si / 1000 Ang^3
#
#
#
# Elastic Constant Matrix: (Units=GPa)
#
#
# Indices 1 2 3 4 5 6 
#
# 1 110.6900 27.2499 34.2880 -5.4464 31.1055 6.6670
# 2 27.2499 89.8305 43.4268 -14.1793 14.7188 -8.0048
# 3 34.2880 43.4268 101.0316 -7.0440 26.3615 6.1865
# 4 -5.4464 -14.1793 -7.0440 29.0109 -5.3200 8.5641
# 5 31.1055 14.7188 26.3615 -5.3200 28.7577 -7.7333
# 6 6.6670 -8.0048 6.1865 8.5641 -7.7333 39.8270
#
#
#
# Elastic Compliance Matrix: (Units=1/GPa)
#
#
# Indices 1 2 3 4 5 6 
#
# 1 0.014567 -0.002652 0.001087 0.000510 -0.017065 -0.006564
# 2 -0.002652 0.015773 -0.006514 0.004928 0.002783 0.004107
# 3 0.001087 -0.006514 0.016700 0.000420 -0.014977 -0.007083
# 4 0.000510 0.004928 0.000420 0.039580 0.001899 -0.007302
# 5 -0.017065 0.002783 -0.014977 0.001899 0.071031 0.019126
# 6 -0.006564 0.004107 -0.007083 -0.007302 0.019126 0.033417
#
#
# Mechanical properties :
#
#
# Convention : Reuss Voigt Hill
#
# Bulk Modulus (GPa) = 32.38249 56.83127 44.60688
# Shear Modulus (GPa) = 22.98639 32.62494 27.80567
#
# Velocity S-wave (km/s) = 3.16783 3.77400 3.48412
# Velocity P-wave (km/s) = 5.24571 6.61828 5.97156
#
# Compressibility (1/GPa) = 0.03088088
#
# Stress axis : x y z
#
# Youngs Moduli (GPa) = 68.65053 63.39762 59.88093
#
# Poissons Ratio (x) = 0.16814 -0.06506
# Poissons Ratio (y) = 0.18208 0.39005
# Poissons Ratio (z) = -0.07459 0.41296
#
# Static dielectric constant tensor:
#      x y z
#    x 1.863270 0.004510 -0.029880 
#    y 0.004510 1.870350 -0.008310 
#    z -0.029880 -0.008310 1.813320 
# 
# From -- ./inp_files/190246.got.cif
#   From: 2010.05.17/outbox.cif.g08.bks.cpg/sg2_96_cif.got.tgz:190246.got - 2010.06.03 11:33:40.
