data_PCOD9033448
_publ_section_title
;
Structure prediction by ZEFSAII (Michael W. Deem and Ramdas Pophale) SiO2 
 PCOD9033448
Probable space group: P -1
;
_chemical_formula_sum "Si O2"
_cell_formula_units_Z 16
_cell_length_a 13.656116
_cell_length_b 8.635031
_cell_length_c 19.393458
_cell_angle_alpha 140.534836
_cell_angle_beta 151.419639
_cell_angle_gamma 39.586670
_cell_volume 662.256202
_symmetry_space_group_name_H-M "P -1"
_symmetry_group_IT_number 2
_symmetry_cell_setting 'triclinic'
loop_
_space_group_symop_operation_xyz
x,y,z
-x,-y,-z
loop_
_atom_site_type_symbol
_atom_site_label
_atom_site_fract_x
_atom_site_fract_y
_atom_site_fract_z
Si Si1 0.222144 0.170891 0.072154
Si Si2 0.770584 0.138100 0.369910
Si Si3 0.433895 0.952102 0.277728
Si Si4 0.693299 0.500683 0.571014
Si Si5 0.916470 0.680125 0.448405
Si Si6 0.730116 0.492505 0.906153
Si Si7 0.753144 0.370457 0.123453
Si Si8 0.826478 0.681812 0.164302
O O1 0.319177 0.347012 0.141573
O O2 0.338199 0.049890 0.174826
O O3 0.982519 0.337864 0.002077
O O4 0.202712 0.924692 0.933762
O O5 0.669843 0.358347 0.437552
O O6 0.866195 0.244840 0.402049
O O7 0.700447 0.904416 0.216018
O O8 0.000000 0.000000 0.500000
O O9 0.689985 0.884680 0.399139
O O10 0.385061 0.710063 0.203009
O O11 0.335763 0.198533 0.350340
O O12 0.500000 0.500000 0.500000
O O13 0.921578 0.344552 0.692367
O O14 0.856792 0.522303 0.293549
O O15 0.000000 0.500000 0.500000
O O16 0.713318 0.695777 0.026757
O O17 0.841217 0.413387 0.117783
O O18 0.500000 0.500000 0.000000
#
# Coordination Sequence:
#
# PCOD9033448 Si02
#       8
#     2   2   2   2   2   2   2   2
#     4  11  24  42  73 111 153 188 248 315 380 444
#     4  10  22  44  68 101 141 197 242 295 371 454
#     4  12  23  49  74 107 149 196 256 309 382 454
#     4  11  23  40  75 102 139 201 247 296 377 453
#     4  12  27  47  68 108 149 199 250 310 383 448
#     4  11  24  44  72 118 143 197 248 322 378 448
#     4  12  23  44  76 103 144 203 249 308 384 448
#     4  11  21  43  71 103 150 190 247 306 379 444
#
# _framework density 24.159834
#
# number of rings (size 3 to 8) (size 9 to 14) (size 15 to 20)
#    0.000    0.750    6.250    2.625    1.750    0.000 
#    6.750    1.875    0.000    0.000    0.000    0.000 
#    0.000    0.000    0.000    0.000    0.000    0.000 
#
# Total GULP energy -89241.872057 kJ/mol
# GULP energy per Si atom -5577.617004 kJ/mol
# Density = 2.410485 g / cm^3
# Si number density = 24.159834 Si / 1000 Ang^3
#
#
#
# Elastic Constant Matrix: (Units=GPa)
#
#
# Indices 1 2 3 4 5 6 
#
# 1 120.6662 48.1654 29.7320 18.7176 12.3086 13.2771
# 2 48.1654 113.8656 37.4395 18.5158 -17.8881 -1.5102
# 3 29.7320 37.4395 92.2191 21.3294 -5.0295 -2.1193
# 4 18.7176 18.5158 21.3294 45.3760 1.4017 -2.2682
# 5 12.3086 -17.8881 -5.0295 1.4017 36.8096 11.1491
# 6 13.2771 -1.5102 -2.1193 -2.2682 11.1491 61.8293
#
#
#
# Elastic Compliance Matrix: (Units=1/GPa)
#
#
# Indices 1 2 3 4 5 6 
#
# 1 0.011853 -0.005137 -0.001667 -0.001906 -0.006101 -0.001698
# 2 -0.005137 0.013538 -0.002870 -0.002315 0.008054 -0.000202
# 3 -0.001667 -0.002870 0.013675 -0.004583 0.001087 0.000392
# 4 -0.001906 -0.002315 -0.004583 0.026085 -0.002598 0.001621
# 5 -0.006101 0.008054 0.001087 -0.002598 0.034832 -0.004832
# 6 -0.001698 -0.000202 0.000392 0.001621 -0.004832 0.017477
#
#
# Mechanical properties :
#
#
# Convention : Reuss Voigt Hill
#
# Bulk Modulus (GPa) = 50.71432 61.93607 56.32520
# Shear Modulus (GPa) = 34.87235 42.89726 38.88480
#
# Velocity S-wave (km/s) = 3.80333 4.21831 4.01619
# Velocity P-wave (km/s) = 6.35011 7.02973 6.69855
#
# Compressibility (1/GPa) = 0.01971830
#
# Stress axis : x y z
#
# Youngs Moduli (GPa) = 84.36450 73.86694 73.12799
#
# Poissons Ratio (x) = 0.37945 0.12190
# Poissons Ratio (y) = 0.43337 0.20987
# Poissons Ratio (z) = 0.14063 0.21199
#
# Static dielectric constant tensor:
#      x y z
#    x 1.890950 -0.050230 0.024040 
#    y -0.050230 1.923270 -0.013780 
#    z 0.024040 -0.013780 2.040410 
# 
# From -- ./inp_files/597275.got.cif
#   From: 2010.05.17/outbox.cif.g08.bks.cpg/sg2_299_cif.got.tgz:597275.got - 2010.06.03 11:33:40.
