data_PCOD9033253
_publ_section_title
;
Structure prediction by ZEFSAII (Michael W. Deem and Ramdas Pophale) SiO2 
 PCOD9033253
Probable space group: P -1
;
_chemical_formula_sum "Si O2"
_cell_formula_units_Z 12
_cell_length_a 22.959743
_cell_length_b 7.869223
_cell_length_c 14.196180
_cell_angle_alpha 144.487441
_cell_angle_beta 161.815456
_cell_angle_gamma 36.199851
_cell_volume 456.897057
_symmetry_space_group_name_H-M "P -1"
_symmetry_group_IT_number 2
_symmetry_cell_setting 'triclinic'
loop_
_space_group_symop_operation_xyz
x,y,z
-x,-y,-z
loop_
_atom_site_type_symbol
_atom_site_label
_atom_site_fract_x
_atom_site_fract_y
_atom_site_fract_z
Si Si1 0.758720 0.268512 0.311919
Si Si2 0.340533 0.729676 0.138619
Si Si3 0.078266 0.819042 0.131192
Si Si4 0.331494 0.219115 0.475680
Si Si5 0.188101 0.199291 0.964316
Si Si6 0.721292 0.902725 0.273799
O O1 0.653041 0.605398 0.323119
O O2 0.977925 0.281763 0.632471
O O3 0.696551 0.037653 0.038316
O O4 0.764203 0.105869 0.346487
O O5 0.534852 0.667286 0.346627
O O6 0.372234 0.867623 0.351745
O O7 0.248842 0.440022 0.866008
O O8 0.208697 0.994032 0.996525
O O9 0.163731 0.030389 0.428274
O O10 0.226500 0.523615 0.195743
O O11 0.898286 0.710610 0.854329
O O12 0.000000 0.000000 0.000000
O O13 0.500000 0.000000 0.000000
#
# Coordination Sequence:
#
# PCOD9033253 Si02
#       6
#     2   2   2   2   2   2
#     4  10  22  44  67 100 137 178 229 285 338 405
#     4  11  24  42  72 100 135 182 229 281 342 409
#     4  11  27  47  70 101 142 182 229 283 342 407
#     4  10  23  44  68  97 136 179 231 272 348 400
#     4  10  24  42  71  98 137 183 231 275 347 407
#     4  12  26  44  71 105 141 176 231 286 340 400
#
# _framework density 26.264123000000001
#
# number of rings (size 3 to 8) (size 9 to 14) (size 15 to 20)
#    0.000    1.333    1.667    2.000   11.667    6.000 
#    0.000    1.667    0.000    0.000    0.000    0.000 
#    0.000    0.000    0.000    0.000    0.000    0.000 
#
# Total GULP energy -67065.481410 kJ/mol
# GULP energy per Si atom -5588.790117 kJ/mol
# Density = 2.620434 g / cm^3
# Si number density = 26.264123 Si / 1000 Ang^3
#
#
#
# Elastic Constant Matrix: (Units=GPa)
#
#
# Indices 1 2 3 4 5 6 
#
# 1 77.3177 38.2946 18.1752 6.5027 -20.1225 -22.8865
# 2 38.2946 193.7422 33.2599 37.3576 -12.8323 -38.2639
# 3 18.1752 33.2599 112.5991 35.8027 -12.8224 -22.7749
# 4 6.5027 37.3576 35.8027 62.0678 -19.9687 -8.7718
# 5 -20.1225 -12.8323 -12.8224 -19.9687 44.9398 9.7638
# 6 -22.8865 -38.2639 -22.7749 -8.7718 9.7638 61.4406
#
#
#
# Elastic Compliance Matrix: (Units=1/GPa)
#
#
# Indices 1 2 3 4 5 6 
#
# 1 0.017275 -0.002642 -0.001587 0.003558 0.007339 0.003543
# 2 -0.002642 0.006944 0.000096 -0.004053 -0.001638 0.003058
# 3 -0.001587 0.000096 0.011680 -0.006489 -0.000889 0.003013
# 4 0.003558 -0.004053 -0.006489 0.024910 0.010009 -0.001639
# 5 0.007339 -0.001638 -0.000889 0.010009 0.029678 -0.001903
# 6 0.003543 0.003058 0.003013 -0.001639 -0.001903 0.020685
#
#
# Mechanical properties :
#
#
# Convention : Reuss Voigt Hill
#
# Bulk Modulus (GPa) = 36.18839 62.56870 49.37854
# Shear Modulus (GPa) = 38.86526 53.28491 46.07509
#
# Velocity S-wave (km/s) = 3.85097 4.50912 4.19298
# Velocity P-wave (km/s) = 5.79499 7.14032 6.50254
#
# Compressibility (1/GPa) = 0.02763317
#
# Stress axis : x y z
#
# Youngs Moduli (GPa) = 57.88760 144.00513 85.61279
#
# Poissons Ratio (x) = 0.38051 0.13585
# Poissons Ratio (y) = 0.15296 -0.00822
# Poissons Ratio (z) = 0.09186 -0.01382
#
# Static dielectric constant tensor:
#      x y z
#    x 2.045980 -0.077390 -0.018430 
#    y -0.077390 2.106250 -0.016030 
#    z -0.018430 -0.016030 2.188950 
# 
# From -- ./inp_files/152580.got.cif
#   From: 2010.05.17/outbox.cif.g08.bks.cpg/sg2_77_cif.got.tgz:152580.got - 2010.06.03 11:33:40.
