data_PCOD9033663
_publ_section_title
;
Structure prediction by ZEFSAII (Michael W. Deem and Ramdas Pophale) SiO2 
 PCOD9033663
Probable space group: P -1
;
_chemical_formula_sum "Si O2"
_cell_formula_units_Z 16
_cell_length_a 11.339475
_cell_length_b 8.790803
_cell_length_c 8.190962
_cell_angle_alpha 60.619341
_cell_angle_beta 107.294302
_cell_angle_gamma 107.704125
_cell_volume 666.913663
_symmetry_space_group_name_H-M "P -1"
_symmetry_group_IT_number 2
_symmetry_cell_setting 'triclinic'
loop_
_space_group_symop_operation_xyz
x,y,z
-x,-y,-z
loop_
_atom_site_type_symbol
_atom_site_label
_atom_site_fract_x
_atom_site_fract_y
_atom_site_fract_z
Si Si1 0.943855 0.735119 0.923342
Si Si2 0.284126 0.648534 0.514502
Si Si3 0.653160 0.049593 0.069222
Si Si4 0.732029 0.967488 0.785646
Si Si5 0.255425 0.550395 0.177083
Si Si6 0.538477 0.635396 0.791051
Si Si7 0.080978 0.368811 0.678213
Si Si8 0.114762 0.026323 0.665241
O O1 0.844935 0.869022 0.835034
O O2 0.873815 0.563867 0.886133
O O3 0.977080 0.694043 0.141249
O O4 0.067247 0.842417 0.836444
O O5 0.251821 0.578121 0.355063
O O6 0.426515 0.655890 0.615171
O O7 0.212819 0.502184 0.687635
O O8 0.253179 0.845447 0.400598
O O9 0.732688 0.966628 0.287955
O O10 0.689786 0.261961 0.984376
O O11 0.500000 0.000000 0.000000
O O12 0.720093 0.999653 0.956772
O O13 0.602867 0.831511 0.770829
O O14 0.358065 0.434303 0.236386
O O15 0.500000 0.500000 0.000000
O O16 0.098379 0.203494 0.662141
O O17 0.000000 0.500000 0.500000
O O18 0.000000 0.000000 0.500000
#
# Coordination Sequence:
#
# PCOD9033663 Si02
#       8
#     2   2   2   2   2   2   2   2
#     4  11  24  49  74 101 144 187 251 301 376 433
#     4  11  23  42  66 100 142 181 247 294 373 440
#     4  11  25  45  73 105 150 192 242 293 373 438
#     4  10  22  44  69 103 138 194 238 306 359 438
#     4  10  24  41  70 102 139 191 234 302 362 435
#     4  11  22  41  68 100 142 192 244 298 369 438
#     4  12  27  43  74 104 138 189 244 310 366 441
#     4  12  28  49  75 110 149 192 244 310 371 446
#
# _framework density 23.991111
#
# number of rings (size 3 to 8) (size 9 to 14) (size 15 to 20)
#    0.000    1.000    1.250    4.875    7.000    0.500 
#   13.500    0.000    0.000    0.000    0.000    0.000 
#    0.000    0.000    0.000    0.000    0.000    0.000 
#
# Total GULP energy -89475.774388 kJ/mol
# GULP energy per Si atom -5592.235899 kJ/mol
# Density = 2.393651 g / cm^3
# Si number density = 23.991111 Si / 1000 Ang^3
#
#
#
# Elastic Constant Matrix: (Units=GPa)
#
#
# Indices 1 2 3 4 5 6 
#
# 1 73.5335 22.7516 29.3827 10.8443 31.9229 22.4165
# 2 22.7516 158.1181 42.4495 -4.3058 19.6485 15.2709
# 3 29.3827 42.4495 113.8828 -0.5894 29.2910 5.2704
# 4 10.8443 -4.3058 -0.5894 30.5636 13.6917 -0.5026
# 5 31.9229 19.6485 29.2910 13.6917 47.3208 1.2097
# 6 22.4165 15.2709 5.2704 -0.5026 1.2097 36.5675
#
#
#
# Elastic Compliance Matrix: (Units=1/GPa)
#
#
# Indices 1 2 3 4 5 6 
#
# 1 0.026027 0.000110 -0.002193 -0.002767 -0.015056 -0.015225
# 2 0.000110 0.007486 -0.002056 0.002015 -0.002421 -0.002789
# 3 -0.002193 -0.002056 0.011594 0.003335 -0.005828 0.000771
# 4 -0.002767 0.002015 0.003335 0.039694 -0.012553 0.001335
# 5 -0.015056 -0.002421 -0.005828 -0.012553 0.039289 0.009608
# 6 -0.015225 -0.002789 0.000771 0.001335 0.009608 0.037434
#
#
# Mechanical properties :
#
#
# Convention : Reuss Voigt Hill
#
# Bulk Modulus (GPa) = 27.15399 59.41133 43.28266
# Shear Modulus (GPa) = 27.46051 39.62041 33.54046
#
# Velocity S-wave (km/s) = 3.38688 4.06823 3.74309
# Velocity P-wave (km/s) = 5.16116 6.84726 6.06311
#
# Compressibility (1/GPa) = 0.03682700
#
# Stress axis : x y z
#
# Youngs Moduli (GPa) = 38.42095 133.58691 86.25237
#
# Poissons Ratio (x) = -0.01467 0.18919
# Poissons Ratio (y) = -0.00422 0.17737
# Poissons Ratio (z) = 0.08427 0.27471
#
# Static dielectric constant tensor:
#      x y z
#    x 2.620680 0.683990 0.225110 
#    y 0.683990 2.547670 0.240100 
#    z 0.225110 0.240100 2.085670 
# 
# From -- ./inp_files/242714.got.cif
#   From: 2010.05.17/outbox.cif.g08.bks.cpg/sg2_122_cif.got.tgz:242714.got - 2010.06.03 11:33:40.
