data_PCOD9033552
_publ_section_title
;
Structure prediction by ZEFSAII (Michael W. Deem and Ramdas Pophale) SiO2 
 PCOD9033552
Probable space group: P -1
;
_chemical_formula_sum "Si O2"
_cell_formula_units_Z 10
_cell_length_a 5.002135
_cell_length_b 9.588858
_cell_length_c 13.321862
_cell_angle_alpha 53.954264
_cell_angle_beta 86.772887
_cell_angle_gamma 123.245962
_cell_volume 357.885037
_symmetry_space_group_name_H-M "P -1"
_symmetry_group_IT_number 2
_symmetry_cell_setting 'triclinic'
loop_
_space_group_symop_operation_xyz
x,y,z
-x,-y,-z
loop_
_atom_site_type_symbol
_atom_site_label
_atom_site_fract_x
_atom_site_fract_y
_atom_site_fract_z
Si Si1 0.284470 0.416789 0.769345
Si Si2 0.100077 0.363539 0.173257
Si Si3 0.783593 0.175983 0.047355
Si Si4 0.590355 0.296800 0.648226
Si Si5 0.666354 0.887201 0.474651
O O1 0.569318 0.564066 0.796793
O O2 0.468670 0.378510 0.699101
O O3 0.290160 0.612063 0.640865
O O4 0.919961 0.168970 0.939760
O O5 0.061909 0.284411 0.093103
O O6 0.203938 0.613468 0.059934
O O7 0.710806 0.108706 0.346657
O O8 0.431606 0.899994 0.213232
O O9 0.292438 0.175842 0.611437
O O10 0.000000 0.500000 0.500000
O O11 0.000000 0.000000 0.500000
#
# Coordination Sequence:
#
# PCOD9033552 Si02
#       5
#     2   2   2   2   2
#     4  11  22  41  70  99 133 178 225 276 336 402
#     4   9  21  43  66 101 131 175 228 277 330 399
#     4  10  22  44  68  96 136 179 224 277 333 404
#     4  11  25  45  65 103 139 176 222 283 342 395
#     4   9  21  45  69  95 134 180 223 271 334 406
#
# _framework density 27.941929999999999
#
# number of rings (size 3 to 8) (size 9 to 14) (size 15 to 20)
#    0.000    2.000    0.000    1.800    2.800    1.600 
#   39.600    0.000    0.000    0.000    0.000    0.000 
#    0.000    0.000    0.000    0.000    0.000    0.000 
#
# Total GULP energy -55823.362527 kJ/mol
# GULP energy per Si atom -5582.336253 kJ/mol
# Density = 2.787833 g / cm^3
# Si number density = 27.941930 Si / 1000 Ang^3
#
#
#
# Elastic Constant Matrix: (Units=GPa)
#
#
# Indices 1 2 3 4 5 6 
#
# 1 60.3526 42.8572 65.5517 11.5757 0.0026 -4.4818
# 2 42.8572 127.7834 98.2638 26.4581 -0.6452 -17.1196
# 3 65.5517 98.2638 342.8928 -23.0343 10.4911 -20.7485
# 4 11.5757 26.4581 -23.0343 68.2633 11.7310 8.5382
# 5 0.0026 -0.6452 10.4911 11.7310 49.3472 10.7329
# 6 -4.4818 -17.1196 -20.7485 8.5382 10.7329 48.9144
#
#
#
# Elastic Compliance Matrix: (Units=1/GPa)
#
#
# Indices 1 2 3 4 5 6 
#
# 1 0.024620 -0.004688 -0.003717 -0.003834 0.001788 -0.000685
# 2 -0.004688 0.013774 -0.003302 -0.006401 0.001586 0.003760
# 3 -0.003717 -0.003302 0.004921 0.003884 -0.002093 0.000372
# 4 -0.003834 -0.006401 0.003884 0.020378 -0.005014 -0.003401
# 5 0.001788 0.001586 -0.002093 -0.005014 0.022860 -0.004310
# 6 -0.000685 0.003760 0.000372 -0.003401 -0.004310 0.023394
#
#
# Mechanical properties :
#
#
# Convention : Reuss Voigt Hill
#
# Bulk Modulus (GPa) = 50.24886 104.93048 77.58967
# Shear Modulus (GPa) = 35.71584 54.92872 45.32228
#
# Velocity S-wave (km/s) = 3.57909 4.43856 4.03180
# Velocity P-wave (km/s) = 5.92471 7.99390 7.03579
#
# Compressibility (1/GPa) = 0.01990095
#
# Stress axis : x y z
#
# Youngs Moduli (GPa) = 40.61805 72.59799 203.22205
#
# Poissons Ratio (x) = 0.34033 0.75534
# Poissons Ratio (y) = 0.19041 0.67108
# Poissons Ratio (z) = 0.15097 0.23973
#
# Static dielectric constant tensor:
#      x y z
#    x 2.285750 0.080640 -0.139590 
#    y 0.080640 2.294490 -0.124720 
#    z -0.139590 -0.124720 2.249860 
# 
# From -- ./inp_files/16216.got.cif
#   From: 2010.05.17/outbox.cif.g08.bks.cpg/sg2_9_cif.got.tgz:16216.got - 2010.06.03 11:33:40.
