data_PCOD9033743
_publ_section_title
;
Structure prediction by ZEFSAII (Michael W. Deem and Ramdas Pophale) SiO2 
 PCOD9033743
Probable space group: P -1
;
_chemical_formula_sum "Si O2"
_cell_formula_units_Z 14
_cell_length_a 8.507023
_cell_length_b 15.751792
_cell_length_c 12.184118
_cell_angle_alpha 132.075527
_cell_angle_beta 132.680974
_cell_angle_gamma 31.113684
_cell_volume 602.668992
_symmetry_space_group_name_H-M "P -1"
_symmetry_group_IT_number 2
_symmetry_cell_setting 'triclinic'
loop_
_space_group_symop_operation_xyz
x,y,z
-x,-y,-z
loop_
_atom_site_type_symbol
_atom_site_label
_atom_site_fract_x
_atom_site_fract_y
_atom_site_fract_z
Si Si1 0.723238 0.627322 0.135453
Si Si2 0.065086 0.059038 0.250168
Si Si3 0.634924 0.549296 0.463355
Si Si4 0.989102 0.753805 0.446128
Si Si5 0.594105 0.726215 0.920824
Si Si6 0.147173 0.088183 0.062792
Si Si7 0.101013 0.570217 0.752959
O O1 0.563291 0.682575 0.989197
O O2 0.758409 0.749125 0.281392
O O3 0.667153 0.580136 0.179247
O O4 0.073798 0.438862 0.111455
O O5 0.189629 0.070337 0.427570
O O6 0.131939 0.088763 0.189201
O O7 0.686962 0.217494 0.232443
O O8 0.082955 0.916760 0.107469
O O9 0.264350 0.684062 0.432490
O O10 0.833042 0.387676 0.496583
O O11 0.802791 0.605239 0.614143
O O12 0.707005 0.489488 0.320288
O O13 0.490915 0.899797 0.031736
O O14 0.043546 0.253532 0.122423
#
# Coordination Sequence:
#
# PCOD9033743 Si02
#       7
#     2   2   2   2   2   2   2
#     4  10  21  33  57  80 107 136 176 215 268 303
#     4   9  17  33  57  77 102 141 182 209 250 320
#     4   9  18  28  53  78 110 125 183 218 260 292
#     4  10  17  32  56  79  97 146 178 213 245 326
#     4   9  19  37  51  78 107 144 174 205 261 331
#     4   9  19  32  56  75 110 134 179 215 259 306
#     4  10  18  32  51  87 103 131 174 233 257 293
#
# _framework density 23.23
#
# number of rings (size 3 to 8) (size 9 to 14) (size 15 to 20)
#    0.857    1.714    1.429    2.571    0.000    0.571 
#    0.000    1.429    0.000    0.857    3.714    0.000 
#    0.000    0.000    0.000    0.000    0.000    0.000 
#
# Total GULP energy -78071.362695 kJ/mol
# GULP energy per Si atom -5576.525907 kJ/mol
# Density = 2.317713 g / cm^3
# Si number density = 23.230000 Si / 1000 Ang^3
#
#
#
# Elastic Constant Matrix: (Units=GPa)
#
#
# Indices 1 2 3 4 5 6 
#
# 1 76.7646 9.7712 38.6403 10.0694 -5.9974 10.1373
# 2 9.7712 53.0170 19.1786 9.0514 -0.3383 13.4551
# 3 38.6403 19.1786 101.0601 28.2363 1.8532 15.4811
# 4 10.0694 9.0514 28.2363 37.7940 9.7244 -3.2580
# 5 -5.9974 -0.3383 1.8532 9.7244 38.3799 9.6780
# 6 10.1373 13.4551 15.4811 -3.2580 9.6780 25.1575
#
#
#
# Elastic Compliance Matrix: (Units=1/GPa)
#
#
# Indices 1 2 3 4 5 6 
#
# 1 0.017116 0.000930 -0.004895 -0.003120 0.005445 -0.006881
# 2 0.000930 0.024882 0.000307 -0.009890 0.007394 -0.017997
# 3 -0.004895 0.000307 0.017621 -0.014414 0.005303 -0.012942
# 4 -0.003120 -0.009890 -0.014414 0.047912 -0.019347 0.029065
# 5 0.005445 0.007394 0.005303 -0.019347 0.038342 -0.026667
# 6 -0.006881 -0.017997 -0.012942 0.029065 -0.026667 0.074134
#
#
# Mechanical properties :
#
#
# Convention : Reuss Voigt Hill
#
# Bulk Modulus (GPa) = 19.11925 40.66910 29.89418
# Shear Modulus (GPa) = 20.42845 31.14975 25.78910
#
# Velocity S-wave (km/s) = 2.96868 3.66584 3.33553
# Velocity P-wave (km/s) = 4.47203 5.95508 5.26603
#
# Compressibility (1/GPa) = 0.05230332
#
# Stress axis : x y z
#
# Youngs Moduli (GPa) = 58.42650 40.18893 56.75045
#
# Poissons Ratio (x) = -0.03737 0.27778
# Poissons Ratio (y) = -0.05432 -0.01743
# Poissons Ratio (z) = 0.28598 -0.01234
#
# Static dielectric constant tensor:
#      x y z
#    x 1.914890 -0.049040 0.033450 
#    y -0.049040 1.955130 0.036000 
#    z 0.033450 0.036000 1.899540 
# 
# From -- ./inp_files/400629.got.cif
#   From: 2010.05.17/outbox.cif.g08.bks.cpg/sg2_201_cif.got.tgz:400629.got - 2010.06.03 11:33:40.
