data_PCOD9033409
_publ_section_title
;
Structure prediction by ZEFSAII (Michael W. Deem and Ramdas Pophale) SiO2 
 PCOD9033409
Probable space group: P -1
;
_chemical_formula_sum "Si O2"
_cell_formula_units_Z 14
_cell_length_a 7.048113
_cell_length_b 16.277824
_cell_length_c 13.299539
_cell_angle_alpha 35.824299
_cell_angle_beta 139.196330
_cell_angle_gamma 129.167947
_cell_volume 582.958020
_symmetry_space_group_name_H-M "P -1"
_symmetry_group_IT_number 2
_symmetry_cell_setting 'triclinic'
loop_
_space_group_symop_operation_xyz
x,y,z
-x,-y,-z
loop_
_atom_site_type_symbol
_atom_site_label
_atom_site_fract_x
_atom_site_fract_y
_atom_site_fract_z
Si Si1 0.764757 0.315469 0.163989
Si Si2 0.542656 0.146763 0.427093
Si Si3 0.109385 0.871724 0.773985
Si Si4 0.472606 0.304810 0.763984
Si Si5 0.582827 0.549867 0.704520
Si Si6 0.546926 0.895611 0.213868
Si Si7 0.865531 0.207944 0.688191
O O1 0.629814 0.270279 0.261263
O O2 0.750501 0.176596 0.225525
O O3 0.100589 0.370784 0.253337
O O4 0.608628 0.435969 0.918569
O O5 0.778925 0.137055 0.618335
O O6 0.229739 0.165351 0.332145
O O7 0.500000 0.000000 0.500000
O O8 0.204147 0.029251 0.691187
O O9 0.238410 0.770036 0.010811
O O10 0.516155 0.463316 0.661173
O O11 0.405459 0.251533 0.676964
O O12 0.204427 0.243941 0.784615
O O13 0.325612 0.653176 0.521353
O O14 0.259337 0.881457 0.180214
O O15 0.500000 0.000000 0.000000
#
# Coordination Sequence:
#
# PCOD9033409 Si02
#       7
#     2   2   2   2   2   2   2
#     4  10  23  46  68  99 138 176 218 280 341 388
#     4  12  26  41  72 103 132 175 226 282 340 393
#     4  10  22  44  67  99 133 175 221 278 336 397
#     4  10  24  44  66  97 133 180 220 274 335 391
#     4  10  23  45  68  97 139 177 224 275 326 405
#     4  10  24  43  68  95 138 177 223 274 339 390
#     4  12  25  42  67 104 132 174 233 273 328 403
#
# _framework density 24.015450000000001
#
# number of rings (size 3 to 8) (size 9 to 14) (size 15 to 20)
#    0.000    1.429    1.429    2.143    4.000    9.143 
#    2.571    0.000    0.000    0.000    0.000    0.000 
#    0.000    0.000    0.000    0.000    0.000    0.000 
#
# Total GULP energy -78368.176685 kJ/mol
# GULP energy per Si atom -5597.726906 kJ/mol
# Density = 2.396079 g / cm^3
# Si number density = 24.015450 Si / 1000 Ang^3
#
#
#
# Elastic Constant Matrix: (Units=GPa)
#
#
# Indices 1 2 3 4 5 6 
#
# 1 78.2350 22.6419 11.6633 -3.4284 -25.9354 10.4017
# 2 22.6419 146.9766 8.4333 1.5141 -18.0184 -9.4221
# 3 11.6633 8.4333 85.1634 -7.4199 -19.3397 11.2739
# 4 -3.4284 1.5141 -7.4199 34.5203 5.1811 1.9079
# 5 -25.9354 -18.0184 -19.3397 5.1811 40.9097 3.8619
# 6 10.4017 -9.4221 11.2739 1.9079 3.8619 42.8565
#
#
#
# Elastic Compliance Matrix: (Units=1/GPa)
#
#
# Indices 1 2 3 4 5 6 
#
# 1 0.017794 -0.001794 0.001238 0.000714 0.011562 -0.006112
# 2 -0.001794 0.007479 -0.000427 -0.000995 0.001886 0.002066
# 3 0.001238 -0.000427 0.014160 0.002337 0.007457 -0.004895
# 4 0.000714 -0.000995 0.002337 0.030076 -0.002490 -0.002121
# 5 0.011562 0.001886 0.007457 -0.002490 0.037162 -0.007591
# 6 -0.006112 0.002066 -0.004895 -0.002121 -0.007591 0.027338
#
#
# Mechanical properties :
#
#
# Convention : Reuss Voigt Hill
#
# Bulk Modulus (GPa) = 26.69083 43.98355 35.33719
# Shear Modulus (GPa) = 33.67860 41.49974 37.58917
#
# Velocity S-wave (km/s) = 3.74889 4.16148 3.96056
# Velocity P-wave (km/s) = 5.46599 6.43778 5.97169
#
# Compressibility (1/GPa) = 0.03746605
#
# Stress axis : x y z
#
# Youngs Moduli (GPa) = 56.20015 133.71581 70.62215
#
# Poissons Ratio (x) = 0.23987 -0.08742
# Poissons Ratio (y) = 0.10082 0.03015
# Poissons Ratio (z) = -0.06957 0.05708
#
# Static dielectric constant tensor:
#      x y z
#    x 1.894860 -0.050770 -0.001860 
#    y -0.050770 1.933200 -0.047950 
#    z -0.001860 -0.047950 1.940360 
# 
# From -- ./inp_files/367558.got.cif
#   From: 2010.05.17/outbox.cif.g08.bks.cpg/sg2_184_cif.got.tgz:367558.got - 2010.06.03 11:33:40.
