data_PCOD9033670
_publ_section_title
;
Structure prediction by ZEFSAII (Michael W. Deem and Ramdas Pophale) SiO2 
 PCOD9033670
Probable space group: P -1
;
_chemical_formula_sum "Si O2"
_cell_formula_units_Z 12
_cell_length_a 14.383178
_cell_length_b 15.288209
_cell_length_c 9.565762
_cell_angle_alpha 40.474594
_cell_angle_beta 120.890332
_cell_angle_gamma 153.252786
_cell_volume 505.785989
_symmetry_space_group_name_H-M "P -1"
_symmetry_group_IT_number 2
_symmetry_cell_setting 'triclinic'
loop_
_space_group_symop_operation_xyz
x,y,z
-x,-y,-z
loop_
_atom_site_type_symbol
_atom_site_label
_atom_site_fract_x
_atom_site_fract_y
_atom_site_fract_z
Si Si1 0.050010 0.944664 0.223146
Si Si2 0.360106 0.804767 0.486785
Si Si3 0.517544 0.701855 0.360808
Si Si4 0.810808 0.095935 0.857230
Si Si5 0.821054 0.895158 0.577880
Si Si6 0.794020 0.160858 0.220080
O O1 0.775084 0.604062 0.487356
O O2 0.159829 0.940509 0.228195
O O3 0.206503 0.176795 0.194464
O O4 0.000000 0.000000 0.000000
O O5 0.313298 0.896227 0.264822
O O6 0.087663 0.427882 0.734467
O O7 0.500000 0.000000 0.500000
O O8 0.550908 0.919053 0.418259
O O9 0.585719 0.667696 0.573957
O O10 0.675232 0.010625 0.157798
O O11 0.641317 0.814104 0.170751
O O12 0.922705 0.161863 0.345163
O O13 0.000000 0.000000 0.500000
O O14 0.000000 0.500000 0.000000
#
# Coordination Sequence:
#
# PCOD9033670 Si02
#       6
#     2   2   2   2   2   2
#     4  12  26  46  71 100 142 184 242 295 352 421
#     4  11  23  42  67 104 145 179 231 289 350 425
#     4  10  25  45  69 102 141 181 238 289 356 418
#     4  11  24  43  70 104 137 186 233 285 354 423
#     4  10  24  46  70 101 141 185 238 287 358 417
#     4  10  22  44  69 104 140 183 228 288 352 419
#
# _framework density 23.725449999999999
#
# number of rings (size 3 to 8) (size 9 to 14) (size 15 to 20)
#    1.000    0.333    1.667    3.000    2.333    5.333 
#    0.000    0.000    0.000    0.000    0.000    0.000 
#    0.000    0.000    0.000    0.000    0.000    0.000 
#
# Total GULP energy -66994.632371 kJ/mol
# GULP energy per Si atom -5582.886031 kJ/mol
# Density = 2.367145 g / cm^3
# Si number density = 23.725450 Si / 1000 Ang^3
#
#
#
# Elastic Constant Matrix: (Units=GPa)
#
#
# Indices 1 2 3 4 5 6 
#
# 1 156.3688 45.7602 37.2222 5.6899 -14.8334 -15.1639
# 2 45.7602 127.8193 64.9347 5.6630 -17.3407 -16.5665
# 3 37.2222 64.9347 87.4269 5.3100 -22.0716 0.4438
# 4 5.6899 5.6630 5.3100 37.4571 -4.6234 -4.6133
# 5 -14.8334 -17.3407 -22.0716 -4.6234 45.8116 5.2702
# 6 -15.1639 -16.5665 0.4438 -4.6133 5.2702 31.2313
#
#
#
# Elastic Compliance Matrix: (Units=1/GPa)
#
#
# Indices 1 2 3 4 5 6 
#
# 1 0.007614 -0.001079 -0.002296 -0.000224 0.000580 0.003026
# 2 -0.001079 0.014370 -0.010465 0.000293 -0.000776 0.007422
# 3 -0.002296 -0.010465 0.022010 -0.001385 0.006717 -0.008317
# 4 -0.000224 0.000293 -0.001385 0.027569 0.001711 0.003850
# 5 0.000580 -0.000776 0.006717 0.001711 0.025626 -0.004297
# 6 0.003026 0.007422 -0.008317 0.003850 -0.004297 0.038837
#
#
# Mechanical properties :
#
#
# Convention : Reuss Voigt Hill
#
# Bulk Modulus (GPa) = 61.29341 74.16103 67.72722
# Shear Modulus (GPa) = 29.56078 37.81321 33.68699
#
# Velocity S-wave (km/s) = 3.53363 3.99655 3.77220
# Velocity P-wave (km/s) = 6.52222 7.25413 6.89789
#
# Compressibility (1/GPa) = 0.01631497
#
# Stress axis : x y z
#
# Youngs Moduli (GPa) = 131.33778 69.59032 45.43323
#
# Poissons Ratio (x) = 0.07507 0.10431
# Poissons Ratio (y) = 0.14167 0.47546
# Poissons Ratio (z) = 0.30152 0.72827
#
# Static dielectric constant tensor:
#      x y z
#    x 1.961320 -0.047720 0.018850 
#    y -0.047720 2.017560 0.070940 
#    z 0.018850 0.070940 1.971910 
# 
# From -- ./inp_files/309283.got.cif
#   From: 2010.05.17/outbox.cif.g08.bks.cpg/sg2_155_cif.got.tgz:309283.got - 2010.06.03 11:33:40.
