data_PCOD9033800
_publ_section_title
;
Structure prediction by ZEFSAII (Michael W. Deem and Ramdas Pophale) SiO2 
 PCOD9033800
Probable space group: P -1
;
_chemical_formula_sum "Si O2"
_cell_formula_units_Z 16
_cell_length_a 15.110980
_cell_length_b 8.415259
_cell_length_c 12.314710
_cell_angle_alpha 71.371484
_cell_angle_beta 66.038874
_cell_angle_gamma 31.026059
_cell_volume 736.227859
_symmetry_space_group_name_H-M "P -1"
_symmetry_group_IT_number 2
_symmetry_cell_setting 'triclinic'
loop_
_space_group_symop_operation_xyz
x,y,z
-x,-y,-z
loop_
_atom_site_type_symbol
_atom_site_label
_atom_site_fract_x
_atom_site_fract_y
_atom_site_fract_z
Si Si1 0.309266 0.869074 0.011729
Si Si2 0.064784 0.768247 0.863117
Si Si3 0.264883 0.396610 0.620759
Si Si4 0.329784 0.948892 0.739416
Si Si5 0.003689 0.757792 0.245871
Si Si6 0.993665 0.820053 0.493361
Si Si7 0.294874 0.240362 0.047530
Si Si8 0.394504 0.569866 0.440318
O O1 0.295158 0.970733 0.877518
O O2 0.293867 0.044290 0.065168
O O3 0.500000 0.500000 0.000000
O O4 0.139873 0.994584 0.082758
O O5 0.144698 0.611914 0.738784
O O6 0.183603 0.499629 0.952039
O O7 0.064529 0.968798 0.833239
O O8 0.357008 0.434236 0.529642
O O9 0.142638 0.513999 0.555952
O O10 0.380131 0.069071 0.667522
O O11 0.489782 0.605636 0.687270
O O12 0.150582 0.152072 0.722319
O O13 0.025034 0.761519 0.362449
O O14 0.187334 0.437437 0.167803
O O15 0.790757 0.064406 0.562844
O O16 0.000000 0.000000 0.500000
O O17 0.500000 0.000000 0.000000
O O18 0.500000 0.500000 0.500000
#
# Coordination Sequence:
#
# PCOD9033800 Si02
#       8
#     2   2   2   2   2   2   2   2
#     4  12  28  47  73 106 144 195 237 297 368 434
#     4  12  23  48  74 101 149 187 236 298 366 423
#     4  11  24  44  71 100 142 195 227 296 359 422
#     4  12  25  45  70 102 147 185 242 292 362 424
#     4  12  24  46  74 105 145 190 235 304 359 425
#     4  10  22  44  70 100 136 186 236 285 359 425
#     4  12  27  46  71 109 141 184 248 297 355 433
#     4  11  22  45  68 103 137 182 245 290 348 426
#
# _framework density 21.732402
#
# number of rings (size 3 to 8) (size 9 to 14) (size 15 to 20)
#    0.000    0.500    6.250    2.625    3.500    2.500 
#    2.250    0.000    0.000    0.000    0.000    0.000 
#    0.000    0.000    0.000    0.000    0.000    0.000 
#
# Total GULP energy -89501.430142 kJ/mol
# GULP energy per Si atom -5593.839384 kJ/mol
# Density = 2.168294 g / cm^3
# Si number density = 21.732402 Si / 1000 Ang^3
#
#
#
# Elastic Constant Matrix: (Units=GPa)
#
#
# Indices 1 2 3 4 5 6 
#
# 1 95.1662 40.1673 16.3949 -0.2973 -3.8762 -4.7831
# 2 40.1673 78.3498 25.8933 22.2909 4.5972 2.0525
# 3 16.3949 25.8933 97.4717 32.4602 15.7931 -0.3043
# 4 -0.2973 22.2909 32.4602 40.9605 5.1638 -5.0348
# 5 -3.8762 4.5972 15.7931 5.1638 39.2338 3.0562
# 6 -4.7831 2.0525 -0.3043 -5.0348 3.0562 39.1684
#
#
#
# Elastic Compliance Matrix: (Units=1/GPa)
#
#
# Indices 1 2 3 4 5 6 
#
# 1 0.015182 -0.009160 -0.003045 0.007564 0.002563 0.003083
# 2 -0.009160 0.020964 0.000163 -0.011849 -0.001586 -0.003615
# 3 -0.003045 0.000163 0.015492 -0.011948 -0.004873 -0.001416
# 4 0.007564 -0.011849 -0.011948 0.041074 0.001021 0.006652
# 5 0.002563 -0.001586 -0.004873 0.001021 0.027886 -0.001686
# 6 0.003083 -0.003615 -0.001416 0.006652 -0.001686 0.027072
#
#
# Mechanical properties :
#
#
# Convention : Reuss Voigt Hill
#
# Bulk Modulus (GPa) = 36.29087 48.43319 42.36203
# Shear Modulus (GPa) = 27.63369 36.44137 32.03753
#
# Velocity S-wave (km/s) = 3.56974 4.09934 3.84367
# Velocity P-wave (km/s) = 5.80740 6.68885 6.26365
#
# Compressibility (1/GPa) = 0.02755514
#
# Stress axis : x y z
#
# Youngs Moduli (GPa) = 65.86910 47.70036 64.54851
#
# Poissons Ratio (x) = 0.43693 0.19654
# Poissons Ratio (y) = 0.60336 -0.01054
# Poissons Ratio (z) = 0.20056 -0.00779
#
# Static dielectric constant tensor:
#      x y z
#    x 1.784220 0.010200 0.007660 
#    y 0.010200 1.826700 0.004240 
#    z 0.007660 0.004240 1.827110 
# 
# From -- ./inp_files/328586.got.cif
#   From: 2010.05.17/outbox.cif.g08.bks.cpg/sg2_165_cif.got.tgz:328586.got - 2010.06.03 11:33:40.
