data_PCOD9033993
_publ_section_title
;
Structure prediction by ZEFSAII (Michael W. Deem and Ramdas Pophale) SiO2 
 PCOD9033993
Probable space group: P -1
;
_chemical_formula_sum "Si O2"
_cell_formula_units_Z 14
_cell_length_a 13.876737
_cell_length_b 17.434433
_cell_length_c 14.742955
_cell_angle_alpha 154.527478
_cell_angle_beta 25.716786
_cell_angle_gamma 157.249868
_cell_volume 540.737580
_symmetry_space_group_name_H-M "P -1"
_symmetry_group_IT_number 2
_symmetry_cell_setting 'triclinic'
loop_
_space_group_symop_operation_xyz
x,y,z
-x,-y,-z
loop_
_atom_site_type_symbol
_atom_site_label
_atom_site_fract_x
_atom_site_fract_y
_atom_site_fract_z
Si Si1 0.097108 0.950883 0.275536
Si Si2 0.032488 0.218078 0.489978
Si Si3 0.660620 0.317773 0.812648
Si Si4 0.800407 0.350145 0.361804
Si Si5 0.700587 0.328920 0.209728
Si Si6 0.147502 0.039476 0.051595
Si Si7 0.602757 0.662695 0.172601
O O1 0.949032 0.994385 0.369217
O O2 0.420440 0.148667 0.205666
O O3 0.000000 0.000000 0.500000
O O4 0.091821 0.735743 0.055437
O O5 0.195419 0.426069 0.640486
O O6 0.224331 0.236716 0.264938
O O7 0.784062 0.230484 0.684438
O O8 0.898212 0.413461 0.636071
O O9 0.333763 0.141609 0.913502
O O10 0.695877 0.547535 0.039066
O O11 0.687192 0.326852 0.330147
O O12 0.625363 0.341960 0.583665
O O13 0.810725 0.141842 0.142049
O O14 0.819764 0.895800 0.189428
O O15 0.500000 0.500000 0.000000
#
# Coordination Sequence:
#
# PCOD9033993 Si02
#       7
#     2   2   2   2   2   2   2
#     4  11  25  39  65 102 143 183 234 298 342 411
#     4  11  23  43  67 100 142 187 238 286 353 424
#     4  10  23  40  69 103 133 186 232 284 353 423
#     4  10  22  44  70  98 141 188 234 289 357 420
#     4  10  23  42  64  99 139 187 240 284 353 409
#     4  11  23  42  72 103 138 188 235 290 355 426
#     4  11  26  47  72 105 143 182 233 300 361 426
#
# _framework density 25.890563
#
# number of rings (size 3 to 8) (size 9 to 14) (size 15 to 20)
#    0.000    1.429    1.429    3.000    4.000    5.714 
#    0.000    3.571    0.000    0.000    0.000    0.000 
#    0.000    0.000    0.000    0.000    0.000    0.000 
#
# Total GULP energy -78018.147421 kJ/mol
# GULP energy per Si atom -5572.724816 kJ/mol
# Density = 2.583164 g / cm^3
# Si number density = 25.890563 Si / 1000 Ang^3
#
#
#
# Elastic Constant Matrix: (Units=GPa)
#
#
# Indices 1 2 3 4 5 6 
#
# 1 55.2021 6.1981 25.2819 -11.5151 17.8920 -28.8400
# 2 6.1981 162.8648 45.7929 -22.3378 2.0802 -15.3328
# 3 25.2819 45.7929 179.9065 7.3061 1.1354 -17.5838
# 4 -11.5151 -22.3378 7.3061 59.6075 -6.9400 -6.5310
# 5 17.8920 2.0802 1.1354 -6.9400 6.9817 25.3280
# 6 -28.8400 -15.3328 -17.5838 -6.5310 25.3280 15.8109
#
#
#
# Elastic Compliance Matrix: (Units=1/GPa)
#
#
# Indices 1 2 3 4 5 6 
#
# 1 0.009418 -0.000473 -0.002401 0.002664 0.015780 -0.010127
# 2 -0.000473 0.007062 -0.001902 0.003156 0.003370 -0.000225
# 3 -0.002401 -0.001902 0.006577 -0.001917 -0.000553 0.001184
# 4 0.002664 0.003156 -0.001917 0.019766 0.007986 0.001159
# 5 0.015780 0.003370 -0.000553 0.007986 0.003366 0.029343
# 6 -0.010127 -0.000225 0.001184 0.001159 0.029343 -0.000652
#
#
# Mechanical properties :
#
#
# Convention : Reuss Voigt Hill
#
# Bulk Modulus (GPa) = 74.04586 61.39102 67.71844
# Shear Modulus (GPa) = 83.90591 37.86005 60.88298
#
# Velocity S-wave (km/s) = 5.69897 3.82817 4.85454
# Velocity P-wave (km/s) = 8.48328 6.58050 7.59174
#
# Compressibility (1/GPa) = 0.01350514
#
# Stress axis : x y z
#
# Youngs Moduli (GPa) = 106.17457 141.61110 152.04160
#
# Poissons Ratio (x) = 0.06697 0.36501
# Poissons Ratio (y) = 0.05021 0.28924
# Poissons Ratio (z) = 0.25490 0.26940
#
# Static dielectric constant tensor:
#      x y z
#    x 2.192610 0.094740 -0.022020 
#    y 0.094740 2.142860 -0.030820 
#    z -0.022020 -0.030820 2.030740 
# 
# From -- ./inp_files/576372.got.cif
#   From: 2010.05.17/outbox.cif.g08.bks.cpg/sg2_289_cif.got.tgz:576372.got - 2010.06.03 11:33:40.
