data_PCOD9033804
_publ_section_title
;
Structure prediction by ZEFSAII (Michael W. Deem and Ramdas Pophale) SiO2 
 PCOD9033804
Probable space group: P -1
;
_chemical_formula_sum "Si O2"
_cell_formula_units_Z 12
_cell_length_a 11.773914
_cell_length_b 12.201981
_cell_length_c 5.671967
_cell_angle_alpha 111.789273
_cell_angle_beta 51.192982
_cell_angle_gamma 130.109658
_cell_volume 484.924461
_symmetry_space_group_name_H-M "P -1"
_symmetry_group_IT_number 2
_symmetry_cell_setting 'triclinic'
loop_
_space_group_symop_operation_xyz
x,y,z
-x,-y,-z
loop_
_atom_site_type_symbol
_atom_site_label
_atom_site_fract_x
_atom_site_fract_y
_atom_site_fract_z
Si Si1 0.107992 0.544175 0.152462
Si Si2 0.891987 0.114869 0.792947
Si Si3 0.394685 0.854759 0.867436
Si Si4 0.539332 0.680974 0.363008
Si Si5 0.270752 0.398136 0.630457
Si Si6 0.096322 0.118400 0.168688
O O1 0.254024 0.714563 0.090943
O O2 0.000000 0.500000 0.500000
O O3 0.217081 0.473104 0.948074
O O4 0.000000 0.500000 0.000000
O O5 0.738064 0.125927 0.098029
O O6 0.083943 0.246976 0.727194
O O7 0.941364 0.134990 0.467304
O O8 0.852081 0.961311 0.778857
O O9 0.501490 0.802111 0.548163
O O10 0.500000 0.000000 0.000000
O O11 0.363776 0.523422 0.409078
O O12 0.597157 0.645516 0.505020
O O13 0.715028 0.741282 0.030845
O O14 0.000000 0.000000 0.000000
#
# Coordination Sequence:
#
# PCOD9033804 Si02
#       6
#     2   2   2   2   2   2
#     4  11  25  48  76 109 146 196 250 306 372 448
#     4  11  24  42  71  98 135 189 243 289 371 445
#     4  11  25  46  68 107 148 187 247 309 372 436
#     4  10  23  42  67  98 145 179 237 306 364 433
#     4  10  22  44  70 100 137 187 245 294 365 447
#     4  11  23  41  68  99 137 182 234 297 366 439
#
# _framework density 24.746120000000001
#
# number of rings (size 3 to 8) (size 9 to 14) (size 15 to 20)
#    0.000    1.333    3.333    1.000    4.667    2.667 
#    6.000    0.000    0.000    0.000    0.000    0.000 
#    0.000    0.000    0.000    0.000    0.000    0.000 
#
# Total GULP energy -66845.146296 kJ/mol
# GULP energy per Si atom -5570.428858 kJ/mol
# Density = 2.468980 g / cm^3
# Si number density = 24.746120 Si / 1000 Ang^3
#
#
#
# Elastic Constant Matrix: (Units=GPa)
#
#
# Indices 1 2 3 4 5 6 
#
# 1 71.5765 18.1106 35.0823 14.0134 -30.4886 -1.5482
# 2 18.1106 159.2839 27.9186 -5.1899 -1.9974 8.3025
# 3 35.0823 27.9186 95.7981 2.5113 -10.5807 -0.5724
# 4 14.0134 -5.1899 2.5113 47.3845 -13.9015 -14.6406
# 5 -30.4886 -1.9974 -10.5807 -13.9015 32.3019 4.9594
# 6 -1.5482 8.3025 -0.5724 -14.6406 4.9594 35.0371
#
#
#
# Elastic Compliance Matrix: (Units=1/GPa)
#
#
# Indices 1 2 3 4 5 6 
#
# 1 0.028480 -0.001585 -0.007286 -0.002027 0.023942 -0.002721
# 2 -0.001585 0.006802 -0.001551 0.000555 -0.001143 -0.001314
# 3 -0.007286 -0.001551 0.013277 0.000878 -0.002395 0.000968
# 4 -0.002027 0.000555 0.000878 0.027341 0.008641 0.009995
# 5 0.023942 -0.001143 -0.002395 0.008641 0.056903 -0.003154
# 6 -0.002721 -0.001314 0.000968 0.009995 -0.003154 0.033371
#
#
# Mechanical properties :
#
#
# Convention : Reuss Voigt Hill
#
# Bulk Modulus (GPa) = 36.08160 54.32016 45.20088
# Shear Modulus (GPa) = 25.47689 39.31450 32.39570
#
# Velocity S-wave (km/s) = 3.21211 3.99019 3.62210
# Velocity P-wave (km/s) = 5.32628 6.57476 5.98317
#
# Compressibility (1/GPa) = 0.02771496
#
# Stress axis : x y z
#
# Youngs Moduli (GPa) = 35.11294 147.00882 75.31753
#
# Poissons Ratio (x) = 0.23301 0.54880
# Poissons Ratio (y) = 0.05565 0.11679
# Poissons Ratio (z) = 0.25585 0.22795
#
# Static dielectric constant tensor:
#      x y z
#    x 2.129480 -0.502540 -0.200830 
#    y -0.502540 4.903710 0.926560 
#    z -0.200830 0.926560 2.252460 
# 
# From -- ./inp_files/71599.got.cif
#   From: 2010.05.17/outbox.cif.g08.bks.cpg/sg2_36_cif.got.tgz:71599.got - 2010.06.03 11:33:40.
