data_PCOD9033170
_publ_section_title
;
Structure prediction by ZEFSAII (Michael W. Deem and Ramdas Pophale) SiO2 
 PCOD9033170
Probable space group: P -1
;
_chemical_formula_sum "Si O2"
_cell_formula_units_Z 12
_cell_length_a 14.497448
_cell_length_b 6.741178
_cell_length_c 5.135242
_cell_angle_alpha 109.040626
_cell_angle_beta 90.394688
_cell_angle_gamma 100.067685
_cell_volume 466.000405
_symmetry_space_group_name_H-M "P -1"
_symmetry_group_IT_number 2
_symmetry_cell_setting 'triclinic'
loop_
_space_group_symop_operation_xyz
x,y,z
-x,-y,-z
loop_
_atom_site_type_symbol
_atom_site_label
_atom_site_fract_x
_atom_site_fract_y
_atom_site_fract_z
Si Si1 0.957888 0.055095 0.296497
Si Si2 0.623009 0.935155 0.453655
Si Si3 0.033068 0.429497 0.689570
Si Si4 0.214728 0.278953 0.738971
Si Si5 0.523232 0.730271 0.844617
Si Si6 0.640021 0.395609 0.830770
O O1 0.000419 0.842386 0.367564
O O2 0.848648 0.939997 0.249822
O O3 0.968067 0.333906 0.370338
O O4 0.000000 0.000000 0.000000
O O5 0.658141 0.186136 0.597870
O O6 0.705213 0.802575 0.458730
O O7 0.544073 0.863975 0.640727
O O8 0.733171 0.562578 0.973492
O O9 0.143219 0.406954 0.651462
O O10 0.000000 0.500000 0.000000
O O11 0.568084 0.518055 0.732478
O O12 0.584889 0.859558 0.135866
O O13 0.418224 0.672908 0.930909
#
# Coordination Sequence:
#
# PCOD9033170 Si02
#       6
#     2   2   2   2   2   2
#     4  10  22  44  66  91 135 171 220 287 343 409
#     4  11  24  44  69 102 145 183 228 289 344 411
#     4  11  24  44  70  95 130 183 227 281 358 416
#     4  10  25  44  68 104 134 175 238 285 339 415
#     4  10  24  44  69 103 143 187 229 278 347 415
#     4  10  23  44  72 103 142 184 232 284 343 418
#
# _framework density 25.751049999999999
#
# number of rings (size 3 to 8) (size 9 to 14) (size 15 to 20)
#    0.000    1.667    0.000    3.000    2.333   16.667 
#    6.000    0.000    0.000    0.000    0.000    0.000 
#    0.000    0.000    0.000    0.000    0.000    0.000 
#
# Total GULP energy -67081.122393 kJ/mol
# GULP energy per Si atom -5590.093533 kJ/mol
# Density = 2.569244 g / cm^3
# Si number density = 25.751050 Si / 1000 Ang^3
#
#
#
# Elastic Constant Matrix: (Units=GPa)
#
#
# Indices 1 2 3 4 5 6 
#
# 1 127.1115 55.4756 37.9770 20.3027 9.3272 7.4963
# 2 55.4756 247.7514 75.7540 38.0266 19.3521 0.1936
# 3 37.9770 75.7540 118.7669 -12.6961 6.0169 -5.7819
# 4 20.3027 38.0266 -12.6961 72.1266 -3.7629 1.6252
# 5 9.3272 19.3521 6.0169 -3.7629 33.5351 4.7670
# 6 7.4963 0.1936 -5.7819 1.6252 4.7670 70.0559
#
#
#
# Elastic Compliance Matrix: (Units=1/GPa)
#
#
# Indices 1 2 3 4 5 6 
#
# 1 0.009726 -0.000658 -0.002963 -0.002991 -0.001976 -0.001080
# 2 -0.000658 0.006292 -0.004070 -0.004015 -0.003172 0.000026
# 3 -0.002963 -0.004070 0.012509 0.005227 0.001352 0.001147
# 4 -0.002991 -0.004015 0.005227 0.017962 0.004218 0.000059
# 5 -0.001976 -0.003172 0.001352 0.004218 0.032714 -0.001992
# 6 -0.001080 0.000026 0.001147 0.000059 -0.001992 0.014619
#
#
# Mechanical properties :
#
#
# Convention : Reuss Voigt Hill
#
# Bulk Modulus (GPa) = 76.06741 92.44920 84.25831
# Shear Modulus (GPa) = 44.02014 56.77174 50.39594
#
# Velocity S-wave (km/s) = 4.13904 4.70045 4.42865
# Velocity P-wave (km/s) = 7.24195 8.08938 7.67737
#
# Compressibility (1/GPa) = 0.01314623
#
# Stress axis : x y z
#
# Youngs Moduli (GPa) = 102.82045 158.93109 79.93945
#
# Poissons Ratio (x) = 0.10450 0.23684
# Poissons Ratio (y) = 0.06761 0.32537
# Poissons Ratio (z) = 0.30463 0.64689
#
# Static dielectric constant tensor:
#      x y z
#    x 1.850920 -0.086080 0.243690 
#    y -0.086080 2.188500 0.043840 
#    z 0.243690 0.043840 1.679880 
# 
# From -- ./inp_files/102388.got.cif
#   From: 2010.05.17/outbox.cif.g08.bks.cpg/sg2_52_cif.got.tgz:102388.got - 2010.06.03 11:33:40.
