data_PCOD9033964
_publ_section_title
;
Structure prediction by ZEFSAII (Michael W. Deem and Ramdas Pophale) SiO2 
 PCOD9033964
Probable space group: P -1
;
_chemical_formula_sum "Si O2"
_cell_formula_units_Z 16
_cell_length_a 22.343326
_cell_length_b 15.204048
_cell_length_c 5.709614
_cell_angle_alpha 96.672085
_cell_angle_beta 84.028312
_cell_angle_gamma 24.632497
_cell_volume 692.362863
_symmetry_space_group_name_H-M "P -1"
_symmetry_group_IT_number 2
_symmetry_cell_setting 'triclinic'
loop_
_space_group_symop_operation_xyz
x,y,z
-x,-y,-z
loop_
_atom_site_type_symbol
_atom_site_label
_atom_site_fract_x
_atom_site_fract_y
_atom_site_fract_z
Si Si1 0.053874 0.685288 0.750116
Si Si2 0.399780 0.229669 0.668297
Si Si3 0.870005 0.707664 0.311249
Si Si4 0.519357 0.137935 0.099351
Si Si5 0.478372 0.655891 0.902370
Si Si6 0.235298 0.975203 0.733861
Si Si7 0.777210 0.128867 0.695206
Si Si8 0.829555 0.624440 0.658021
O O1 0.197647 0.503336 0.822684
O O2 0.157959 0.494565 0.442380
O O3 0.930362 0.924801 0.750007
O O4 0.915409 0.808315 0.950676
O O5 0.442382 0.202546 0.908825
O O6 0.500000 0.000000 0.500000
O O7 0.438104 0.237138 0.420655
O O8 0.745879 0.953460 0.358035
O O9 0.789369 0.734087 0.472249
O O10 0.986540 0.599273 0.413954
O O11 0.000000 0.500000 0.000000
O O12 0.694488 0.844858 0.960398
O O13 0.543624 0.208631 0.052077
O O14 0.664622 0.369948 0.794077
O O15 0.411316 0.712788 0.697409
O O16 0.352540 0.772856 0.153801
O O17 0.168966 0.984798 0.610151
#
# Coordination Sequence:
#
# PCOD9033964 Si02
#       8
#     2   2   2   2   2   2   2   2
#     4  11  24  41  63  96 126 181 234 272 344 404
#     4  12  29  48  70  99 140 192 235 285 337 409
#     4  11  21  32  55  96 137 165 208 271 350 421
#     4  12  28  46  72 101 140 186 231 292 338 409
#     4  10  24  43  67 105 133 175 230 283 357 411
#     4  11  21  36  68  96 133 175 216 287 344 428
#     4  10  22  44  70  97 138 176 225 288 348 418
#     4  11  23  36  59  95 136 174 216 277 347 418
#
# _framework density 23.109271
#
# number of rings (size 3 to 8) (size 9 to 14) (size 15 to 20)
#    0.000    1.000    3.750    2.250   12.250    0.000 
#    0.000    1.250    0.000    0.000    0.000    0.000 
#    0.000    0.000    0.000    0.000    0.000    0.000 
#
# Total GULP energy -89234.356274 kJ/mol
# GULP energy per Si atom -5577.147267 kJ/mol
# Density = 2.305667 g / cm^3
# Si number density = 23.109271 Si / 1000 Ang^3
#
#
#
# Elastic Constant Matrix: (Units=GPa)
#
#
# Indices 1 2 3 4 5 6 
#
# 1 48.4889 28.0789 12.4528 -3.0603 3.6414 -5.4248
# 2 28.0789 159.5670 16.0149 8.7080 3.4989 -15.0838
# 3 12.4528 16.0149 63.9262 -6.2158 -1.9428 3.6768
# 4 -3.0603 8.7080 -6.2158 36.1384 -1.2860 6.6418
# 5 3.6414 3.4989 -1.9428 -1.2860 29.4206 -4.0400
# 6 -5.4248 -15.0838 3.6768 6.6418 -4.0400 31.3288
#
#
#
# Elastic Compliance Matrix: (Units=1/GPa)
#
#
# Indices 1 2 3 4 5 6 
#
# 1 0.024307 -0.003735 -0.003821 0.001818 -0.002441 0.002159
# 2 -0.003735 0.007642 -0.001724 -0.003174 -0.000165 0.003886
# 3 -0.003821 -0.001724 0.017485 0.003920 0.001428 -0.004191
# 4 0.001818 -0.003174 0.003920 0.030779 0.000642 -0.008116
# 5 -0.002441 -0.000165 0.001428 0.000642 0.034942 0.003700
# 6 0.002159 0.003886 -0.004191 -0.008116 0.003700 0.036854
#
#
# Mechanical properties :
#
#
# Convention : Reuss Voigt Hill
#
# Bulk Modulus (GPa) = 32.39057 42.78614 37.58835
# Shear Modulus (GPa) = 27.64569 33.73993 30.69281
#
# Velocity S-wave (km/s) = 3.46251 3.82516 3.64835
# Velocity P-wave (km/s) = 5.48015 6.16961 5.83507
#
# Compressibility (1/GPa) = 0.03087318
#
# Stress axis : x y z
#
# Youngs Moduli (GPa) = 41.14015 130.86382 57.19242
#
# Poissons Ratio (x) = 0.48884 0.21852
# Poissons Ratio (y) = 0.15368 0.09859
# Poissons Ratio (z) = 0.15719 0.22560
#
# Static dielectric constant tensor:
#      x y z
#    x 1.879770 -0.023700 -0.006560 
#    y -0.023700 1.943770 -0.083530 
#    z -0.006560 -0.083530 1.995780 
# 
# From -- ./inp_files/127514.got.cif
#   From: 2010.05.17/outbox.cif.g08.bks.cpg/sg2_64_cif.got.tgz:127514.got - 2010.06.03 11:33:40.
