data_PCOD9033339
_publ_section_title
;
Structure prediction by ZEFSAII (Michael W. Deem and Ramdas Pophale) SiO2 
 PCOD9033339
Probable space group: P -1
;
_chemical_formula_sum "Si O2"
_cell_formula_units_Z 16
_cell_length_a 14.915810
_cell_length_b 9.148380
_cell_length_c 15.049515
_cell_angle_alpha 133.434522
_cell_angle_beta 29.392410
_cell_angle_gamma 129.253075
_cell_volume 728.597508
_symmetry_space_group_name_H-M "P -1"
_symmetry_group_IT_number 2
_symmetry_cell_setting 'triclinic'
loop_
_space_group_symop_operation_xyz
x,y,z
-x,-y,-z
loop_
_atom_site_type_symbol
_atom_site_label
_atom_site_fract_x
_atom_site_fract_y
_atom_site_fract_z
Si Si1 0.545976 0.721872 0.093773
Si Si2 0.659306 0.896518 0.557255
Si Si3 0.021556 0.739780 0.099625
Si Si4 0.726119 0.964085 0.890780
Si Si5 0.330874 0.431733 0.890323
Si Si6 0.604897 0.808621 0.763459
Si Si7 0.458500 0.805578 0.518367
Si Si8 0.054841 0.779569 0.886378
O O1 0.607693 0.692137 0.129159
O O2 0.377974 0.867008 0.298853
O O3 0.500000 0.500000 0.000000
O O4 0.710959 0.822601 0.931047
O O5 0.841241 0.845177 0.327711
O O6 0.661865 0.774593 0.597591
O O7 0.497108 0.830662 0.600143
O O8 0.164517 0.825988 0.087403
O O9 0.000000 0.500000 0.000000
O O10 0.086353 0.810063 0.976342
O O11 0.766397 0.866537 0.719924
O O12 0.516597 0.007372 0.074549
O O13 0.460737 0.640680 0.863344
O O14 0.397064 0.338652 0.702877
O O15 0.110574 0.393220 0.062794
O O16 0.245464 0.732733 0.658311
O O17 0.500000 0.000000 0.500000
O O18 0.000000 0.000000 0.000000
#
# Coordination Sequence:
#
# PCOD9033339 Si02
#       8
#     2   2   2   2   2   2   2   2
#     4  11  22  44  71  97 131 185 232 280 350 412
#     4  11  24  45  65 101 143 179 232 294 343 415
#     4  12  26  44  67 102 141 185 231 287 352 415
#     4  10  22  44  67  95 135 180 235 282 343 415
#     4  12  23  41  70 101 137 182 237 279 353 420
#     4  10  23  42  67  93 133 183 230 285 341 411
#     4  12  23  41  67 101 142 179 227 292 353 412
#     4  12  23  41  66  99 137 181 224 291 350 406
#
# _framework density 21.959999
#
# number of rings (size 3 to 8) (size 9 to 14) (size 15 to 20)
#    0.000    0.750    5.000    3.000    1.750    1.000 
#    0.000    1.875    0.000    0.000    0.000    0.000 
#    0.000    0.000    0.000    0.000    0.000    0.000 
#
# Total GULP energy -89107.200238 kJ/mol
# GULP energy per Si atom -5569.200015 kJ/mol
# Density = 2.191002 g / cm^3
# Si number density = 21.959999 Si / 1000 Ang^3
#
#
#
# Elastic Constant Matrix: (Units=GPa)
#
#
# Indices 1 2 3 4 5 6 
#
# 1 130.6273 49.7588 22.4495 -11.2040 26.0533 2.3819
# 2 49.7588 108.8288 23.6751 -0.6937 14.0633 13.8529
# 3 22.4495 23.6751 98.1691 -12.1937 -0.8292 5.6711
# 4 -11.2040 -0.6937 -12.1937 29.5471 -3.5418 6.2313
# 5 26.0533 14.0633 -0.8292 -3.5418 23.4523 -4.0890
# 6 2.3819 13.8529 5.6711 6.2313 -4.0890 40.6084
#
#
#
# Elastic Compliance Matrix: (Units=1/GPa)
#
#
# Indices 1 2 3 4 5 6 
#
# 1 0.011592 -0.003489 -0.001538 0.002566 -0.010581 -0.000734
# 2 -0.003489 0.012332 -0.002196 -0.001660 -0.004527 -0.003897
# 3 -0.001538 -0.002196 0.011784 0.004952 0.003986 -0.001165
# 4 0.002566 -0.001660 0.004952 0.038429 0.003103 -0.005860
# 5 -0.010581 -0.004527 0.003986 0.003103 0.058951 0.007068
# 6 -0.000734 -0.003897 -0.001165 -0.005860 0.007068 0.027771
#
#
# Mechanical properties :
#
#
# Convention : Reuss Voigt Hill
#
# Bulk Modulus (GPa) = 47.02840 58.82132 52.92486
# Shear Modulus (GPa) = 27.41353 34.83770 31.12562
#
# Velocity S-wave (km/s) = 3.53702 3.98731 3.76889
# Velocity P-wave (km/s) = 6.17597 6.93123 6.56447
#
# Compressibility (1/GPa) = 0.02126375
#
# Stress axis : x y z
#
# Youngs Moduli (GPa) = 86.26386 81.09064 84.86264
#
# Poissons Ratio (x) = 0.28289 0.13051
# Poissons Ratio (y) = 0.30094 0.18633
# Poissons Ratio (z) = 0.13267 0.17804
#
# Static dielectric constant tensor:
#      x y z
#    x 1.919020 0.098960 0.087330 
#    y 0.098960 1.910240 0.013850 
#    z 0.087330 0.013850 1.897300 
# 
# From -- ./inp_files/530106.got.cif
#   From: 2010.05.17/outbox.cif.g08.bks.cpg/sg2_266_cif.got.tgz:530106.got - 2010.06.03 11:33:40.
