data_PCOD9033947
_publ_section_title
;
Structure prediction by ZEFSAII (Michael W. Deem and Ramdas Pophale) SiO2 
 PCOD9033947
Probable space group: P -1
;
_chemical_formula_sum "Si O2"
_cell_formula_units_Z 16
_cell_length_a 13.700477
_cell_length_b 13.790293
_cell_length_c 10.436602
_cell_angle_alpha 34.689824
_cell_angle_beta 141.143997
_cell_angle_gamma 130.817497
_cell_volume 703.556860
_symmetry_space_group_name_H-M "P -1"
_symmetry_group_IT_number 2
_symmetry_cell_setting 'triclinic'
loop_
_space_group_symop_operation_xyz
x,y,z
-x,-y,-z
loop_
_atom_site_type_symbol
_atom_site_label
_atom_site_fract_x
_atom_site_fract_y
_atom_site_fract_z
Si Si1 0.298254 0.890983 0.135530
Si Si2 0.828550 0.240525 0.119415
Si Si3 0.666175 0.442261 0.365166
Si Si4 0.326122 0.385740 0.088671
Si Si5 0.353643 0.086573 0.601746
Si Si6 0.330284 0.407346 0.425920
Si Si7 0.008018 0.539292 0.616200
Si Si8 0.120337 0.216546 0.603025
O O1 0.333831 0.763050 0.426943
O O2 0.465377 0.953739 0.182730
O O3 0.217217 0.798474 0.031132
O O4 0.187557 0.037881 0.901081
O O5 0.008455 0.220131 0.360656
O O6 0.739581 0.086780 0.272465
O O7 0.779999 0.433379 0.888967
O O8 0.494712 0.455932 0.238404
O O9 0.840892 0.465231 0.573494
O O10 0.666412 0.560441 0.111341
O O11 0.308842 0.185422 0.318474
O O12 0.172881 0.467522 0.900323
O O13 0.332696 0.241045 0.515750
O O14 0.500000 0.500000 0.500000
O O15 0.270885 0.329221 0.585718
O O16 0.988545 0.723825 0.456916
O O17 0.000000 0.500000 0.500000
#
# Coordination Sequence:
#
# PCOD9033947 Si02
#       8
#     2   2   2   2   2   2   2   2
#     4  11  22  41  65  98 144 187 229 286 355 423
#     4  12  24  41  64 104 144 182 231 287 348 436
#     4   9  20  40  72  92 130 182 237 295 346 411
#     4   9  20  40  68  99 124 182 241 285 352 403
#     4  11  23  42  68 100 146 188 230 291 348 426
#     4  12  24  41  67  99 141 188 234 276 354 435
#     4  10  22  44  70  96 131 184 240 296 352 416
#     4  12  26  41  65 105 143 186 235 292 363 428
#
# _framework density 22.741588
#
# number of rings (size 3 to 8) (size 9 to 14) (size 15 to 20)
#    0.000    1.250    2.500    3.375    3.500    0.000 
#    2.250    2.500    5.500    6.750    0.000    0.000 
#    0.000    0.000    0.000    0.000    0.000    0.000 
#
# Total GULP energy -89098.273577 kJ/mol
# GULP energy per Si atom -5568.642099 kJ/mol
# Density = 2.268983 g / cm^3
# Si number density = 22.741588 Si / 1000 Ang^3
#
#
#
# Elastic Constant Matrix: (Units=GPa)
#
#
# Indices 1 2 3 4 5 6 
#
# 1 58.1826 13.4291 37.0539 7.7770 6.1475 -4.5818
# 2 13.4291 44.3021 17.5684 0.5426 12.8486 13.7982
# 3 37.0539 17.5684 150.3201 -8.6347 17.5299 0.7821
# 4 7.7770 0.5426 -8.6347 25.2403 15.4953 8.8482
# 5 6.1475 12.8486 17.5299 15.4953 61.6517 6.7015
# 6 -4.5818 13.7982 0.7821 8.8482 6.7015 15.9975
#
#
#
# Elastic Compliance Matrix: (Units=1/GPa)
#
#
# Indices 1 2 3 4 5 6 
#
# 1 0.036439 -0.024137 -0.009358 -0.035543 0.007761 0.048121
# 2 -0.024137 0.053097 0.003778 0.039409 -0.012069 -0.069636
# 3 -0.009358 0.003778 0.009885 0.013189 -0.004703 -0.011746
# 4 -0.035543 0.039409 0.013189 0.100601 -0.023871 -0.090458
# 5 0.007761 -0.012069 -0.004703 -0.023871 0.023537 0.016205
# 6 0.048121 -0.069636 -0.011746 -0.090458 0.016205 0.180173
#
#
# Mechanical properties :
#
#
# Convention : Reuss Voigt Hill
#
# Bulk Modulus (GPa) = 25.00948 43.21194 34.11071
# Shear Modulus (GPa) = 10.49329 32.89478 21.69403
#
# Velocity S-wave (km/s) = 2.15039 3.80736 3.09194
# Velocity P-wave (km/s) = 4.14568 6.19439 5.27054
#
# Compressibility (1/GPa) = 0.03998484
#
# Stress axis : x y z
#
# Youngs Moduli (GPa) = 27.44345 18.83346 101.16469
#
# Poissons Ratio (x) = 0.45459 0.94671
# Poissons Ratio (y) = 0.66241 -0.38216
# Poissons Ratio (z) = 0.25682 -0.07115
#
# Static dielectric constant tensor:
#      x y z
#    x 1.881890 -0.018990 -0.007560 
#    y -0.018990 2.033990 0.025800 
#    z -0.007560 0.025800 1.886600 
# 
# From -- ./inp_files/455435.got.cif
#   From: 2010.05.17/outbox.cif.g08.bks.cpg/sg2_228_cif.got.tgz:455435.got - 2010.06.03 11:33:40.
