data_PCOD9033200
_publ_section_title
;
Structure prediction by ZEFSAII (Michael W. Deem and Ramdas Pophale) SiO2 
 PCOD9033200
Probable space group: P -1
;
_chemical_formula_sum "Si O2"
_cell_formula_units_Z 14
_cell_length_a 11.296804
_cell_length_b 16.993086
_cell_length_c 8.761392
_cell_angle_alpha 78.019854
_cell_angle_beta 138.091833
_cell_angle_gamma 133.397218
_cell_volume 636.651154
_symmetry_space_group_name_H-M "P -1"
_symmetry_group_IT_number 2
_symmetry_cell_setting 'triclinic'
loop_
_space_group_symop_operation_xyz
x,y,z
-x,-y,-z
loop_
_atom_site_type_symbol
_atom_site_label
_atom_site_fract_x
_atom_site_fract_y
_atom_site_fract_z
Si Si1 0.628716 0.036382 0.940462
Si Si2 0.178951 0.074091 0.800678
Si Si3 0.790286 0.275650 0.622236
Si Si4 0.205604 0.545790 0.318833
Si Si5 0.138397 0.282075 0.138519
Si Si6 0.210889 0.967854 0.323615
Si Si7 0.852693 0.367091 0.335116
O O1 0.374445 0.970806 0.602822
O O2 0.929766 0.199592 0.122352
O O3 0.500000 0.000000 0.000000
O O4 0.727569 0.981127 0.044020
O O5 0.983055 0.040951 0.760516
O O6 0.490055 0.239678 0.011068
O O7 0.000000 0.000000 0.500000
O O8 0.718322 0.341260 0.570380
O O9 0.881074 0.309894 0.516968
O O10 0.487612 0.114693 0.443574
O O11 0.062980 0.337787 0.958777
O O12 0.512982 0.612654 0.542484
O O13 0.018651 0.421976 0.309961
O O14 0.000000 0.500000 0.000000
O O15 0.994774 0.161130 0.934910
O O16 0.000000 0.500000 0.500000
#
# Coordination Sequence:
#
# PCOD9033200 Si02
#       7
#     2   2   2   2   2   2   2
#     4  11  23  40  63 106 136 165 218 285 335 399
#     4  12  24  39  69  99 133 176 214 276 347 385
#     4  10  22  44  66  96 132 170 220 274 332 393
#     4  11  26  42  64  92 135 180 223 270 320 401
#     4  11  24  42  70  97 130 179 222 270 338 395
#     4  11  22  41  70 100 129 166 222 278 333 402
#     4  10  23  43  64  94 133 175 224 270 322 405
#
# _framework density 21.990064
#
# number of rings (size 3 to 8) (size 9 to 14) (size 15 to 20)
#    0.000    1.143    1.429    6.000    4.000    2.857 
#    0.000    2.857    0.000    0.000    0.000    0.000 
#    0.000    0.000    0.000    0.000    0.000    0.000 
#
# Total GULP energy -78304.828793 kJ/mol
# GULP energy per Si atom -5593.202057 kJ/mol
# Density = 2.194001 g / cm^3
# Si number density = 21.990064 Si / 1000 Ang^3
#
#
#
# Elastic Constant Matrix: (Units=GPa)
#
#
# Indices 1 2 3 4 5 6 
#
# 1 114.3739 46.5682 39.5612 -10.0109 21.5791 26.1719
# 2 46.5682 126.5335 57.9305 -16.0635 4.5580 31.3607
# 3 39.5612 57.9305 146.9157 -2.6504 16.4904 26.5106
# 4 -10.0109 -16.0635 -2.6504 31.6295 -4.4796 0.5254
# 5 21.5791 4.5580 16.4904 -4.4796 42.4946 -4.7179
# 6 26.1719 31.3607 26.5106 0.5254 -4.7179 53.0185
#
#
#
# Elastic Compliance Matrix: (Units=1/GPa)
#
#
# Indices 1 2 3 4 5 6 
#
# 1 0.012471 -0.002615 -0.000743 0.001771 -0.006110 -0.004799
# 2 -0.002615 0.012036 -0.003376 0.005275 0.001452 -0.004063
# 3 -0.000743 -0.003376 0.009118 -0.001604 -0.003242 -0.002468
# 4 0.001771 0.005275 -0.001604 0.035129 0.002492 -0.003319
# 5 -0.006110 0.001452 -0.003242 0.002492 0.028700 0.006307
# 6 -0.004799 -0.004063 -0.002468 -0.003319 0.006307 0.025462
#
#
# Mechanical properties :
#
#
# Convention : Reuss Voigt Hill
#
# Bulk Modulus (GPa) = 49.61369 75.10476 62.35923
# Shear Modulus (GPa) = 34.93954 41.67940 38.30947
#
# Velocity S-wave (km/s) = 3.99040 4.35831 4.17841
# Velocity P-wave (km/s) = 6.62132 7.71716 7.19015
#
# Compressibility (1/GPa) = 0.02015573
#
# Stress axis : x y z
#
# Youngs Moduli (GPa) = 80.18568 83.08702 109.66864
#
# Poissons Ratio (x) = 0.21728 0.08152
# Poissons Ratio (y) = 0.20969 0.37027
# Poissons Ratio (z) = 0.05960 0.28052
#
# Static dielectric constant tensor:
#      x y z
#    x 1.846020 -0.012090 -0.043860 
#    y -0.012090 1.835630 0.010070 
#    z -0.043860 0.010070 1.820560 
# 
# From -- ./inp_files/183838.got.cif
#   From: 2010.05.17/outbox.cif.g08.bks.cpg/sg2_92_cif.got.tgz:183838.got - 2010.06.03 11:33:40.
