data_PCOD9033161
_publ_section_title
;
Structure prediction by ZEFSAII (Michael W. Deem and Ramdas Pophale) SiO2 
 PCOD9033161
Probable space group: P -1
;
_chemical_formula_sum "Si O2"
_cell_formula_units_Z 14
_cell_length_a 7.260709
_cell_length_b 11.138953
_cell_length_c 8.618647
_cell_angle_alpha 92.035470
_cell_angle_beta 97.551719
_cell_angle_gamma 75.599183
_cell_volume 669.287486
_symmetry_space_group_name_H-M "P -1"
_symmetry_group_IT_number 2
_symmetry_cell_setting 'triclinic'
loop_
_space_group_symop_operation_xyz
x,y,z
-x,-y,-z
loop_
_atom_site_type_symbol
_atom_site_label
_atom_site_fract_x
_atom_site_fract_y
_atom_site_fract_z
Si Si1 0.093177 0.567684 0.309770
Si Si2 0.740213 0.476912 0.339587
Si Si3 0.893082 0.852038 0.358768
Si Si4 0.102530 0.051468 0.286408
Si Si5 0.718052 0.226507 0.162369
Si Si6 0.517343 0.015545 0.185430
Si Si7 0.593525 0.395141 0.881395
O O1 0.224281 0.521502 0.473039
O O2 0.222658 0.572893 0.175656
O O3 0.936792 0.487688 0.278814
O O4 0.974137 0.706991 0.339424
O O5 0.702023 0.347285 0.273298
O O6 0.567482 0.589135 0.268229
O O7 0.894728 0.889177 0.540442
O O8 0.680908 0.904822 0.270433
O O9 0.031503 0.926006 0.292383
O O10 0.311453 0.028272 0.237594
O O11 0.937043 0.146567 0.177652
O O12 0.594907 0.139225 0.219541
O O13 0.647782 0.271397 0.983876
O O14 0.500000 0.000000 0.000000
O O15 0.500000 0.500000 0.000000
#
# Coordination Sequence:
#
# PCOD9033161 Si02
#       7
#     2   2   2   2   2   2   2
#     4  11  23  41  70  92 126 166 215 260 309 376
#     4  10  23  44  63  96 122 165 216 262 310 366
#     4  10  23  42  66  95 122 169 211 261 314 365
#     4  10  22  44  66  89 131 164 211 261 312 374
#     4  10  23  42  62  95 127 168 205 257 322 367
#     4  11  26  40  65  97 126 166 210 256 319 384
#     4  10  24  41  63  93 129 167 207 258 316 371
#
# _framework density 20.917767999999999
#
# number of rings (size 3 to 8) (size 9 to 14) (size 15 to 20)
#    0.000    1.714    1.429    0.857    6.000    5.714 
#    2.571    0.000    0.000    0.000    0.000    0.000 
#    0.000    0.000    0.000    0.000    0.000    0.000 
#
# Total GULP energy -78289.577903 kJ/mol
# GULP energy per Si atom -5592.112707 kJ/mol
# Density = 2.087016 g / cm^3
# Si number density = 20.917768 Si / 1000 Ang^3
#
#
#
# Elastic Constant Matrix: (Units=GPa)
#
#
# Indices 1 2 3 4 5 6 
#
# 1 137.9859 22.8351 38.8959 -13.3266 -6.0653 -14.5462
# 2 22.8351 58.1191 39.9819 -13.7633 15.5757 -6.9921
# 3 38.8959 39.9819 58.3042 -29.0738 9.0699 -18.0500
# 4 -13.3266 -13.7633 -29.0738 38.9138 -8.0001 14.0539
# 5 -6.0653 15.5757 9.0699 -8.0001 42.3823 -4.9853
# 6 -14.5462 -6.9921 -18.0500 14.0539 -4.9853 19.2117
#
#
#
# Elastic Compliance Matrix: (Units=1/GPa)
#
#
# Indices 1 2 3 4 5 6 
#
# 1 0.009436 0.000393 -0.007387 -0.002691 0.002632 0.002998
# 2 0.000393 0.040093 -0.034899 -0.008798 -0.010541 -0.014198
# 3 -0.007387 -0.034899 0.066453 0.026453 0.005628 0.026250
# 4 -0.002691 -0.008798 0.026453 0.047360 0.004496 -0.013864
# 5 0.002632 -0.010541 0.005628 0.004496 0.028374 0.007518
# 6 0.002998 -0.014198 0.026250 -0.013864 0.007518 0.085909
#
#
# Mechanical properties :
#
#
# Convention : Reuss Voigt Hill
#
# Bulk Modulus (GPa) = 31.06002 50.87054 40.96528
# Shear Modulus (GPa) = 13.43567 30.28133 21.85850
#
# Velocity S-wave (km/s) = 2.53713 3.80891 3.23611
# Velocity P-wave (km/s) = 4.84392 6.61179 5.79566
#
# Compressibility (1/GPa) = 0.03219573
#
# Stress axis : x y z
#
# Youngs Moduli (GPa) = 105.97251 24.94220 15.04819
#
# Poissons Ratio (x) = -0.00979 0.11117
# Poissons Ratio (y) = -0.04161 0.52516
# Poissons Ratio (z) = 0.78285 0.87045
#
# Static dielectric constant tensor:
#      x y z
#    x 1.745750 0.030520 0.048410 
#    y 0.030520 1.772220 0.008790 
#    z 0.048410 0.008790 1.783310 
# 
# From -- ./inp_files/26959.got.cif
#   From: 2010.05.17/outbox.cif.g08.bks.cpg/sg2_14_cif.got.tgz:26959.got - 2010.06.03 11:33:40.
