data_PCOD9033724
_publ_section_title
;
Structure prediction by ZEFSAII (Michael W. Deem and Ramdas Pophale) SiO2 
 PCOD9033724
Probable space group: P -1
;
_chemical_formula_sum "Si O2"
_cell_formula_units_Z 14
_cell_length_a 13.028005
_cell_length_b 9.275154
_cell_length_c 9.031301
_cell_angle_alpha 46.301557
_cell_angle_beta 79.491232
_cell_angle_gamma 56.012036
_cell_volume 615.232425
_symmetry_space_group_name_H-M "P -1"
_symmetry_group_IT_number 2
_symmetry_cell_setting 'triclinic'
loop_
_space_group_symop_operation_xyz
x,y,z
-x,-y,-z
loop_
_atom_site_type_symbol
_atom_site_label
_atom_site_fract_x
_atom_site_fract_y
_atom_site_fract_z
Si Si1 0.028630 0.750205 0.958923
Si Si2 0.588703 0.796273 0.464155
Si Si3 0.449680 0.758175 0.009828
Si Si4 0.893419 0.521812 0.170427
Si Si5 0.800709 0.302270 0.583033
Si Si6 0.330197 0.503887 0.076047
Si Si7 0.349798 0.918482 0.254107
O O1 0.026851 0.684226 0.833271
O O2 0.175888 0.651423 0.013613
O O3 0.925146 0.045289 0.804483
O O4 0.981852 0.600242 0.156609
O O5 0.708401 0.521341 0.567016
O O6 0.604511 0.752536 0.666509
O O7 0.456029 0.853667 0.393376
O O8 0.606185 0.987989 0.245204
O O9 0.601626 0.569299 0.051281
O O10 0.377017 0.648444 0.044623
O O11 0.424215 0.815884 0.148727
O O12 0.848619 0.409887 0.377763
O O13 0.765755 0.783437 0.948787
O O14 0.716418 0.216804 0.599391
#
# Coordination Sequence:
#
# PCOD9033724 Si02
#       7
#     2   2   2   2   2   2   2
#     4  10  24  44  64  96 132 169 217 260 322 382
#     4  12  24  40  66 100 130 168 215 262 325 380
#     4  11  24  43  65  97 131 171 212 262 329 374
#     4  10  22  44  69  95 125 170 218 272 311 377
#     4  11  23  39  69  95 128 167 217 264 317 376
#     4  11  26  43  64  96 137 168 208 268 321 387
#     4  11  23  41  69 100 126 165 220 269 314 380
#
# _framework density 22.755628000000002
#
# number of rings (size 3 to 8) (size 9 to 14) (size 15 to 20)
#    0.000    1.143    2.857    2.571    2.000    2.857 
#    0.000    1.429    0.000    0.000    0.000    0.000 
#    0.000    0.000    0.000    0.000    0.000    0.000 
#
# Total GULP energy -78376.384269 kJ/mol
# GULP energy per Si atom -5598.313162 kJ/mol
# Density = 2.270383 g / cm^3
# Si number density = 22.755628 Si / 1000 Ang^3
#
#
#
# Elastic Constant Matrix: (Units=GPa)
#
#
# Indices 1 2 3 4 5 6 
#
# 1 147.8043 40.4895 69.5876 -0.3642 -14.0179 -26.4701
# 2 40.4895 83.9573 24.9930 -3.9302 0.8295 -5.8626
# 3 69.5876 24.9930 93.4351 -7.1593 -31.5032 -8.3800
# 4 -0.3642 -3.9302 -7.1593 36.3095 -6.4222 -0.6103
# 5 -14.0179 0.8295 -31.5032 -6.4222 45.9266 -2.2155
# 6 -26.4701 -5.8626 -8.3800 -0.6103 -2.2155 20.1015
#
#
#
# Elastic Compliance Matrix: (Units=1/GPa)
#
#
# Indices 1 2 3 4 5 6 
#
# 1 0.014343 -0.003284 -0.009231 -0.002067 -0.001516 0.013852
# 2 -0.003284 0.014164 -0.002431 0.000477 -0.002932 -0.001515
# 3 -0.009231 -0.002431 0.023394 0.006737 0.014151 -0.001348
# 4 -0.002067 0.000477 0.006737 0.030409 0.008334 0.002068
# 5 -0.001516 -0.002932 0.014151 0.008334 0.032569 0.006891
# 6 0.013852 -0.001515 -0.001348 0.002068 0.006891 0.067806
#
#
# Mechanical properties :
#
#
# Convention : Reuss Voigt Hill
#
# Bulk Modulus (GPa) = 45.43471 66.14856 55.79163
# Shear Modulus (GPa) = 22.73623 33.14262 27.93942
#
# Velocity S-wave (km/s) = 3.16436 3.82050 3.50780
# Velocity P-wave (km/s) = 5.77586 6.97093 6.40134
#
# Compressibility (1/GPa) = 0.02200961
#
# Stress axis : x y z
#
# Youngs Moduli (GPa) = 69.71958 70.60362 42.74529
#
# Poissons Ratio (x) = 0.23185 0.39458
# Poissons Ratio (y) = 0.22894 0.10391
# Poissons Ratio (z) = 0.64359 0.17163
#
# Static dielectric constant tensor:
#      x y z
#    x 1.835850 -0.012550 -0.014020 
#    y -0.012550 1.895840 -0.008450 
#    z -0.014020 -0.008450 1.833840 
# 
# From -- ./inp_files/241968.got.cif
#   From: 2010.05.17/outbox.cif.g08.bks.cpg/sg2_121_cif.got.tgz:241968.got - 2010.06.03 11:33:40.
