data_PCOD9033987
_publ_section_title
;
Structure prediction by ZEFSAII (Michael W. Deem and Ramdas Pophale) SiO2 
 PCOD9033987
Probable space group: P -1
;
_chemical_formula_sum "Si O2"
_cell_formula_units_Z 16
_cell_length_a 9.181564
_cell_length_b 18.147580
_cell_length_c 5.683481
_cell_angle_alpha 103.646979
_cell_angle_beta 52.018706
_cell_angle_gamma 97.070174
_cell_volume 725.060358
_symmetry_space_group_name_H-M "P -1"
_symmetry_group_IT_number 2
_symmetry_cell_setting 'triclinic'
loop_
_space_group_symop_operation_xyz
x,y,z
-x,-y,-z
loop_
_atom_site_type_symbol
_atom_site_label
_atom_site_fract_x
_atom_site_fract_y
_atom_site_fract_z
Si Si1 0.620154 0.819797 0.794071
Si Si2 0.845500 0.314651 0.392377
Si Si3 0.824541 0.673419 0.627465
Si Si4 0.410435 0.825629 0.509714
Si Si5 0.945579 0.912651 0.499852
Si Si6 0.081801 0.914261 0.864934
Si Si7 0.878843 0.427886 0.017268
Si Si8 0.545715 0.422713 0.037534
O O1 0.762671 0.747522 0.600187
O O2 0.510507 0.816469 0.654775
O O3 0.731632 0.896976 0.735699
O O4 0.519361 0.815105 0.145848
O O5 0.748081 0.236609 0.378106
O O6 0.856837 0.373162 0.214718
O O7 0.060215 0.299274 0.240538
O O8 0.690628 0.359877 0.739775
O O9 0.644766 0.621840 0.784217
O O10 0.987855 0.620430 0.322872
O O11 0.301650 0.906512 0.669711
O O12 0.038563 0.880385 0.623413
O O13 0.000278 0.880865 0.163709
O O14 0.000000 0.000000 0.500000
O O15 0.000000 0.000000 0.000000
O O16 0.671795 0.448355 0.150920
O O17 0.000000 0.500000 0.000000
O O18 0.500000 0.500000 0.000000
#
# Coordination Sequence:
#
# PCOD9033987 Si02
#       8
#     2   2   2   2   2   2   2   2
#     4  12  26  44  71 107 140 184 239 297 351 421
#     4  11  25  42  67  96 139 183 238 293 357 420
#     4  11  25  42  67  97 138 186 237 292 360 416
#     4  12  26  44  71 106 142 180 243 296 348 427
#     4  10  22  44  70  99 138 183 228 279 359 419
#     4  10  22  44  70  98 139 182 226 283 355 418
#     4  11  25  41  65 101 136 188 238 294 360 421
#     4  11  23  43  65  96 140 178 238 295 350 426
#
# _framework density 22.067128
#
# number of rings (size 3 to 8) (size 9 to 14) (size 15 to 20)
#    0.000    1.000    1.250    4.500    5.250    6.000 
#    0.000   15.000    0.000    0.000    0.000    0.000 
#    0.000    0.000    0.000    0.000    0.000    0.000 
#
# Total GULP energy -89131.969092 kJ/mol
# GULP energy per Si atom -5570.748068 kJ/mol
# Density = 2.201690 g / cm^3
# Si number density = 22.067128 Si / 1000 Ang^3
#
#
#
# Elastic Constant Matrix: (Units=GPa)
#
#
# Indices 1 2 3 4 5 6 
#
# 1 229.4017 61.9710 64.1203 -22.6135 0.6681 -8.6760
# 2 61.9710 114.3697 29.8400 -13.6967 -11.6329 12.7770
# 3 64.1203 29.8400 94.5174 -26.7144 1.9206 0.0762
# 4 -22.6135 -13.6967 -26.7144 37.3453 -6.6570 -22.1149
# 5 0.6681 -11.6329 1.9206 -6.6570 43.1363 -9.9585
# 6 -8.6760 12.7770 0.0762 -22.1149 -9.9585 40.3978
#
#
#
# Elastic Compliance Matrix: (Units=1/GPa)
#
#
# Indices 1 2 3 4 5 6 
#
# 1 0.006334 -0.002771 -0.002246 0.004248 0.001022 0.004818
# 2 -0.002771 0.011331 -0.002086 -0.001245 0.001992 -0.004365
# 3 -0.002246 -0.002086 0.017613 0.017469 0.003844 0.010655
# 4 0.004248 -0.001245 0.017469 0.072220 0.020557 0.045876
# 5 0.001022 0.001992 0.003844 0.020557 0.030969 0.018470
# 6 0.004818 -0.004365 0.010655 0.045876 0.018470 0.056816
#
#
# Mechanical properties :
#
#
# Convention : Reuss Voigt Hill
#
# Bulk Modulus (GPa) = 47.45865 83.35016 65.40441
# Shear Modulus (GPa) = 23.09348 42.99971 33.04659
#
# Velocity S-wave (km/s) = 3.23849 4.41907 3.87402
# Velocity P-wave (km/s) = 5.96129 7.99317 7.05080
#
# Compressibility (1/GPa) = 0.02107097
#
# Stress axis : x y z
#
# Youngs Moduli (GPa) = 157.88918 88.25592 56.77709
#
# Poissons Ratio (x) = 0.24460 0.12751
# Poissons Ratio (y) = 0.43759 0.11842
# Poissons Ratio (z) = 0.35458 0.18408
#
# Static dielectric constant tensor:
#      x y z
#    x 2.031140 0.185640 0.296330 
#    y 0.185640 1.981360 0.300790 
#    z 0.296330 0.300790 2.246230 
# 
# From -- ./inp_files/13162.got.cif
#   From: 2010.05.17/outbox.cif.g08.bks.cpg/sg2_7_cif.got.tgz:13162.got - 2010.06.03 11:33:40.
