data_PCOD9033967
_publ_section_title
;
Structure prediction by ZEFSAII (Michael W. Deem and Ramdas Pophale) SiO2 
 PCOD9033967
Probable space group: P -1
;
_chemical_formula_sum "Si O2"
_cell_formula_units_Z 14
_cell_length_a 12.076960
_cell_length_b 8.199577
_cell_length_c 10.392740
_cell_angle_alpha 44.362445
_cell_angle_beta 49.034688
_cell_angle_gamma 65.926348
_cell_volume 539.742639
_symmetry_space_group_name_H-M "P -1"
_symmetry_group_IT_number 2
_symmetry_cell_setting 'triclinic'
loop_
_space_group_symop_operation_xyz
x,y,z
-x,-y,-z
loop_
_atom_site_type_symbol
_atom_site_label
_atom_site_fract_x
_atom_site_fract_y
_atom_site_fract_z
Si Si1 0.459753 0.111908 0.807849
Si Si2 0.248390 0.091969 0.291390
Si Si3 0.730084 0.699282 0.566760
Si Si4 0.150069 0.787104 0.908321
Si Si5 0.559923 0.391624 0.322671
Si Si6 0.155611 0.766490 0.213846
Si Si7 0.014286 0.162147 0.230930
O O1 0.514048 0.195521 0.576350
O O2 0.427603 0.354571 0.762213
O O3 0.602061 0.000987 0.818517
O O4 0.314010 0.928671 0.008908
O O5 0.286900 0.250397 0.297339
O O6 0.149176 0.216034 0.195390
O O7 0.137058 0.872006 0.554284
O O8 0.571086 0.621743 0.671884
O O9 0.825236 0.484420 0.601573
O O10 0.800133 0.935549 0.309993
O O11 0.293318 0.671471 0.820932
O O12 0.017061 0.711802 0.950613
O O13 0.114011 0.747582 0.106328
O O14 0.046297 0.903709 0.303047
#
# Coordination Sequence:
#
# PCOD9033967 Si02
#       7
#     2   2   2   2   2   2   2
#     4  11  23  42  72 101 134 179 227 283 337 399
#     4  10  22  44  70  97 138 184 223 274 345 402
#     4  11  23  42  70 101 136 177 222 283 340 394
#     4  11  23  46  68 100 141 181 218 283 340 408
#     4  11  22  43  70  99 136 180 222 279 346 398
#     4  12  26  43  72 106 134 175 234 282 332 403
#     4  10  23  44  67  99 141 180 226 275 334 412
#
# _framework density 25.938286999999999
#
# number of rings (size 3 to 8) (size 9 to 14) (size 15 to 20)
#    0.000    1.143    4.286    2.571    0.000    8.000 
#    0.000    4.286    0.000    0.000    0.000    0.000 
#    0.000    0.000    0.000    0.000    0.000    0.000 
#
# Total GULP energy -78559.473774 kJ/mol
# GULP energy per Si atom -5611.390984 kJ/mol
# Density = 2.587925 g / cm^3
# Si number density = 25.938287 Si / 1000 Ang^3
#
#
#
# Elastic Constant Matrix: (Units=GPa)
#
#
# Indices 1 2 3 4 5 6 
#
# 1 190.1308 26.7493 28.5888 6.9011 20.5755 4.8462
# 2 26.7493 102.7148 27.8194 17.7507 -11.9356 -12.1628
# 3 28.5888 27.8194 114.4114 -5.2097 -5.0771 -0.4785
# 4 6.9011 17.7507 -5.2097 38.9723 -1.4544 -1.9499
# 5 20.5755 -11.9356 -5.0771 -1.4544 36.2164 3.0679
# 6 4.8462 -12.1628 -0.4785 -1.9499 3.0679 49.2739
#
#
#
# Elastic Compliance Matrix: (Units=1/GPa)
#
#
# Indices 1 2 3 4 5 6 
#
# 1 0.006211 -0.001719 -0.001358 -0.000698 -0.004244 -0.000812
# 2 -0.001719 0.012709 -0.002710 -0.005545 0.004326 0.002791
# 3 -0.001358 -0.002710 0.009929 0.002834 0.001419 -0.000415
# 4 -0.000698 -0.005545 0.002834 0.028685 0.000130 -0.000146
# 5 -0.004244 0.004326 0.001419 0.000130 0.031693 -0.000469
# 6 -0.000812 0.002791 -0.000415 -0.000146 -0.000469 0.021083
#
#
# Mechanical properties :
#
#
# Convention : Reuss Voigt Hill
#
# Bulk Modulus (GPa) = 57.88133 63.73023 60.80578
# Shear Modulus (GPa) = 39.17310 46.49915 42.83612
#
# Velocity S-wave (km/s) = 3.89040 4.23860 4.06823
# Velocity P-wave (km/s) = 6.52256 6.96977 6.74987
#
# Compressibility (1/GPa) = 0.01727673
#
# Stress axis : x y z
#
# Youngs Moduli (GPa) = 161.01068 78.68738 100.71770
#
# Poissons Ratio (x) = 0.13522 0.13673
# Poissons Ratio (y) = 0.27670 0.27290
# Poissons Ratio (z) = 0.21858 0.21321
#
# Static dielectric constant tensor:
#      x y z
#    x 2.064790 0.013700 0.005470 
#    y 0.013700 1.986400 -0.034860 
#    z 0.005470 -0.034860 2.025280 
# 
# From -- ./inp_files/282208.got.cif
#   From: 2010.05.17/outbox.cif.g08.bks.cpg/sg2_142_cif.got.tgz:282208.got - 2010.06.03 11:33:40.
