data_PCOD9033823
_publ_section_title
;
Structure prediction by ZEFSAII (Michael W. Deem and Ramdas Pophale) SiO2 
 PCOD9033823
Probable space group: P -1
;
_chemical_formula_sum "Si O2"
_cell_formula_units_Z 16
_cell_length_a 22.907502
_cell_length_b 7.946277
_cell_length_c 5.129958
_cell_angle_alpha 67.242819
_cell_angle_beta 98.478818
_cell_angle_gamma 53.720144
_cell_volume 598.641696
_symmetry_space_group_name_H-M "P -1"
_symmetry_group_IT_number 2
_symmetry_cell_setting 'triclinic'
loop_
_space_group_symop_operation_xyz
x,y,z
-x,-y,-z
loop_
_atom_site_type_symbol
_atom_site_label
_atom_site_fract_x
_atom_site_fract_y
_atom_site_fract_z
Si Si1 0.366937 0.826311 0.716448
Si Si2 0.079900 0.764356 0.353170
Si Si3 0.603162 0.476707 0.580876
Si Si4 0.199591 0.389220 0.273170
Si Si5 0.113724 0.047221 0.408298
Si Si6 0.557870 0.013874 0.681339
Si Si7 0.713426 0.478762 0.022179
Si Si8 0.935334 0.548499 0.168606
O O1 0.361954 0.692133 0.556161
O O2 0.411509 0.899603 0.557588
O O3 0.275211 0.094888 0.585969
O O4 0.405204 0.648250 0.105669
O O5 0.164116 0.601137 0.341711
O O6 0.077820 0.557136 0.538360
O O7 0.083093 0.906049 0.496880
O O8 0.000000 0.000000 0.000000
O O9 0.508276 0.754917 0.299754
O O10 0.664895 0.492895 0.737450
O O11 0.240237 0.433742 0.064239
O O12 0.122844 0.437203 0.084538
O O13 0.035978 0.323531 0.327807
O O14 0.211315 0.824381 0.672866
O O15 0.102384 0.165956 0.044153
O O16 0.500000 0.000000 0.500000
O O17 0.637483 0.721549 0.008809
#
# Coordination Sequence:
#
# PCOD9033823 Si02
#       8
#     2   2   2   2   2   2   2   2
#     4  11  25  44  73 107 147 190 243 311 362 442
#     4  12  24  43  70  98 140 195 238 303 367 434
#     4  11  24  46  71 107 145 190 246 303 376 441
#     4  11  24  43  65 101 138 190 240 302 364 437
#     4  11  23  44  70 102 145 190 243 301 372 434
#     4   9  21  44  73 107 142 191 239 301 373 447
#     4  10  22  44  70 101 141 188 244 303 369 441
#     4  11  24  44  66 100 143 186 244 296 365 448
#
# _framework density 26.727174000000002
#
# number of rings (size 3 to 8) (size 9 to 14) (size 15 to 20)
#    0.000    1.250    2.500    2.625    1.750    2.500 
#    2.250   15.000    0.000    0.000    0.000    0.000 
#    0.000    0.000    0.000    0.000    0.000    0.000 
#
# Total GULP energy -89432.949369 kJ/mol
# GULP energy per Si atom -5589.559336 kJ/mol
# Density = 2.666634 g / cm^3
# Si number density = 26.727174 Si / 1000 Ang^3
#
#
#
# Elastic Constant Matrix: (Units=GPa)
#
#
# Indices 1 2 3 4 5 6 
#
# 1 138.7775 18.5489 24.6902 -16.5107 8.2221 6.4811
# 2 18.5489 114.2920 50.3909 -35.2672 22.7534 -13.4554
# 3 24.6902 50.3909 122.3396 -36.4593 14.6056 -18.3985
# 4 -16.5107 -35.2672 -36.4593 48.5896 -8.8510 12.5895
# 5 8.2221 22.7534 14.6056 -8.8510 32.6529 -8.4325
# 6 6.4811 -13.4554 -18.3985 12.5895 -8.4325 45.2525
#
#
#
# Elastic Compliance Matrix: (Units=1/GPa)
#
#
# Indices 1 2 3 4 5 6 
#
# 1 0.007875 -0.000139 -0.001096 0.002129 -0.001459 -0.002479
# 2 -0.000139 0.013177 -0.002791 0.006319 -0.006214 -0.000113
# 3 -0.001096 -0.002791 0.011669 0.005588 -0.000876 0.002353
# 4 0.002129 0.006319 0.005588 0.031315 -0.000218 -0.004907
# 5 -0.001459 -0.006214 -0.000876 -0.000218 0.036933 0.004948
# 6 -0.002479 -0.000113 0.002353 -0.004907 0.004948 0.025664
#
#
# Mechanical properties :
#
#
# Convention : Reuss Voigt Hill
#
# Bulk Modulus (GPa) = 40.53961 62.51877 51.52919
# Shear Modulus (GPa) = 34.98765 44.08429 39.53597
#
# Velocity S-wave (km/s) = 3.62203 4.06571 3.85026
# Velocity P-wave (km/s) = 5.71778 6.74405 6.25201
#
# Compressibility (1/GPa) = 0.02466723
#
# Stress axis : x y z
#
# Youngs Moduli (GPa) = 126.98596 75.89235 85.69997
#
# Poissons Ratio (x) = 0.01057 0.09394
# Poissons Ratio (y) = 0.01769 0.23919
# Poissons Ratio (z) = 0.13919 0.21181
#
# Static dielectric constant tensor:
#      x y z
#    x 2.178300 -0.040320 -0.107270 
#    y -0.040320 2.104680 0.057980 
#    z -0.107270 0.057980 2.195430 
# 
# From -- ./inp_files/122822.got.cif
#   From: 2010.05.17/outbox.cif.g08.bks.cpg/sg2_62_cif.got.tgz:122822.got - 2010.06.03 11:33:40.
