data_PCOD9033304
_publ_section_title
;
Structure prediction by ZEFSAII (Michael W. Deem and Ramdas Pophale) SiO2 
 PCOD9033304
Probable space group: P -1
;
_chemical_formula_sum "Si O2"
_cell_formula_units_Z 16
_cell_length_a 10.472888
_cell_length_b 12.149323
_cell_length_c 8.763414
_cell_angle_alpha 74.160180
_cell_angle_beta 71.530333
_cell_angle_gamma 37.630295
_cell_volume 645.269923
_symmetry_space_group_name_H-M "P -1"
_symmetry_group_IT_number 2
_symmetry_cell_setting 'triclinic'
loop_
_space_group_symop_operation_xyz
x,y,z
-x,-y,-z
loop_
_atom_site_type_symbol
_atom_site_label
_atom_site_fract_x
_atom_site_fract_y
_atom_site_fract_z
Si Si1 0.645895 0.007414 0.882030
Si Si2 0.561376 0.624309 0.847824
Si Si3 0.679989 0.387130 0.604268
Si Si4 0.728571 0.660997 0.246480
Si Si5 0.980805 0.729657 0.097985
Si Si6 0.619143 0.800578 0.560660
Si Si7 0.847745 0.169531 0.882182
Si Si8 0.948559 0.713253 0.641973
O O1 0.748969 0.904094 0.722440
O O2 0.465948 0.219327 0.841219
O O3 0.851329 0.883617 0.957951
O O4 0.500000 0.000000 0.000000
O O5 0.591930 0.524261 0.724181
O O6 0.532720 0.773263 0.737839
O O7 0.776878 0.474827 0.923712
O O8 0.368073 0.700573 0.987580
O O9 0.500000 0.500000 0.500000
O O10 0.767545 0.214486 0.720866
O O11 0.884248 0.310231 0.480063
O O12 0.835075 0.716312 0.186322
O O13 0.638255 0.712896 0.433211
O O14 0.916350 0.449057 0.226294
O O15 0.017586 0.799910 0.187146
O O16 0.852672 0.687061 0.568246
O O17 0.500000 0.000000 0.500000
O O18 0.000000 0.000000 0.000000
#
# Coordination Sequence:
#
# PCOD9033304 Si02
#       8
#     2   2   2   2   2   2   2   2
#     4  10  25  41  64 106 142 182 233 294 363 434
#     4  11  24  46  74 100 140 194 237 295 367 436
#     4  11  26  47  74 103 138 190 252 297 355 435
#     4  11  22  43  67 103 139 177 237 299 362 425
#     4  10  22  44  67  90 142 181 233 285 356 431
#     4  12  23  41  72 105 139 179 234 301 360 433
#     4  11  27  45  68 103 139 193 243 291 366 432
#     4  12  24  42  73 102 142 186 236 299 372 417
#
# _framework density 24.795825000000001
#
# number of rings (size 3 to 8) (size 9 to 14) (size 15 to 20)
#    0.000    1.000    3.750    3.375    7.000    3.000 
#    0.000    0.625    0.000    0.000    0.000    0.000 
#    0.000    0.000    0.000    0.000    0.000    0.000 
#
# Total GULP energy -89286.886161 kJ/mol
# GULP energy per Si atom -5580.430385 kJ/mol
# Density = 2.473939 g / cm^3
# Si number density = 24.795825 Si / 1000 Ang^3
#
#
#
# Elastic Constant Matrix: (Units=GPa)
#
#
# Indices 1 2 3 4 5 6 
#
# 1 108.1971 27.5384 49.3333 -9.2174 -9.0733 -26.9674
# 2 27.5384 149.5788 42.2656 -37.0464 9.5674 -34.3942
# 3 49.3333 42.2656 93.0716 -22.4518 2.2127 -39.4525
# 4 -9.2174 -37.0464 -22.4518 60.6612 -10.1402 1.8412
# 5 -9.0733 9.5674 2.2127 -10.1402 46.3522 -4.6416
# 6 -26.9674 -34.3942 -39.4525 1.8412 -4.6416 31.1113
#
#
#
# Elastic Compliance Matrix: (Units=1/GPa)
#
#
# Indices 1 2 3 4 5 6 
#
# 1 0.013151 0.000492 -0.003673 0.001324 0.003715 0.007761
# 2 0.000492 0.011599 0.004192 0.008349 0.001155 0.018244
# 3 -0.003673 0.004192 0.031004 0.012884 0.003817 0.040574
# 4 0.001324 0.008349 0.012884 0.026832 0.006403 0.026084
# 5 0.003715 0.001155 0.003817 0.006403 0.024545 0.012621
# 6 0.007761 0.018244 0.040574 0.026084 0.012621 0.110830
#
#
# Mechanical properties :
#
#
# Convention : Reuss Voigt Hill
#
# Bulk Modulus (GPa) = 17.30847 65.45802 41.38325
# Shear Modulus (GPa) = 21.25867 43.07227 32.16547
#
# Velocity S-wave (km/s) = 2.93123 4.17235 3.60559
# Velocity P-wave (km/s) = 4.29554 7.04751 5.83606
#
# Compressibility (1/GPa) = 0.05777517
#
# Stress axis : x y z
#
# Youngs Moduli (GPa) = 76.04189 86.21119 32.25416
#
# Poissons Ratio (x) = -0.04239 0.11847
# Poissons Ratio (y) = -0.03739 -0.13521
# Poissons Ratio (z) = 0.27930 -0.36139
#
# Static dielectric constant tensor:
#      x y z
#    x 1.958360 0.110640 0.041770 
#    y 0.110640 1.998730 -0.131360 
#    z 0.041770 -0.131360 1.969590 
# 
# From -- ./inp_files/272439.got.cif
#   From: 2010.05.17/outbox.cif.g08.bks.cpg/sg2_137_cif.got.tgz:272439.got - 2010.06.03 11:33:40.
