data_PCOD9033385
_publ_section_title
;
Structure prediction by ZEFSAII (Michael W. Deem and Ramdas Pophale) SiO2 
 PCOD9033385
Probable space group: P -1
;
_chemical_formula_sum "Si O2"
_cell_formula_units_Z 16
_cell_length_a 21.546248
_cell_length_b 8.347835
_cell_length_c 12.825397
_cell_angle_alpha 141.133788
_cell_angle_beta 151.456664
_cell_angle_gamma 48.963911
_cell_volume 688.768710
_symmetry_space_group_name_H-M "P -1"
_symmetry_group_IT_number 2
_symmetry_cell_setting 'triclinic'
loop_
_space_group_symop_operation_xyz
x,y,z
-x,-y,-z
loop_
_atom_site_type_symbol
_atom_site_label
_atom_site_fract_x
_atom_site_fract_y
_atom_site_fract_z
Si Si1 0.841001 0.955175 0.960063
Si Si2 0.794087 0.630373 0.541432
Si Si3 0.565974 0.681733 0.099174
Si Si4 0.082240 0.625349 0.885871
Si Si5 0.051321 0.053919 0.484074
Si Si6 0.608865 0.240633 0.780308
Si Si7 0.311772 0.923439 0.851363
Si Si8 0.347516 0.495083 0.245361
O O1 0.898913 0.137501 0.044611
O O2 0.949745 0.915120 0.183964
O O3 0.736379 0.115635 0.943519
O O4 0.771771 0.717469 0.671865
O O5 0.705541 0.778691 0.405345
O O6 0.742566 0.333649 0.300834
O O7 0.947574 0.648789 0.758082
O O8 0.500000 0.500000 0.000000
O O9 0.579373 0.487721 0.926813
O O10 0.460586 0.882616 0.019416
O O11 0.065347 0.363706 0.659157
O O12 0.211361 0.602772 0.136633
O O13 0.192775 0.961660 0.616924
O O14 0.000000 0.000000 0.500000
O O15 0.640317 0.353512 0.769797
O O16 0.500000 0.000000 0.500000
O O17 0.312477 0.190033 0.046720
O O18 0.500000 0.500000 0.500000
#
# Coordination Sequence:
#
# PCOD9033385 Si02
#       8
#     2   2   2   2   2   2   2   2
#     4  11  25  41  68 101 134 173 234 271 329 407
#     4  11  22  42  70 100 135 179 221 279 336 398
#     4  10  23  40  67  95 134 175 220 278 329 400
#     4  10  22  44  67  98 133 179 223 276 332 397
#     4  11  22  42  67  94 132 176 216 279 338 395
#     4  11  24  43  68  97 131 180 233 265 334 406
#     4  10  23  42  64  97 139 170 222 268 349 384
#     4  10  25  42  69 101 137 177 221 285 331 398
#
# _framework density 23.229859999999999
#
# number of rings (size 3 to 8) (size 9 to 14) (size 15 to 20)
#    0.000    1.500    1.250    3.000    8.750    4.000 
#    2.250    0.000    0.000    0.000    0.000    0.000 
#    0.000    0.000    0.000    0.000    0.000    0.000 
#
# Total GULP energy -89155.474382 kJ/mol
# GULP energy per Si atom -5572.217149 kJ/mol
# Density = 2.317699 g / cm^3
# Si number density = 23.229860 Si / 1000 Ang^3
#
#
#
# Elastic Constant Matrix: (Units=GPa)
#
#
# Indices 1 2 3 4 5 6 
#
# 1 32.3436 33.4007 17.3453 -11.3482 7.8912 -18.5481
# 2 33.4007 112.5029 54.6420 -20.5137 4.3656 -29.8413
# 3 17.3453 54.6420 117.5915 -36.4172 8.3872 -12.8837
# 4 -11.3482 -20.5137 -36.4172 60.1220 -3.5326 24.1012
# 5 7.8912 4.3656 8.3872 -3.5326 30.2745 -3.7693
# 6 -18.5481 -29.8413 -12.8837 24.1012 -3.7693 40.2111
#
#
#
# Elastic Compliance Matrix: (Units=1/GPa)
#
#
# Indices 1 2 3 4 5 6 
#
# 1 0.054416 -0.011411 -0.000523 -0.001003 -0.010508 0.016081
# 2 -0.011411 0.016602 -0.006402 -0.003044 0.002883 0.007101
# 3 -0.000523 -0.006402 0.013619 0.008116 -0.002479 -0.005726
# 4 -0.001003 -0.003044 0.008116 0.026799 -0.000441 -0.016225
# 5 -0.010508 0.002883 -0.002479 -0.000441 0.036007 0.000137
# 6 0.016081 0.007101 -0.005726 -0.016225 0.000137 0.045459
#
#
# Mechanical properties :
#
#
# Convention : Reuss Voigt Hill
#
# Bulk Modulus (GPa) = 20.84857 52.57934 36.71395
# Shear Modulus (GPa) = 20.36127 36.59151 28.47639
#
# Velocity S-wave (km/s) = 2.96381 3.97318 3.50502
# Velocity P-wave (km/s) = 4.55045 6.61299 5.67619
#
# Compressibility (1/GPa) = 0.04796493
#
# Stress axis : x y z
#
# Youngs Moduli (GPa) = 18.37679 60.23217 73.42735
#
# Poissons Ratio (x) = 0.68731 0.03844
# Poissons Ratio (y) = 0.20970 0.47007
# Poissons Ratio (z) = 0.00962 0.38560
#
# Static dielectric constant tensor:
#      x y z
#    x 1.892060 -0.020620 0.044660 
#    y -0.020620 1.940470 -0.068390 
#    z 0.044660 -0.068390 2.031620 
# 
# From -- ./inp_files/470231.got.cif
#   From: 2010.05.17/outbox.cif.g08.bks.cpg/sg2_236_cif.got.tgz:470231.got - 2010.06.03 11:33:40.
