data_PCOD9033735
_publ_section_title
;
Structure prediction by ZEFSAII (Michael W. Deem and Ramdas Pophale) SiO2 
 PCOD9033735
Probable space group: P -1
;
_chemical_formula_sum "Si O2"
_cell_formula_units_Z 16
_cell_length_a 8.209054
_cell_length_b 24.274596
_cell_length_c 7.772977
_cell_angle_alpha 130.942027
_cell_angle_beta 51.573484
_cell_angle_gamma 144.003153
_cell_volume 672.956883
_symmetry_space_group_name_H-M "P -1"
_symmetry_group_IT_number 2
_symmetry_cell_setting 'triclinic'
loop_
_space_group_symop_operation_xyz
x,y,z
-x,-y,-z
loop_
_atom_site_type_symbol
_atom_site_label
_atom_site_fract_x
_atom_site_fract_y
_atom_site_fract_z
Si Si1 0.556026 0.139379 0.801909
Si Si2 0.764073 0.789468 0.870977
Si Si3 0.340990 0.991688 0.920022
Si Si4 0.869713 0.662685 0.101399
Si Si5 0.348602 0.242417 0.713364
Si Si6 0.445940 0.581808 0.478484
Si Si7 0.972266 0.029541 0.394064
Si Si8 0.897741 0.383595 0.449246
O O1 0.871884 0.239530 0.762991
O O2 0.352579 0.053312 0.619057
O O3 0.399000 0.178679 0.032564
O O4 0.561496 0.079947 0.825704
O O5 0.625772 0.681755 0.676413
O O6 0.716920 0.785363 0.099730
O O7 0.098024 0.876744 0.789152
O O8 0.146931 0.016198 0.134023
O O9 0.500000 0.000000 0.000000
O O10 0.717147 0.689805 0.148892
O O11 0.651396 0.582093 0.224074
O O12 0.006541 0.642966 0.829234
O O13 0.668615 0.297911 0.558943
O O14 0.136087 0.143960 0.535278
O O15 0.271861 0.590467 0.475133
O O16 0.196773 0.479924 0.531653
O O17 0.000000 0.000000 0.500000
#
# Coordination Sequence:
#
# PCOD9033735 Si02
#       8
#     2   2   2   2   2   2   2   2
#     4  11  23  39  67  92 136 181 218 271 330 402
#     4  11  22  44  61 100 136 176 221 271 334 402
#     4  11  24  40  64  97 136 176 224 273 325 402
#     4  11  23  42  68  99 125 174 228 277 333 401
#     4  11  24  42  67  95 137 175 222 275 330 400
#     4  10  23  42  70  96 130 169 227 282 336 398
#     4  11  22  40  60  93 135 178 215 264 332 392
#     4  10  22  44  69  96 128 175 220 285 342 386
#
# _framework density 23.775669000000001
#
# number of rings (size 3 to 8) (size 9 to 14) (size 15 to 20)
#    0.000    1.250    3.750    3.375    5.250    2.000 
#    2.250    0.625    0.000    0.000    0.000    0.000 
#    0.000    0.000    0.000    0.000    0.000    0.000 
#
# Total GULP energy -89408.115578 kJ/mol
# GULP energy per Si atom -5588.007224 kJ/mol
# Density = 2.372155 g / cm^3
# Si number density = 23.775669 Si / 1000 Ang^3
#
#
#
# Elastic Constant Matrix: (Units=GPa)
#
#
# Indices 1 2 3 4 5 6 
#
# 1 69.0893 14.5126 1.6416 -6.2720 3.0162 8.5272
# 2 14.5126 148.1218 41.8879 -7.9785 -2.2027 35.1710
# 3 1.6416 41.8879 77.0339 -2.0986 -13.4695 19.3722
# 4 -6.2720 -7.9785 -2.0986 39.8851 11.4473 2.8048
# 5 3.0162 -2.2027 -13.4695 11.4473 26.7937 -0.3622
# 6 8.5272 35.1710 19.3722 2.8048 -0.3622 29.4571
#
#
#
# Elastic Compliance Matrix: (Units=1/GPa)
#
#
# Indices 1 2 3 4 5 6 
#
# 1 0.015607 -0.000421 0.000677 0.003626 -0.003066 -0.004844
# 2 -0.000421 0.010330 -0.003312 0.003209 -0.002280 -0.010367
# 3 0.000677 -0.003312 0.018420 -0.001762 0.009555 -0.008070
# 4 0.003626 0.003209 -0.001762 0.030766 -0.014267 -0.006828
# 5 -0.003066 -0.002280 0.009555 -0.014267 0.048369 -0.000721
# 6 -0.004844 -0.010367 -0.008070 -0.006828 -0.000721 0.053676
#
#
# Mechanical properties :
#
#
# Convention : Reuss Voigt Hill
#
# Bulk Modulus (GPa) = 26.14694 45.59211 35.86953
# Shear Modulus (GPa) = 25.50656 34.97404 30.24030
#
# Velocity S-wave (km/s) = 3.27892 3.83952 3.57024
# Velocity P-wave (km/s) = 5.03550 6.23486 5.66700
#
# Compressibility (1/GPa) = 0.03824539
#
# Stress axis : x y z
#
# Youngs Moduli (GPa) = 64.07297 96.80923 54.28903
#
# Poissons Ratio (x) = 0.04073 -0.03675
# Poissons Ratio (y) = 0.02696 0.17980
# Poissons Ratio (z) = -0.04338 0.32063
#
# Static dielectric constant tensor:
#      x y z
#    x 1.867070 0.006530 -0.016980 
#    y 0.006530 1.947390 0.032670 
#    z -0.016980 0.032670 1.892670 
# 
# From -- ./inp_files/227488.got.cif
#   From: 2010.05.17/outbox.cif.g08.bks.cpg/sg2_114_cif.got.tgz:227488.got - 2010.06.03 11:33:40.
