data_PCOD9033984
_publ_section_title
;
Structure prediction by ZEFSAII (Michael W. Deem and Ramdas Pophale) SiO2 
 PCOD9033984
Probable space group: P -1
;
_chemical_formula_sum "Si O2"
_cell_formula_units_Z 16
_cell_length_a 4.968947
_cell_length_b 10.923571
_cell_length_c 19.246430
_cell_angle_alpha 32.523864
_cell_angle_beta 98.301791
_cell_angle_gamma 99.438534
_cell_volume 554.027130
_symmetry_space_group_name_H-M "P -1"
_symmetry_group_IT_number 2
_symmetry_cell_setting 'triclinic'
loop_
_space_group_symop_operation_xyz
x,y,z
-x,-y,-z
loop_
_atom_site_type_symbol
_atom_site_label
_atom_site_fract_x
_atom_site_fract_y
_atom_site_fract_z
Si Si1 0.534008 0.766315 0.966962
Si Si2 0.552557 0.698826 0.508149
Si Si3 0.899822 0.741520 0.105269
Si Si4 0.825237 0.605946 0.782772
Si Si5 0.660276 0.749207 0.232905
Si Si6 0.871154 0.081405 0.527848
Si Si7 0.897464 0.236908 0.647642
Si Si8 0.867193 0.259354 0.144354
O O1 0.831306 0.748836 0.016940
O O2 0.366613 0.562769 0.098010
O O3 0.439946 0.757118 0.888885
O O4 0.445538 0.003253 0.880076
O O5 0.527423 0.425207 0.643418
O O6 0.858528 0.807839 0.475080
O O7 0.398635 0.777457 0.395388
O O8 0.357971 0.751435 0.540964
O O9 0.671381 0.697346 0.176408
O O10 0.085316 0.530120 0.216023
O O11 0.000000 0.000000 0.000000
O O12 0.091124 0.700260 0.792178
O O13 0.698783 0.843130 0.654956
O O14 0.963939 0.753484 0.274880
O O15 0.000000 0.000000 0.500000
O O16 0.000000 0.500000 0.500000
O O17 0.005183 0.982245 0.753143
O O18 0.000000 0.500000 0.000000
#
# Coordination Sequence:
#
# PCOD9033984 Si02
#       8
#     2   2   2   2   2   2   2   2
#     4  10  23  42  70  96 139 178 230 298 358 423
#     4  11  25  47  72 103 141 190 238 293 353 428
#     4  12  25  40  63 105 137 182 232 289 365 429
#     4  11  24  42  68  97 140 179 230 296 356 430
#     4  10  22  44  70  98 138 179 240 292 355 426
#     4  12  27  44  70 105 143 187 239 288 357 429
#     4   9  19  42  71  98 136 183 236 295 351 424
#     4   9  19  40  68  99 134 177 236 289 358 422
#
# _framework density 28.879451
#
# number of rings (size 3 to 8) (size 9 to 14) (size 15 to 20)
#    0.000    1.500    2.500    1.500    3.500    1.500 
#    2.250    5.625    0.000    0.000    0.000    0.000 
#    0.000    0.000    0.000    0.000    0.000    0.000 
#
# Total GULP energy -89383.418681 kJ/mol
# GULP energy per Si atom -5586.463668 kJ/mol
# Density = 2.881372 g / cm^3
# Si number density = 28.879451 Si / 1000 Ang^3
#
#
#
# Elastic Constant Matrix: (Units=GPa)
#
#
# Indices 1 2 3 4 5 6 
#
# 1 105.3868 28.4219 34.0240 -17.0700 6.0831 15.9807
# 2 28.4219 119.0227 22.4529 -19.5508 8.6653 17.9274
# 3 34.0240 22.4529 175.4748 -43.0669 -14.8103 6.1010
# 4 -17.0700 -19.5508 -43.0669 57.7229 -1.6590 10.6587
# 5 6.0831 8.6653 -14.8103 -1.6590 46.3350 -0.6760
# 6 15.9807 17.9274 6.1010 10.6587 -0.6760 37.6571
#
#
#
# Elastic Compliance Matrix: (Units=1/GPa)
#
#
# Indices 1 2 3 4 5 6 
#
# 1 0.011560 -0.001156 -0.001356 0.002887 -0.001704 -0.004984
# 2 -0.001156 0.010333 -0.000038 0.004118 -0.001727 -0.005619
# 3 -0.001356 -0.000038 0.007718 0.005843 0.002828 -0.002260
# 4 0.002887 0.004118 0.005843 0.026097 0.001485 -0.011492
# 5 -0.001704 -0.001727 0.002828 0.001485 0.023102 0.001082
# 6 -0.004984 -0.005619 -0.002260 -0.011492 0.001082 0.034984
#
#
# Mechanical properties :
#
#
# Convention : Reuss Voigt Hill
#
# Bulk Modulus (GPa) = 40.79503 63.29799 52.04651
# Shear Modulus (GPa) = 39.35045 49.34202 44.34623
#
# Velocity S-wave (km/s) = 3.69531 4.13795 3.92288
# Velocity P-wave (km/s) = 5.68892 6.69296 6.21126
#
# Compressibility (1/GPa) = 0.02451279
#
# Stress axis : x y z
#
# Youngs Moduli (GPa) = 86.50617 96.77283 129.56867
#
# Poissons Ratio (x) = 0.11185 0.17564
# Poissons Ratio (y) = 0.09998 0.00491
# Poissons Ratio (z) = 0.11726 0.00367
#
# Static dielectric constant tensor:
#      x y z
#    x 2.310250 0.015170 0.022430 
#    y 0.015170 2.292230 0.097780 
#    z 0.022430 0.097780 2.326320 
# 
# From -- ./inp_files/583215.got.cif
#   From: 2010.05.17/outbox.cif.g08.bks.cpg/sg2_292_cif.got.tgz:583215.got - 2010.06.03 11:33:40.
