data_PCOD9033250
_publ_section_title
;
Structure prediction by ZEFSAII (Michael W. Deem and Ramdas Pophale) SiO2 
 PCOD9033250
Probable space group: P -1
;
_chemical_formula_sum "Si O2"
_cell_formula_units_Z 14
_cell_length_a 14.668197
_cell_length_b 8.747113
_cell_length_c 6.754756
_cell_angle_alpha 83.956581
_cell_angle_beta 54.131364
_cell_angle_gamma 111.726163
_cell_volume 589.654671
_symmetry_space_group_name_H-M "P -1"
_symmetry_group_IT_number 2
_symmetry_cell_setting 'triclinic'
loop_
_space_group_symop_operation_xyz
x,y,z
-x,-y,-z
loop_
_atom_site_type_symbol
_atom_site_label
_atom_site_fract_x
_atom_site_fract_y
_atom_site_fract_z
Si Si1 0.693708 0.296101 0.026872
Si Si2 0.083371 0.335571 0.181929
Si Si3 0.819114 0.885748 0.167591
Si Si4 0.937389 0.741739 0.313018
Si Si5 0.485016 0.316525 0.485465
Si Si6 0.823260 0.328902 0.432359
Si Si7 0.536022 0.080946 0.719645
O O1 0.588130 0.358792 0.169977
O O2 0.583990 0.084586 0.231258
O O3 0.814199 0.445232 0.987493
O O4 0.762056 0.303335 0.734387
O O5 0.068866 0.288357 0.440745
O O6 0.941352 0.292555 0.294579
O O7 0.140838 0.225962 0.017406
O O8 0.850780 0.826023 0.344019
O O9 0.667076 0.821817 0.358488
O O10 0.915510 0.097218 0.961615
O O11 0.884579 0.546903 0.300973
O O12 0.500000 0.500000 0.500000
O O13 0.523374 0.246526 0.640803
O O14 0.695921 0.175940 0.491439
O O15 0.500000 0.000000 0.000000
#
# Coordination Sequence:
#
# PCOD9033250 Si02
#       7
#     2   2   2   2   2   2   2
#     4  10  22  44  67 100 131 180 225 283 341 400
#     4  11  23  45  72  98 138 175 232 287 340 405
#     4  11  25  42  67 102 136 184 221 283 351 411
#     4  10  23  44  64 103 136 177 234 274 349 406
#     4  12  24  44  68  97 143 175 230 281 346 412
#     4  10  23  44  70  98 133 175 233 282 337 404
#     4  10  24  44  68 102 136 182 231 278 346 415
#
# _framework density 23.742709999999999
#
# number of rings (size 3 to 8) (size 9 to 14) (size 15 to 20)
#    0.000    1.429    1.429    3.429    6.000    2.857 
#    7.714    4.286    0.000    0.000    0.000    0.000 
#    0.000    0.000    0.000    0.000    0.000    0.000 
#
# Total GULP energy -78137.915103 kJ/mol
# GULP energy per Si atom -5581.279650 kJ/mol
# Density = 2.368867 g / cm^3
# Si number density = 23.742710 Si / 1000 Ang^3
#
#
#
# Elastic Constant Matrix: (Units=GPa)
#
#
# Indices 1 2 3 4 5 6 
#
# 1 120.0692 4.7073 54.8855 -13.8253 -34.0783 14.6705
# 2 4.7073 102.7798 29.6435 -13.1290 -5.4203 21.0315
# 3 54.8855 29.6435 143.0619 -10.5181 -19.6611 8.9454
# 4 -13.8253 -13.1290 -10.5181 49.3376 -0.6385 -10.6774
# 5 -34.0783 -5.4203 -19.6611 -0.6385 59.3653 -7.0119
# 6 14.6705 21.0315 8.9454 -10.6774 -7.0119 29.4219
#
#
#
# Elastic Compliance Matrix: (Units=1/GPa)
#
#
# Indices 1 2 3 4 5 6 
#
# 1 0.012433 0.002049 -0.003997 0.002320 0.005518 -0.004292
# 2 0.002049 0.012327 -0.002645 0.001482 0.000451 -0.008384
# 3 -0.003997 -0.002645 0.009104 0.000435 0.000652 0.001429
# 4 0.002320 0.001482 0.000435 0.022863 0.002634 0.006577
# 5 0.005518 0.000451 0.000652 0.002634 0.020605 0.002594
# 6 -0.004292 -0.008384 0.001429 0.006577 0.002594 0.044691
#
#
# Mechanical properties :
#
#
# Convention : Reuss Voigt Hill
#
# Bulk Modulus (GPa) = 40.52276 60.48705 50.50490
# Shear Modulus (GPa) = 35.85876 46.06995 40.96436
#
# Velocity S-wave (km/s) = 3.89048 4.40976 4.15823
# Velocity P-wave (km/s) = 6.10620 7.17351 6.66127
#
# Compressibility (1/GPa) = 0.02467749
#
# Stress axis : x y z
#
# Youngs Moduli (GPa) = 80.43018 81.12092 109.84343
#
# Poissons Ratio (x) = -0.16622 0.43907
# Poissons Ratio (y) = -0.16480 0.29055
# Poissons Ratio (z) = 0.32150 0.21458
#
# Static dielectric constant tensor:
#      x y z
#    x 1.224480 -0.327560 -0.842210 
#    y -0.327560 1.745110 -0.479960 
#    z -0.842210 -0.479960 0.826430 
# 
# From -- ./inp_files/294750.got.cif
#   From: 2010.05.17/outbox.cif.g08.bks.cpg/sg2_148_cif.got.tgz:294750.got - 2010.06.03 11:33:40.
