data_PCOD9033031
_publ_section_title
;
Structure prediction by ZEFSAII (Michael W. Deem and Ramdas Pophale) SiO2 
 PCOD9033031
Probable space group: P -1
;
_chemical_formula_sum "Si O2"
_cell_formula_units_Z 14
_cell_length_a 8.958173
_cell_length_b 10.673391
_cell_length_c 10.426301
_cell_angle_alpha 118.026610
_cell_angle_beta 67.866918
_cell_angle_gamma 140.091026
_cell_volume 564.342858
_symmetry_space_group_name_H-M "P -1"
_symmetry_group_IT_number 2
_symmetry_cell_setting 'triclinic'
loop_
_space_group_symop_operation_xyz
x,y,z
-x,-y,-z
loop_
_atom_site_type_symbol
_atom_site_label
_atom_site_fract_x
_atom_site_fract_y
_atom_site_fract_z
Si Si1 0.498643 0.790648 0.449572
Si Si2 0.931177 0.191421 0.614331
Si Si3 0.210223 0.630506 0.096216
Si Si4 0.906051 0.742108 0.939426
Si Si5 0.437135 0.471663 0.654478
Si Si6 0.660244 0.842186 0.932686
Si Si7 0.830828 0.178004 0.366223
O O1 0.466155 0.606122 0.344222
O O2 0.274430 0.730986 0.545265
O O3 0.605960 0.937902 0.361317
O O4 0.708334 0.945864 0.560285
O O5 0.157113 0.290016 0.665963
O O6 0.848171 0.289224 0.741421
O O7 0.992266 0.250515 0.472280
O O8 0.216886 0.475127 0.073411
O O9 0.460194 0.815231 0.040539
O O10 0.000000 0.500000 0.000000
O O11 0.049235 0.788412 0.787201
O O12 0.745652 0.773862 0.971482
O O13 0.105986 0.923060 0.059724
O O14 0.500000 0.500000 0.500000
O O15 0.542548 0.680567 0.778981
#
# Coordination Sequence:
#
# PCOD9033031 Si02
#       7
#     2   2   2   2   2   2   2
#     4   9  22  40  69 100 138 171 228 290 335 406
#     4  10  22  44  65 101 132 181 227 276 351 401
#     4  12  26  46  71 103 141 184 227 285 354 413
#     4  11  26  47  75  98 142 182 234 293 333 421
#     4  12  25  41  66 102 140 181 225 284 346 415
#     4  11  27  47  66 107 136 185 237 277 352 408
#     4   9  21  43  72 104 125 181 235 279 348 389
#
# _framework density 24.807614000000001
#
# number of rings (size 3 to 8) (size 9 to 14) (size 15 to 20)
#    0.857    0.571    1.429    2.571    4.000    4.571 
#    0.000    0.000    0.000    0.000    0.000    0.000 
#    0.000    0.000    0.000    0.000    0.000    0.000 
#
# Total GULP energy -78401.450355 kJ/mol
# GULP energy per Si atom -5600.103597 kJ/mol
# Density = 2.475115 g / cm^3
# Si number density = 24.807614 Si / 1000 Ang^3
#
#
#
# Elastic Constant Matrix: (Units=GPa)
#
#
# Indices 1 2 3 4 5 6 
#
# 1 81.4677 17.9915 2.0226 -3.8565 -11.1022 23.7835
# 2 17.9915 66.2888 13.3010 1.6573 -0.8079 13.2368
# 3 2.0226 13.3010 80.9384 12.1922 7.1486 13.6885
# 4 -3.8565 1.6573 12.1922 28.1294 1.3991 -3.1061
# 5 -11.1022 -0.8079 7.1486 1.3991 33.4758 7.9392
# 6 23.7835 13.2368 13.6885 -3.1061 7.9392 43.2997
#
#
#
# Elastic Compliance Matrix: (Units=1/GPa)
#
#
# Indices 1 2 3 4 5 6 
#
# 1 0.016874 -0.002671 0.000967 0.000550 0.007705 -0.010131
# 2 -0.002671 0.016910 -0.002105 -0.000846 0.000776 -0.003240
# 3 0.000967 -0.002105 0.014580 -0.006509 -0.001458 -0.004697
# 4 0.000550 -0.000846 -0.006509 0.039119 -0.001282 0.005056
# 5 0.007705 0.000776 -0.001458 -0.001282 0.035320 -0.010577
# 6 -0.010131 -0.003240 -0.004697 0.005056 -0.010577 0.033437
#
#
# Mechanical properties :
#
#
# Convention : Reuss Voigt Hill
#
# Bulk Modulus (GPa) = 24.54118 32.81391 28.67754
# Shear Modulus (GPa) = 28.17847 34.00630 31.09238
#
# Velocity S-wave (km/s) = 3.37394 3.70645 3.54410
# Velocity P-wave (km/s) = 5.00919 5.61899 5.32283
#
# Compressibility (1/GPa) = 0.04074784
#
# Stress axis : x y z
#
# Youngs Moduli (GPa) = 59.26141 59.13525 68.58498
#
# Poissons Ratio (x) = 0.15793 -0.06634
# Poissons Ratio (y) = 0.15827 0.14439
# Poissons Ratio (z) = -0.05733 0.12450
#
# Static dielectric constant tensor:
#      x y z
#    x 1.956130 0.014130 0.052110 
#    y 0.014130 1.957920 0.031650 
#    z 0.052110 0.031650 1.944390 
# 
# From -- ./inp_files/391016.got.cif
#   From: 2010.05.17/outbox.cif.g08.bks.cpg/sg2_196_cif.got.tgz:391016.got - 2010.06.03 11:33:40.
