data_PCOD9033509
_publ_section_title
;
Structure prediction by ZEFSAII (Michael W. Deem and Ramdas Pophale) SiO2 
 PCOD9033509
Probable space group: P -1
;
_chemical_formula_sum "Si O2"
_cell_formula_units_Z 16
_cell_length_a 21.932745
_cell_length_b 9.438746
_cell_length_c 20.878977
_cell_angle_alpha 142.518330
_cell_angle_beta 17.476751
_cell_angle_gamma 145.502872
_cell_volume 734.479663
_symmetry_space_group_name_H-M "P -1"
_symmetry_group_IT_number 2
_symmetry_cell_setting 'triclinic'
loop_
_space_group_symop_operation_xyz
x,y,z
-x,-y,-z
loop_
_atom_site_type_symbol
_atom_site_label
_atom_site_fract_x
_atom_site_fract_y
_atom_site_fract_z
Si Si1 0.645488 0.874034 0.572016
Si Si2 0.894317 0.255961 0.560618
Si Si3 0.602665 0.963229 0.505636
Si Si4 0.683536 0.277658 0.914380
Si Si5 0.868458 0.481554 0.191547
Si Si6 0.756130 0.596232 0.151454
Si Si7 0.537547 0.439486 0.689981
Si Si8 0.998730 0.873126 0.386150
O O1 0.652600 0.014727 0.548842
O O2 0.814967 0.729915 0.345244
O O3 0.411897 0.652624 0.735149
O O4 0.701281 0.061596 0.642511
O O5 0.807358 0.316811 0.737050
O O6 0.000000 0.500000 0.500000
O O7 0.050382 0.101944 0.367091
O O8 0.363179 0.746259 0.661680
O O9 0.765909 0.839929 0.269146
O O10 0.601252 0.203950 0.556557
O O11 0.839080 0.271291 0.815745
O O12 0.575119 0.479678 0.108191
O O13 0.500000 0.000000 0.000000
O O14 0.000000 0.500000 0.000000
O O15 0.011743 0.431092 0.086832
O O16 0.634209 0.611655 0.213846
O O17 0.758234 0.677231 0.541101
O O18 0.000000 0.000000 0.500000
#
# Coordination Sequence:
#
# PCOD9033509 Si02
#       8
#     2   2   2   2   2   2   2   2
#     4  11  22  42  66  94 135 177 215 274 345 393
#     4  11  25  44  69 102 133 173 229 280 332 395
#     4  11  25  39  66  99 136 168 223 280 334 401
#     4  11  23  45  68  95 136 183 225 269 334 404
#     4  11  21  41  68  94 131 176 218 275 340 398
#     4  11  22  44  66  96 133 173 223 274 333 411
#     4  12  25  42  70 100 133 182 226 272 338 401
#     4  10  22  44  68  90 138 178 219 275 343 387
#
# _framework density 21.784130000000001
#
# number of rings (size 3 to 8) (size 9 to 14) (size 15 to 20)
#    0.000    1.000    6.250    1.125    5.250    2.500 
#    0.000    1.250    0.000    0.000    0.000    0.000 
#    0.000    0.000    0.000    0.000    0.000    0.000 
#
# Total GULP energy -89472.709946 kJ/mol
# GULP energy per Si atom -5592.044372 kJ/mol
# Density = 2.173455 g / cm^3
# Si number density = 21.784130 Si / 1000 Ang^3
#
#
#
# Elastic Constant Matrix: (Units=GPa)
#
#
# Indices 1 2 3 4 5 6 
#
# 1 114.0501 27.0316 11.9705 2.5392 -19.5564 -15.8043
# 2 27.0316 81.9647 12.2090 10.6091 -2.4564 -25.8436
# 3 11.9705 12.2090 70.1977 3.2777 -13.8640 -8.8009
# 4 2.5392 10.6091 3.2777 12.9313 -2.6717 -0.1356
# 5 -19.5564 -2.4564 -13.8640 -2.6717 39.9614 2.6512
# 6 -15.8043 -25.8436 -8.8009 -0.1356 2.6512 33.5371
#
#
#
# Elastic Compliance Matrix: (Units=1/GPa)
#
#
# Indices 1 2 3 4 5 6 
#
# 1 0.010575 -0.002691 -0.000113 0.001196 0.004885 0.002499
# 2 -0.002691 0.019461 -0.000968 -0.015545 -0.002398 0.013601
# 3 -0.000113 -0.000968 0.015905 -0.002137 0.005063 0.002965
# 4 0.001196 -0.015545 -0.002137 0.091465 0.005803 -0.012065
# 5 0.004885 -0.002398 0.005063 0.005803 0.029447 -0.000522
# 6 0.002499 0.013601 0.002965 -0.012065 -0.000522 0.042246
#
#
# Mechanical properties :
#
#
# Convention : Reuss Voigt Hill
#
# Bulk Modulus (GPa) = 26.04510 40.95942 33.50226
# Shear Modulus (GPa) = 21.79195 31.61936 26.70565
#
# Velocity S-wave (km/s) = 3.16628 3.81397 3.50512
# Velocity P-wave (km/s) = 5.03478 6.18372 5.63859
#
# Compressibility (1/GPa) = 0.03839493
#
# Stress axis : x y z
#
# Youngs Moduli (GPa) = 94.56229 51.38553 62.87409
#
# Poissons Ratio (x) = 0.13829 0.00711
# Poissons Ratio (y) = 0.25450 0.06089
# Poissons Ratio (z) = 0.01069 0.04976
#
# Static dielectric constant tensor:
#      x y z
#    x 1.834040 0.010460 0.001610 
#    y 0.010460 1.750920 0.005890 
#    z 0.001610 0.005890 1.820880 
# 
# From -- ./inp_files/601219.got.cif
#   From: 2010.05.17/outbox.cif.g08.bks.cpg/sg2_301_cif.got.tgz:601219.got - 2010.06.03 11:33:40.
