data_PCOD9033730
_publ_section_title
;
Structure prediction by ZEFSAII (Michael W. Deem and Ramdas Pophale) SiO2 
 PCOD9033730
Probable space group: P -1
;
_chemical_formula_sum "Si O2"
_cell_formula_units_Z 16
_cell_length_a 11.933887
_cell_length_b 16.225144
_cell_length_c 9.979406
_cell_angle_alpha 78.469387
_cell_angle_beta 42.509581
_cell_angle_gamma 44.788671
_cell_volume 675.199191
_symmetry_space_group_name_H-M "P -1"
_symmetry_group_IT_number 2
_symmetry_cell_setting 'triclinic'
loop_
_space_group_symop_operation_xyz
x,y,z
-x,-y,-z
loop_
_atom_site_type_symbol
_atom_site_label
_atom_site_fract_x
_atom_site_fract_y
_atom_site_fract_z
Si Si1 0.630309 0.526534 0.302424
Si Si2 0.708415 0.967127 0.732217
Si Si3 0.045450 0.901270 0.683814
Si Si4 0.059111 0.358184 0.735049
Si Si5 0.956369 0.119105 0.021627
Si Si6 0.159997 0.637481 0.327016
Si Si7 0.644243 0.063793 0.495928
Si Si8 0.212241 0.477420 0.565051
O O1 0.500000 0.500000 0.500000
O O2 0.352164 0.711471 0.454978
O O3 0.851504 0.472217 0.239698
O O4 0.799707 0.436524 0.042598
O O5 0.825446 0.989827 0.720979
O O6 0.010897 0.787609 0.465102
O O7 0.514612 0.073954 0.736622
O O8 0.500000 0.000000 0.000000
O O9 0.904742 0.924519 0.939485
O O10 0.156062 0.946757 0.609756
O O11 0.377453 0.212256 0.585806
O O12 0.027989 0.471223 0.696491
O O13 0.054792 0.310270 0.616681
O O14 0.589017 0.298319 0.286634
O O15 0.000000 0.000000 0.000000
O O16 0.130791 0.085603 0.753432
O O17 0.156948 0.575012 0.476126
O O18 0.500000 0.500000 0.000000
#
# Coordination Sequence:
#
# PCOD9033730 Si02
#       8
#     2   2   2   2   2   2   2   2
#     4  11  23  40  69 100 139 179 222 284 357 415
#     4  12  29  45  66 103 141 185 232 287 346 411
#     4  10  22  44  69  95 135 179 228 280 344 412
#     4  12  25  43  72 105 131 180 239 286 341 415
#     4   9  18  39  69 100 132 166 222 272 347 395
#     4  12  28  49  66 101 145 189 229 283 361 414
#     4  11  24  44  71 100 134 179 231 286 343 415
#     4  11  22  43  73 101 136 179 234 288 330 420
#
# _framework density 23.696709999999999
#
# number of rings (size 3 to 8) (size 9 to 14) (size 15 to 20)
#    0.000    1.000    3.750    4.125    5.250    1.500 
#    0.000    2.500    0.000    0.000    0.000    0.000 
#    0.000    0.000    0.000    0.000    0.000    0.000 
#
# Total GULP energy -89492.546218 kJ/mol
# GULP energy per Si atom -5593.284139 kJ/mol
# Density = 2.364278 g / cm^3
# Si number density = 23.696710 Si / 1000 Ang^3
#
#
#
# Elastic Constant Matrix: (Units=GPa)
#
#
# Indices 1 2 3 4 5 6 
#
# 1 107.9744 1.1641 -4.7088 -8.7534 18.9348 -18.7541
# 2 1.1641 60.6808 -5.2728 -17.4042 9.3838 -19.1649
# 3 -4.7088 -5.2728 69.9148 -10.8834 18.3810 -7.5791
# 4 -8.7534 -17.4042 -10.8834 37.9134 1.4357 10.4376
# 5 18.9348 9.3838 18.3810 1.4357 35.0596 -12.3221
# 6 -18.7541 -19.1649 -7.5791 10.4376 -12.3221 36.0793
#
#
#
# Elastic Compliance Matrix: (Units=1/GPa)
#
#
# Indices 1 2 3 4 5 6 
#
# 1 0.012355 0.004806 0.004939 0.005310 -0.008848 0.005454
# 2 0.004806 0.025735 0.008178 0.012757 -0.010573 0.010584
# 3 0.004939 0.008178 0.021306 0.010765 -0.015409 0.003010
# 4 0.005310 0.012757 0.010765 0.038339 -0.015055 -0.004435
# 5 -0.008848 -0.010573 -0.015409 -0.015055 0.047308 0.007060
# 6 0.005454 0.010584 0.003010 -0.004435 0.007060 0.040500
#
#
# Mechanical properties :
#
#
# Convention : Reuss Voigt Hill
#
# Bulk Modulus (GPa) = 10.49979 24.54833 17.52406
# Shear Modulus (GPa) = 27.55652 38.30297 32.92974
#
# Velocity S-wave (km/s) = 3.41381 4.02479 3.73182
# Velocity P-wave (km/s) = 4.46982 5.65512 5.09705
#
# Compressibility (1/GPa) = 0.09523999
#
# Stress axis : x y z
#
# Youngs Moduli (GPa) = 80.94209 38.85751 46.93578
#
# Poissons Ratio (x) = -0.18675 -0.23180
# Poissons Ratio (y) = -0.38901 -0.38383
# Poissons Ratio (z) = -0.39975 -0.31776
#
# Static dielectric constant tensor:
#      x y z
#    x 1.913860 0.020990 -0.041500 
#    y 0.020990 1.948770 -0.031450 
#    z -0.041500 -0.031450 1.977050 
# 
# From -- ./inp_files/279368.got.cif
#   From: 2010.05.17/outbox.cif.g08.bks.cpg/sg2_140_cif.got.tgz:279368.got - 2010.06.03 11:33:40.
