data_PCOD9033516
_publ_section_title
;
Structure prediction by ZEFSAII (Michael W. Deem and Ramdas Pophale) SiO2 
 PCOD9033516
Probable space group: P -1
;
_chemical_formula_sum "Si O2"
_cell_formula_units_Z 11
_cell_length_a 10.218466
_cell_length_b 16.365816
_cell_length_c 12.582738
_cell_angle_alpha 21.257874
_cell_angle_beta 37.130858
_cell_angle_gamma 35.783821
_cell_volume 437.591451
_symmetry_space_group_name_H-M "P -1"
_symmetry_group_IT_number 2
_symmetry_cell_setting 'triclinic'
loop_
_space_group_symop_operation_xyz
x,y,z
-x,-y,-z
loop_
_atom_site_type_symbol
_atom_site_label
_atom_site_fract_x
_atom_site_fract_y
_atom_site_fract_z
Si Si1 0.884197 0.189681 0.931749
Si Si2 0.892471 0.782398 0.708211
Si Si3 0.670839 0.155932 0.562639
Si Si4 0.500000 0.000000 0.500000
Si Si5 0.761299 0.564927 0.865213
Si Si6 0.173462 0.331805 0.737036
O O1 0.840617 0.442138 0.600339
O O2 0.046940 0.176778 0.942461
O O3 0.655402 0.142977 0.169636
O O4 0.000000 0.000000 0.000000
O O5 0.766148 0.793036 0.663514
O O6 0.107633 0.877776 0.465099
O O7 0.717462 0.926415 0.735200
O O8 0.000000 0.500000 0.000000
O O9 0.443964 0.210257 0.712589
O O10 0.680663 0.373010 0.214968
O O11 0.612060 0.740351 0.662183
O O12 0.015693 0.433551 0.818059
#
# Coordination Sequence:
#
# PCOD9033516 Si02
#       6
#     2   2   2   1   2   2
#     4  11  25  41  60  98 135 174 214 262 323 388
#     4   9  22  44  67  94 126 172 220 261 334 380
#     4  10  22  44  68  92 132 172 212 276 319 383
#     4  12  24  42  68  94 138 176 210 266 324 388
#     4  11  24  39  67 101 129 173 217 263 323 386
#     4  11  25  40  65  99 132 169 222 264 324 383
#
# _framework density 25.137602999999999
#
# number of rings (size 3 to 8) (size 9 to 14) (size 15 to 20)
#    0.000    1.455    3.636    0.000    5.091    1.455 
#    0.000    8.182    0.000    0.000    0.000    0.000 
#    0.000    0.000    0.000    0.000    0.000    0.000 
#
# Total GULP energy -61351.328656 kJ/mol
# GULP energy per Si atom -5577.393514 kJ/mol
# Density = 2.508039 g / cm^3
# Si number density = 25.137603 Si / 1000 Ang^3
#
#
#
# Elastic Constant Matrix: (Units=GPa)
#
#
# Indices 1 2 3 4 5 6 
#
# 1 82.2426 26.3111 38.2097 5.8978 -12.5510 4.9244
# 2 26.3111 193.5312 51.8192 16.2503 -19.2789 -4.5050
# 3 38.2097 51.8192 148.9555 -2.7640 18.5840 0.4318
# 4 5.8978 16.2503 -2.7640 56.6487 -13.7573 -10.2321
# 5 -12.5510 -19.2789 18.5840 -13.7573 53.1168 -8.9157
# 6 4.9244 -4.5050 0.4318 -10.2321 -8.9157 33.6814
#
#
#
# Elastic Compliance Matrix: (Units=1/GPa)
#
#
# Indices 1 2 3 4 5 6 
#
# 1 0.015113 -0.000415 -0.004306 -0.000797 0.004510 -0.001258
# 2 -0.000415 0.006306 -0.002493 -0.000868 0.003088 0.001490
# 3 -0.004306 -0.002493 0.009362 0.000094 -0.005378 -0.001219
# 4 -0.000797 -0.000868 0.000094 0.020951 0.006235 0.008014
# 5 0.004510 0.003088 -0.005378 0.006235 0.025951 0.008586
# 6 -0.001258 0.001490 -0.001219 0.008014 0.008586 0.034796
#
#
# Mechanical properties :
#
#
# Convention : Reuss Voigt Hill
#
# Bulk Modulus (GPa) = 61.15223 73.04549 67.09886
# Shear Modulus (GPa) = 37.77608 49.24865 43.51236
#
# Velocity S-wave (km/s) = 3.88077 4.43104 4.16500
# Velocity P-wave (km/s) = 6.66785 7.43641 7.06259
#
# Compressibility (1/GPa) = 0.01635263
#
# Stress axis : x y z
#
# Youngs Moduli (GPa) = 66.16720 158.57065 106.81877
#
# Poissons Ratio (x) = 0.06578 0.45999
# Poissons Ratio (y) = 0.02745 0.26632
# Poissons Ratio (z) = 0.28493 0.39535
#
# Static dielectric constant tensor:
#      x y z
#    x 0.945320 -0.169620 -0.035110 
#    y -0.169620 2.458740 -0.161200 
#    z -0.035110 -0.161200 2.006220 
# 
# From -- ./inp_files/21199.got.cif
#   From: 2010.05.17/outbox.cif.g08.bks.cpg/sg2_11_cif.got.tgz:21199.got - 2010.06.03 11:33:40.
