data_PCOD9033599
_publ_section_title
;
Structure prediction by ZEFSAII (Michael W. Deem and Ramdas Pophale) SiO2 
 PCOD9033599
Probable space group: P -1
;
_chemical_formula_sum "Si O2"
_cell_formula_units_Z 14
_cell_length_a 15.438840
_cell_length_b 10.458620
_cell_length_c 5.722276
_cell_angle_alpha 89.954022
_cell_angle_beta 80.312927
_cell_angle_gamma 142.411165
_cell_volume 541.575920
_symmetry_space_group_name_H-M "P -1"
_symmetry_group_IT_number 2
_symmetry_cell_setting 'triclinic'
loop_
_space_group_symop_operation_xyz
x,y,z
-x,-y,-z
loop_
_atom_site_type_symbol
_atom_site_label
_atom_site_fract_x
_atom_site_fract_y
_atom_site_fract_z
Si Si1 0.406047 0.761117 0.050541
Si Si2 0.193631 0.244084 0.611092
Si Si3 0.125185 0.434524 0.838172
Si Si4 0.906259 0.148235 0.313656
Si Si5 0.326349 0.320725 0.053798
Si Si6 0.821156 0.385780 0.594456
Si Si7 0.698315 0.978094 0.769987
O O1 0.263214 0.585022 0.951272
O O2 0.527875 0.802535 0.916593
O O3 0.319185 0.680518 0.332729
O O4 0.500000 0.000000 0.000000
O O5 0.124052 0.299981 0.696278
O O6 0.271933 0.330663 0.317262
O O7 0.082495 0.992340 0.663309
O O8 0.287194 0.325358 0.810734
O O9 0.156514 0.603264 0.689639
O O10 0.970757 0.261745 0.037117
O O11 0.743346 0.993473 0.481427
O O12 0.026619 0.367251 0.410366
O O13 0.258141 0.098863 0.114340
O O14 0.500000 0.500000 0.000000
O O15 0.779434 0.210274 0.753423
#
# Coordination Sequence:
#
# PCOD9033599 Si02
#       7
#     2   2   2   2   2   2   2
#     4   9  21  43  63  98 133 179 228 285 346 421
#     4  11  26  44  72 102 142 187 243 288 349 426
#     4  11  24  41  71  99 137 188 232 290 352 423
#     4  10  24  44  64 103 136 188 229 293 350 415
#     4  11  25  46  70 106 140 190 234 296 358 412
#     4  10  23  43  68 101 138 182 233 287 357 422
#     4  10  22  44  68  98 141 176 236 293 354 419
#
# _framework density 25.850484000000002
#
# number of rings (size 3 to 8) (size 9 to 14) (size 15 to 20)
#    0.000    1.714    0.000    2.143   10.000    4.571 
#   15.429    0.000    0.000    0.000    0.000    0.000 
#    0.000    0.000    0.000    0.000    0.000    0.000 
#
# Total GULP energy -78012.580292 kJ/mol
# GULP energy per Si atom -5572.327164 kJ/mol
# Density = 2.579165 g / cm^3
# Si number density = 25.850484 Si / 1000 Ang^3
#
#
#
# Elastic Constant Matrix: (Units=GPa)
#
#
# Indices 1 2 3 4 5 6 
#
# 1 99.8728 17.5681 56.9571 1.9931 -18.4926 -9.1079
# 2 17.5681 88.0703 15.9821 5.3941 -2.3956 -13.2972
# 3 56.9571 15.9821 146.3980 -8.0955 -30.6466 14.4082
# 4 1.9931 5.3941 -8.0955 38.2297 3.9963 -0.0849
# 5 -18.4926 -2.3956 -30.6466 3.9963 48.6099 -3.1167
# 6 -9.1079 -13.2972 14.4082 -0.0849 -3.1167 43.9572
#
#
#
# Elastic Compliance Matrix: (Units=1/GPa)
#
#
# Indices 1 2 3 4 5 6 
#
# 1 0.014214 -0.000953 -0.005499 -0.002007 0.002355 0.004623
# 2 -0.000953 0.012565 -0.001581 -0.002016 -0.000311 0.004096
# 3 -0.005499 -0.001581 0.010581 0.002321 0.004003 -0.004798
# 4 -0.002007 -0.002016 0.002321 0.027218 -0.001756 -0.001859
# 5 0.002355 -0.000311 0.004003 -0.001756 0.024171 0.000792
# 6 0.004623 0.004096 -0.004798 -0.001859 0.000792 0.026571
#
#
# Mechanical properties :
#
#
# Convention : Reuss Voigt Hill
#
# Bulk Modulus (GPa) = 46.95917 57.26174 52.11045
# Shear Modulus (GPa) = 36.10538 42.41494 39.26016
#
# Velocity S-wave (km/s) = 3.74130 4.05505 3.90133
# Velocity P-wave (km/s) = 6.07192 6.64257 6.36365
#
# Compressibility (1/GPa) = 0.02129510
#
# Stress axis : x y z
#
# Youngs Moduli (GPa) = 70.35317 79.58696 94.50787
#
# Poissons Ratio (x) = 0.07581 0.51970
# Poissons Ratio (y) = 0.06702 0.14941
# Poissons Ratio (z) = 0.38687 0.12582
#
# Static dielectric constant tensor:
#      x y z
#    x 2.097440 -0.043420 -0.021340 
#    y -0.043420 2.024060 0.105590 
#    z -0.021340 0.105590 2.235120 
# 
# From -- ./inp_files/109114.got.cif
#   From: 2010.05.17/outbox.cif.g08.bks.cpg/sg2_55_cif.got.tgz:109114.got - 2010.06.03 11:33:40.
