data_PCOD9033458
_publ_section_title
;
Structure prediction by ZEFSAII (Michael W. Deem and Ramdas Pophale) SiO2 
 PCOD9033458
Probable space group: P -1
;
_chemical_formula_sum "Si O2"
_cell_formula_units_Z 14
_cell_length_a 16.988801
_cell_length_b 8.798031
_cell_length_c 5.495041
_cell_angle_alpha 111.312052
_cell_angle_beta 125.875606
_cell_angle_gamma 61.540406
_cell_volume 580.993379
_symmetry_space_group_name_H-M "P -1"
_symmetry_group_IT_number 2
_symmetry_cell_setting 'triclinic'
loop_
_space_group_symop_operation_xyz
x,y,z
-x,-y,-z
loop_
_atom_site_type_symbol
_atom_site_label
_atom_site_fract_x
_atom_site_fract_y
_atom_site_fract_z
Si Si1 0.775175 0.495462 0.076440
Si Si2 0.428602 0.907713 0.951562
Si Si3 0.377030 0.390366 0.760010
Si Si4 0.730911 0.250857 0.517068
Si Si5 0.107476 0.033690 0.696438
Si Si6 0.976129 0.423066 0.657433
Si Si7 0.734045 0.819612 0.835170
O O1 0.657953 0.552474 0.995591
O O2 0.854126 0.456126 0.424082
O O3 0.794675 0.313395 0.870682
O O4 0.780529 0.649656 0.000130
O O5 0.350426 0.842748 0.610964
O O6 0.504598 0.731832 0.114991
O O7 0.500000 0.000000 0.000000
O O8 0.356583 0.041586 0.093419
O O9 0.335096 0.565322 0.626704
O O10 0.315659 0.259025 0.510568
O O11 0.814871 0.114647 0.416297
O O12 0.050563 0.229964 0.628597
O O13 0.187785 0.082485 0.053326
O O14 0.000000 0.000000 0.500000
O O15 0.000000 0.500000 0.500000
O O16 0.000000 0.500000 0.000000
#
# Coordination Sequence:
#
# PCOD9033458 Si02
#       7
#     2   2   2   2   2   2   2
#     4  11  23  44  70  99 141 187 237 302 355 438
#     4  11  22  44  69 103 138 186 230 295 363 434
#     4  11  22  44  71  96 141 189 236 291 365 424
#     4  10  26  46  66 105 142 180 244 294 358 434
#     4  11  24  46  70 104 144 187 242 304 365 435
#     4  12  27  48  77 105 142 197 250 301 370 442
#     4  10  22  44  68 102 138 181 244 295 353 438
#
# _framework density 24.09666
#
# number of rings (size 3 to 8) (size 9 to 14) (size 15 to 20)
#    0.000    1.143    2.857    2.571    4.000    1.143 
#   12.857    0.000    0.000    0.000    0.000    0.000 
#    0.000    0.000    0.000    0.000    0.000    0.000 
#
# Total GULP energy -78018.962274 kJ/mol
# GULP energy per Si atom -5572.783020 kJ/mol
# Density = 2.404182 g / cm^3
# Si number density = 24.096660 Si / 1000 Ang^3
#
#
#
# Elastic Constant Matrix: (Units=GPa)
#
#
# Indices 1 2 3 4 5 6 
#
# 1 82.6653 25.4877 35.9451 16.3778 36.7380 14.1145
# 2 25.4877 139.9539 56.0215 15.0573 6.3616 -19.5298
# 3 35.9451 56.0215 132.8935 16.3816 20.3601 -1.8465
# 4 16.3778 15.0573 16.3816 42.8318 1.3189 6.9904
# 5 36.7380 6.3616 20.3601 1.3189 41.4538 -1.4204
# 6 14.1145 -19.5298 -1.8465 6.9904 -1.4204 32.8423
#
#
#
# Elastic Compliance Matrix: (Units=1/GPa)
#
#
# Indices 1 2 3 4 5 6 
#
# 1 0.028903 -0.005150 -0.001446 -0.005410 -0.024473 -0.015472
# 2 -0.005150 0.010759 -0.003527 -0.002100 0.005023 0.009077
# 3 -0.001446 -0.003527 0.010099 -0.001869 -0.003100 -0.000645
# 4 -0.005410 -0.002100 -0.001869 0.027476 0.005001 -0.004661
# 5 -0.024473 0.005023 -0.003100 0.005001 0.046895 0.014294
# 6 -0.015472 0.009077 -0.000645 -0.004661 0.014294 0.044070
#
#
# Mechanical properties :
#
#
# Convention : Reuss Voigt Hill
#
# Bulk Modulus (GPa) = 33.87926 65.60237 49.74081
# Shear Modulus (GPa) = 25.21621 39.29613 32.25617
#
# Velocity S-wave (km/s) = 3.23841 4.04266 3.66268
# Velocity P-wave (km/s) = 5.29843 7.00533 6.21079
#
# Compressibility (1/GPa) = 0.02951658
#
# Stress axis : x y z
#
# Youngs Moduli (GPa) = 34.59849 92.94323 99.01778
#
# Poissons Ratio (x) = 0.47862 0.14314
# Poissons Ratio (y) = 0.17817 0.34926
# Poissons Ratio (z) = 0.05002 0.32783
#
# Static dielectric constant tensor:
#      x y z
#    x 1.851840 -0.015010 -0.067220 
#    y -0.015010 1.883580 -0.065190 
#    z -0.067220 -0.065190 1.796710 
# 
# From -- ./inp_files/107729.got.cif
#   From: 2010.05.17/outbox.cif.g08.bks.cpg/sg2_54_cif.got.tgz:107729.got - 2010.06.03 11:33:40.
