data_PCOD9033452
_publ_section_title
;
Structure prediction by ZEFSAII (Michael W. Deem and Ramdas Pophale) SiO2 
 PCOD9033452
Probable space group: P -1
;
_chemical_formula_sum "Si O2"
_cell_formula_units_Z 15
_cell_length_a 8.761854
_cell_length_b 10.141799
_cell_length_c 13.254242
_cell_angle_alpha 146.347585
_cell_angle_beta 90.438400
_cell_angle_gamma 77.281949
_cell_volume 602.128111
_symmetry_space_group_name_H-M "P -1"
_symmetry_group_IT_number 2
_symmetry_cell_setting 'triclinic'
loop_
_space_group_symop_operation_xyz
x,y,z
-x,-y,-z
loop_
_atom_site_type_symbol
_atom_site_label
_atom_site_fract_x
_atom_site_fract_y
_atom_site_fract_z
Si Si1 0.533977 0.457525 0.590858
Si Si2 0.679193 0.525452 0.810190
Si Si3 0.843540 0.378417 0.284184
Si Si4 0.477065 0.306537 0.795486
Si Si5 0.000000 0.000000 0.500000
Si Si6 0.794808 0.932288 0.646232
Si Si7 0.738783 0.852809 0.190351
Si Si8 0.033882 0.856765 0.074082
O O1 0.500000 0.500000 0.500000
O O2 0.637159 0.598384 0.740134
O O3 0.346947 0.570222 0.701041
O O4 0.650666 0.154060 0.404418
O O5 0.547536 0.393286 0.753277
O O6 0.663007 0.756759 0.032947
O O7 0.855187 0.297928 0.683780
O O8 0.845992 0.641057 0.495568
O O9 0.924998 0.137815 0.205568
O O10 0.926106 0.321926 0.137758
O O11 0.300627 0.287201 0.800719
O O12 0.614170 0.032538 0.657779
O O13 0.500000 0.500000 0.000000
O O14 0.915460 0.948117 0.569522
O O15 0.810368 0.112004 0.851410
O O16 0.925335 0.790894 0.117194
#
# Coordination Sequence:
#
# PCOD9033452 Si02
#       8
#     2   2   2   2   1   2   2   2
#     4  12  25  44  70 104 134 177 235 275 338 409
#     4  10  24  44  69  99 144 173 222 287 334 400
#     4  11  25  44  65 102 135 177 232 272 343 408
#     4   9  21  41  66  96 130 173 222 270 339 397
#     4  10  22  44  68 102 134 180 226 272 342 402
#     4  11  22  45  68  93 140 179 217 283 339 395
#     4  11  22  45  69 103 133 174 228 279 340 405
#     4  11  25  43  69 101 136 176 230 278 340 405
#
# _framework density 24.911640999999999
#
# number of rings (size 3 to 8) (size 9 to 14) (size 15 to 20)
#    0.000    1.333    2.667    2.000    3.733    1.067 
#    7.200   11.333    0.000    0.000    0.000    0.000 
#    0.000    0.000    0.000    0.000    0.000    0.000 
#
# Total GULP energy -83598.917023 kJ/mol
# GULP energy per Si atom -5573.261135 kJ/mol
# Density = 2.485494 g / cm^3
# Si number density = 24.911641 Si / 1000 Ang^3
#
#
#
# Elastic Constant Matrix: (Units=GPa)
#
#
# Indices 1 2 3 4 5 6 
#
# 1 69.0207 14.7534 4.3422 -10.3283 -6.7458 8.0050
# 2 14.7534 30.1298 9.5969 -0.4164 2.1341 -6.8197
# 3 4.3422 9.5969 70.1523 -5.5870 2.7160 -4.2904
# 4 -10.3283 -0.4164 -5.5870 22.9040 -0.5727 -1.4930
# 5 -6.7458 2.1341 2.7160 -0.5727 40.2975 -9.9846
# 6 8.0050 -6.8197 -4.2904 -1.4930 -9.9846 32.1639
#
#
#
# Elastic Compliance Matrix: (Units=1/GPa)
#
#
# Indices 1 2 3 4 5 6 
#
# 1 0.018880 -0.010775 0.000506 0.008123 0.002375 -0.005802
# 2 -0.010775 0.042383 -0.004813 -0.004612 -0.001203 0.010439
# 3 0.000506 -0.004813 0.015267 0.003916 -0.000399 0.000948
# 4 0.008123 -0.004612 0.003916 0.048276 0.002132 0.000425
# 5 0.002375 -0.001203 -0.000399 0.002132 0.027230 0.007652
# 6 -0.005802 0.010439 0.000948 0.000425 0.007652 0.037270
#
#
# Mechanical properties :
#
#
# Convention : Reuss Voigt Hill
#
# Bulk Modulus (GPa) = 21.56818 25.18753 23.37786
# Shear Modulus (GPa) = 21.28314 28.44711 24.86512
#
# Velocity S-wave (km/s) = 2.92609 3.38290 3.16275
# Velocity P-wave (km/s) = 4.48248 5.03898 4.76886
#
# Compressibility (1/GPa) = 0.04636461
#
# Stress axis : x y z
#
# Youngs Moduli (GPa) = 52.96510 23.59417 65.49980
#
# Poissons Ratio (x) = 0.25423 -0.03311
# Poissons Ratio (y) = 0.57071 0.31528
# Poissons Ratio (z) = -0.02678 0.11357
#
# Static dielectric constant tensor:
#      x y z
#    x 2.002230 0.037690 0.011860 
#    y 0.037690 2.010180 -0.035400 
#    z 0.011860 -0.035400 1.949170 
# 
# From -- ./inp_files/501183.got.cif
#   From: 2010.05.17/outbox.cif.g08.bks.cpg/sg2_251_cif.got.tgz:501183.got - 2010.06.03 11:33:40.
