data_PCOD9033904
_publ_section_title
;
Structure prediction by ZEFSAII (Michael W. Deem and Ramdas Pophale) SiO2 
 PCOD9033904
Probable space group: P -1
;
_chemical_formula_sum "Si O2"
_cell_formula_units_Z 16
_cell_length_a 9.020758
_cell_length_b 19.850153
_cell_length_c 11.556266
_cell_angle_alpha 31.948007
_cell_angle_beta 38.054076
_cell_angle_gamma 49.289741
_cell_volume 674.141140
_symmetry_space_group_name_H-M "P -1"
_symmetry_group_IT_number 2
_symmetry_cell_setting 'triclinic'
loop_
_space_group_symop_operation_xyz
x,y,z
-x,-y,-z
loop_
_atom_site_type_symbol
_atom_site_label
_atom_site_fract_x
_atom_site_fract_y
_atom_site_fract_z
Si Si1 0.356240 0.110566 0.796483
Si Si2 0.963984 0.774576 0.353065
Si Si3 0.964581 0.108585 0.629681
Si Si4 0.365766 0.587031 0.303596
Si Si5 0.244273 0.328300 0.878104
Si Si6 0.426415 0.432763 0.022337
Si Si7 0.256954 0.052065 0.317194
Si Si8 0.241070 0.683177 0.687750
O O1 0.517395 0.230659 0.567560
O O2 0.126027 0.167261 0.794875
O O3 0.534540 0.043330 0.695113
O O4 0.244878 0.999655 0.110114
O O5 0.008845 0.883959 0.260843
O O6 0.181166 0.682651 0.333231
O O7 0.744347 0.686554 0.666860
O O8 0.882257 0.249549 0.441681
O O9 0.192040 0.081193 0.448873
O O10 0.293630 0.440149 0.593149
O O11 0.618979 0.620508 0.164320
O O12 0.369594 0.605960 0.135730
O O13 0.332265 0.186584 0.013458
O O14 0.959244 0.305167 0.106290
O O15 0.294392 0.536354 0.874185
O O16 0.500000 0.500000 0.000000
O O17 0.000000 0.000000 0.500000
#
# Coordination Sequence:
#
# PCOD9033904 Si02
#       8
#     2   2   2   2   2   2   2   2
#     4  12  25  46  71 102 147 184 233 293 354 421
#     4  12  27  48  68 106 148 185 234 289 361 425
#     4  11  26  43  72 104 141 189 236 288 347 427
#     4  11  26  44  74 101 142 189 231 294 352 426
#     4  10  22  44  70 109 135 181 241 293 347 412
#     4  12  26  46  70 105 146 185 232 293 364 419
#     4  11  23  42  70 105 141 179 235 293 344 410
#     4  11  23  45  71 106 139 181 235 302 345 417
#
# _framework density 23.733900999999999
#
# number of rings (size 3 to 8) (size 9 to 14) (size 15 to 20)
#    0.000    0.750    5.000    3.000    5.250    3.000 
#    0.000    0.000    0.000    0.000    0.000    0.000 
#    0.000    0.000    0.000    0.000    0.000    0.000 
#
# Total GULP energy -89473.958480 kJ/mol
# GULP energy per Si atom -5592.122405 kJ/mol
# Density = 2.367988 g / cm^3
# Si number density = 23.733901 Si / 1000 Ang^3
#
#
#
# Elastic Constant Matrix: (Units=GPa)
#
#
# Indices 1 2 3 4 5 6 
#
# 1 44.6261 8.8761 7.3587 8.9778 1.0167 11.8378
# 2 8.8761 83.1844 16.8752 3.6529 11.3069 14.0180
# 3 7.3587 16.8752 131.8554 -5.3620 -5.3674 5.5894
# 4 8.9778 3.6529 -5.3620 42.8610 5.2058 9.8501
# 5 1.0167 11.3069 -5.3674 5.2058 28.3983 -3.8482
# 6 11.8378 14.0180 5.5894 9.8501 -3.8482 33.4747
#
#
#
# Elastic Compliance Matrix: (Units=1/GPa)
#
#
# Indices 1 2 3 4 5 6 
#
# 1 0.025522 -0.000901 -0.001180 -0.003544 -0.001150 -0.007540
# 2 -0.000901 0.014521 -0.001774 0.001124 -0.007189 -0.006623
# 3 -0.001180 -0.001774 0.008022 0.001231 0.001997 -0.000312
# 4 -0.003544 0.001124 0.001231 0.026702 -0.006064 -0.007977
# 5 -0.001150 -0.007189 0.001997 -0.006064 0.040903 0.009570
# 6 -0.007540 -0.006623 -0.000312 -0.007977 0.009570 0.038813
#
#
# Mechanical properties :
#
#
# Convention : Reuss Voigt Hill
#
# Bulk Modulus (GPa) = 24.78128 36.20952 30.49540
# Shear Modulus (GPa) = 28.46663 36.05054 32.25858
#
# Velocity S-wave (km/s) = 3.46700 3.90160 3.69070
# Velocity P-wave (km/s) = 5.14692 5.96541 5.57122
#
# Compressibility (1/GPa) = 0.04035304
#
# Stress axis : x y z
#
# Youngs Moduli (GPa) = 39.18244 68.86354 124.66373
#
# Poissons Ratio (x) = 0.06206 0.14714
# Poissons Ratio (y) = 0.03531 0.22119
# Poissons Ratio (z) = 0.04625 0.12219
#
# Static dielectric constant tensor:
#      x y z
#    x 1.956950 0.038090 -0.007070 
#    y 0.038090 1.941120 0.003210 
#    z -0.007070 0.003210 1.866510 
# 
# From -- ./inp_files/405229.got.cif
#   From: 2010.05.17/outbox.cif.g08.bks.cpg/sg2_203_cif.got.tgz:405229.got - 2010.06.03 11:33:40.
