data_PCOD9033817
_publ_section_title
;
Structure prediction by ZEFSAII (Michael W. Deem and Ramdas Pophale) SiO2 
 PCOD9033817
Probable space group: P -1
;
_chemical_formula_sum "Si O2"
_cell_formula_units_Z 15
_cell_length_a 14.918030
_cell_length_b 9.463727
_cell_length_c 18.594776
_cell_angle_alpha 138.412529
_cell_angle_beta 20.104832
_cell_angle_gamma 135.013740
_cell_volume 598.832818
_symmetry_space_group_name_H-M "P -1"
_symmetry_group_IT_number 2
_symmetry_cell_setting 'triclinic'
loop_
_space_group_symop_operation_xyz
x,y,z
-x,-y,-z
loop_
_atom_site_type_symbol
_atom_site_label
_atom_site_fract_x
_atom_site_fract_y
_atom_site_fract_z
Si Si1 0.640440 0.683582 0.085872
Si Si2 0.381971 0.294120 0.732500
Si Si3 0.093384 0.063965 0.533411
Si Si4 0.851120 0.493464 0.394105
Si Si5 0.066421 0.726895 0.133615
Si Si6 0.500000 0.500000 0.500000
Si Si7 0.154784 0.886024 0.970357
Si Si8 0.842152 0.411596 0.653374
O O1 0.510916 0.738133 0.280152
O O2 0.453675 0.527518 0.121035
O O3 0.728349 0.887481 0.052687
O O4 0.914662 0.579082 0.859584
O O5 0.618869 0.323005 0.509719
O O6 0.248423 0.523826 0.915488
O O7 0.146894 0.132178 0.833631
O O8 0.887820 0.141346 0.777253
O O9 0.248697 0.285597 0.480194
O O10 0.000000 0.000000 0.500000
O O11 0.190353 0.845786 0.412235
O O12 0.993764 0.522261 0.374457
O O13 0.759920 0.655662 0.339006
O O14 0.137900 0.855911 0.057200
O O15 0.324864 0.708160 0.734659
O O16 0.000000 0.500000 0.500000
#
# Coordination Sequence:
#
# PCOD9033817 Si02
#       8
#     2   2   2   2   2   1   2   2
#     4  12  25  45  71 104 148 187 238 307 363 431
#     4  11  24  44  69 104 149 187 243 294 364 436
#     4  10  24  46  73 103 141 191 239 299 360 427
#     4  11  25  46  70 102 146 190 239 299 363 434
#     4  11  24  43  73 108 143 192 247 294 360 439
#     4  10  22  44  70 100 150 182 238 296 354 428
#     4  11  27  42  74 112 142 197 242 299 365 432
#     4  11  24  46  71 102 140 187 245 297 367 423
#
# _framework density 25.048727
#
# number of rings (size 3 to 8) (size 9 to 14) (size 15 to 20)
#    0.000    1.067    2.667    3.200    7.467    1.600 
#    0.000    3.333    0.000    0.000    0.000    0.000 
#    0.000    0.000    0.000    0.000    0.000    0.000 
#
# Total GULP energy -83564.265793 kJ/mol
# GULP energy per Si atom -5570.951053 kJ/mol
# Density = 2.499172 g / cm^3
# Si number density = 25.048727 Si / 1000 Ang^3
#
#
#
# Elastic Constant Matrix: (Units=GPa)
#
#
# Indices 1 2 3 4 5 6 
#
# 1 117.7402 23.2743 16.7959 -17.8391 -0.1201 -19.1435
# 2 23.2743 94.6965 36.9787 -18.1579 -5.4064 -19.4290
# 3 16.7959 36.9787 110.0806 -17.3270 -12.8021 4.0601
# 4 -17.8391 -18.1579 -17.3270 38.9332 5.3623 7.8046
# 5 -0.1201 -5.4064 -12.8021 5.3623 31.3650 -11.4910
# 6 -19.1435 -19.4290 4.0601 7.8046 -11.4910 30.1750
#
#
#
# Elastic Compliance Matrix: (Units=1/GPa)
#
#
# Indices 1 2 3 4 5 6 
#
# 1 0.010113 -0.000158 -0.001152 0.002579 0.001425 0.006344
# 2 -0.000158 0.015544 -0.004764 0.002038 0.004715 0.011818
# 3 -0.001152 -0.004764 0.011768 0.003477 0.001257 -0.005803
# 4 0.002579 0.002038 0.003477 0.031970 -0.006747 -0.008357
# 5 0.001425 0.004715 0.001257 -0.006747 0.042288 0.021619
# 6 0.006344 0.011818 -0.005803 -0.008357 0.021619 0.055949
#
#
# Mechanical properties :
#
#
# Convention : Reuss Voigt Hill
#
# Bulk Modulus (GPa) = 39.56338 52.95724 46.26031
# Shear Modulus (GPa) = 26.56670 36.45919 31.51295
#
# Velocity S-wave (km/s) = 3.26022 3.81928 3.55077
# Velocity P-wave (km/s) = 5.47731 6.37470 5.94297
#
# Compressibility (1/GPa) = 0.02527590
#
# Stress axis : x y z
#
# Youngs Moduli (GPa) = 98.88627 64.33385 84.97592
#
# Poissons Ratio (x) = 0.01016 0.09792
# Poissons Ratio (y) = 0.01562 0.40484
# Poissons Ratio (z) = 0.11394 0.30649
#
# Static dielectric constant tensor:
#      x y z
#    x 2.116520 0.029630 -0.020090 
#    y 0.029630 2.000150 0.054630 
#    z -0.020090 0.054630 2.021420 
# 
# From -- ./inp_files/572894.got.cif
#   From: 2010.05.17/outbox.cif.g08.bks.cpg/sg2_287_cif.got.tgz:572894.got - 2010.06.03 11:33:40.
