data_PCOD9033807
_publ_section_title
;
Structure prediction by ZEFSAII (Michael W. Deem and Ramdas Pophale) SiO2 
 PCOD9033807
Probable space group: P -1
;
_chemical_formula_sum "Si O2"
_cell_formula_units_Z 10
_cell_length_a 13.432142
_cell_length_b 9.332839
_cell_length_c 5.074692
_cell_angle_alpha 132.802802
_cell_angle_beta 118.893378
_cell_angle_gamma 52.345772
_cell_volume 366.984584
_symmetry_space_group_name_H-M "P -1"
_symmetry_group_IT_number 2
_symmetry_cell_setting 'triclinic'
loop_
_space_group_symop_operation_xyz
x,y,z
-x,-y,-z
loop_
_atom_site_type_symbol
_atom_site_label
_atom_site_fract_x
_atom_site_fract_y
_atom_site_fract_z
Si Si1 0.005251 0.354343 0.067732
Si Si2 0.641776 0.613406 0.249425
Si Si3 0.493487 0.769808 0.749911
Si Si4 0.139943 0.830555 0.074822
Si Si5 0.730794 0.987381 0.880372
O O1 0.000000 0.500000 0.500000
O O2 0.899768 0.264351 0.837462
O O3 0.138159 0.144156 0.966666
O O4 0.000000 0.500000 0.000000
O O5 0.767980 0.403103 0.230916
O O6 0.401759 0.386303 0.104767
O O7 0.672422 0.819972 0.548467
O O8 0.528782 0.664133 0.375989
O O9 0.364954 0.830065 0.821643
O O10 0.500000 0.000000 0.000000
O O11 0.228077 0.948373 0.264370
O O12 0.000000 0.000000 0.000000
#
# Coordination Sequence:
#
# PCOD9033807 Si02
#       5
#     2   2   2   2   2
#     4  11  24  43  69  93 132 178 217 274 339 389
#     4  11  23  44  70  96 142 176 222 278 337 396
#     4  10  23  41  70 101 132 184 222 269 342 401
#     4  10  24  44  70 104 132 180 231 276 339 402
#     4  10  22  44  70 100 139 173 229 279 330 406
#
# _framework density 27.249102000000001
#
# number of rings (size 3 to 8) (size 9 to 14) (size 15 to 20)
#    0.000    1.600    2.000    2.400    5.600    3.200 
#    0.000   28.000    0.000    0.000    0.000    0.000 
#    0.000    0.000    0.000    0.000    0.000    0.000 
#
# Total GULP energy -55939.181643 kJ/mol
# GULP energy per Si atom -5593.918164 kJ/mol
# Density = 2.718708 g / cm^3
# Si number density = 27.249102 Si / 1000 Ang^3
#
#
#
# Elastic Constant Matrix: (Units=GPa)
#
#
# Indices 1 2 3 4 5 6 
#
# 1 196.9350 75.5570 44.3023 9.0130 -26.3636 12.0777
# 2 75.5570 150.1623 59.7516 2.0923 -17.3802 20.1604
# 3 44.3023 59.7516 118.9673 7.9037 -22.7357 8.2762
# 4 9.0130 2.0923 7.9037 47.4691 10.7852 -8.5498
# 5 -26.3636 -17.3802 -22.7357 10.7852 31.5107 10.5649
# 6 12.0777 20.1604 8.2762 -8.5498 10.5649 69.4536
#
#
#
# Elastic Compliance Matrix: (Units=1/GPa)
#
#
# Indices 1 2 3 4 5 6 
#
# 1 0.007149 -0.002662 0.000212 -0.003042 0.006322 -0.001832
# 2 -0.002662 0.009867 -0.003535 -0.000062 0.001425 -0.002205
# 3 0.000212 -0.003535 0.012416 -0.004586 0.009599 -0.002515
# 4 -0.003042 -0.000062 -0.004586 0.027757 -0.017809 0.007219
# 5 0.006322 0.001425 0.009599 -0.017809 0.055277 -0.013258
# 6 -0.001832 -0.002205 -0.002515 0.007219 -0.013258 0.018562
#
#
# Mechanical properties :
#
#
# Convention : Reuss Voigt Hill
#
# Bulk Modulus (GPa) = 57.26063 91.69851 74.47957
# Shear Modulus (GPa) = 33.59830 48.78359 41.19094
#
# Velocity S-wave (km/s) = 3.51523 4.23576 3.89220
# Velocity P-wave (km/s) = 6.12659 7.59258 6.89864
#
# Compressibility (1/GPa) = 0.01746401
#
# Stress axis : x y z
#
# Youngs Moduli (GPa) = 139.87801 101.34773 80.54063
#
# Poissons Ratio (x) = 0.26975 -0.01709
# Poissons Ratio (y) = 0.37230 0.28469
# Poissons Ratio (z) = -0.02968 0.35823
#
# Static dielectric constant tensor:
#      x y z
#    x 2.093300 -0.041210 0.121280 
#    y -0.041210 2.177830 -0.206700 
#    z 0.121280 -0.206700 2.494370 
# 
# From -- ./inp_files/86808.got.cif
#   From: 2010.05.17/outbox.cif.g08.bks.cpg/sg2_44_cif.got.tgz:86808.got - 2010.06.03 11:33:40.
