data_PCOD9033096
_publ_section_title
;
Structure prediction by ZEFSAII (Michael W. Deem and Ramdas Pophale) SiO2 
 PCOD9033096
Probable space group: P -1
;
_chemical_formula_sum "Si O2"
_cell_formula_units_Z 16
_cell_length_a 9.475743
_cell_length_b 12.709787
_cell_length_c 5.828668
_cell_angle_alpha 109.700791
_cell_angle_beta 89.556914
_cell_angle_gamma 73.046001
_cell_volume 627.764342
_symmetry_space_group_name_H-M "P -1"
_symmetry_group_IT_number 2
_symmetry_cell_setting 'triclinic'
loop_
_space_group_symop_operation_xyz
x,y,z
-x,-y,-z
loop_
_atom_site_type_symbol
_atom_site_label
_atom_site_fract_x
_atom_site_fract_y
_atom_site_fract_z
Si Si1 0.104465 0.829254 0.250310
Si Si2 0.274733 0.507495 0.457093
Si Si3 0.745665 0.893090 0.347222
Si Si4 0.833705 0.953077 0.801079
Si Si5 0.403593 0.274529 0.024838
Si Si6 0.578600 0.080843 0.195988
Si Si7 0.497107 0.402202 0.743720
Si Si8 0.125621 0.746336 0.700281
O O1 0.167557 0.781940 0.467328
O O2 0.925481 0.851429 0.281510
O O3 0.126624 0.954867 0.297755
O O4 0.180871 0.748294 0.968464
O O5 0.340064 0.444099 0.645430
O O6 0.383143 0.585282 0.437244
O O7 0.122819 0.612913 0.564721
O O8 0.298009 0.402413 0.199703
O O9 0.735943 0.885977 0.616869
O O10 0.688627 0.805920 0.131330
O O11 0.627526 0.023911 0.399957
O O12 0.974633 0.852967 0.809474
O O13 0.746104 0.036062 0.060538
O O14 0.504078 0.291133 0.821091
O O15 0.500278 0.211114 0.198277
O O16 0.500000 0.000000 0.000000
O O17 0.500000 0.500000 0.000000
#
# Coordination Sequence:
#
# PCOD9033096 Si02
#       8
#     2   2   2   2   2   2   2   2
#     4  11  25  44  69 105 138 182 234 289 352 410
#     4  10  23  42  65  99 136 177 237 287 340 415
#     4  10  22  44  65  97 143 174 231 283 351 419
#     4  11  24  42  67 102 134 180 233 288 351 412
#     4  10  23  41  67  97 136 187 224 286 349 417
#     4  10  23  40  65  96 137 174 228 281 350 412
#     4   9  21  42  61  92 131 178 235 280 335 403
#     4  11  24  42  71  99 137 177 227 296 342 412
#
# _framework density 25.487269999999999
#
# number of rings (size 3 to 8) (size 9 to 14) (size 15 to 20)
#    0.000    1.750    1.250    1.875    7.000    7.000 
#    0.000    3.125    0.000    0.000    0.000    0.000 
#    0.000    0.000    0.000    0.000    0.000    0.000 
#
# Total GULP energy -89147.864246 kJ/mol
# GULP energy per Si atom -5571.741515 kJ/mol
# Density = 2.542926 g / cm^3
# Si number density = 25.487270 Si / 1000 Ang^3
#
#
#
# Elastic Constant Matrix: (Units=GPa)
#
#
# Indices 1 2 3 4 5 6 
#
# 1 49.9612 27.6069 9.7167 -4.9930 8.2962 -5.1482
# 2 27.6069 134.0573 39.9006 15.8356 -5.9117 -17.6496
# 3 9.7167 39.9006 140.6636 -8.1319 1.9387 1.7971
# 4 -4.9930 15.8356 -8.1319 52.0951 4.6088 -1.4268
# 5 8.2962 -5.9117 1.9387 4.6088 34.4920 0.6902
# 6 -5.1482 -17.6496 1.7971 -1.4268 0.6902 19.6625
#
#
#
# Elastic Compliance Matrix: (Units=1/GPa)
#
#
# Indices 1 2 3 4 5 6 
#
# 1 0.025260 -0.006000 0.000333 0.005040 -0.007833 0.001839
# 2 -0.006000 0.011549 -0.003301 -0.004725 0.004067 0.008612
# 3 0.000333 -0.003301 0.008220 0.002345 -0.001353 -0.003409
# 4 0.005040 -0.004725 0.002345 0.021890 -0.005051 -0.001370
# 5 -0.007833 0.004067 -0.001353 -0.005051 0.032320 0.000222
# 6 0.001839 0.008612 -0.003409 -0.001370 0.000222 0.059274
#
#
# Mechanical properties :
#
#
# Convention : Reuss Voigt Hill
#
# Bulk Modulus (GPa) = 36.90897 53.23673 45.07285
# Shear Modulus (GPa) = 26.95725 37.74711 32.35218
#
# Velocity S-wave (km/s) = 3.25572 3.85257 3.56665
# Velocity P-wave (km/s) = 5.35217 6.38143 5.88933
#
# Compressibility (1/GPa) = 0.02709368
#
# Stress axis : x y z
#
# Youngs Moduli (GPa) = 39.58867 86.59025 121.65171
#
# Poissons Ratio (x) = 0.51950 -0.04048
# Poissons Ratio (y) = 0.23752 0.40153
# Poissons Ratio (z) = -0.01317 0.28580
#
# Static dielectric constant tensor:
#      x y z
#    x 2.203370 0.075100 -0.114770 
#    y 0.075100 2.070330 -0.060950 
#    z -0.114770 -0.060950 2.111040 
# 
# From -- ./inp_files/71842.got.cif
#   From: 2010.05.17/outbox.cif.g08.bks.cpg/sg2_36_cif.got.tgz:71842.got - 2010.06.03 11:33:40.
