data_PCOD9033390
_publ_section_title
;
Structure prediction by ZEFSAII (Michael W. Deem and Ramdas Pophale) SiO2 
 PCOD9033390
Probable space group: P -1
;
_chemical_formula_sum "Si O2"
_cell_formula_units_Z 16
_cell_length_a 11.838841
_cell_length_b 12.026121
_cell_length_c 5.929288
_cell_angle_alpha 78.478827
_cell_angle_beta 64.280782
_cell_angle_gamma 83.526695
_cell_volume 744.902983
_symmetry_space_group_name_H-M "P -1"
_symmetry_group_IT_number 2
_symmetry_cell_setting 'triclinic'
loop_
_space_group_symop_operation_xyz
x,y,z
-x,-y,-z
loop_
_atom_site_type_symbol
_atom_site_label
_atom_site_fract_x
_atom_site_fract_y
_atom_site_fract_z
Si Si1 0.141800 0.991421 0.787726
Si Si2 0.557295 0.801252 0.017855
Si Si3 0.173473 0.220086 0.408359
Si Si4 0.007409 0.388430 0.782274
Si Si5 0.599012 0.015889 0.205579
Si Si6 0.943761 0.215504 0.297443
Si Si7 0.831735 0.425481 0.530530
Si Si8 0.540059 0.448173 0.734442
O O1 0.258554 0.958843 0.859185
O O2 0.130189 0.896120 0.646258
O O3 0.174121 0.112480 0.613433
O O4 0.000000 0.000000 0.000000
O O5 0.684971 0.763047 0.794312
O O6 0.458877 0.877906 0.927168
O O7 0.497983 0.683850 0.190862
O O8 0.599079 0.894734 0.126548
O O9 0.105210 0.324807 0.551354
O O10 0.080353 0.191334 0.295304
O O11 0.888157 0.437151 0.727049
O O12 0.086789 0.496811 0.738270
O O13 0.966694 0.292114 0.026800
O O14 0.500000 0.000000 0.500000
O O15 0.862152 0.294935 0.500315
O O16 0.689002 0.456011 0.612805
O O17 0.500000 0.500000 0.500000
O O18 0.500000 0.500000 0.000000
#
# Coordination Sequence:
#
# PCOD9033390 Si02
#       8
#     2   2   2   2   2   2   2   2
#     4  12  24  42  70 103 144 178 243 299 370 439
#     4  11  27  46  73 101 146 192 250 304 374 458
#     4  11  23  42  66 102 136 183 231 298 374 439
#     4  10  22  44  67  98 134 185 228 300 369 437
#     4  11  26  46  72 102 142 202 241 306 379 452
#     4  11  24  38  71  98 136 184 226 304 362 434
#     4  10  25  43  68  98 140 177 249 292 366 437
#     4  12  31  49  78 113 148 200 251 316 373 448
#
# _framework density 21.479306999999999
#
# number of rings (size 3 to 8) (size 9 to 14) (size 15 to 20)
#    0.000    1.000    2.500    2.250    8.750    0.000 
#    0.000    0.000    0.000    0.000    0.000    0.000 
#    0.000    0.000    0.000    0.000    0.000    0.000 
#
# Total GULP energy -89331.442681 kJ/mol
# GULP energy per Si atom -5583.215168 kJ/mol
# Density = 2.143042 g / cm^3
# Si number density = 21.479307 Si / 1000 Ang^3
#
#
#
# Elastic Constant Matrix: (Units=GPa)
#
#
# Indices 1 2 3 4 5 6 
#
# 1 162.4315 25.1597 33.9780 1.6539 -16.7751 -16.6898
# 2 25.1597 94.9138 0.1873 -3.0479 10.9722 2.6822
# 3 33.9780 0.1873 57.9927 -5.3336 -3.8738 -12.7569
# 4 1.6539 -3.0479 -5.3336 25.9510 -3.5328 1.1008
# 5 -16.7751 10.9722 -3.8738 -3.5328 24.7002 -2.3127
# 6 -16.6898 2.6822 -12.7569 1.1008 -2.3127 27.4638
#
#
#
# Elastic Compliance Matrix: (Units=1/GPa)
#
#
# Indices 1 2 3 4 5 6 
#
# 1 0.008620 -0.003244 -0.003672 -0.000921 0.007007 0.004476
# 2 -0.003244 0.012430 0.000629 0.000881 -0.007836 -0.003588
# 3 -0.003672 0.000629 0.021667 0.004708 0.002024 0.007753
# 4 -0.000921 0.000881 0.004708 0.040401 0.005536 0.000388
# 5 0.007007 -0.007836 0.002024 0.005536 0.050772 0.010017
# 6 0.004476 -0.003588 0.007753 0.000388 0.010017 0.043912
#
#
# Mechanical properties :
#
#
# Convention : Reuss Voigt Hill
#
# Bulk Modulus (GPa) = 33.17582 48.22091 40.69837
# Shear Modulus (GPa) = 24.94727 32.69055 28.81891
#
# Velocity S-wave (km/s) = 3.41171 3.90546 3.66690
# Velocity P-wave (km/s) = 5.56765 6.54488 6.07594
#
# Compressibility (1/GPa) = 0.03014244
#
# Stress axis : x y z
#
# Youngs Moduli (GPa) = 116.01020 80.45028 46.15411
#
# Poissons Ratio (x) = 0.26096 0.16947
# Poissons Ratio (y) = 0.37631 -0.02902
# Poissons Ratio (z) = 0.42598 -0.05058
#
# Static dielectric constant tensor:
#      x y z
#    x 1.650090 0.052090 0.103580 
#    y 0.052090 1.768210 0.029570 
#    z 0.103580 0.029570 1.828090 
# 
# From -- ./inp_files/69591.got.cif
#   From: 2010.05.17/outbox.cif.g08.bks.cpg/sg2_35_cif.got.tgz:69591.got - 2010.06.03 11:33:40.
