data_PCOD9033244
_publ_section_title
;
Structure prediction by ZEFSAII (Michael W. Deem and Ramdas Pophale) SiO2 
 PCOD9033244
Probable space group: P -1
;
_chemical_formula_sum "Si O2"
_cell_formula_units_Z 12
_cell_length_a 18.902243
_cell_length_b 26.989530
_cell_length_c 7.703869
_cell_angle_alpha 138.490768
_cell_angle_beta 40.538846
_cell_angle_gamma 168.611512
_cell_volume 504.186611
_symmetry_space_group_name_H-M "P -1"
_symmetry_group_IT_number 2
_symmetry_cell_setting 'triclinic'
loop_
_space_group_symop_operation_xyz
x,y,z
-x,-y,-z
loop_
_atom_site_type_symbol
_atom_site_label
_atom_site_fract_x
_atom_site_fract_y
_atom_site_fract_z
Si Si1 0.840386 0.068113 0.307598
Si Si2 0.727048 0.402431 0.660325
Si Si3 0.848663 0.622810 0.180471
Si Si4 0.757343 0.352098 0.896842
Si Si5 0.593966 0.715762 0.586255
Si Si6 0.554449 0.438177 0.892739
O O1 0.577098 0.836467 0.287212
O O2 0.612404 0.937699 0.216261
O O3 0.907502 0.175595 0.606478
O O4 0.195689 0.252631 0.088543
O O5 0.535777 0.338026 0.720512
O O6 0.966520 0.498128 0.370253
O O7 0.968246 0.617555 0.891596
O O8 0.462374 0.359771 0.317642
O O9 0.801033 0.629393 0.096758
O O10 0.613650 0.342140 0.157491
O O11 0.000000 0.500000 0.000000
O O12 0.382082 0.527165 0.340873
O O13 0.000000 0.000000 0.500000
#
# Coordination Sequence:
#
# PCOD9033244 Si02
#       6
#     2   2   2   2   2   2
#     4  12  23  43  71  94 130 181 214 268 333 383
#     4  10  23  42  67  94 136 168 219 270 327 385
#     4  10  25  43  69 100 133 166 226 267 325 392
#     4  12  23  42  65  99 130 175 222 268 328 390
#     4  12  23  44  70  95 136 173 218 274 324 389
#     4  10  22  44  66  99 132 168 218 272 322 388
#
# _framework density 23.800712000000001
#
# number of rings (size 3 to 8) (size 9 to 14) (size 15 to 20)
#    1.000    0.000    5.000    1.500    2.333    1.333 
#    3.000    0.833    0.000    0.000    0.000    0.000 
#    0.000    0.000    0.000    0.000    0.000    0.000 
#
# Total GULP energy -66835.816982 kJ/mol
# GULP energy per Si atom -5569.651415 kJ/mol
# Density = 2.374654 g / cm^3
# Si number density = 23.800712 Si / 1000 Ang^3
#
#
#
# Elastic Constant Matrix: (Units=GPa)
#
#
# Indices 1 2 3 4 5 6 
#
# 1 73.1913 25.5049 50.6549 -4.0846 17.1082 20.7949
# 2 25.5049 49.2488 55.3880 15.9137 -2.1168 24.1509
# 3 50.6549 55.3880 227.3495 4.1274 18.8893 20.3599
# 4 -4.0846 15.9137 4.1274 36.7477 12.0572 10.5414
# 5 17.1082 -2.1168 18.8893 12.0572 52.7090 8.4049
# 6 20.7949 24.1509 20.3599 10.5414 8.4049 28.6742
#
#
#
# Elastic Compliance Matrix: (Units=1/GPa)
#
#
# Indices 1 2 3 4 5 6 
#
# 1 0.024010 -0.011235 -0.001248 0.013406 -0.009390 -0.009239
# 2 -0.011235 0.066653 -0.011833 -0.025556 0.022265 -0.036721
# 3 -0.001248 -0.011833 0.007371 0.004071 -0.004514 0.005464
# 4 0.013406 -0.025556 0.004071 0.045676 -0.016814 -0.002951
# 5 -0.009390 0.022265 -0.004514 -0.016814 0.030197 -0.011408
# 6 -0.009239 -0.036721 0.005464 -0.002951 -0.011408 0.073052
#
#
# Mechanical properties :
#
#
# Convention : Reuss Voigt Hill
#
# Bulk Modulus (GPa) = 20.24194 68.09838 44.17016
# Shear Modulus (GPa) = 16.02262 38.17563 27.09913
#
# Velocity S-wave (km/s) = 2.59742 4.00930 3.37795
# Velocity P-wave (km/s) = 4.18553 7.07861 5.81487
#
# Compressibility (1/GPa) = 0.04940238
#
# Stress axis : x y z
#
# Youngs Moduli (GPa) = 41.64961 15.00301 135.66329
#
# Poissons Ratio (x) = 0.16856 0.16933
# Poissons Ratio (y) = 0.46794 1.60526
# Poissons Ratio (z) = 0.05199 0.17753
#
# Static dielectric constant tensor:
#      x y z
#    x 2.091560 0.021610 0.076800 
#    y 0.021610 1.976270 0.086610 
#    z 0.076800 0.086610 1.901630 
# 
# From -- ./inp_files/350323.got.cif
#   From: 2010.05.17/outbox.cif.g08.bks.cpg/sg2_176_cif.got.tgz:350323.got - 2010.06.03 11:33:40.
