data_PCOD9033123
_publ_section_title
;
Structure prediction by ZEFSAII (Michael W. Deem and Ramdas Pophale) SiO2 
 PCOD9033123
Probable space group: P -1
;
_chemical_formula_sum "Si O2"
_cell_formula_units_Z 12
_cell_length_a 9.092383
_cell_length_b 8.654938
_cell_length_c 11.218139
_cell_angle_alpha 139.420006
_cell_angle_beta 106.019776
_cell_angle_gamma 69.195944
_cell_volume 536.799515
_symmetry_space_group_name_H-M "P -1"
_symmetry_group_IT_number 2
_symmetry_cell_setting 'triclinic'
loop_
_space_group_symop_operation_xyz
x,y,z
-x,-y,-z
loop_
_atom_site_type_symbol
_atom_site_label
_atom_site_fract_x
_atom_site_fract_y
_atom_site_fract_z
Si Si1 0.687721 0.271556 0.048006
Si Si2 0.232230 0.725186 0.674413
Si Si3 0.584147 0.962361 0.246087
Si Si4 0.043667 0.180338 0.517315
Si Si5 0.882502 0.514515 0.091158
Si Si6 0.637872 0.756496 0.455948
O O1 0.777487 0.173080 0.132665
O O2 0.803244 0.293042 0.977534
O O3 0.610523 0.556217 0.235351
O O4 0.553353 0.137383 0.905742
O O5 0.285817 0.433733 0.532506
O O6 0.074703 0.793860 0.603161
O O7 0.363556 0.828971 0.695844
O O8 0.739414 0.746636 0.167716
O O9 0.513887 0.068942 0.419595
O O10 0.033212 0.429573 0.735577
O O11 0.223181 0.117618 0.477457
O O12 0.000000 0.000000 0.500000
O O13 0.000000 0.500000 0.000000
#
# Coordination Sequence:
#
# PCOD9033123 Si02
#       6
#     2   2   2   2   2   2
#     4   9  24  43  66 100 134 169 223 273 328 388
#     4  10  22  44  66 101 132 171 226 264 333 394
#     4  12  22  44  68  98 136 173 218 273 333 392
#     4  11  22  45  68  95 131 178 221 267 328 393
#     4  11  26  45  66  99 132 176 224 274 327 393
#     4   9  24  41  68 100 130 174 219 271 331 381
#
# _framework density 22.354714000000001
#
# number of rings (size 3 to 8) (size 9 to 14) (size 15 to 20)
#    1.000    0.667    1.667    2.000    2.333    4.000 
#    3.000    1.667    0.000    0.000    0.000    0.000 
#    0.000    0.000    0.000    0.000    0.000    0.000 
#
# Total GULP energy -67016.634372 kJ/mol
# GULP energy per Si atom -5584.719531 kJ/mol
# Density = 2.230383 g / cm^3
# Si number density = 22.354714 Si / 1000 Ang^3
#
#
#
# Elastic Constant Matrix: (Units=GPa)
#
#
# Indices 1 2 3 4 5 6 
#
# 1 205.5911 76.9683 66.6562 -12.9393 3.2550 27.2020
# 2 76.9683 86.1873 26.4268 -18.5260 7.3929 6.4507
# 3 66.6562 26.4268 95.5536 -23.4203 13.8058 -8.1256
# 4 -12.9393 -18.5260 -23.4203 28.8227 3.6212 5.1832
# 5 3.2550 7.3929 13.8058 3.6212 49.7777 -4.0247
# 6 27.2020 6.4507 -8.1256 5.1832 -4.0247 40.4918
#
#
#
# Elastic Compliance Matrix: (Units=1/GPa)
#
#
# Indices 1 2 3 4 5 6 
#
# 1 0.010974 -0.008436 -0.007695 -0.005891 0.002567 -0.006563
# 2 -0.008436 0.021113 0.004113 0.013540 -0.004634 0.000935
# 3 -0.007695 0.004113 0.019763 0.014956 -0.006196 0.005950
# 4 -0.005891 0.013540 0.014956 0.054740 -0.010015 -0.003201
# 5 0.002567 -0.004634 -0.006196 -0.010015 0.023166 0.001355
# 6 -0.006563 0.000935 0.005950 -0.003201 0.001355 0.030695
#
#
# Mechanical properties :
#
#
# Convention : Reuss Voigt Hill
#
# Bulk Modulus (GPa) = 35.95291 80.82609 58.38950
# Shear Modulus (GPa) = 25.80543 38.30382 32.05463
#
# Velocity S-wave (km/s) = 3.40128 4.14388 3.79081
# Velocity P-wave (km/s) = 5.61629 7.68963 6.73324
#
# Compressibility (1/GPa) = 0.02781416
#
# Stress axis : x y z
#
# Youngs Moduli (GPa) = 91.12269 47.36426 50.60054
#
# Poissons Ratio (x) = 0.39957 0.38938
# Poissons Ratio (y) = 0.76872 -0.20814
# Poissons Ratio (z) = 0.70121 -0.19483
#
# Static dielectric constant tensor:
#      x y z
#    x 1.807430 0.014280 -0.018950 
#    y 0.014280 1.897550 0.015850 
#    z -0.018950 0.015850 1.869040 
# 
# From -- ./inp_files/191192.got.cif
#   From: 2010.05.17/outbox.cif.g08.bks.cpg/sg2_96_cif.got.tgz:191192.got - 2010.06.03 11:33:40.
