data_PCOD9033919
_publ_section_title
;
Structure prediction by ZEFSAII (Michael W. Deem and Ramdas Pophale) SiO2 
 PCOD9033919
Probable space group: P -1
;
_chemical_formula_sum "Si O2"
_cell_formula_units_Z 14
_cell_length_a 18.022522
_cell_length_b 9.249133
_cell_length_c 11.336222
_cell_angle_alpha 137.799485
_cell_angle_beta 150.206198
_cell_angle_gamma 55.185550
_cell_volume 615.877235
_symmetry_space_group_name_H-M "P -1"
_symmetry_group_IT_number 2
_symmetry_cell_setting 'triclinic'
loop_
_space_group_symop_operation_xyz
x,y,z
-x,-y,-z
loop_
_atom_site_type_symbol
_atom_site_label
_atom_site_fract_x
_atom_site_fract_y
_atom_site_fract_z
Si Si1 0.011720 0.748011 0.715549
Si Si2 0.757398 0.937088 0.620005
Si Si3 0.929601 0.930852 0.489144
Si Si4 0.405015 0.766522 0.555269
Si Si5 0.413355 0.458199 0.730475
Si Si6 0.369755 0.399469 0.098474
Si Si7 0.827423 0.371487 0.655301
O O1 0.000000 0.500000 0.500000
O O2 0.861430 0.799031 0.606473
O O3 0.041931 0.906838 0.737682
O O4 0.139905 0.840770 0.046752
O O5 0.670366 0.796262 0.521958
O O6 0.641386 0.012872 0.415728
O O7 0.842397 0.121445 0.514885
O O8 0.808891 0.698117 0.191486
O O9 0.000000 0.000000 0.500000
O O10 0.423154 0.621770 0.380419
O O11 0.553793 0.788860 0.852849
O O12 0.273074 0.616034 0.360533
O O13 0.551652 0.534718 0.877284
O O14 0.271080 0.563344 0.550887
O O15 0.500000 0.500000 0.000000
O O16 0.000000 0.500000 0.000000
#
# Coordination Sequence:
#
# PCOD9033919 Si02
#       7
#     2   2   2   2   2   2   2
#     4  11  25  44  71 106 146 181 240 301 357 424
#     4  11  24  44  72 103 140 193 231 295 366 417
#     4  12  25  43  71  99 132 181 234 293 356 425
#     4  10  22  44  70  93 137 181 233 288 350 423
#     4  11  26  42  69 104 147 187 235 294 365 431
#     4  10  24  45  67 100 134 183 233 290 350 434
#     4  11  24  43  70  98 137 183 240 292 350 430
#
# _framework density 22.731802999999999
#
# number of rings (size 3 to 8) (size 9 to 14) (size 15 to 20)
#    0.000    1.143    1.429    3.429    6.000    4.000 
#    0.000    0.000    0.000    0.000    0.000    0.000 
#    0.000    0.000    0.000    0.000    0.000    0.000 
#
# Total GULP energy -78119.304650 kJ/mol
# GULP energy per Si atom -5579.950332 kJ/mol
# Density = 2.268006 g / cm^3
# Si number density = 22.731803 Si / 1000 Ang^3
#
#
#
# Elastic Constant Matrix: (Units=GPa)
#
#
# Indices 1 2 3 4 5 6 
#
# 1 120.5253 49.0065 46.8954 -4.8104 -23.6649 10.5324
# 2 49.0065 125.4607 28.9904 -8.4486 -8.3729 19.8612
# 3 46.8954 28.9904 92.5470 5.6810 -3.3603 -0.3767
# 4 -4.8104 -8.4486 5.6810 38.9956 2.3150 -9.7220
# 5 -23.6649 -8.3729 -3.3603 2.3150 27.3098 0.1728
# 6 10.5324 19.8612 -0.3767 -9.7220 0.1728 33.4354
#
#
#
# Elastic Compliance Matrix: (Units=1/GPa)
#
#
# Indices 1 2 3 4 5 6 
#
# 1 0.014138 -0.002999 -0.005893 0.000678 0.010565 -0.002596
# 2 -0.002999 0.010438 -0.001812 0.000884 0.000335 -0.005021
# 3 -0.005893 -0.001812 0.014381 -0.002392 -0.003705 0.002419
# 4 0.000678 0.000884 -0.002392 0.028237 -0.001876 0.007455
# 5 0.010565 0.000335 -0.003705 -0.001876 0.045605 -0.004350
# 6 -0.002596 -0.005021 0.002419 0.007455 -0.004350 0.035926
#
#
# Mechanical properties :
#
#
# Convention : Reuss Voigt Hill
#
# Bulk Modulus (GPa) = 56.98759 65.36862 61.17810
# Shear Modulus (GPa) = 28.41182 34.19089 31.30135
#
# Velocity S-wave (km/s) = 3.53919 3.88248 3.71480
# Velocity P-wave (km/s) = 6.46723 6.99407 6.73581
#
# Compressibility (1/GPa) = 0.01754768
#
# Stress axis : x y z
#
# Youngs Moduli (GPa) = 70.73286 95.80810 69.53463
#
# Poissons Ratio (x) = 0.28732 0.40977
# Poissons Ratio (y) = 0.21212 0.12603
# Poissons Ratio (z) = 0.41683 0.17365
#
# Static dielectric constant tensor:
#      x y z
#    x 1.912260 -0.027500 0.014280 
#    y -0.027500 1.877640 -0.060330 
#    z 0.014280 -0.060330 1.992410 
# 
# From -- ./inp_files/262854.got.cif
#   From: 2010.05.17/outbox.cif.g08.bks.cpg/sg2_132_cif.got.tgz:262854.got - 2010.06.03 11:33:40.
