data_PCOD9033626
_publ_section_title
;
Structure prediction by ZEFSAII (Michael W. Deem and Ramdas Pophale) SiO2 
 PCOD9033626
Probable space group: P -1
;
_chemical_formula_sum "Si O2"
_cell_formula_units_Z 16
_cell_length_a 13.926944
_cell_length_b 12.241418
_cell_length_c 15.891365
_cell_angle_alpha 152.571479
_cell_angle_beta 131.056906
_cell_angle_gamma 33.846300
_cell_volume 660.111875
_symmetry_space_group_name_H-M "P -1"
_symmetry_group_IT_number 2
_symmetry_cell_setting 'triclinic'
loop_
_space_group_symop_operation_xyz
x,y,z
-x,-y,-z
loop_
_atom_site_type_symbol
_atom_site_label
_atom_site_fract_x
_atom_site_fract_y
_atom_site_fract_z
Si Si1 0.965190 0.816139 0.220237
Si Si2 0.661420 0.190240 0.435841
Si Si3 0.089929 0.921267 0.807195
Si Si4 0.357462 0.201156 0.735161
Si Si5 0.334278 0.634353 0.129360
Si Si6 0.387465 0.378101 0.158746
Si Si7 0.279675 0.194781 0.406938
Si Si8 0.960242 0.777734 0.849627
O O1 0.171750 0.623962 0.214121
O O2 0.847124 0.997754 0.361164
O O3 0.861049 0.071864 0.255396
O O4 0.000000 0.500000 0.000000
O O5 0.500000 0.500000 0.500000
O O6 0.607641 0.386399 0.625481
O O7 0.652061 0.925750 0.269019
O O8 0.163368 0.564806 0.629923
O O9 0.874187 0.169762 0.847658
O O10 0.123266 0.074147 0.002996
O O11 0.163788 0.403237 0.719935
O O12 0.539909 0.912357 0.593515
O O13 0.384297 0.441702 0.939116
O O14 0.437043 0.387654 0.099142
O O15 0.336584 0.912257 0.310395
O O16 0.500000 0.000000 0.000000
O O17 0.836462 0.786279 0.721291
O O18 0.000000 0.000000 0.000000
#
# Coordination Sequence:
#
# PCOD9033626 Si02
#       8
#     2   2   2   2   2   2   2   2
#     4  11  23  46  72 100 139 183 237 300 360 420
#     4  12  25  47  68  99 143 181 238 300 355 430
#     4  10  23  43  70 108 139 183 241 293 353 435
#     4  11  25  46  69 104 141 184 241 291 348 440
#     4  10  22  44  69 100 144 180 228 295 349 422
#     4  11  25  45  72 105 138 185 236 292 360 427
#     4  12  24  46  74 102 150 187 234 297 359 424
#     4  11  24  44  73 101 144 194 230 287 368 417
#
# _framework density 24.238316999999999
#
# number of rings (size 3 to 8) (size 9 to 14) (size 15 to 20)
#    0.000    1.000    2.500    5.625    3.500    0.000 
#   15.750    1.250    0.000    0.000    0.000    0.000 
#    0.000    0.000    0.000    0.000    0.000    0.000 
#
# Total GULP energy -89378.545908 kJ/mol
# GULP energy per Si atom -5586.159119 kJ/mol
# Density = 2.418315 g / cm^3
# Si number density = 24.238317 Si / 1000 Ang^3
#
#
#
# Elastic Constant Matrix: (Units=GPa)
#
#
# Indices 1 2 3 4 5 6 
#
# 1 88.5110 49.6258 22.6836 2.6531 2.9055 2.5882
# 2 49.6258 114.0667 36.6036 14.0238 0.8884 3.7015
# 3 22.6836 36.6036 95.5327 3.9823 -4.2097 -2.2521
# 4 2.6531 14.0238 3.9823 42.5020 4.3356 5.7273
# 5 2.9055 0.8884 -4.2097 4.3356 32.3238 9.3599
# 6 2.5882 3.7015 -2.2521 5.7273 9.3599 37.3255
#
#
#
# Elastic Compliance Matrix: (Units=1/GPa)
#
#
# Indices 1 2 3 4 5 6 
#
# 1 0.015211 -0.006354 -0.001311 0.001467 -0.001455 -0.000364
# 2 -0.006354 0.013058 -0.003341 -0.003560 0.000434 -0.000619
# 3 -0.001311 -0.003341 0.012157 -0.000224 0.001594 0.000790
# 4 0.001467 -0.003560 -0.000224 0.025300 -0.002590 -0.002995
# 5 -0.001455 0.000434 0.001594 -0.002590 0.033914 -0.007953
# 6 -0.000364 -0.000619 0.000790 -0.002995 -0.007953 0.029379
#
#
# Mechanical properties :
#
#
# Convention : Reuss Voigt Hill
#
# Bulk Modulus (GPa) = 54.30967 57.32628 55.81797
# Shear Modulus (GPa) = 31.81254 35.04341 33.42797
#
# Velocity S-wave (km/s) = 3.62676 3.80647 3.71770
# Velocity P-wave (km/s) = 6.32400 6.55907 6.44261
#
# Compressibility (1/GPa) = 0.01841293
#
# Stress axis : x y z
#
# Youngs Moduli (GPa) = 65.74130 76.58193 82.25444
#
# Poissons Ratio (x) = 0.48663 0.10783
# Poissons Ratio (y) = 0.41774 0.27485
# Poissons Ratio (z) = 0.08618 0.25590
#
# Static dielectric constant tensor:
#      x y z
#    x 1.955370 0.087660 -0.017640 
#    y 0.087660 1.904260 0.007460 
#    z -0.017640 0.007460 1.938260 
# 
# From -- ./inp_files/532802.got.cif
#   From: 2010.05.17/outbox.cif.g08.bks.cpg/sg2_267_cif.got.tgz:532802.got - 2010.06.03 11:33:40.
