data_PCOD9033280
_publ_section_title
;
Structure prediction by ZEFSAII (Michael W. Deem and Ramdas Pophale) SiO2 
 PCOD9033280
Probable space group: P -1
;
_chemical_formula_sum "Si O2"
_cell_formula_units_Z 14
_cell_length_a 14.604378
_cell_length_b 14.632142
_cell_length_c 9.168471
_cell_angle_alpha 131.726087
_cell_angle_beta 82.418148
_cell_angle_gamma 136.414271
_cell_volume 738.696507
_symmetry_space_group_name_H-M "P -1"
_symmetry_group_IT_number 2
_symmetry_cell_setting 'triclinic'
loop_
_space_group_symop_operation_xyz
x,y,z
-x,-y,-z
loop_
_atom_site_type_symbol
_atom_site_label
_atom_site_fract_x
_atom_site_fract_y
_atom_site_fract_z
Si Si1 0.698020 0.704079 0.773399
Si Si2 0.384755 0.145821 0.918622
Si Si3 0.829437 0.992803 0.766961
Si Si4 0.978826 0.026987 0.309429
Si Si5 0.288895 0.525285 0.624830
Si Si6 0.019602 0.666674 0.659313
Si Si7 0.349050 0.221525 0.720443
O O1 0.581120 0.671541 0.850217
O O2 0.650986 0.510686 0.542615
O O3 0.733122 0.809780 0.724568
O O4 0.879610 0.905251 0.044613
O O5 0.532247 0.234519 0.068187
O O6 0.394689 0.163049 0.760307
O O7 0.185863 0.887693 0.748468
O O8 0.693650 0.866994 0.529916
O O9 0.971956 0.054496 0.743479
O O10 0.926541 0.213007 0.067501
O O11 0.158014 0.310067 0.542509
O O12 0.836065 0.930604 0.339503
O O13 0.163059 0.479813 0.521568
O O14 0.000000 0.500000 0.500000
O O15 0.500000 0.500000 0.000000
#
# Coordination Sequence:
#
# PCOD9033280 Si02
#       7
#     2   2   2   2   2   2   2
#     4   9  16  32  54  85 114 142 177 229 293 344
#     4  10  22  35  57  83 115 151 181 231 291 341
#     4  10  18  34  54  85 115 148 185 230 281 340
#     4  10  17  32  55  83 117 148 172 225 299 347
#     4  11  17  35  61  79 114 144 189 235 288 332
#     4  11  23  41  60  81 108 153 207 243 267 313
#     4  11  21  33  53  91 126 144 174 223 293 366
#
# _framework density 18.952304999999999
#
# number of rings (size 3 to 8) (size 9 to 14) (size 15 to 20)
#    0.000    1.714    5.714    3.429    0.000    4.000 
#    0.000    0.714    0.000    0.857    0.000    0.000 
#    0.000    0.000    0.000    0.000    0.000    0.000 
#
# Total GULP energy -78013.551496 kJ/mol
# GULP energy per Si atom -5572.396535 kJ/mol
# Density = 1.890917 g / cm^3
# Si number density = 18.952305 Si / 1000 Ang^3
#
#
#
# Elastic Constant Matrix: (Units=GPa)
#
#
# Indices 1 2 3 4 5 6 
#
# 1 88.1533 20.2941 49.0780 -5.6280 8.7573 -22.9697
# 2 20.2941 72.3215 35.1247 -25.2568 7.4366 -10.8716
# 3 49.0780 35.1247 84.3215 -28.5750 22.2834 -27.7475
# 4 -5.6280 -25.2568 -28.5750 32.3189 -8.7317 6.4549
# 5 8.7573 7.4366 22.2834 -8.7317 35.8769 1.5385
# 6 -22.9697 -10.8716 -27.7475 6.4549 1.5385 24.8406
#
#
#
# Elastic Compliance Matrix: (Units=1/GPa)
#
#
# Indices 1 2 3 4 5 6 
#
# 1 0.019371 -0.002315 -0.011604 -0.009922 0.000266 0.006498
# 2 -0.002315 0.020443 -0.003185 0.013229 0.001538 -0.000285
# 3 -0.011604 -0.003185 0.042443 0.021760 -0.018894 0.030801
# 4 -0.009922 0.013229 0.021760 0.057579 -0.000078 0.005964
# 5 0.000266 0.001538 -0.018894 -0.000078 0.040177 -0.022654
# 6 0.006498 -0.000285 0.030801 0.005964 -0.022654 0.080400
#
#
# Mechanical properties :
#
#
# Convention : Reuss Voigt Hill
#
# Bulk Modulus (GPa) = 20.81289 50.42109 35.61699
# Shear Modulus (GPa) = 16.09590 27.96058 22.02824
#
# Velocity S-wave (km/s) = 2.91741 3.84515 3.41295
# Velocity P-wave (km/s) = 4.72799 6.80996 5.86214
#
# Compressibility (1/GPa) = 0.04804714
#
# Stress axis : x y z
#
# Youngs Moduli (GPa) = 51.62414 48.91727 23.56085
#
# Poissons Ratio (x) = 0.11326 0.27341
# Poissons Ratio (y) = 0.11953 0.07504
# Poissons Ratio (z) = 0.59907 0.15580
#
# Static dielectric constant tensor:
#      x y z
#    x 1.698940 0.016650 0.050460 
#    y 0.016650 1.708140 -0.021160 
#    z 0.050460 -0.021160 1.714190 
# 
# From -- ./inp_files/169566.got.cif
#   From: 2010.05.17/outbox.cif.g08.bks.cpg/sg2_85_cif.got.tgz:169566.got - 2010.06.03 11:33:40.
