data_PCOD9033272
_publ_section_title
;
Structure prediction by ZEFSAII (Michael W. Deem and Ramdas Pophale) SiO2 
 PCOD9033272
Probable space group: P -1
;
_chemical_formula_sum "Si O2"
_cell_formula_units_Z 14
_cell_length_a 11.620693
_cell_length_b 8.402017
_cell_length_c 11.612215
_cell_angle_alpha 87.492588
_cell_angle_beta 151.193462
_cell_angle_gamma 93.393878
_cell_volume 545.282422
_symmetry_space_group_name_H-M "P -1"
_symmetry_group_IT_number 2
_symmetry_cell_setting 'triclinic'
loop_
_space_group_symop_operation_xyz
x,y,z
-x,-y,-z
loop_
_atom_site_type_symbol
_atom_site_label
_atom_site_fract_x
_atom_site_fract_y
_atom_site_fract_z
Si Si1 0.791368 0.920721 0.398527
Si Si2 0.583807 0.367543 0.349453
Si Si3 0.645054 0.747287 0.640703
Si Si4 0.049106 0.727270 0.821155
Si Si5 0.667535 0.615946 0.221475
Si Si6 0.414935 0.964982 0.245930
Si Si7 0.111846 0.374337 0.809852
O O1 0.603725 0.801035 0.169718
O O2 0.635012 0.014397 0.350942
O O3 0.921183 0.792277 0.594318
O O4 0.000000 0.000000 0.500000
O O5 0.469876 0.388502 0.374144
O O6 0.662882 0.523490 0.340636
O O7 0.848842 0.304300 0.615324
O O8 0.353196 0.297639 0.073382
O O9 0.494685 0.822282 0.403934
O O10 0.882353 0.699247 0.787327
O O11 0.666575 0.896031 0.745617
O O12 0.146414 0.556582 0.879392
O O13 0.214071 0.879637 0.996139
O O14 0.893830 0.631961 0.333918
O O15 0.500000 0.500000 0.000000
#
# Coordination Sequence:
#
# PCOD9033272 Si02
#       7
#     2   2   2   2   2   2   2
#     4  11  25  43  71 104 136 181 238 288 360 429
#     4  11  24  43  70 104 135 189 232 291 353 425
#     4  10  25  42  69  98 137 183 241 284 351 425
#     4  11  24  43  68  97 138 183 230 296 352 422
#     4  10  22  44  67 101 145 182 230 296 358 423
#     4  10  23  47  66  96 141 183 231 295 351 422
#     4  11  25  42  71 100 146 178 236 288 362 415
#
# _framework density 25.674766000000002
#
# number of rings (size 3 to 8) (size 9 to 14) (size 15 to 20)
#    0.000    1.429    1.429    2.571    6.000    4.000 
#    0.000    0.000    0.000    0.000    0.000    0.000 
#    0.000    0.000    0.000    0.000    0.000    0.000 
#
# Total GULP energy -78047.474518 kJ/mol
# GULP energy per Si atom -5574.819608 kJ/mol
# Density = 2.561633 g / cm^3
# Si number density = 25.674766 Si / 1000 Ang^3
#
#
#
# Elastic Constant Matrix: (Units=GPa)
#
#
# Indices 1 2 3 4 5 6 
#
# 1 207.9816 23.4174 9.0461 -7.9283 9.4180 26.7942
# 2 23.4174 60.5103 22.9710 9.8924 -5.6769 -5.5530
# 3 9.0461 22.9710 89.5887 8.4031 6.5919 11.6657
# 4 -7.9283 9.8924 8.4031 37.1683 -2.1621 2.2802
# 5 9.4180 -5.6769 6.5919 -2.1621 30.8422 2.3200
# 6 26.7942 -5.5530 11.6657 2.2802 2.3200 50.5094
#
#
#
# Elastic Compliance Matrix: (Units=1/GPa)
#
#
# Indices 1 2 3 4 5 6 
#
# 1 0.005799 -0.003385 0.000715 0.002074 -0.002130 -0.003609
# 2 -0.003385 0.021980 -0.005936 -0.005248 0.005562 0.005565
# 3 0.000715 -0.005936 0.013540 -0.001322 -0.004003 -0.003915
# 4 0.002074 -0.005248 -0.001322 0.029265 0.000941 -0.002736
# 5 -0.002130 0.005562 -0.004003 0.000941 0.034942 0.001018
# 6 -0.003609 0.005565 -0.003915 -0.002736 0.001018 0.023306
#
#
# Mechanical properties :
#
#
# Convention : Reuss Voigt Hill
#
# Bulk Modulus (GPa) = 41.48302 52.10551 46.79426
# Shear Modulus (GPa) = 32.45077 43.88039 38.16558
#
# Velocity S-wave (km/s) = 3.55902 4.13859 3.85970
# Velocity P-wave (km/s) = 5.75161 6.57083 6.17482
#
# Compressibility (1/GPa) = 0.02410625
#
# Stress axis : x y z
#
# Youngs Moduli (GPa) = 172.45341 45.49609 73.85416
#
# Poissons Ratio (x) = 0.15402 -0.05278
# Poissons Ratio (y) = 0.58383 0.43836
# Poissons Ratio (z) = -0.12325 0.27004
#
# Static dielectric constant tensor:
#      x y z
#    x 2.064840 -0.057720 -0.054670 
#    y -0.057720 2.104840 0.113520 
#    z -0.054670 0.113520 2.299460 
# 
# From -- ./inp_files/123662.got.cif
#   From: 2010.05.17/outbox.cif.g08.bks.cpg/sg2_62_cif.got.tgz:123662.got - 2010.06.03 11:33:40.
