data_PCOD9033044
_publ_section_title
;
Structure prediction by ZEFSAII (Michael W. Deem and Ramdas Pophale) SiO2 
 PCOD9033044
Probable space group: P -1
;
_chemical_formula_sum "Si O2"
_cell_formula_units_Z 12
_cell_length_a 8.140212
_cell_length_b 8.694464
_cell_length_c 12.204855
_cell_angle_alpha 80.434250
_cell_angle_beta 33.488348
_cell_angle_gamma 85.462066
_cell_volume 467.171154
_symmetry_space_group_name_H-M "P -1"
_symmetry_group_IT_number 2
_symmetry_cell_setting 'triclinic'
loop_
_space_group_symop_operation_xyz
x,y,z
-x,-y,-z
loop_
_atom_site_type_symbol
_atom_site_label
_atom_site_fract_x
_atom_site_fract_y
_atom_site_fract_z
Si Si1 0.172090 0.514799 0.286128
Si Si2 0.663848 0.970917 0.652226
Si Si3 0.656388 0.301546 0.511078
Si Si4 0.749840 0.598860 0.076996
Si Si5 0.891953 0.962015 0.939496
Si Si6 0.219228 0.225569 0.579460
O O1 0.522758 0.520980 0.118762
O O2 0.000000 0.500000 0.500000
O O3 0.995813 0.379413 0.326056
O O4 0.064640 0.676538 0.282707
O O5 0.641218 0.815588 0.609661
O O6 0.627346 0.118659 0.577772
O O7 0.439056 0.981616 0.876536
O O8 0.000000 0.000000 0.500000
O O9 0.465856 0.372353 0.704335
O O10 0.480130 0.317465 0.495239
O O11 0.878829 0.776309 0.950001
O O12 0.000000 0.500000 0.000000
O O13 0.000000 0.000000 0.000000
O O14 0.095964 0.065826 0.729007
#
# Coordination Sequence:
#
# PCOD9033044 Si02
#       6
#     2   2   2   2   2   2
#     4  10  23  44  70  98 141 189 240 291 348 433
#     4  11  24  43  72 105 143 186 237 294 361 421
#     4  10  22  44  65 106 135 189 241 285 351 432
#     4  10  22  44  70  99 146 190 226 297 360 410
#     4  11  24  44  72 108 144 177 246 297 348 431
#     4  12  23  46  78 103 143 190 238 298 364 413
#
# _framework density 25.686516000000001
#
# number of rings (size 3 to 8) (size 9 to 14) (size 15 to 20)
#    0.000    1.333    3.333    4.000    0.000    6.667 
#    3.000    0.833    0.000    0.000    0.000    0.000 
#    0.000    0.000    0.000    0.000    0.000    0.000 
#
# Total GULP energy -67238.086105 kJ/mol
# GULP energy per Si atom -5603.173842 kJ/mol
# Density = 2.562805 g / cm^3
# Si number density = 25.686516 Si / 1000 Ang^3
#
#
#
# Elastic Constant Matrix: (Units=GPa)
#
#
# Indices 1 2 3 4 5 6 
#
# 1 138.1129 47.4211 41.3216 -0.2924 -45.4107 16.0217
# 2 47.4211 97.8656 28.9736 -19.2540 -13.7711 8.1264
# 3 41.3216 28.9736 113.2820 -3.9217 -21.8038 6.7105
# 4 -0.2924 -19.2540 -3.9217 48.8112 -3.1449 3.1964
# 5 -45.4107 -13.7711 -21.8038 -3.1449 54.3939 0.5861
# 6 16.0217 8.1264 6.7105 3.1964 0.5861 43.0191
#
#
#
# Elastic Compliance Matrix: (Units=1/GPa)
#
#
# Indices 1 2 3 4 5 6 
#
# 1 0.012432 -0.004209 -0.001609 -0.000920 0.008654 -0.003634
# 2 -0.004209 0.013896 -0.001844 0.005358 -0.000413 -0.001162
# 3 -0.001609 -0.001844 0.010398 0.000300 0.002383 -0.000729
# 4 -0.000920 0.005358 0.000300 0.022912 0.002060 -0.002447
# 5 0.008654 -0.000413 0.002383 0.002060 0.026623 -0.004033
# 6 -0.003634 -0.001162 -0.000729 -0.002447 -0.004033 0.025169
#
#
# Mechanical properties :
#
#
# Convention : Reuss Voigt Hill
#
# Bulk Modulus (GPa) = 46.72409 64.96591 55.84500
# Shear Modulus (GPa) = 37.34458 44.68113 41.01285
#
# Velocity S-wave (km/s) = 3.81709 4.17523 4.00017
# Velocity P-wave (km/s) = 6.13649 6.97066 6.56683
#
# Compressibility (1/GPa) = 0.02140223
#
# Stress axis : x y z
#
# Youngs Moduli (GPa) = 80.43683 71.96330 96.16894
#
# Poissons Ratio (x) = 0.30290 0.15475
# Poissons Ratio (y) = 0.33856 0.17733
# Poissons Ratio (z) = 0.12944 0.13269
#
# Static dielectric constant tensor:
#      x y z
#    x 2.050800 -0.010350 -0.023710 
#    y -0.010350 2.143740 0.153830 
#    z -0.023710 0.153830 2.276770 
# 
# From -- ./inp_files/380202.got.cif
#   From: 2010.05.17/outbox.cif.g08.bks.cpg/sg2_191_cif.got.tgz:380202.got - 2010.06.03 11:33:40.
