data_PCOD9033205
_publ_section_title
;
Structure prediction by ZEFSAII (Michael W. Deem and Ramdas Pophale) SiO2 
 PCOD9033205
Probable space group: P -1
;
_chemical_formula_sum "Si O2"
_cell_formula_units_Z 16
_cell_length_a 8.176374
_cell_length_b 19.969393
_cell_length_c 5.006025
_cell_angle_alpha 64.483839
_cell_angle_beta 82.677519
_cell_angle_gamma 59.920659
_cell_volume 634.202454
_symmetry_space_group_name_H-M "P -1"
_symmetry_group_IT_number 2
_symmetry_cell_setting 'triclinic'
loop_
_space_group_symop_operation_xyz
x,y,z
-x,-y,-z
loop_
_atom_site_type_symbol
_atom_site_label
_atom_site_fract_x
_atom_site_fract_y
_atom_site_fract_z
Si Si1 0.486586 0.574333 0.567243
Si Si2 0.209258 0.361950 0.155817
Si Si3 0.223047 0.197932 0.308776
Si Si4 0.406209 0.963978 0.371862
Si Si5 0.126779 0.129191 0.924928
Si Si6 0.754589 0.139978 0.238062
Si Si7 0.431504 0.750506 0.383633
Si Si8 0.775266 0.485727 0.077219
O O1 0.500000 0.500000 0.500000
O O2 0.403252 0.675370 0.382983
O O3 0.695780 0.530658 0.731002
O O4 0.326807 0.570797 0.794088
O O5 0.190029 0.291928 0.110312
O O6 0.358535 0.303254 0.447311
O O7 0.281380 0.424511 0.908069
O O8 0.995846 0.425381 0.187334
O O9 0.424522 0.133753 0.523494
O O10 0.197406 0.165595 0.086328
O O11 0.088834 0.185265 0.571900
O O12 0.241028 0.948496 0.553001
O O13 0.500000 0.000000 0.500000
O O14 0.300441 0.030350 0.038999
O O15 0.940862 0.130305 0.073408
O O16 0.698787 0.196845 0.424216
O O17 0.595844 0.187069 0.959863
#
# Coordination Sequence:
#
# PCOD9033205 Si02
#       8
#     2   2   2   2   2   2   2   2
#     4  10  23  42  68  98 137 183 225 290 349 414
#     4  10  22  44  66  96 135 181 232 284 342 414
#     4  11  24  44  71 102 140 183 234 292 347 414
#     4  10  24  46  73 103 142 186 232 289 355 420
#     4  11  26  44  70 104 139 187 234 288 352 416
#     4  12  26  47  70 104 140 185 235 291 349 418
#     4  11  27  43  72 101 140 183 236 291 348 410
#     4   9  22  44  65  95 135 178 229 278 350 407
#
# _framework density 25.228536999999999
#
# number of rings (size 3 to 8) (size 9 to 14) (size 15 to 20)
#    0.000    1.500    1.250    1.500   12.250    2.000 
#    4.500    6.250    0.000    0.000    0.000    0.000 
#    0.000    0.000    0.000    0.000    0.000    0.000 
#
# Total GULP energy -89207.264443 kJ/mol
# GULP energy per Si atom -5575.454028 kJ/mol
# Density = 2.517112 g / cm^3
# Si number density = 25.228537 Si / 1000 Ang^3
#
#
#
# Elastic Constant Matrix: (Units=GPa)
#
#
# Indices 1 2 3 4 5 6 
#
# 1 89.3745 24.9198 -5.6273 -7.9063 3.8336 1.7709
# 2 24.9198 99.1762 21.0096 -5.4910 -2.7968 7.3613
# 3 -5.6273 21.0096 77.2503 6.1699 1.6270 3.6501
# 4 -7.9063 -5.4910 6.1699 41.5478 0.9212 -4.2931
# 5 3.8336 -2.7968 1.6270 0.9212 24.0987 -8.9165
# 6 1.7709 7.3613 3.6501 -4.2931 -8.9165 33.6415
#
#
#
# Elastic Compliance Matrix: (Units=1/GPa)
#
#
# Indices 1 2 3 4 5 6 
#
# 1 0.012554 -0.003480 0.001818 0.001656 -0.002821 -0.000633
# 2 -0.003480 0.011936 -0.003565 0.001258 0.001591 -0.001459
# 3 0.001818 -0.003565 0.014369 -0.002393 -0.002238 -0.001773
# 4 0.001656 0.001258 -0.002393 0.025229 0.000258 0.003185
# 5 -0.002821 0.001591 -0.002238 0.000258 0.046898 0.012506
# 6 -0.000633 -0.001459 -0.001773 0.003185 0.012506 0.033991
#
#
# Mechanical properties :
#
#
# Convention : Reuss Voigt Hill
#
# Bulk Modulus (GPa) = 35.20600 38.48945 36.84773
# Shear Modulus (GPa) = 30.32172 34.89086 32.60629
#
# Velocity S-wave (km/s) = 3.47058 3.72289 3.59895
# Velocity P-wave (km/s) = 5.48133 5.81114 5.64864
#
# Compressibility (1/GPa) = 0.02840425
#
# Stress axis : x y z
#
# Youngs Moduli (GPa) = 79.65704 83.78298 69.59501
#
# Poissons Ratio (x) = 0.29160 -0.12653
# Poissons Ratio (y) = 0.27724 0.24809
# Poissons Ratio (z) = -0.14482 0.29866
#
# Static dielectric constant tensor:
#      x y z
#    x 1.903770 -0.079050 0.035110 
#    y -0.079050 2.129650 0.060960 
#    z 0.035110 0.060960 1.907810 
# 
# From -- ./inp_files/52474.got.cif
#   From: 2010.05.17/outbox.cif.g08.bks.cpg/sg2_27_cif.got.tgz:52474.got - 2010.06.03 11:33:40.
