data_PCOD9033598
_publ_section_title
;
Structure prediction by ZEFSAII (Michael W. Deem and Ramdas Pophale) SiO2 
 PCOD9033598
Probable space group: P -1
;
_chemical_formula_sum "Si O2"
_cell_formula_units_Z 16
_cell_length_a 11.294942
_cell_length_b 17.010229
_cell_length_c 8.158847
_cell_angle_alpha 132.995020
_cell_angle_beta 125.281709
_cell_angle_gamma 32.853781
_cell_volume 621.945091
_symmetry_space_group_name_H-M "P -1"
_symmetry_group_IT_number 2
_symmetry_cell_setting 'triclinic'
loop_
_space_group_symop_operation_xyz
x,y,z
-x,-y,-z
loop_
_atom_site_type_symbol
_atom_site_label
_atom_site_fract_x
_atom_site_fract_y
_atom_site_fract_z
Si Si1 0.037110 0.239716 0.471554
Si Si2 0.554434 0.017001 0.784573
Si Si3 0.347814 0.552046 0.302948
Si Si4 0.060022 0.497589 0.362243
Si Si5 0.408683 0.289760 0.850200
Si Si6 0.175949 0.960572 0.354427
Si Si7 0.093649 0.805044 0.227947
Si Si8 0.220713 0.186622 0.994538
O O1 0.282624 0.121643 0.419698
O O2 0.901730 0.395911 0.466323
O O3 0.888762 0.348939 0.668329
O O4 0.055003 0.100743 0.320989
O O5 0.508011 0.162420 0.893583
O O6 0.315783 0.105186 0.773486
O O7 0.663172 0.937277 0.935519
O O8 0.500000 0.500000 0.500000
O O9 0.310005 0.672862 0.321771
O O10 0.437875 0.397642 0.067462
O O11 0.845020 0.596789 0.218495
O O12 0.000000 0.500000 0.500000
O O13 0.231070 0.310065 0.185370
O O14 0.564800 0.175915 0.659615
O O15 0.113565 0.869073 0.178785
O O16 0.093015 0.044028 0.585806
O O17 0.021333 0.722174 0.030835
#
# Coordination Sequence:
#
# PCOD9033598 Si02
#       8
#     2   2   2   2   2   2   2   2
#     4  10  23  44  68 102 139 178 233 286 350 409
#     4  10  24  41  68 105 136 182 229 291 343 425
#     4  11  25  44  68 101 140 189 234 286 343 417
#     4  12  25  43  70 104 143 178 227 293 352 416
#     4  11  25  43  70 104 136 187 232 285 356 410
#     4   9  23  42  67  99 131 185 231 285 341 412
#     4  10  22  44  68  98 140 183 232 289 341 412
#     4  11  23  43  69 103 141 181 232 283 355 412
#
# _framework density 25.725743000000001
#
# number of rings (size 3 to 8) (size 9 to 14) (size 15 to 20)
#    0.000    1.500    2.500    0.750    5.250    7.500 
#    0.000    4.375    0.000    0.000    0.000    0.000 
#    0.000    0.000    0.000    0.000    0.000    0.000 
#
# Total GULP energy -89104.100098 kJ/mol
# GULP energy per Si atom -5569.006256 kJ/mol
# Density = 2.566719 g / cm^3
# Si number density = 25.725743 Si / 1000 Ang^3
#
#
#
# Elastic Constant Matrix: (Units=GPa)
#
#
# Indices 1 2 3 4 5 6 
#
# 1 157.6372 46.2550 26.5095 18.9398 -12.6306 42.7272
# 2 46.2550 121.5678 30.6109 16.7466 -3.2211 28.5340
# 3 26.5095 30.6109 90.7099 24.9157 -19.1074 7.6348
# 4 18.9398 16.7466 24.9157 34.4976 -1.1848 4.3324
# 5 -12.6306 -3.2211 -19.1074 -1.1848 28.5325 6.3022
# 6 42.7272 28.5340 7.6348 4.3324 6.3022 54.3015
#
#
#
# Elastic Compliance Matrix: (Units=1/GPa)
#
#
# Indices 1 2 3 4 5 6 
#
# 1 0.009558 -0.001394 0.000603 -0.003893 0.005917 -0.007249
# 2 -0.001394 0.010549 -0.002233 -0.002254 -0.000146 -0.003936
# 3 0.000603 -0.002233 0.017262 -0.011041 0.011601 -0.002194
# 4 -0.003893 -0.002254 -0.011041 0.039442 -0.008538 0.003644
# 5 0.005917 -0.000146 0.011601 -0.008538 0.047504 -0.011042
# 6 -0.007249 -0.003936 -0.002194 0.003644 -0.011042 0.027487
#
#
# Mechanical properties :
#
#
# Convention : Reuss Voigt Hill
#
# Bulk Modulus (GPa) = 31.92731 64.07397 48.00064
# Shear Modulus (GPa) = 29.71055 41.23562 35.47309
#
# Velocity S-wave (km/s) = 3.40206 4.00796 3.71738
# Velocity P-wave (km/s) = 5.27917 6.81021 6.09297
#
# Compressibility (1/GPa) = 0.03132115
#
# Stress axis : x y z
#
# Youngs Moduli (GPa) = 104.62489 94.79725 57.92935
#
# Poissons Ratio (x) = 0.13215 -0.03492
# Poissons Ratio (y) = 0.14585 0.12935
# Poissons Ratio (z) = -0.06307 0.21167
#
# Static dielectric constant tensor:
#      x y z
#    x 2.077740 -0.062440 0.065990 
#    y -0.062440 2.294930 -0.021710 
#    z 0.065990 -0.021710 2.068800 
# 
# From -- ./inp_files/279949.got.cif
#   From: 2010.05.17/outbox.cif.g08.bks.cpg/sg2_140_cif.got.tgz:279949.got - 2010.06.03 11:33:40.
