data_PCOD9033403
_publ_section_title
;
Structure prediction by ZEFSAII (Michael W. Deem and Ramdas Pophale) SiO2 
 PCOD9033403
Probable space group: P -1
;
_chemical_formula_sum "Si O2"
_cell_formula_units_Z 15
_cell_length_a 10.798852
_cell_length_b 7.989812
_cell_length_c 17.415393
_cell_angle_alpha 132.799963
_cell_angle_beta 146.916807
_cell_angle_gamma 48.340090
_cell_volume 584.485038
_symmetry_space_group_name_H-M "P -1"
_symmetry_group_IT_number 2
_symmetry_cell_setting 'triclinic'
loop_
_space_group_symop_operation_xyz
x,y,z
-x,-y,-z
loop_
_atom_site_type_symbol
_atom_site_label
_atom_site_fract_x
_atom_site_fract_y
_atom_site_fract_z
Si Si1 0.024951 0.486575 0.872511
Si Si2 0.634134 0.747939 0.456257
Si Si3 0.755746 0.473480 0.589310
Si Si4 0.571839 0.301482 0.069154
Si Si5 0.472745 0.171065 0.812278
Si Si6 0.005968 0.018743 0.268008
Si Si7 0.206046 0.833764 0.162464
Si Si8 0.000000 0.000000 0.500000
O O1 0.927684 0.259084 0.770224
O O2 0.898295 0.589324 0.760853
O O3 0.299749 0.381705 0.971361
O O4 0.023941 0.680589 0.996950
O O5 0.717777 0.568439 0.512255
O O6 0.445692 0.684569 0.282121
O O7 0.500000 0.000000 0.500000
O O8 0.859937 0.823720 0.562457
O O9 0.500000 0.500000 0.500000
O O10 0.912787 0.212212 0.581757
O O11 0.645237 0.549370 0.175501
O O12 0.733616 0.139455 0.164721
O O13 0.582547 0.168130 0.952460
O O14 0.678256 0.095663 0.832826
O O15 0.274790 0.029886 0.659174
O O16 0.085201 0.025645 0.221936
#
# Coordination Sequence:
#
# PCOD9033403 Si02
#       8
#     2   2   2   2   2   2   2   1
#     4  11  24  47  70 103 144 188 241 302 366 440
#     4  10  24  46  70 106 144 189 244 304 369 435
#     4  12  27  48  78 105 152 196 244 310 369 440
#     4  10  22  44  67  98 148 185 236 301 369 426
#     4  10  23  42  66  98 146 179 238 298 356 433
#     4  11  23  40  73 102 140 187 246 298 370 434
#     4  10  24  43  70 100 145 181 247 299 366 435
#     4  12  26  44  70 112 144 188 250 298 364 444
#
# _framework density 25.663616000000001
#
# number of rings (size 3 to 8) (size 9 to 14) (size 15 to 20)
#    0.000    1.333    1.333    3.200    9.333    2.667 
#    4.800    3.333    0.000    0.000    0.000    0.000 
#    0.000    0.000    0.000    0.000    0.000    0.000 
#
# Total GULP energy -83647.650823 kJ/mol
# GULP energy per Si atom -5576.510055 kJ/mol
# Density = 2.560520 g / cm^3
# Si number density = 25.663616 Si / 1000 Ang^3
#
#
#
# Elastic Constant Matrix: (Units=GPa)
#
#
# Indices 1 2 3 4 5 6 
#
# 1 51.4226 8.0754 -9.3354 5.6589 3.1586 -10.6490
# 2 8.0754 44.6461 18.3929 5.4388 -5.2671 2.3721
# 3 -9.3354 18.3929 139.2465 14.1415 -7.0533 7.4987
# 4 5.6589 5.4388 14.1415 34.0554 -2.3900 2.6442
# 5 3.1586 -5.2671 -7.0533 -2.3900 38.0204 2.1308
# 6 -10.6490 2.3721 7.4987 2.6442 2.1308 40.6312
#
#
#
# Elastic Compliance Matrix: (Units=1/GPa)
#
#
# Indices 1 2 3 4 5 6 
#
# 1 0.022610 -0.005097 0.002169 -0.004528 -0.002818 0.006265
# 2 -0.005097 0.025354 -0.003250 -0.001438 0.003371 -0.002299
# 3 0.002169 -0.003250 0.008141 -0.003127 0.000716 -0.000578
# 4 -0.004528 -0.001438 -0.003127 0.031977 0.001758 -0.002699
# 5 -0.002818 0.003371 0.000716 0.001758 0.027393 -0.002618
# 6 0.006265 -0.002299 -0.000578 -0.002699 -0.002618 0.026808
#
#
# Mechanical properties :
#
#
# Convention : Reuss Voigt Hill
#
# Bulk Modulus (GPa) = 22.85778 29.95344 26.40561
# Shear Modulus (GPa) = 29.54697 37.08689 33.31693
#
# Velocity S-wave (km/s) = 3.39679 3.80559 3.60699
# Velocity P-wave (km/s) = 4.93054 5.56839 5.25914
#
# Compressibility (1/GPa) = 0.04374877
#
# Stress axis : x y z
#
# Youngs Moduli (GPa) = 44.22888 39.44110 122.83264
#
# Poissons Ratio (x) = 0.20102 -0.26639
# Poissons Ratio (y) = 0.22542 0.39922
# Poissons Ratio (z) = -0.09592 0.12819
#
# Static dielectric constant tensor:
#      x y z
#    x 2.063810 0.082700 0.071560 
#    y 0.082700 2.043520 0.019960 
#    z 0.071560 0.019960 2.104340 
# 
# From -- ./inp_files/566243.got.cif
#   From: 2010.05.17/outbox.cif.g08.bks.cpg/sg2_284_cif.got.tgz:566243.got - 2010.06.03 11:33:40.
