data_PCOD9033727
_publ_section_title
;
Structure prediction by ZEFSAII (Michael W. Deem and Ramdas Pophale) SiO2 
 PCOD9033727
Probable space group: P -1
;
_chemical_formula_sum "Si O2"
_cell_formula_units_Z 14
_cell_length_a 15.518439
_cell_length_b 21.186723
_cell_length_c 14.054830
_cell_angle_alpha 20.770242
_cell_angle_beta 30.175508
_cell_angle_gamma 21.534166
_cell_volume 601.008169
_symmetry_space_group_name_H-M "P -1"
_symmetry_group_IT_number 2
_symmetry_cell_setting 'triclinic'
loop_
_space_group_symop_operation_xyz
x,y,z
-x,-y,-z
loop_
_atom_site_type_symbol
_atom_site_label
_atom_site_fract_x
_atom_site_fract_y
_atom_site_fract_z
Si Si1 0.762062 0.897325 0.388950
Si Si2 0.156930 0.502249 0.240826
Si Si3 0.407734 0.741743 0.113361
Si Si4 0.642563 0.869657 0.278182
Si Si5 0.777716 0.793454 0.898540
Si Si6 0.049365 0.721772 0.556055
Si Si7 0.858038 0.282844 0.226847
O O1 0.889434 0.653041 0.550519
O O2 0.880807 0.842677 0.454074
O O3 0.500000 0.000000 0.500000
O O4 0.732930 0.096681 0.074610
O O5 0.340216 0.316682 0.409285
O O6 0.910069 0.732650 0.196318
O O7 0.232703 0.597526 0.959334
O O8 0.235048 0.748844 0.332809
O O9 0.640799 0.470855 0.240530
O O10 0.469313 0.885975 0.901161
O O11 0.491290 0.957118 0.204150
O O12 0.899400 0.813016 0.666779
O O13 0.934729 0.726540 0.932940
O O14 0.804839 0.564571 0.182436
O O15 0.000000 0.000000 0.500000
#
# Coordination Sequence:
#
# PCOD9033727 Si02
#       7
#     2   2   2   2   2   2   2
#     4  11  19  42  71  94 134 176 221 267 332 392
#     4  10  22  44  69  95 131 173 222 266 329 394
#     4  11  24  41  69  99 131 180 219 275 328 391
#     4  10  24  43  73  95 130 179 220 271 332 394
#     4  11  24  42  65  95 134 179 216 274 339 388
#     4  11  23  39  65 103 133 168 233 267 326 400
#     4  12  27  44  66  99 134 173 220 278 333 393
#
# _framework density 23.294193
#
# number of rings (size 3 to 8) (size 9 to 14) (size 15 to 20)
#    0.000    1.143    2.857    3.857    4.000    2.857 
#    0.000    2.143    0.000    0.000    0.000    0.000 
#    0.000    0.000    0.000    0.000    0.000    0.000 
#
# Total GULP energy -78259.309707 kJ/mol
# GULP energy per Si atom -5589.950693 kJ/mol
# Density = 2.324117 g / cm^3
# Si number density = 23.294193 Si / 1000 Ang^3
#
#
#
# Elastic Constant Matrix: (Units=GPa)
#
#
# Indices 1 2 3 4 5 6 
#
# 1 38.8440 3.1133 6.4835 -10.5573 24.4162 -16.7700
# 2 3.1133 74.9929 47.0050 -17.5336 -1.8447 -2.1665
# 3 6.4835 47.0050 120.2727 -2.7819 8.9742 -5.8587
# 4 -10.5573 -17.5336 -2.7819 40.9282 0.5698 1.6001
# 5 24.4162 -1.8447 8.9742 0.5698 31.8380 -11.3399
# 6 -16.7700 -2.1665 -5.8587 1.6001 -11.3399 34.0563
#
#
#
# Elastic Compliance Matrix: (Units=1/GPa)
#
#
# Indices 1 2 3 4 5 6 
#
# 1 0.065733 -0.000033 0.001039 0.016984 -0.045044 0.016749
# 2 -0.000033 0.020346 -0.007994 0.008087 0.003566 0.000710
# 3 0.001039 -0.007994 0.011681 -0.002331 -0.004260 0.000704
# 4 0.016984 0.008087 -0.002331 0.032153 -0.011339 0.003191
# 5 -0.045044 0.003566 -0.004260 -0.011339 0.067702 0.000389
# 6 0.016749 0.000710 0.000704 0.003191 0.000389 0.037756
#
#
# Mechanical properties :
#
#
# Convention : Reuss Voigt Hill
#
# Bulk Modulus (GPa) = 11.93556 38.59034 25.26295
# Shear Modulus (GPa) = 18.03263 33.19834 25.61548
#
# Velocity S-wave (km/s) = 2.78533 3.77925 3.31970
# Velocity P-wave (km/s) = 3.93434 5.97043 5.05594
#
# Compressibility (1/GPa) = 0.08378328
#
# Stress axis : x y z
#
# Youngs Moduli (GPa) = 15.21298 49.15084 85.60967
#
# Poissons Ratio (x) = 0.00164 -0.08897
# Poissons Ratio (y) = 0.00051 0.68437
# Poissons Ratio (z) = -0.01581 0.39292
#
# Static dielectric constant tensor:
#      x y z
#    x 1.936190 0.038880 0.004390 
#    y 0.038880 1.895110 -0.015780 
#    z 0.004390 -0.015780 1.907610 
# 
# From -- ./inp_files/174899.got.cif
#   From: 2010.05.17/outbox.cif.g08.bks.cpg/sg2_88_cif.got.tgz:174899.got - 2010.06.03 11:33:40.
