data_PCOD9033972
_publ_section_title
;
Structure prediction by ZEFSAII (Michael W. Deem and Ramdas Pophale) SiO2 
 PCOD9033972
Probable space group: P -1
;
_chemical_formula_sum "Si O2"
_cell_formula_units_Z 14
_cell_length_a 21.842032
_cell_length_b 5.987813
_cell_length_c 8.374814
_cell_angle_alpha 55.723724
_cell_angle_beta 38.111923
_cell_angle_gamma 57.601541
_cell_volume 549.317477
_symmetry_space_group_name_H-M "P -1"
_symmetry_group_IT_number 2
_symmetry_cell_setting 'triclinic'
loop_
_space_group_symop_operation_xyz
x,y,z
-x,-y,-z
loop_
_atom_site_type_symbol
_atom_site_label
_atom_site_fract_x
_atom_site_fract_y
_atom_site_fract_z
Si Si1 0.778046 0.537963 0.977091
Si Si2 0.917998 0.039427 0.016603
Si Si3 0.619671 0.970433 0.255338
Si Si4 0.195592 0.449024 0.472044
Si Si5 0.921660 0.948336 0.548779
Si Si6 0.428023 0.788423 0.056736
Si Si7 0.630492 0.995016 0.582111
O O1 0.816208 0.249560 0.100704
O O2 0.789885 0.551250 0.753367
O O3 0.845372 0.750517 0.824195
O O4 0.668078 0.668139 0.215964
O O5 0.992045 0.181593 0.695429
O O6 0.879351 0.747942 0.225588
O O7 0.000000 0.000000 0.000000
O O8 0.638487 0.149602 0.991089
O O9 0.657592 0.051689 0.318240
O O10 0.500000 0.000000 0.500000
O O11 0.142035 0.760084 0.496581
O O12 0.300911 0.300729 0.394739
O O13 0.000000 0.000000 0.500000
O O14 0.510498 0.989690 0.815025
O O15 0.500000 0.500000 0.000000
O O16 0.367329 0.832362 0.328128
#
# Coordination Sequence:
#
# PCOD9033972 Si02
#       7
#     2   2   2   2   2   2   2
#     4  12  26  48  73 105 151 194 245 310 374 434
#     4  12  26  47  72 103 148 192 242 305 371 440
#     4  10  24  45  69 104 144 188 246 301 364 439
#     4  12  26  45  72 105 148 189 246 302 372 445
#     4  12  26  46  72 104 144 192 244 303 371 442
#     4  10  22  44  70  97 143 182 239 304 362 428
#     4  10  24  42  67 103 136 188 240 293 371 437
#
# _framework density 25.486173999999998
#
# number of rings (size 3 to 8) (size 9 to 14) (size 15 to 20)
#    0.000    0.857    4.286    1.714    6.000    2.857 
#    0.000    0.000    0.000    0.000    0.000    0.000 
#    0.000    0.000    0.000    0.000    0.000    0.000 
#
# Total GULP energy -77981.015032 kJ/mol
# GULP energy per Si atom -5570.072502 kJ/mol
# Density = 2.542817 g / cm^3
# Si number density = 25.486174 Si / 1000 Ang^3
#
#
#
# Elastic Constant Matrix: (Units=GPa)
#
#
# Indices 1 2 3 4 5 6 
#
# 1 145.5157 25.8435 31.2613 1.1996 32.1708 -34.3919
# 2 25.8435 131.7488 29.6557 4.3008 17.9317 -32.0862
# 3 31.2613 29.6557 105.9076 7.6574 3.0590 -2.8666
# 4 1.1996 4.3008 7.6574 54.2148 -0.3273 -7.6272
# 5 32.1708 17.9317 3.0590 -0.3273 64.3736 2.2289
# 6 -34.3919 -32.0862 -2.8666 -7.6272 2.2289 35.3242
#
#
#
# Elastic Compliance Matrix: (Units=1/GPa)
#
#
# Indices 1 2 3 4 5 6 
#
# 1 0.012570 0.003276 -0.004143 0.002229 -0.007534 0.015834
# 2 0.003276 0.012014 -0.003897 0.001526 -0.005291 0.014449
# 3 -0.004143 -0.003897 0.011640 -0.002252 0.002844 -0.007295
# 4 0.002229 0.001526 -0.002252 0.019670 -0.001599 0.007722
# 5 -0.007534 -0.005291 0.002844 -0.001599 0.021101 -0.013588
# 6 0.015834 0.014449 -0.007295 0.007722 -0.013588 0.058783
#
#
# Mechanical properties :
#
#
# Convention : Reuss Voigt Hill
#
# Bulk Modulus (GPa) = 37.45986 61.85480 49.65733
# Shear Modulus (GPa) = 32.42454 50.54329 41.48391
#
# Velocity S-wave (km/s) = 3.57072 4.45811 4.03886
# Velocity P-wave (km/s) = 5.63294 7.12897 6.42465
#
# Compressibility (1/GPa) = 0.02669524
#
# Stress axis : x y z
#
# Youngs Moduli (GPa) = 79.55453 83.23440 85.91370
#
# Poissons Ratio (x) = -0.27266 0.35591
# Poissons Ratio (y) = -0.26060 0.33485
# Poissons Ratio (z) = 0.32956 0.32441
#
# Static dielectric constant tensor:
#      x y z
#    x 1.954660 0.085650 0.067250 
#    y 0.085650 2.012430 -0.006020 
#    z 0.067250 -0.006020 2.075070 
# 
# From -- ./inp_files/350924.got.cif
#   From: 2010.05.17/outbox.cif.g08.bks.cpg/sg2_176_cif.got.tgz:350924.got - 2010.06.03 11:33:40.
