data_PCOD9033826
_publ_section_title
;
Structure prediction by ZEFSAII (Michael W. Deem and Ramdas Pophale) SiO2 
 PCOD9033826
Probable space group: P -1
;
_chemical_formula_sum "Si O2"
_cell_formula_units_Z 15
_cell_length_a 12.283771
_cell_length_b 18.478289
_cell_length_c 11.276052
_cell_angle_alpha 31.347070
_cell_angle_beta 40.324438
_cell_angle_gamma 29.449662
_cell_volume 652.885072
_symmetry_space_group_name_H-M "P -1"
_symmetry_group_IT_number 2
_symmetry_cell_setting 'triclinic'
loop_
_space_group_symop_operation_xyz
x,y,z
-x,-y,-z
loop_
_atom_site_type_symbol
_atom_site_label
_atom_site_fract_x
_atom_site_fract_y
_atom_site_fract_z
Si Si1 0.490152 0.904970 0.029628
Si Si2 0.048253 0.721609 0.340618
Si Si3 0.453501 0.438659 0.798881
Si Si4 0.496188 0.169491 0.508950
Si Si5 0.378029 0.918663 0.724867
Si Si6 0.148630 0.486753 0.794790
Si Si7 0.000000 0.500000 0.500000
Si Si8 0.244422 0.835407 0.482966
O O1 0.724922 0.702087 0.115401
O O2 0.306322 0.888017 0.237851
O O3 0.500000 0.000000 0.000000
O O4 0.468672 0.019970 0.775351
O O5 0.294083 0.647911 0.266865
O O6 0.007806 0.649399 0.591972
O O7 0.053240 0.618970 0.365827
O O8 0.848204 0.940239 0.209770
O O9 0.347909 0.466009 0.719475
O O10 0.296770 0.644817 0.691226
O O11 0.460983 0.283554 0.070087
O O12 0.650524 0.106951 0.354058
O O13 0.598004 0.189408 0.510637
O O14 0.250553 0.362197 0.428494
O O15 0.500000 0.000000 0.500000
O O16 0.000000 0.500000 0.000000
O O17 0.000000 0.000000 0.500000
#
# Coordination Sequence:
#
# PCOD9033826 Si02
#       8
#     2   2   2   2   2   2   1   2
#     4  10  22  44  70 101 143 188 252 303 364 443
#     4  12  25  49  73 109 149 202 248 319 378 455
#     4  12  27  48  72 111 152 195 254 319 379 450
#     4  11  24  46  71 103 145 201 249 306 376 460
#     4  12  26  47  73 107 149 194 257 305 387 461
#     4  12  26  44  77 106 147 197 255 311 375 451
#     4  12  24  46  78  98 160 196 250 302 390 458
#     4  11  26  46  72 110 151 192 252 318 382 440
#
# _framework density 22.974945999999999
#
# number of rings (size 3 to 8) (size 9 to 14) (size 15 to 20)
#    0.000    0.533    4.000    4.000    5.600    1.600 
#    2.400    0.000    0.000    0.000    0.000    0.000 
#    0.000    0.000    0.000    0.000    0.000    0.000 
#
# Total GULP energy -83558.009970 kJ/mol
# GULP energy per Si atom -5570.533998 kJ/mol
# Density = 2.292265 g / cm^3
# Si number density = 22.974946 Si / 1000 Ang^3
#
#
#
# Elastic Constant Matrix: (Units=GPa)
#
#
# Indices 1 2 3 4 5 6 
#
# 1 77.9139 12.4369 4.3242 -14.9765 -19.2414 9.3222
# 2 12.4369 134.2101 31.5678 -19.1826 -17.5732 -4.4449
# 3 4.3242 31.5678 102.9890 -26.5969 -6.6557 10.9250
# 4 -14.9765 -19.1826 -26.5969 36.4215 -1.3401 -8.8644
# 5 -19.2414 -17.5732 -6.6557 -1.3401 30.5931 3.9133
# 6 9.3222 -4.4449 10.9250 -8.8644 3.9133 30.0651
#
#
#
# Elastic Compliance Matrix: (Units=1/GPa)
#
#
# Indices 1 2 3 4 5 6 
#
# 1 0.018387 0.000496 0.002903 0.009033 0.013617 -0.005792
# 2 0.000496 0.009200 -0.001557 0.004708 0.005146 0.002491
# 3 0.002903 -0.001557 0.013154 0.009227 0.004684 -0.003799
# 4 0.009033 0.004708 0.009227 0.042143 0.011540 0.005466
# 5 0.013617 0.005146 0.004684 0.011540 0.046735 -0.007844
# 6 -0.005792 0.002491 -0.003799 0.005466 -0.007844 0.039438
#
#
# Mechanical properties :
#
#
# Convention : Reuss Voigt Hill
#
# Bulk Modulus (GPa) = 22.50994 45.75233 34.13114
# Shear Modulus (GPa) = 27.74986 37.20156 32.47571
#
# Velocity S-wave (km/s) = 3.47916 4.02832 3.76377
# Velocity P-wave (km/s) = 5.09492 6.44932 5.81171
#
# Compressibility (1/GPa) = 0.04442481
#
# Stress axis : x y z
#
# Youngs Moduli (GPa) = 54.38764 108.69078 76.02484
#
# Poissons Ratio (x) = -0.05386 -0.22072
# Poissons Ratio (y) = -0.02695 0.11834
# Poissons Ratio (z) = -0.15790 0.16919
#
# Static dielectric constant tensor:
#      x y z
#    x 1.892550 0.006630 0.011500 
#    y 0.006630 1.839150 0.043530 
#    z 0.011500 0.043530 1.945070 
# 
# From -- ./inp_files/437205.got.cif
#   From: 2010.05.17/outbox.cif.g08.bks.cpg/sg2_219_cif.got.tgz:437205.got - 2010.06.03 11:33:40.
