data_PCOD9033814
_publ_section_title
;
Structure prediction by ZEFSAII (Michael W. Deem and Ramdas Pophale) SiO2 
 PCOD9033814
Probable space group: P -1
;
_chemical_formula_sum "Si O2"
_cell_formula_units_Z 16
_cell_length_a 18.168759
_cell_length_b 8.291432
_cell_length_c 6.036735
_cell_angle_alpha 86.598636
_cell_angle_beta 47.603906
_cell_angle_gamma 90.968651
_cell_volume 668.412514
_symmetry_space_group_name_H-M "P -1"
_symmetry_group_IT_number 2
_symmetry_cell_setting 'triclinic'
loop_
_space_group_symop_operation_xyz
x,y,z
-x,-y,-z
loop_
_atom_site_type_symbol
_atom_site_label
_atom_site_fract_x
_atom_site_fract_y
_atom_site_fract_z
Si Si1 0.368413 0.847505 0.848596
Si Si2 0.912390 0.595748 0.778809
Si Si3 0.251311 0.302573 0.241854
Si Si4 0.983066 0.081250 0.280102
Si Si5 0.405522 0.193983 0.579978
Si Si6 0.382940 0.477323 0.282519
Si Si7 0.225852 0.956974 0.467452
Si Si8 0.756571 0.313658 0.216993
O O1 0.474932 0.775009 0.649354
O O2 0.278280 0.728141 0.955157
O O3 0.383473 0.000077 0.635165
O O4 0.331237 0.917077 0.149324
O O5 0.842449 0.664079 0.723147
O O6 0.956164 0.743675 0.831172
O O7 0.000000 0.500000 0.500000
O O8 0.840137 0.460181 0.059436
O O9 0.303789 0.455364 0.247649
O O10 0.222384 0.149566 0.471372
O O11 0.341794 0.248179 0.911234
O O12 0.864761 0.096051 0.508772
O O13 0.000000 0.000000 0.500000
O O14 0.000000 0.000000 0.000000
O O15 0.370485 0.306231 0.448735
O O16 0.345491 0.625732 0.481935
O O17 0.500000 0.500000 0.000000
O O18 0.209870 0.847626 0.724407
#
# Coordination Sequence:
#
# PCOD9033814 Si02
#       8
#     2   2   2   2   2   2   2   2
#     4  10  23  44  71 103 145 194 257 309 389 475
#     4  12  29  51  78 115 157 206 272 341 410 471
#     4  11  25  48  73 102 151 204 255 311 396 489
#     4  12  30  54  84 117 159 220 277 334 413 500
#     4  10  22  44  70 100 145 200 248 311 382 474
#     4  12  26  40  69 109 151 191 250 311 398 465
#     4  11  26  46  77 103 147 198 261 316 394 481
#     4  12  27  42  72 108 146 192 246 328 393 461
#
# _framework density 23.937313
#
# number of rings (size 3 to 8) (size 9 to 14) (size 15 to 20)
#    0.000    0.750    2.500    3.000   10.500    1.500 
#    0.000    5.000    0.000    0.000    0.000    0.000 
#    0.000    0.000    0.000    0.000    0.000    0.000 
#
# Total GULP energy -89365.212293 kJ/mol
# GULP energy per Si atom -5585.325768 kJ/mol
# Density = 2.388283 g / cm^3
# Si number density = 23.937313 Si / 1000 Ang^3
#
#
#
# Elastic Constant Matrix: (Units=GPa)
#
#
# Indices 1 2 3 4 5 6 
#
# 1 88.8638 53.3610 18.6625 -1.0710 14.2353 0.3934
# 2 53.3610 71.2309 49.0126 -4.0659 19.9947 -0.5439
# 3 18.6625 49.0126 88.8160 2.9824 -10.8733 -5.7967
# 4 -1.0710 -4.0659 2.9824 60.2106 -15.4560 -0.0048
# 5 14.2353 19.9947 -10.8733 -15.4560 33.0218 -6.5498
# 6 0.3934 -0.5439 -5.7967 -0.0048 -6.5498 54.6359
#
#
#
# Elastic Compliance Matrix: (Units=1/GPa)
#
#
# Indices 1 2 3 4 5 6 
#
# 1 0.026753 -0.036258 0.016670 0.001652 0.017337 0.003294
# 2 -0.036258 0.098000 -0.055411 -0.008914 -0.068680 -0.012877
# 3 0.016670 -0.055411 0.044347 0.006091 0.045706 0.009513
# 4 0.001652 -0.008914 0.006091 0.019981 0.016545 0.002531
# 5 0.017337 -0.068680 0.045706 0.016545 0.090134 0.014848
# 6 0.003294 -0.012877 0.009513 0.002531 0.014848 0.020941
#
#
# Mechanical properties :
#
#
# Convention : Reuss Voigt Hill
#
# Bulk Modulus (GPa) = 52.35743 54.55365 53.45554
# Shear Modulus (GPa) = 10.95237 38.09864 24.52550
#
# Velocity S-wave (km/s) = 2.14135 3.99381 3.20437
# Velocity P-wave (km/s) = 5.29472 6.64132 6.00588
#
# Compressibility (1/GPa) = 0.01909949
#
# Stress axis : x y z
#
# Youngs Moduli (GPa) = 37.37906 10.20409 22.54956
#
# Poissons Ratio (x) = 0.36998 -0.37589
# Poissons Ratio (y) = 1.35531 1.24950
# Poissons Ratio (z) = -0.62309 0.56542
#
# Static dielectric constant tensor:
#      x y z
#    x 1.919160 0.043560 0.075860 
#    y 0.043560 2.087720 0.076040 
#    z 0.075860 0.076040 2.028270 
# 
# From -- ./inp_files/106637.got.cif
#   From: 2010.05.17/outbox.cif.g08.bks.cpg/sg2_54_cif.got.tgz:106637.got - 2010.06.03 11:33:40.
