data_PCOD9033144
_publ_section_title
;
Structure prediction by ZEFSAII (Michael W. Deem and Ramdas Pophale) SiO2 
 PCOD9033144
Probable space group: P -1
;
_chemical_formula_sum "Si O2"
_cell_formula_units_Z 12
_cell_length_a 15.486857
_cell_length_b 15.535854
_cell_length_c 12.307382
_cell_angle_alpha 152.933018
_cell_angle_beta 26.238258
_cell_angle_gamma 154.001686
_cell_volume 516.751921
_symmetry_space_group_name_H-M "P -1"
_symmetry_group_IT_number 2
_symmetry_cell_setting 'triclinic'
loop_
_space_group_symop_operation_xyz
x,y,z
-x,-y,-z
loop_
_atom_site_type_symbol
_atom_site_label
_atom_site_fract_x
_atom_site_fract_y
_atom_site_fract_z
Si Si1 0.578980 0.835399 0.603320
Si Si2 0.990230 0.685822 0.792176
Si Si3 0.549924 0.871313 0.196404
Si Si4 0.655114 0.847954 0.283552
Si Si5 0.353254 0.543006 0.880971
Si Si6 0.204656 0.729682 0.063856
O O1 0.549477 0.781145 0.447832
O O2 0.598743 0.643281 0.421341
O O3 0.798434 0.065215 0.645092
O O4 0.361644 0.829599 0.893126
O O5 0.000000 0.500000 0.500000
O O6 0.860179 0.798342 0.005799
O O7 0.852799 0.571643 0.929037
O O8 0.230406 0.890846 0.783513
O O9 0.539124 0.755561 0.193558
O O10 0.341767 0.918678 0.467128
O O11 0.552881 0.724127 0.931989
O O12 0.313987 0.662444 0.961472
O O13 0.000000 0.500000 0.000000
#
# Coordination Sequence:
#
# PCOD9033144 Si02
#       6
#     2   2   2   2   2   2
#     4  10  24  44  69  96 137 172 231 285 336 411
#     4  11  25  40  67 105 141 185 231 269 338 423
#     4  11  23  42  71  96 150 181 218 292 334 410
#     4  10  22  44  66 103 140 180 225 274 344 410
#     4  11  25  45  66 104 134 178 232 275 350 410
#     4  11  25  45  70  97 130 177 231 289 340 404
#
# _framework density 23.221973999999999
#
# number of rings (size 3 to 8) (size 9 to 14) (size 15 to 20)
#    0.000    1.333    1.667    3.000    2.333    9.333 
#    0.000    0.000    0.000    0.000    0.000    0.000 
#    0.000    0.000    0.000    0.000    0.000    0.000 
#
# Total GULP energy -66895.754506 kJ/mol
# GULP energy per Si atom -5574.646209 kJ/mol
# Density = 2.316912 g / cm^3
# Si number density = 23.221974 Si / 1000 Ang^3
#
#
#
# Elastic Constant Matrix: (Units=GPa)
#
#
# Indices 1 2 3 4 5 6 
#
# 1 108.3816 37.1768 43.9950 14.1466 11.0207 -2.3604
# 2 37.1768 122.1307 27.0947 19.8358 6.3221 15.8635
# 3 43.9950 27.0947 95.6677 23.1858 -12.1306 4.3502
# 4 14.1466 19.8358 23.1858 45.6981 -8.7422 8.2907
# 5 11.0207 6.3221 -12.1306 -8.7422 35.7409 6.7804
# 6 -2.3604 15.8635 4.3502 8.2907 6.7804 38.0281
#
#
#
# Elastic Compliance Matrix: (Units=1/GPa)
#
#
# Indices 1 2 3 4 5 6 
#
# 1 0.013760 -0.002671 -0.006167 -0.002159 -0.007233 0.004434
# 2 -0.002671 0.010184 -0.001010 -0.002704 -0.001323 -0.003473
# 3 -0.006167 -0.001010 0.015456 -0.003812 0.006794 -0.002110
# 4 -0.002159 -0.002704 -0.003812 0.028294 0.007939 -0.006154
# 5 -0.007233 -0.001323 0.006794 0.007939 0.036378 -0.008891
# 6 0.004434 -0.003473 -0.002110 -0.006154 -0.008891 0.031189
#
#
# Mechanical properties :
#
#
# Convention : Reuss Voigt Hill
#
# Bulk Modulus (GPa) = 50.75241 60.30146 55.52694
# Shear Modulus (GPa) = 30.95485 38.42099 34.68792
#
# Velocity S-wave (km/s) = 3.65499 4.07198 3.86910
# Velocity P-wave (km/s) = 6.30196 6.93771 6.62746
#
# Compressibility (1/GPa) = 0.01970350
#
# Stress axis : x y z
#
# Youngs Moduli (GPa) = 72.67376 98.19311 64.69908
#
# Poissons Ratio (x) = 0.26231 0.39898
# Poissons Ratio (y) = 0.19414 0.06537
# Poissons Ratio (z) = 0.44816 0.09921
#
# Static dielectric constant tensor:
#      x y z
#    x 1.870150 0.021840 0.003440 
#    y 0.021840 1.951080 -0.019750 
#    z 0.003440 -0.019750 1.938470 
# 
# From -- ./inp_files/455159.got.cif
#   From: 2010.05.17/outbox.cif.g08.bks.cpg/sg2_228_cif.got.tgz:455159.got - 2010.06.03 11:33:40.
