data_PCOD9033580
_publ_section_title
;
Structure prediction by ZEFSAII (Michael W. Deem and Ramdas Pophale) SiO2 
 PCOD9033580
Probable space group: P -1
;
_chemical_formula_sum "Si O2"
_cell_formula_units_Z 14
_cell_length_a 19.973463
_cell_length_b 5.341876
_cell_length_c 9.023130
_cell_angle_alpha 101.629631
_cell_angle_beta 41.211932
_cell_angle_gamma 112.210031
_cell_volume 581.796427
_symmetry_space_group_name_H-M "P -1"
_symmetry_group_IT_number 2
_symmetry_cell_setting 'triclinic'
loop_
_space_group_symop_operation_xyz
x,y,z
-x,-y,-z
loop_
_atom_site_type_symbol
_atom_site_label
_atom_site_fract_x
_atom_site_fract_y
_atom_site_fract_z
Si Si1 0.668464 0.705167 0.857142
Si Si2 0.137757 0.132924 0.630836
Si Si3 0.961141 0.105368 0.725764
Si Si4 0.264598 0.353108 0.935835
Si Si5 0.940767 0.588098 0.971078
Si Si6 0.377343 0.913569 0.636558
Si Si7 0.542291 0.191972 0.811584
O O1 0.763463 0.911935 0.623811
O O2 0.616122 0.470338 0.796797
O O3 0.714140 0.610932 0.917325
O O4 0.567984 0.796767 0.077311
O O5 0.078875 0.256501 0.622416
O O6 0.148863 0.311118 0.782782
O O7 0.038372 0.853004 0.786207
O O8 0.910690 0.343133 0.871927
O O9 0.000000 0.000000 0.500000
O O10 0.861320 0.830428 0.906819
O O11 0.310990 0.636644 0.803652
O O12 0.329921 0.153800 0.762682
O O13 0.000000 0.500000 0.000000
O O14 0.386788 0.877766 0.440078
O O15 0.500000 0.000000 0.500000
O O16 0.500000 0.000000 0.000000
#
# Coordination Sequence:
#
# PCOD9033580 Si02
#       7
#     2   2   2   2   2   2   2
#     4  11  25  45  70 103 141 193 243 306 372 440
#     4  10  22  44  68  97 143 184 239 298 370 438
#     4  11  24  43  67 105 145 184 242 296 364 443
#     4  12  28  47  77 111 147 199 242 306 380 433
#     4   9  22  41  64  96 139 185 235 294 358 443
#     4  12  27  50  78 105 151 194 252 310 367 441
#     4  11  27  46  71 104 143 189 251 304 372 438
#
# _framework density 24.063400000000001
#
# number of rings (size 3 to 8) (size 9 to 14) (size 15 to 20)
#    0.000    1.143    2.857    1.286    8.000    6.286 
#    0.000    0.000    0.000    0.000    0.000    0.000 
#    0.000    0.000    0.000    0.000    0.000    0.000 
#
# Total GULP energy -78050.375108 kJ/mol
# GULP energy per Si atom -5575.026793 kJ/mol
# Density = 2.400863 g / cm^3
# Si number density = 24.063400 Si / 1000 Ang^3
#
#
#
# Elastic Constant Matrix: (Units=GPa)
#
#
# Indices 1 2 3 4 5 6 
#
# 1 69.0957 8.8529 33.8378 3.3082 5.3121 11.6798
# 2 8.8529 94.5845 52.7619 9.8334 -0.2911 7.3360
# 3 33.8378 52.7619 160.3419 13.3459 22.2513 17.7056
# 4 3.3082 9.8334 13.3459 48.1718 10.4046 4.2263
# 5 5.3121 -0.2911 22.2513 10.4046 35.2345 -1.9729
# 6 11.6798 7.3360 17.7056 4.2263 -1.9729 26.9797
#
#
#
# Elastic Compliance Matrix: (Units=1/GPa)
#
#
# Indices 1 2 3 4 5 6 
#
# 1 0.016886 0.000484 -0.002981 0.000288 -0.001059 -0.005608
# 2 0.000484 0.013496 -0.004874 -0.002249 0.003778 -0.000052
# 3 -0.002981 -0.004874 0.009765 0.000175 -0.006048 -0.004262
# 4 0.000288 -0.002249 0.000175 0.023032 -0.007184 -0.003761
# 5 -0.001059 0.003778 -0.006048 -0.007184 0.034909 0.007078
# 6 -0.005608 -0.000052 -0.004262 -0.003761 0.007078 0.043411
#
#
# Mechanical properties :
#
#
# Convention : Reuss Voigt Hill
#
# Bulk Modulus (GPa) = 39.36280 57.21415 48.28847
# Shear Modulus (GPa) = 30.35663 37.31516 33.83589
#
# Velocity S-wave (km/s) = 3.55565 3.94217 3.75389
# Velocity P-wave (km/s) = 5.76631 6.67450 6.23696
#
# Compressibility (1/GPa) = 0.02540470
#
# Stress axis : x y z
#
# Youngs Moduli (GPa) = 59.22094 74.09701 102.40576
#
# Poissons Ratio (x) = -0.03586 0.30523
# Poissons Ratio (y) = -0.02866 0.49917
# Poissons Ratio (z) = 0.17651 0.36118
#
# Static dielectric constant tensor:
#      x y z
#    x 1.809900 0.121700 -0.001310 
#    y 0.121700 1.947920 -0.053860 
#    z -0.001310 -0.053860 2.054170 
# 
# From -- ./inp_files/106573.got.cif
#   From: 2010.05.17/outbox.cif.g08.bks.cpg/sg2_54_cif.got.tgz:106573.got - 2010.06.03 11:33:40.
