data_PCOD9033362
_publ_section_title
;
Structure prediction by ZEFSAII (Michael W. Deem and Ramdas Pophale) SiO2 
 PCOD9033362
Probable space group: P -1
;
_chemical_formula_sum "Si O2"
_cell_formula_units_Z 12
_cell_length_a 15.352858
_cell_length_b 17.893268
_cell_length_c 11.993189
_cell_angle_alpha 22.354349
_cell_angle_beta 30.846454
_cell_angle_gamma 25.537974
_cell_volume 534.369432
_symmetry_space_group_name_H-M "P -1"
_symmetry_group_IT_number 2
_symmetry_cell_setting 'triclinic'
loop_
_space_group_symop_operation_xyz
x,y,z
-x,-y,-z
loop_
_atom_site_type_symbol
_atom_site_label
_atom_site_fract_x
_atom_site_fract_y
_atom_site_fract_z
Si Si1 0.583917 0.201888 0.002676
Si Si2 0.430294 0.794961 0.245340
Si Si3 0.795178 0.672670 0.162019
Si Si4 0.184415 0.726012 0.169169
Si Si5 0.822876 0.394598 0.108967
Si Si6 0.010151 0.720083 0.159316
O O1 0.578887 0.264410 0.790944
O O2 0.634615 0.307007 0.907998
O O3 0.341964 0.323575 0.117330
O O4 0.784396 0.937987 0.142219
O O5 0.657456 0.669215 0.220483
O O6 0.296633 0.723776 0.559081
O O7 0.339699 0.073055 0.979021
O O8 0.857207 0.457674 0.474261
O O9 0.005111 0.646836 0.935919
O O10 0.191988 0.689735 0.078627
O O11 0.000000 0.000000 0.000000
O O12 0.937602 0.274927 0.032811
O O13 0.000000 0.500000 0.500000
#
# Coordination Sequence:
#
# PCOD9033362 Si02
#       6
#     2   2   2   2   2   2
#     4  11  24  44  69 101 142 176 230 295 336 408
#     4  11  24  46  69 104 146 173 235 289 340 424
#     4  11  23  44  71 103 136 183 230 284 344 413
#     4  10  22  44  67  96 142 178 226 293 333 395
#     4  12  24  42  75 101 137 189 223 283 364 398
#     4  11  23  45  70  97 143 183 237 288 329 420
#
# _framework density 22.456374
#
# number of rings (size 3 to 8) (size 9 to 14) (size 15 to 20)
#    0.000    1.000    5.000    1.000    0.000    2.000 
#    0.000    1.667    0.000    0.000    0.000    0.000 
#    0.000    0.000    0.000    0.000    0.000    0.000 
#
# Total GULP energy -66849.073457 kJ/mol
# GULP energy per Si atom -5570.756121 kJ/mol
# Density = 2.240526 g / cm^3
# Si number density = 22.456374 Si / 1000 Ang^3
#
#
#
# Elastic Constant Matrix: (Units=GPa)
#
#
# Indices 1 2 3 4 5 6 
#
# 1 184.1117 32.5881 37.2427 13.6255 -11.7386 -30.3009
# 2 32.5881 91.8250 22.3068 -10.9907 -11.0558 -17.6177
# 3 37.2427 22.3068 67.9330 -10.9447 -5.2719 -9.8704
# 4 13.6255 -10.9907 -10.9447 30.4478 -13.7602 -0.0227
# 5 -11.7386 -11.0558 -5.2719 -13.7602 23.9202 4.0588
# 6 -30.3009 -17.6177 -9.8704 -0.0227 4.0588 41.0501
#
#
#
# Elastic Compliance Matrix: (Units=1/GPa)
#
#
# Indices 1 2 3 4 5 6 
#
# 1 0.007666 -0.002097 -0.004286 -0.007023 -0.002872 0.004008
# 2 -0.002097 0.015333 -0.000516 0.011744 0.012069 0.003722
# 3 -0.004286 -0.000516 0.020232 0.013407 0.009741 0.000524
# 4 -0.007023 0.011744 0.013407 0.063989 0.041921 -0.001030
# 5 -0.002872 0.012069 0.009741 0.041921 0.072533 -0.001747
# 6 0.004008 0.003722 0.000524 -0.001030 -0.001747 0.029215
#
#
# Mechanical properties :
#
#
# Convention : Reuss Voigt Hill
#
# Bulk Modulus (GPa) = 33.97565 58.68274 46.32919
# Shear Modulus (GPa) = 21.49847 35.86576 28.68212
#
# Velocity S-wave (km/s) = 3.09745 4.00075 3.57772
# Velocity P-wave (km/s) = 5.28723 6.89419 6.14348
#
# Compressibility (1/GPa) = 0.02943285
#
# Stress axis : x y z
#
# Youngs Moduli (GPa) = 130.44720 65.22081 49.42782
#
# Poissons Ratio (x) = 0.13675 0.21186
# Poissons Ratio (y) = 0.27351 0.02549
# Poissons Ratio (z) = 0.55912 0.03363
#
# Static dielectric constant tensor:
#      x y z
#    x 1.900680 -0.025540 -0.025040 
#    y -0.025540 1.877460 -0.048720 
#    z -0.025040 -0.048720 1.835640 
# 
# From -- ./inp_files/225894.got.cif
#   From: 2010.05.17/outbox.cif.g08.bks.cpg/sg2_113_cif.got.tgz:225894.got - 2010.06.03 11:33:40.
