data_PCOD9033765
_publ_section_title
;
Structure prediction by ZEFSAII (Michael W. Deem and Ramdas Pophale) SiO2 
 PCOD9033765
Probable space group: P -1
;
_chemical_formula_sum "Si O2"
_cell_formula_units_Z 16
_cell_length_a 16.730945
_cell_length_b 9.011181
_cell_length_c 8.293393
_cell_angle_alpha 49.056068
_cell_angle_beta 110.967442
_cell_angle_gamma 127.203290
_cell_volume 750.723784
_symmetry_space_group_name_H-M "P -1"
_symmetry_group_IT_number 2
_symmetry_cell_setting 'triclinic'
loop_
_space_group_symop_operation_xyz
x,y,z
-x,-y,-z
loop_
_atom_site_type_symbol
_atom_site_label
_atom_site_fract_x
_atom_site_fract_y
_atom_site_fract_z
Si Si1 0.388907 0.717695 0.936869
Si Si2 0.732087 0.073676 0.210109
Si Si3 0.264648 0.181845 0.913586
Si Si4 0.090703 0.625499 0.641282
Si Si5 0.578971 0.872750 0.753599
Si Si6 0.061259 0.875663 0.170775
Si Si7 0.423298 0.360225 0.399384
Si Si8 0.737467 0.389465 0.393539
O O1 0.351033 0.854159 0.917806
O O2 0.492331 0.858068 0.812355
O O3 0.305387 0.607614 0.815978
O O4 0.396397 0.532904 0.176857
O O5 0.835769 0.261638 0.234901
O O6 0.749744 0.992976 0.112072
O O7 0.676162 0.858666 0.444732
O O8 0.261475 0.394897 0.680830
O O9 0.367911 0.245315 0.031960
O O10 0.173664 0.049599 0.067163
O O11 0.064602 0.800089 0.411377
O O12 0.156463 0.585258 0.582668
O O13 0.995236 0.372449 0.783963
O O14 0.541092 0.742495 0.646539
O O15 0.663100 0.139545 0.592778
O O16 0.000000 0.000000 0.000000
O O17 0.500000 0.500000 0.500000
#
# Coordination Sequence:
#
# PCOD9033765 Si02
#       8
#     2   2   2   2   2   2   2   2
#     4  11  25  43  66  92 131 190 221 266 333 382
#     4  11  27  45  62 101 143 171 223 281 325 389
#     4  12  25  42  70 100 132 178 222 272 338 393
#     4  10  22  44  69  98 132 165 219 280 331 394
#     4  12  24  44  67  96 137 180 229 273 322 400
#     4  11  22  42  75 100 124 172 223 267 337 409
#     4  12  25  40  62  97 134 175 229 278 319 383
#     4  11  22  41  70  95 127 176 225 266 326 395
#
# _framework density 21.312767000000001
#
# number of rings (size 3 to 8) (size 9 to 14) (size 15 to 20)
#    0.000    0.750    6.250    1.500    1.750    3.500 
#    0.000    0.625    0.000    0.000    0.000    0.000 
#    0.000    0.000    0.000    0.000    0.000    0.000 
#
# Total GULP energy -89450.429086 kJ/mol
# GULP energy per Si atom -5590.651818 kJ/mol
# Density = 2.126426 g / cm^3
# Si number density = 21.312767 Si / 1000 Ang^3
#
#
#
# Elastic Constant Matrix: (Units=GPa)
#
#
# Indices 1 2 3 4 5 6 
#
# 1 52.8518 -5.9327 -1.1786 -17.2999 39.1096 -1.5221
# 2 -5.9327 48.8751 -16.9248 -21.4229 17.2502 1.7464
# 3 -1.1786 -16.9248 82.4899 -30.3256 37.1010 -0.1078
# 4 -17.2999 -21.4229 -30.3256 17.8424 19.3434 3.2519
# 5 39.1096 17.2502 37.1010 19.3434 18.0482 -7.0889
# 6 -1.5221 1.7464 -0.1078 3.2519 -7.0889 34.4745
#
#
#
# Elastic Compliance Matrix: (Units=1/GPa)
#
#
# Indices 1 2 3 4 5 6 
#
# 1 0.012487 -0.006227 -0.006214 -0.009924 0.003269 0.002456
# 2 -0.006227 0.014153 -0.002479 -0.003307 0.009071 0.001177
# 3 -0.006214 -0.002479 0.007083 -0.004224 0.006429 0.001594
# 4 -0.009924 -0.003307 -0.004224 0.014124 0.019119 0.002315
# 5 0.003269 0.009071 0.006429 0.019119 0.005573 -0.000953
# 6 0.002456 0.001177 0.001594 0.002315 -0.000953 0.028646
#
#
# Mechanical properties :
#
#
# Convention : Reuss Voigt Hill
#
# Bulk Modulus (GPa) = 257.69418 15.12719 136.41068
# Shear Modulus (GPa) = 44.16908 27.95655 36.06282
#
# Velocity S-wave (km/s) = 4.55733 3.62571 4.11795
# Velocity P-wave (km/s) = 12.20105 4.96395 9.31414
#
# Compressibility (1/GPa) = 0.00388057
#
# Stress axis : x y z
#
# Youngs Moduli (GPa) = 80.08448 70.65751 141.18451
#
# Poissons Ratio (x) = 0.44001 0.87738
# Poissons Ratio (y) = 0.49872 0.35001
# Poissons Ratio (z) = 0.49768 0.17517
#
# Static dielectric constant tensor:
#      x y z
#    x 1.793660 -0.031480 0.034640 
#    y -0.031480 1.822710 -0.013460 
#    z 0.034640 -0.013460 1.776210 
# 
# From -- ./inp_files/328468.got.cif
#   From: 2010.05.17/outbox.cif.g08.bks.cpg/sg2_165_cif.got.tgz:328468.got - 2010.06.03 11:33:40.
