data_PCOD9033824
_publ_section_title
;
Structure prediction by ZEFSAII (Michael W. Deem and Ramdas Pophale) SiO2 
 PCOD9033824
Probable space group: P -1
;
_chemical_formula_sum "Si O2"
_cell_formula_units_Z 14
_cell_length_a 19.576012
_cell_length_b 8.530552
_cell_length_c 15.113816
_cell_angle_alpha 33.378246
_cell_angle_beta 149.706149
_cell_angle_gamma 146.165032
_cell_volume 643.489851
_symmetry_space_group_name_H-M "P -1"
_symmetry_group_IT_number 2
_symmetry_cell_setting 'triclinic'
loop_
_space_group_symop_operation_xyz
x,y,z
-x,-y,-z
loop_
_atom_site_type_symbol
_atom_site_label
_atom_site_fract_x
_atom_site_fract_y
_atom_site_fract_z
Si Si1 0.575092 0.172303 0.093795
Si Si2 0.489726 0.157828 0.633881
Si Si3 0.311188 0.132406 0.094909
Si Si4 0.663649 0.097552 0.593083
Si Si5 0.039180 0.791926 0.842465
Si Si6 0.045170 0.358261 0.360150
Si Si7 0.085786 0.718482 0.571353
O O1 0.746278 0.230197 0.253778
O O2 0.521421 0.994433 0.210271
O O3 0.571755 0.513265 0.940684
O O4 0.500000 0.000000 0.000000
O O5 0.500000 0.500000 0.500000
O O6 0.623737 0.108427 0.757613
O O7 0.361584 0.009485 0.486438
O O8 0.265562 0.055762 0.182539
O O9 0.176638 0.071534 0.906884
O O10 0.782472 0.450217 0.556971
O O11 0.500000 0.000000 0.500000
O O12 0.055272 0.653090 0.830921
O O13 0.923631 0.949153 0.617793
O O14 0.000000 0.500000 0.000000
O O15 0.998439 0.461032 0.350539
O O16 0.000000 0.000000 0.500000
O O17 0.000000 0.500000 0.500000
#
# Coordination Sequence:
#
# PCOD9033824 Si02
#       7
#     2   2   2   2   2   2   2
#     4  12  27  47  71 107 145 193 247 305 363 439
#     4  11  26  44  71 101 144 191 243 298 372 434
#     4  11  24  45  70 102 142 187 245 303 361 438
#     4  10  22  44  70 101 142 187 238 301 368 430
#     4  11  23  43  71 101 139 186 240 295 366 431
#     4  10  23  40  69 103 136 188 241 292 362 436
#     4  11  24  45  70  98 146 186 241 298 365 428
#
# _framework density 21.756364999999999
#
# number of rings (size 3 to 8) (size 9 to 14) (size 15 to 20)
#    0.000    1.143    2.857    2.143    6.000    5.714 
#    0.000    1.429    0.000    0.000    0.000    0.000 
#    0.000    0.000    0.000    0.000    0.000    0.000 
#
# Total GULP energy -77988.599690 kJ/mol
# GULP energy per Si atom -5570.614264 kJ/mol
# Density = 2.170685 g / cm^3
# Si number density = 21.756365 Si / 1000 Ang^3
#
#
#
# Elastic Constant Matrix: (Units=GPa)
#
#
# Indices 1 2 3 4 5 6 
#
# 1 80.5872 25.4349 42.3560 13.6748 -45.8553 -20.2151
# 2 25.4349 128.6319 35.9322 11.5767 -24.1680 -25.7361
# 3 42.3560 35.9322 92.1852 4.5775 -25.2801 -15.3984
# 4 13.6748 11.5767 4.5775 56.3646 -5.9936 -10.8547
# 5 -45.8553 -24.1680 -25.2801 -5.9936 60.2821 9.1930
# 6 -20.2151 -25.7361 -15.3984 -10.8547 9.1930 43.1721
#
#
#
# Elastic Compliance Matrix: (Units=1/GPa)
#
#
# Indices 1 2 3 4 5 6 
#
# 1 0.028008 0.001453 -0.007351 -0.003331 0.017436 0.006809
# 2 0.001453 0.009876 -0.002851 -0.000925 0.003066 0.004665
# 3 -0.007351 -0.002851 0.015309 0.001227 -0.000298 0.000691
# 4 -0.003331 -0.000925 0.001227 0.019182 -0.000996 0.003361
# 5 0.017436 0.003066 -0.000298 -0.000996 0.030374 0.003167
# 6 0.006809 0.004665 0.000691 0.003361 0.003167 0.029549
#
#
# Mechanical properties :
#
#
# Convention : Reuss Voigt Hill
#
# Bulk Modulus (GPa) = 28.01486 56.53897 42.27691
# Shear Modulus (GPa) = 30.92236 45.14250 38.03243
#
# Velocity S-wave (km/s) = 3.77411 4.56006 4.18557
# Velocity P-wave (km/s) = 5.64769 7.33275 6.54468
#
# Compressibility (1/GPa) = 0.03569534
#
# Stress axis : x y z
#
# Youngs Moduli (GPa) = 35.70358 101.25637 65.31935
#
# Poissons Ratio (x) = -0.14715 0.48018
# Poissons Ratio (y) = -0.05189 0.18624
# Poissons Ratio (z) = 0.26247 0.28871
#
# Static dielectric constant tensor:
#      x y z
#    x 1.921790 -0.039330 0.023950 
#    y -0.039330 1.848070 0.009760 
#    z 0.023950 0.009760 1.849160 
# 
# From -- ./inp_files/540380.got.cif
#   From: 2010.05.17/outbox.cif.g08.bks.cpg/sg2_271_cif.got.tgz:540380.got - 2010.06.03 11:33:40.
