data_PCOD9033934
_publ_section_title
;
Structure prediction by ZEFSAII (Michael W. Deem and Ramdas Pophale) SiO2 
 PCOD9033934
Probable space group: P -1
;
_chemical_formula_sum "Si O2"
_cell_formula_units_Z 15
_cell_length_a 20.358269
_cell_length_b 5.243310
_cell_length_c 14.444446
_cell_angle_alpha 91.750713
_cell_angle_beta 158.653099
_cell_angle_gamma 85.435476
_cell_volume 555.433093
_symmetry_space_group_name_H-M "P -1"
_symmetry_group_IT_number 2
_symmetry_cell_setting 'triclinic'
loop_
_space_group_symop_operation_xyz
x,y,z
-x,-y,-z
loop_
_atom_site_type_symbol
_atom_site_label
_atom_site_fract_x
_atom_site_fract_y
_atom_site_fract_z
Si Si1 0.235269 0.561673 0.338310
Si Si2 0.350376 0.815727 0.645466
Si Si3 0.161195 0.678955 0.568314
Si Si4 0.170609 0.981821 0.941242
Si Si5 0.623112 0.725361 0.652520
Si Si6 0.000000 0.500000 0.500000
Si Si7 0.293492 0.973235 0.909587
Si Si8 0.996602 0.785076 0.873110
O O1 0.290286 0.332941 0.335550
O O2 0.100478 0.463338 0.235518
O O3 0.397005 0.639970 0.613580
O O4 0.126136 0.783731 0.133533
O O5 0.169542 0.997280 0.372236
O O6 0.311082 0.657383 0.684535
O O7 0.514016 0.977620 0.878418
O O8 0.862250 0.218397 0.025166
O O9 0.220420 0.744021 0.752715
O O10 0.024202 0.920059 0.357382
O O11 0.955201 0.538572 0.555868
O O12 0.303815 0.901020 0.030236
O O13 0.231499 0.225237 0.078365
O O14 0.500000 0.500000 0.500000
O O15 0.500000 0.000000 0.500000
O O16 0.153343 0.236681 0.719646
#
# Coordination Sequence:
#
# PCOD9033934 Si02
#       8
#     2   2   2   2   2   1   2   2
#     4  11  26  44  74 106 151 196 251 312 382 464
#     4  11  25  45  73 108 148 195 252 309 395 450
#     4  10  24  45  71 104 138 193 252 311 378 456
#     4  10  23  45  73 102 144 201 249 305 386 452
#     4  12  28  49  74 117 159 198 257 322 387 465
#     4  10  22  44  70  94 144 176 252 306 382 434
#     4  11  24  46  70 104 145 192 252 319 378 453
#     4  10  25  44  74 104 149 195 257 302 381 461
#
# _framework density 27.005953000000002
#
# number of rings (size 3 to 8) (size 9 to 14) (size 15 to 20)
#    0.000    1.333    0.000    4.000   13.067    4.800 
#   19.200    0.000    0.000    0.000    0.000    0.000 
#    0.000    0.000    0.000    0.000    0.000    0.000 
#
# Total GULP energy -83672.061347 kJ/mol
# GULP energy per Si atom -5578.137423 kJ/mol
# Density = 2.694449 g / cm^3
# Si number density = 27.005953 Si / 1000 Ang^3
#
#
#
# Elastic Constant Matrix: (Units=GPa)
#
#
# Indices 1 2 3 4 5 6 
#
# 1 179.1132 33.7846 26.1905 -13.3263 -26.4072 22.8099
# 2 33.7846 125.7685 29.4777 -3.2560 -10.6599 -11.1407
# 3 26.1905 29.4777 61.2884 4.6081 -14.0850 -16.5842
# 4 -13.3263 -3.2560 4.6081 35.4851 -5.7337 -7.8416
# 5 -26.4072 -10.6599 -14.0850 -5.7337 37.6470 -5.7815
# 6 22.8099 -11.1407 -16.5842 -7.8416 -5.7815 40.7922
#
#
#
# Elastic Compliance Matrix: (Units=1/GPa)
#
#
# Indices 1 2 3 4 5 6 
#
# 1 0.007674 -0.001357 -0.003433 0.002619 0.003333 -0.005082
# 2 -0.001357 0.009404 -0.003108 0.001501 0.001164 0.002517
# 3 -0.003433 -0.003108 0.024259 -0.000907 0.007465 0.011817
# 4 0.002619 0.001501 -0.000907 0.031944 0.007679 0.005806
# 5 0.003333 0.001164 0.007465 0.007679 0.034396 0.007840
# 6 -0.005082 0.002517 0.011817 0.005806 0.007840 0.035075
#
#
# Mechanical properties :
#
#
# Convention : Reuss Voigt Hill
#
# Bulk Modulus (GPa) = 39.14912 60.56397 49.85655
# Shear Modulus (GPa) = 29.92883 41.23268 35.58076
#
# Velocity S-wave (km/s) = 3.33262 3.91167 3.63370
# Velocity P-wave (km/s) = 5.41631 6.54800 6.00886
#
# Compressibility (1/GPa) = 0.02554336
#
# Stress axis : x y z
#
# Youngs Moduli (GPa) = 130.30421 106.33273 41.22102
#
# Poissons Ratio (x) = 0.14427 0.14151
# Poissons Ratio (y) = 0.17679 0.12811
# Poissons Ratio (z) = 0.44733 0.33046
#
# Static dielectric constant tensor:
#      x y z
#    x 1.898740 -0.331090 -0.239730 
#    y -0.331090 1.838250 -0.261590 
#    z -0.239730 -0.261590 1.940680 
# 
# From -- ./inp_files/109218.got.cif
#   From: 2010.05.17/outbox.cif.g08.bks.cpg/sg2_55_cif.got.tgz:109218.got - 2010.06.03 11:33:40.
